MODEL 1
REMARK minimizedAffinity 1.30301416
REMARK minimizedRMSD -1
REMARK  0 active torsions:
REMARK  status: ('A' for Active; 'I' for Inactive)
ROOT
ATOM      1  C   UNL d   1       2.266   3.614   1.148  0.00  0.00     0.124 A 
ATOM      2  C1  UNL d   1       2.637   2.462   0.469  0.00  0.00     0.062 A 
ATOM      3  C2  UNL d   1       1.694   1.475   0.198  0.00  0.00     0.162 A 
ATOM      4  C3  UNL d   1       0.370   1.637   0.604  0.00  0.00    -0.034 A 
ATOM      5  C4  UNL d   1       0.004   2.798   1.287  0.00  0.00     0.162 A 
ATOM      6  C5  UNL d   1       0.950   3.781   1.556  0.00  0.00     0.062 A 
ATOM      7  F   UNL d   1       0.590   4.894   2.212  0.00  0.00    -0.097 F 
ATOM      8  F1  UNL d   1      -1.261   2.985   1.691  0.00  0.00    -0.096 F 
ATOM      9  I   UNL d   1      -1.044   0.163   0.199  0.00  0.00    -0.060 I 
ATOM     10  F2  UNL d   1       2.081   0.372  -0.460  0.00  0.00    -0.096 F 
ATOM     11  F3  UNL d   1       3.908   2.298   0.075  0.00  0.00    -0.097 F 
ATOM     12  F4  UNL d   1       3.176   4.562   1.409  0.00  0.00    -0.092 F 
ENDROOT
TORSDOF 0
ENDMDL
