MODEL 1
REMARK minimizedAffinity 3.5773747
REMARK minimizedRMSD -1
REMARK  0 active torsions:
REMARK  status: ('A' for Active; 'I' for Inactive)
ROOT
ATOM      1  C   UNL d   1       1.044   0.302  -0.725  0.00  0.00     0.124 A 
ATOM      2  C1  UNL d   1       0.769  -0.484  -1.835  0.00  0.00     0.062 A 
ATOM      3  C2  UNL d   1      -0.203  -1.478  -1.766  0.00  0.00     0.162 A 
ATOM      4  C3  UNL d   1      -0.908  -1.691  -0.582  0.00  0.00    -0.034 A 
ATOM      5  C4  UNL d   1      -0.625  -0.898   0.531  0.00  0.00     0.162 A 
ATOM      6  C5  UNL d   1       0.347   0.094   0.457  0.00  0.00     0.062 A 
ATOM      7  F   UNL d   1       0.611   0.853   1.531  0.00  0.00    -0.097 F 
ATOM      8  F1  UNL d   1      -1.285  -1.076   1.685  0.00  0.00    -0.096 F 
ATOM      9  I   UNL d   1      -2.362  -3.177  -0.475  0.00  0.00    -0.060 I 
ATOM     10  F2  UNL d   1      -0.448  -2.222  -2.855  0.00  0.00    -0.096 F 
ATOM     11  F3  UNL d   1       1.442  -0.286  -2.978  0.00  0.00    -0.097 F 
ATOM     12  F4  UNL d   1       1.980   1.257  -0.794  0.00  0.00    -0.092 F 
ENDROOT
TORSDOF 0
ENDMDL
