MODEL 1
REMARK minimizedAffinity 12.813261
REMARK minimizedRMSD -1
REMARK  0 active torsions:
REMARK  status: ('A' for Active; 'I' for Inactive)
ROOT
ATOM      1  C   UNL d   1       1.327   0.509  -1.315  0.00  0.00     0.124 A 
ATOM      2  C1  UNL d   1       0.895  -0.552  -2.099  0.00  0.00     0.062 A 
ATOM      3  C2  UNL d   1      -0.063  -1.437  -1.612  0.00  0.00     0.162 A 
ATOM      4  C3  UNL d   1      -0.597  -1.263  -0.335  0.00  0.00    -0.034 A 
ATOM      5  C4  UNL d   1      -0.157  -0.194   0.447  0.00  0.00     0.162 A 
ATOM      6  C5  UNL d   1       0.801   0.687  -0.044  0.00  0.00     0.062 A 
ATOM      7  F   UNL d   1       1.217   1.712   0.715  0.00  0.00    -0.097 F 
ATOM      8  F1  UNL d   1      -0.650   0.002   1.679  0.00  0.00    -0.096 F 
ATOM      9  I   UNL d   1      -2.031  -2.583   0.396  0.00  0.00    -0.060 I 
ATOM     10  F2  UNL d   1      -0.462  -2.453  -2.391  0.00  0.00    -0.096 F 
ATOM     11  F3  UNL d   1       1.403  -0.727  -3.327  0.00  0.00    -0.097 F 
ATOM     12  F4  UNL d   1       2.250   1.358  -1.786  0.00  0.00    -0.092 F 
ENDROOT
TORSDOF 0
ENDMDL
