MODEL 1
REMARK minimizedAffinity 2.18806005
REMARK minimizedRMSD -1
REMARK  0 active torsions:
REMARK  status: ('A' for Active; 'I' for Inactive)
ROOT
ATOM      1  C   UNL d   1       0.668  -0.384  -2.145  0.00  0.00     0.124 A 
ATOM      2  C1  UNL d   1      -0.360  -1.268  -1.845  0.00  0.00     0.062 A 
ATOM      3  C2  UNL d   1      -1.079  -1.128  -0.661  0.00  0.00     0.162 A 
ATOM      4  C3  UNL d   1      -0.773  -0.101   0.231  0.00  0.00    -0.034 A 
ATOM      5  C4  UNL d   1       0.263   0.783  -0.077  0.00  0.00     0.162 A 
ATOM      6  C5  UNL d   1       0.978   0.640  -1.261  0.00  0.00     0.062 A 
ATOM      7  F   UNL d   1       1.971   1.494  -1.550  0.00  0.00    -0.097 F 
ATOM      8  F1  UNL d   1       0.583   1.782   0.759  0.00  0.00    -0.096 F 
ATOM      9  I   UNL d   1      -1.846   0.111   2.002  0.00  0.00    -0.060 I 
ATOM     10  F2  UNL d   1      -2.067  -1.996  -0.397  0.00  0.00    -0.096 F 
ATOM     11  F3  UNL d   1      -0.661  -2.258  -2.697  0.00  0.00    -0.097 F 
ATOM     12  F4  UNL d   1       1.359  -0.521  -3.284  0.00  0.00    -0.092 F 
ENDROOT
TORSDOF 0
ENDMDL
