MODEL 1
REMARK minimizedAffinity -2.80538344
REMARK minimizedRMSD -1
REMARK  0 active torsions:
REMARK  status: ('A' for Active; 'I' for Inactive)
ROOT
ATOM      1  C   UNL d   1      -1.095  -0.022   1.271  0.00  0.00     0.124 A 
ATOM      2  C1  UNL d   1      -0.692   0.888   0.304  0.00  0.00     0.062 A 
ATOM      3  C2  UNL d   1      -0.193   0.439  -0.915  0.00  0.00     0.162 A 
ATOM      4  C3  UNL d   1      -0.094  -0.928  -1.175  0.00  0.00    -0.034 A 
ATOM      5  C4  UNL d   1      -0.500  -1.838  -0.196  0.00  0.00     0.162 A 
ATOM      6  C5  UNL d   1      -0.999  -1.384   1.020  0.00  0.00     0.062 A 
ATOM      7  F   UNL d   1      -1.388  -2.265   1.954  0.00  0.00    -0.097 F 
ATOM      8  F1  UNL d   1      -0.419  -3.159  -0.413  0.00  0.00    -0.096 F 
ATOM      9  I   UNL d   1       0.653  -1.604  -2.996  0.00  0.00    -0.060 I 
ATOM     10  F2  UNL d   1       0.189   1.341  -1.832  0.00  0.00    -0.096 F 
ATOM     11  F3  UNL d   1      -0.783   2.204   0.544  0.00  0.00    -0.097 F 
ATOM     12  F4  UNL d   1      -1.574   0.413   2.443  0.00  0.00    -0.092 F 
ENDROOT
TORSDOF 0
ENDMDL
