MODEL 1
REMARK minimizedAffinity -3.37576222
REMARK minimizedRMSD -1
REMARK  0 active torsions:
REMARK  status: ('A' for Active; 'I' for Inactive)
ROOT
ATOM      1  C   UNL d   1      -1.131  -0.225   0.635  0.00  0.00     0.124 A 
ATOM      2  C1  UNL d   1      -0.760   0.444  -0.523  0.00  0.00     0.062 A 
ATOM      3  C2  UNL d   1      -0.373  -0.272  -1.653  0.00  0.00     0.162 A 
ATOM      4  C3  UNL d   1      -0.357  -1.667  -1.630  0.00  0.00    -0.034 A 
ATOM      5  C4  UNL d   1      -0.731  -2.333  -0.461  0.00  0.00     0.162 A 
ATOM      6  C5  UNL d   1      -1.116  -1.613   0.664  0.00  0.00     0.062 A 
ATOM      7  F   UNL d   1      -1.474  -2.261   1.782  0.00  0.00    -0.097 F 
ATOM      8  F1  UNL d   1      -0.727  -3.673  -0.405  0.00  0.00    -0.096 F 
ATOM      9  I   UNL d   1       0.220  -2.741  -3.316  0.00  0.00    -0.060 I 
ATOM     10  F2  UNL d   1      -0.020   0.401  -2.758  0.00  0.00    -0.096 F 
ATOM     11  F3  UNL d   1      -0.772   1.784  -0.554  0.00  0.00    -0.097 F 
ATOM     12  F4  UNL d   1      -1.501   0.466   1.720  0.00  0.00    -0.092 F 
ENDROOT
TORSDOF 0
ENDMDL
