MODEL 1
REMARK minimizedAffinity 0.91547966
REMARK minimizedRMSD -1
REMARK  0 active torsions:
REMARK  status: ('A' for Active; 'I' for Inactive)
ROOT
ATOM      1  C   UNL d   1      -0.874  -1.388   0.051  0.00  0.00     0.124 A 
ATOM      2  C1  UNL d   1      -0.705  -0.933   1.351  0.00  0.00     0.062 A 
ATOM      3  C2  UNL d   1      -0.098   0.296   1.590  0.00  0.00     0.162 A 
ATOM      4  C3  UNL d   1       0.345   1.081   0.525  0.00  0.00    -0.034 A 
ATOM      5  C4  UNL d   1       0.172   0.617  -0.780  0.00  0.00     0.162 A 
ATOM      6  C5  UNL d   1      -0.435  -0.613  -1.014  0.00  0.00     0.062 A 
ATOM      7  F   UNL d   1      -0.597  -1.050  -2.271  0.00  0.00    -0.097 F 
ATOM      8  F1  UNL d   1       0.586   1.346  -1.827  0.00  0.00    -0.096 F 
ATOM      9  I   UNL d   1       1.253   2.920   0.878  0.00  0.00    -0.060 I 
ATOM     10  F2  UNL d   1       0.053   0.710   2.857  0.00  0.00    -0.096 F 
ATOM     11  F3  UNL d   1      -1.127  -1.681   2.381  0.00  0.00    -0.097 F 
ATOM     12  F4  UNL d   1      -1.457  -2.571  -0.176  0.00  0.00    -0.092 F 
ENDROOT
TORSDOF 0
ENDMDL
