MODEL 1
REMARK minimizedAffinity -0.949475169
REMARK minimizedRMSD -1
REMARK  0 active torsions:
REMARK  status: ('A' for Active; 'I' for Inactive)
ROOT
ATOM      1  C   UNL d   1      -0.819  -2.138  -0.711  0.00  0.00     0.124 A 
ATOM      2  C1  UNL d   1      -0.352  -1.242  -1.663  0.00  0.00     0.062 A 
ATOM      3  C2  UNL d   1      -0.135   0.090  -1.324  0.00  0.00     0.162 A 
ATOM      4  C3  UNL d   1      -0.384   0.535  -0.025  0.00  0.00    -0.034 A 
ATOM      5  C4  UNL d   1      -0.854  -0.372   0.927  0.00  0.00     0.162 A 
ATOM      6  C5  UNL d   1      -1.069  -1.702   0.582  0.00  0.00     0.062 A 
ATOM      7  F   UNL d   1      -1.520  -2.567   1.503  0.00  0.00    -0.097 F 
ATOM      8  F1  UNL d   1      -1.103   0.022   2.184  0.00  0.00    -0.096 F 
ATOM      9  I   UNL d   1      -0.061   2.526   0.487  0.00  0.00    -0.060 I 
ATOM     10  F2  UNL d   1       0.316   0.934  -2.264  0.00  0.00    -0.096 F 
ATOM     11  F3  UNL d   1      -0.111  -1.661  -2.914  0.00  0.00    -0.097 F 
ATOM     12  F4  UNL d   1      -1.028  -3.419  -1.041  0.00  0.00    -0.092 F 
ENDROOT
TORSDOF 0
ENDMDL
