MODEL 1
REMARK minimizedAffinity -5.64154768
REMARK minimizedRMSD -1
REMARK  0 active torsions:
REMARK  status: ('A' for Active; 'I' for Inactive)
ROOT
ATOM      1  C   UNL d   1       0.064  -2.798  -0.857  0.00  0.00     0.124 A 
ATOM      2  C1  UNL d   1      -0.029  -2.294   0.433  0.00  0.00     0.062 A 
ATOM      3  C2  UNL d   1      -0.068  -0.919   0.646  0.00  0.00     0.162 A 
ATOM      4  C3  UNL d   1      -0.016  -0.038  -0.433  0.00  0.00    -0.034 A 
ATOM      5  C4  UNL d   1       0.078  -0.552  -1.728  0.00  0.00     0.162 A 
ATOM      6  C5  UNL d   1       0.117  -1.927  -1.936  0.00  0.00     0.062 A 
ATOM      7  F   UNL d   1       0.207  -2.411  -3.183  0.00  0.00    -0.097 F 
ATOM      8  F1  UNL d   1       0.131   0.268  -2.789  0.00  0.00    -0.096 F 
ATOM      9  I   UNL d   1      -0.074   2.019  -0.118  0.00  0.00    -0.060 I 
ATOM     10  F2  UNL d   1      -0.158  -0.461   1.904  0.00  0.00    -0.096 F 
ATOM     11  F3  UNL d   1      -0.080  -3.134   1.477  0.00  0.00    -0.097 F 
ATOM     12  F4  UNL d   1       0.102  -4.121  -1.060  0.00  0.00    -0.092 F 
ENDROOT
TORSDOF 0
ENDMDL
