MODEL 1
REMARK minimizedAffinity -1.36973906
REMARK minimizedRMSD -1
REMARK  0 active torsions:
REMARK  status: ('A' for Active; 'I' for Inactive)
ROOT
ATOM      1  C   UNL d   1      -0.275  -2.690  -0.659  0.00  0.00     0.124 A 
ATOM      2  C1  UNL d   1       0.084  -1.888  -1.733  0.00  0.00     0.062 A 
ATOM      3  C2  UNL d   1       0.318  -0.529  -1.545  0.00  0.00     0.162 A 
ATOM      4  C3  UNL d   1       0.194   0.038  -0.277  0.00  0.00    -0.034 A 
ATOM      5  C4  UNL d   1      -0.169  -0.775   0.799  0.00  0.00     0.162 A 
ATOM      6  C5  UNL d   1      -0.401  -2.133   0.606  0.00  0.00     0.062 A 
ATOM      7  F   UNL d   1      -0.749  -2.906   1.645  0.00  0.00    -0.097 F 
ATOM      8  F1  UNL d   1      -0.297  -0.263   2.032  0.00  0.00    -0.096 F 
ATOM      9  I   UNL d   1       0.543   2.070   0.008  0.00  0.00    -0.060 I 
ATOM     10  F2  UNL d   1       0.664   0.222  -2.602  0.00  0.00    -0.096 F 
ATOM     11  F3  UNL d   1       0.206  -2.424  -2.957  0.00  0.00    -0.097 F 
ATOM     12  F4  UNL d   1      -0.501  -3.997  -0.843  0.00  0.00    -0.092 F 
ENDROOT
TORSDOF 0
ENDMDL
