MODEL 1
REMARK minimizedAffinity -0.719781101
REMARK minimizedRMSD -1
REMARK  0 active torsions:
REMARK  status: ('A' for Active; 'I' for Inactive)
ROOT
ATOM      1  C   UNL d   1      -0.960  -2.248  -0.654  0.00  0.00     0.124 A 
ATOM      2  C1  UNL d   1      -1.121  -1.650   0.587  0.00  0.00     0.062 A 
ATOM      3  C2  UNL d   1      -0.681  -0.346   0.799  0.00  0.00     0.162 A 
ATOM      4  C3  UNL d   1      -0.075   0.368  -0.235  0.00  0.00    -0.034 A 
ATOM      5  C4  UNL d   1       0.085  -0.241  -1.481  0.00  0.00     0.162 A 
ATOM      6  C5  UNL d   1      -0.357  -1.544  -1.687  0.00  0.00     0.062 A 
ATOM      7  F   UNL d   1      -0.200  -2.121  -2.887  0.00  0.00    -0.097 F 
ATOM      8  F1  UNL d   1       0.663   0.417  -2.496  0.00  0.00    -0.096 F 
ATOM      9  I   UNL d   1       0.585   2.317   0.077  0.00  0.00    -0.060 I 
ATOM     10  F2  UNL d   1      -0.850   0.207   2.009  0.00  0.00    -0.096 F 
ATOM     11  F3  UNL d   1      -1.702  -2.329   1.587  0.00  0.00    -0.097 F 
ATOM     12  F4  UNL d   1      -1.383  -3.503  -0.855  0.00  0.00    -0.092 F 
ENDROOT
TORSDOF 0
ENDMDL
