MODEL 1
REMARK minimizedAffinity -4.7848835
REMARK minimizedRMSD -1
REMARK  0 active torsions:
REMARK  status: ('A' for Active; 'I' for Inactive)
ROOT
ATOM      1  C   UNL d   1      -0.514  -2.064  -0.574  0.00  0.00     0.124 A 
ATOM      2  C1  UNL d   1      -0.226  -1.256  -1.665  0.00  0.00     0.062 A 
ATOM      3  C2  UNL d   1       0.226   0.047  -1.472  0.00  0.00     0.162 A 
ATOM      4  C3  UNL d   1       0.392   0.550  -0.181  0.00  0.00    -0.034 A 
ATOM      5  C4  UNL d   1       0.099  -0.269   0.911  0.00  0.00     0.162 A 
ATOM      6  C5  UNL d   1      -0.352  -1.570   0.713  0.00  0.00     0.062 A 
ATOM      7  F   UNL d   1      -0.630  -2.349   1.768  0.00  0.00    -0.097 F 
ATOM      8  F1  UNL d   1       0.248   0.183   2.165  0.00  0.00    -0.096 F 
ATOM      9  I   UNL d   1       1.067   2.496   0.112  0.00  0.00    -0.060 I 
ATOM     10  F2  UNL d   1       0.497   0.805  -2.544  0.00  0.00    -0.096 F 
ATOM     11  F3  UNL d   1      -0.383  -1.730  -2.909  0.00  0.00    -0.097 F 
ATOM     12  F4  UNL d   1      -0.949  -3.316  -0.763  0.00  0.00    -0.092 F 
ENDROOT
TORSDOF 0
ENDMDL
