MODEL 1
REMARK minimizedAffinity -3.93114281
REMARK minimizedRMSD -1
REMARK  0 active torsions:
REMARK  status: ('A' for Active; 'I' for Inactive)
ROOT
ATOM      1  C   UNL d   1       1.865  -1.564  -0.088  0.00  0.00     0.078 C 
ATOM      2  C1  UNL d   1       0.599  -0.799   0.156  0.00  0.00    -0.077 A 
ATOM      3  C2  UNL d   1      -0.457  -1.364   0.883  0.00  0.00    -0.001 A 
ATOM      4  C3  UNL d   1      -1.633  -0.644   1.094  0.00  0.00     0.003 A 
ATOM      5  C4  UNL d   1      -1.767   0.644   0.580  0.00  0.00    -0.005 A 
ATOM      6  C5  UNL d   1      -0.723   1.214  -0.146  0.00  0.00     0.003 A 
ATOM      7  C6  UNL d   1       0.454   0.495  -0.359  0.00  0.00    -0.001 A 
ENDROOT
TORSDOF 0
ENDMDL
