MODEL 1
REMARK minimizedAffinity -3.00157976
REMARK minimizedRMSD -1
REMARK  0 active torsions:
REMARK  status: ('A' for Active; 'I' for Inactive)
ROOT
ATOM      1  C   UNL d   1      -1.038   0.380  -0.017  0.00  0.00     0.078 C 
ATOM      2  C1  UNL d   1       0.431   0.079  -0.045  0.00  0.00    -0.077 A 
ATOM      3  C2  UNL d   1       1.378   1.111  -0.049  0.00  0.00    -0.001 A 
ATOM      4  C3  UNL d   1       2.742   0.817  -0.086  0.00  0.00     0.003 A 
ATOM      5  C4  UNL d   1       3.171  -0.508  -0.120  0.00  0.00    -0.005 A 
ATOM      6  C5  UNL d   1       2.236  -1.541  -0.119  0.00  0.00     0.003 A 
ATOM      7  C6  UNL d   1       0.872  -1.249  -0.083  0.00  0.00    -0.001 A 
ENDROOT
TORSDOF 0
ENDMDL
