MODEL 1
REMARK minimizedAffinity -1.74107361
REMARK minimizedRMSD -1
REMARK  0 active torsions:
REMARK  status: ('A' for Active; 'I' for Inactive)
ROOT
ATOM      1  C   UNL d   1       2.949   1.488   0.149  0.00  0.00     0.078 C 
ATOM      2  C1  UNL d   1       1.938   0.408  -0.099  0.00  0.00    -0.077 A 
ATOM      3  C2  UNL d   1       2.331  -0.928  -0.247  0.00  0.00    -0.001 A 
ATOM      4  C3  UNL d   1       1.379  -1.920  -0.486  0.00  0.00     0.003 A 
ATOM      5  C4  UNL d   1       0.029  -1.588  -0.581  0.00  0.00    -0.005 A 
ATOM      6  C5  UNL d   1      -0.370  -0.261  -0.438  0.00  0.00     0.003 A 
ATOM      7  C6  UNL d   1       0.579   0.733  -0.198  0.00  0.00    -0.001 A 
ENDROOT
TORSDOF 0
ENDMDL
