MODEL 1
REMARK minimizedAffinity -2.7904222
REMARK minimizedRMSD -1
REMARK  0 active torsions:
REMARK  status: ('A' for Active; 'I' for Inactive)
ROOT
ATOM      1  C   UNL d   1       0.229  -0.402  -0.188  0.00  0.00     0.078 C 
ATOM      2  C1  UNL d   1      -1.167   0.026   0.152  0.00  0.00    -0.077 A 
ATOM      3  C2  UNL d   1      -1.572   0.175   1.484  0.00  0.00    -0.001 A 
ATOM      4  C3  UNL d   1      -2.878   0.564   1.785  0.00  0.00     0.003 A 
ATOM      5  C4  UNL d   1      -3.790   0.807   0.760  0.00  0.00    -0.005 A 
ATOM      6  C5  UNL d   1      -3.397   0.659  -0.568  0.00  0.00     0.003 A 
ATOM      7  C6  UNL d   1      -2.092   0.270  -0.872  0.00  0.00    -0.001 A 
ENDROOT
TORSDOF 0
ENDMDL
