MODEL 1
REMARK minimizedAffinity -0.900297821
REMARK minimizedRMSD -1
REMARK  0 active torsions:
REMARK  status: ('A' for Active; 'I' for Inactive)
ROOT
ATOM      1  C   UNL d   1       0.832   2.868  -0.088  0.00  0.00     0.078 C 
ATOM      2  C1  UNL d   1       0.682   1.408  -0.393  0.00  0.00    -0.077 A 
ATOM      3  C2  UNL d   1      -0.571   0.785  -0.345  0.00  0.00    -0.001 A 
ATOM      4  C3  UNL d   1      -0.694  -0.577  -0.623  0.00  0.00     0.003 A 
ATOM      5  C4  UNL d   1       0.433  -1.329  -0.949  0.00  0.00    -0.005 A 
ATOM      6  C5  UNL d   1       1.685  -0.719  -0.997  0.00  0.00     0.003 A 
ATOM      7  C6  UNL d   1       1.810   0.643  -0.720  0.00  0.00    -0.001 A 
ENDROOT
TORSDOF 0
ENDMDL
