MODEL 1
REMARK minimizedAffinity 8.77471638
REMARK minimizedRMSD -1
REMARK  1 active torsions:
REMARK  status: ('A' for Active; 'I' for Inactive)
REMARK    1  A    between atoms: C1_2  and  C2_3 
ROOT
ATOM      1  C2  UNL d   1      -1.729   1.129   2.506  0.00  0.00    -0.077 A 
ATOM      2  C3  UNL d   1      -2.001   2.054   3.525  0.00  0.00     0.002 A 
ATOM      3  C4  UNL d   1      -3.292   2.178   4.040  0.00  0.00     0.002 A 
ATOM      4  C5  UNL d   1      -4.321   1.377   3.548  0.00  0.00    -0.004 A 
ATOM      5  C6  UNL d   1      -4.061   0.456   2.534  0.00  0.00     0.002 A 
ATOM      6  C7  UNL d   1      -2.771   0.332   2.016  0.00  0.00     0.002 A 
ENDROOT
BRANCH   1   7
ATOM      7  C1  UNL d   1      -0.327   0.960   1.983  0.00  0.00     0.055 C 
ATOM      8  C   UNL d   1       0.706   1.298   3.048  0.00  0.00     0.019 C 
ENDBRANCH   1   7
TORSDOF 1
ENDMDL
