MODEL 1
REMARK minimizedAffinity 5.99748898
REMARK minimizedRMSD -1
REMARK  1 active torsions:
REMARK  status: ('A' for Active; 'I' for Inactive)
REMARK    1  A    between atoms: C1_2  and  C2_3 
ROOT
ATOM      1  C2  UNL d   1       1.309   0.800   0.634  0.00  0.00    -0.077 A 
ATOM      2  C3  UNL d   1       2.044   1.219   1.752  0.00  0.00     0.002 A 
ATOM      3  C4  UNL d   1       1.389   1.625   2.916  0.00  0.00     0.002 A 
ATOM      4  C5  UNL d   1      -0.003   1.612   2.976  0.00  0.00    -0.004 A 
ATOM      5  C6  UNL d   1      -0.743   1.198   1.869  0.00  0.00     0.002 A 
ATOM      6  C7  UNL d   1      -0.090   0.793   0.704  0.00  0.00     0.002 A 
ENDROOT
BRANCH   1   7
ATOM      7  C1  UNL d   1       2.014   0.315  -0.605  0.00  0.00     0.055 C 
ATOM      8  C   UNL d   1       1.181  -0.720  -1.347  0.00  0.00     0.019 C 
ENDBRANCH   1   7
TORSDOF 1
ENDMDL
