MODEL 1
REMARK minimizedAffinity 9.80874062
REMARK minimizedRMSD -1
REMARK  1 active torsions:
REMARK  status: ('A' for Active; 'I' for Inactive)
REMARK    1  A    between atoms: C1_2  and  C2_3 
ROOT
ATOM      1  C2  UNL d   1       2.620  -1.000  -0.504  0.00  0.00    -0.077 A 
ATOM      2  C3  UNL d   1       2.167  -0.782  -1.813  0.00  0.00     0.002 A 
ATOM      3  C4  UNL d   1       2.277   0.481  -2.398  0.00  0.00     0.002 A 
ATOM      4  C5  UNL d   1       2.843   1.534  -1.683  0.00  0.00    -0.004 A 
ATOM      5  C6  UNL d   1       3.294   1.329  -0.380  0.00  0.00     0.002 A 
ATOM      6  C7  UNL d   1       3.184   0.067   0.207  0.00  0.00     0.002 A 
ENDROOT
BRANCH   1   7
ATOM      7  C1  UNL d   1       2.547  -2.373   0.111  0.00  0.00     0.055 C 
ATOM      8  C   UNL d   1       3.935  -2.922   0.406  0.00  0.00     0.019 C 
ENDBRANCH   1   7
TORSDOF 1
ENDMDL
