MODEL 1
REMARK minimizedAffinity 10.9226255
REMARK minimizedRMSD -1
REMARK  1 active torsions:
REMARK  status: ('A' for Active; 'I' for Inactive)
REMARK    1  A    between atoms: C1_2  and  C2_3 
ROOT
ATOM      1  C2  UNL d   1       3.933  -1.681   0.268  0.00  0.00    -0.077 A 
ATOM      2  C3  UNL d   1       4.338  -0.411   0.703  0.00  0.00     0.002 A 
ATOM      3  C4  UNL d   1       3.613   0.725   0.337  0.00  0.00     0.002 A 
ATOM      4  C5  UNL d   1       2.478   0.602  -0.462  0.00  0.00    -0.004 A 
ATOM      5  C6  UNL d   1       2.069  -0.657  -0.901  0.00  0.00     0.002 A 
ATOM      6  C7  UNL d   1       2.793  -1.793  -0.537  0.00  0.00     0.002 A 
ENDROOT
BRANCH   1   7
ATOM      7  C1  UNL d   1       4.685  -2.912   0.702  0.00  0.00     0.055 C 
ATOM      8  C   UNL d   1       6.000  -3.053  -0.052  0.00  0.00     0.019 C 
ENDBRANCH   1   7
TORSDOF 1
ENDMDL
