MODEL 1
REMARK minimizedAffinity 11.5972166
REMARK minimizedRMSD -1
REMARK  1 active torsions:
REMARK  status: ('A' for Active; 'I' for Inactive)
REMARK    1  A    between atoms: C1_2  and  C2_3 
ROOT
ATOM      1  C2  UNL d   1       3.288  -0.992  -0.552  0.00  0.00    -0.077 A 
ATOM      2  C3  UNL d   1       2.391  -0.745  -1.601  0.00  0.00     0.002 A 
ATOM      3  C4  UNL d   1       2.316   0.523  -2.182  0.00  0.00     0.002 A 
ATOM      4  C5  UNL d   1       3.138   1.550  -1.724  0.00  0.00    -0.004 A 
ATOM      5  C6  UNL d   1       4.032   1.314  -0.680  0.00  0.00     0.002 A 
ATOM      6  C7  UNL d   1       4.107   0.049  -0.097  0.00  0.00     0.002 A 
ENDROOT
BRANCH   1   7
ATOM      7  C1  UNL d   1       3.404  -2.371   0.043  0.00  0.00     0.055 C 
ATOM      8  C   UNL d   1       4.856  -2.733   0.322  0.00  0.00     0.019 C 
ENDBRANCH   1   7
TORSDOF 1
ENDMDL
