MODEL 1
REMARK minimizedAffinity 12.0370636
REMARK minimizedRMSD -1
REMARK  1 active torsions:
REMARK  status: ('A' for Active; 'I' for Inactive)
REMARK    1  A    between atoms: C1_2  and  C2_3 
ROOT
ATOM      1  C2  UNL d   1       1.969  -0.004   0.367  0.00  0.00    -0.077 A 
ATOM      2  C3  UNL d   1       3.125   0.784   0.465  0.00  0.00     0.002 A 
ATOM      3  C4  UNL d   1       3.160   1.881   1.329  0.00  0.00     0.002 A 
ATOM      4  C5  UNL d   1       2.045   2.196   2.103  0.00  0.00    -0.004 A 
ATOM      5  C6  UNL d   1       0.891   1.420   2.010  0.00  0.00     0.002 A 
ATOM      6  C7  UNL d   1       0.853   0.324   1.147  0.00  0.00     0.002 A 
ENDROOT
BRANCH   1   7
ATOM      7  C1  UNL d   1       1.946  -1.216  -0.527  0.00  0.00     0.055 C 
ATOM      8  C   UNL d   1       2.349  -2.472   0.232  0.00  0.00     0.019 C 
ENDBRANCH   1   7
TORSDOF 1
ENDMDL
