MODEL 1
REMARK minimizedAffinity 14.1140919
REMARK minimizedRMSD -1
REMARK  1 active torsions:
REMARK  status: ('A' for Active; 'I' for Inactive)
REMARK    1  A    between atoms: C1_2  and  C2_3 
ROOT
ATOM      1  C2  UNL d   1      -0.775   1.729   2.957  0.00  0.00    -0.077 A 
ATOM      2  C3  UNL d   1       0.295   1.287   2.167  0.00  0.00     0.002 A 
ATOM      3  C4  UNL d   1       1.567   1.134   2.723  0.00  0.00     0.002 A 
ATOM      4  C5  UNL d   1       1.779   1.417   4.071  0.00  0.00    -0.004 A 
ATOM      5  C6  UNL d   1       0.721   1.859   4.864  0.00  0.00     0.002 A 
ATOM      6  C7  UNL d   1      -0.551   2.014   4.310  0.00  0.00     0.002 A 
ENDROOT
BRANCH   1   7
ATOM      7  C1  UNL d   1      -2.158   1.848   2.371  0.00  0.00     0.055 C 
ATOM      8  C   UNL d   1      -3.186   1.124   3.229  0.00  0.00     0.019 C 
ENDBRANCH   1   7
TORSDOF 1
ENDMDL
