MODEL 1
REMARK minimizedAffinity 14.968194
REMARK minimizedRMSD -1
REMARK  1 active torsions:
REMARK  status: ('A' for Active; 'I' for Inactive)
REMARK    1  A    between atoms: C1_2  and  C2_3 
ROOT
ATOM      1  C2  UNL d   1      -2.123   1.333   2.605  0.00  0.00    -0.077 A 
ATOM      2  C3  UNL d   1      -1.246   0.343   2.139  0.00  0.00     0.002 A 
ATOM      3  C4  UNL d   1       0.126   0.591   2.069  0.00  0.00     0.002 A 
ATOM      4  C5  UNL d   1       0.634   1.825   2.469  0.00  0.00    -0.004 A 
ATOM      5  C6  UNL d   1      -0.230   2.816   2.933  0.00  0.00     0.002 A 
ATOM      6  C7  UNL d   1      -1.602   2.571   3.002  0.00  0.00     0.002 A 
ENDROOT
BRANCH   1   7
ATOM      7  C1  UNL d   1      -3.597   1.050   2.727  0.00  0.00     0.055 C 
ATOM      8  C   UNL d   1      -4.258   1.982   3.733  0.00  0.00     0.019 C 
ENDBRANCH   1   7
TORSDOF 1
ENDMDL
