MODEL 1
REMARK minimizedAffinity 5.75900936
REMARK minimizedRMSD -1
REMARK  1 active torsions:
REMARK  status: ('A' for Active; 'I' for Inactive)
REMARK    1  A    between atoms: C1_2  and  C2_3 
ROOT
ATOM      1  C2  UNL d   1      -3.163  -3.224  -3.909  0.00  0.00    -0.077 A 
ATOM      2  C3  UNL d   1      -2.940  -4.318  -3.062  0.00  0.00     0.002 A 
ATOM      3  C4  UNL d   1      -1.687  -4.516  -2.478  0.00  0.00     0.002 A 
ATOM      4  C5  UNL d   1      -0.650  -3.621  -2.731  0.00  0.00    -0.004 A 
ATOM      5  C6  UNL d   1      -0.861  -2.530  -3.574  0.00  0.00     0.002 A 
ATOM      6  C7  UNL d   1      -2.112  -2.332  -4.160  0.00  0.00     0.002 A 
ENDROOT
BRANCH   1   7
ATOM      7  C1  UNL d   1      -4.527  -2.981  -4.501  0.00  0.00     0.055 C 
ATOM      8  C   UNL d   1      -4.538  -3.260  -5.997  0.00  0.00     0.019 C 
ENDBRANCH   1   7
TORSDOF 1
ENDMDL
