MODEL 1
REMARK minimizedAffinity 11.7158203
REMARK minimizedRMSD -1
REMARK  1 active torsions:
REMARK  status: ('A' for Active; 'I' for Inactive)
REMARK    1  A    between atoms: C1_2  and  C2_3 
ROOT
ATOM      1  C2  UNL d   1      -2.172  -3.297  -4.459  0.00  0.00    -0.077 A 
ATOM      2  C3  UNL d   1      -3.209  -4.017  -3.850  0.00  0.00     0.002 A 
ATOM      3  C4  UNL d   1      -4.521  -3.893  -4.313  0.00  0.00     0.002 A 
ATOM      4  C5  UNL d   1      -4.806  -3.055  -5.389  0.00  0.00    -0.004 A 
ATOM      5  C6  UNL d   1      -3.781  -2.333  -6.000  0.00  0.00     0.002 A 
ATOM      6  C7  UNL d   1      -2.470  -2.454  -5.538  0.00  0.00     0.002 A 
ENDROOT
BRANCH   1   7
ATOM      7  C1  UNL d   1      -0.749  -3.466  -3.993  0.00  0.00     0.055 C 
ATOM      8  C   UNL d   1      -0.677  -4.317  -2.734  0.00  0.00     0.019 C 
ENDBRANCH   1   7
TORSDOF 1
ENDMDL
