MODEL 1
REMARK minimizedAffinity 6.97806025
REMARK minimizedRMSD -1
REMARK  1 active torsions:
REMARK  status: ('A' for Active; 'I' for Inactive)
REMARK    1  A    between atoms: C1_2  and  C2_3 
ROOT
ATOM      1  C2  UNL d   1      -5.950   3.200   4.581  0.00  0.00    -0.076 A 
ATOM      2  C3  UNL d   1      -5.973   3.814   5.845  0.00  0.00     0.004 A 
ATOM      3  C4  UNL d   1      -5.963   5.202   5.970  0.00  0.00    -0.003 A 
ATOM      4  C5  UNL d   1      -5.930   6.000   4.831  0.00  0.00     0.000 A 
ATOM      5  C6  UNL d   1      -5.924   5.409   3.569  0.00  0.00     0.000 A 
ATOM      6  C7  UNL d   1      -5.951   4.011   3.425  0.00  0.00    -0.073 A 
ATOM      7  C8  UNL d   1      -5.937   3.427   2.039  0.00  0.00     0.078 C 
ENDROOT
BRANCH   1   8
ATOM      8  C1  UNL d   1      -5.935   1.690   4.508  0.00  0.00     0.053 C 
ATOM      9  C   UNL d   1      -5.915   1.041   5.884  0.00  0.00     0.018 C 
ENDBRANCH   1   8
TORSDOF 1
ENDMDL
