MODEL 1
REMARK minimizedAffinity 17.7046528
REMARK minimizedRMSD -1
REMARK  1 active torsions:
REMARK  status: ('A' for Active; 'I' for Inactive)
REMARK    1  A    between atoms: C1_2  and  C2_3 
ROOT
ATOM      1  C2  UNL d   1       4.130   2.170  -0.144  0.00  0.00    -0.076 A 
ATOM      2  C3  UNL d   1       3.341   1.443  -1.052  0.00  0.00     0.004 A 
ATOM      3  C4  UNL d   1       2.207   0.755  -0.627  0.00  0.00    -0.003 A 
ATOM      4  C5  UNL d   1       1.842   0.782   0.715  0.00  0.00     0.000 A 
ATOM      5  C6  UNL d   1       2.602   1.513   1.627  0.00  0.00     0.000 A 
ATOM      6  C7  UNL d   1       3.740   2.226   1.212  0.00  0.00    -0.073 A 
ATOM      7  C8  UNL d   1       4.527   2.992   2.239  0.00  0.00     0.078 C 
ENDROOT
BRANCH   1   8
ATOM      8  C1  UNL d   1       5.365   2.875  -0.659  0.00  0.00     0.053 C 
ATOM      9  C   UNL d   1       5.393   4.349  -0.284  0.00  0.00     0.018 C 
ENDBRANCH   1   8
TORSDOF 1
ENDMDL
