MODEL 1
REMARK minimizedAffinity 13.4949312
REMARK minimizedRMSD -1
REMARK  1 active torsions:
REMARK  status: ('A' for Active; 'I' for Inactive)
REMARK    1  A    between atoms: C1_2  and  C2_3 
ROOT
ATOM      1  C2  UNL d   1       2.935   1.251   0.224  0.00  0.00    -0.076 A 
ATOM      2  C3  UNL d   1       3.484   2.525   0.002  0.00  0.00     0.004 A 
ATOM      3  C4  UNL d   1       4.096   2.842  -1.210  0.00  0.00    -0.003 A 
ATOM      4  C5  UNL d   1       4.167   1.890  -2.220  0.00  0.00     0.000 A 
ATOM      5  C6  UNL d   1       3.611   0.626  -2.024  0.00  0.00     0.000 A 
ATOM      6  C7  UNL d   1       2.977   0.295  -0.815  0.00  0.00    -0.073 A 
ATOM      7  C8  UNL d   1       2.400  -1.085  -0.656  0.00  0.00     0.078 C 
ENDROOT
BRANCH   1   8
ATOM      8  C1  UNL d   1       2.308   0.955   1.568  0.00  0.00     0.053 C 
ATOM      9  C   UNL d   1       2.377   2.143   2.516  0.00  0.00     0.018 C 
ENDBRANCH   1   8
TORSDOF 1
ENDMDL
