MODEL 1
REMARK minimizedAffinity 9.52496243
REMARK minimizedRMSD -1
REMARK  1 active torsions:
REMARK  status: ('A' for Active; 'I' for Inactive)
REMARK    1  A    between atoms: C1_2  and  C2_3 
ROOT
ATOM      1  C2  UNL d   1       3.647   1.634   0.897  0.00  0.00    -0.076 A 
ATOM      2  C3  UNL d   1       4.212   1.886  -0.365  0.00  0.00     0.004 A 
ATOM      3  C4  UNL d   1       3.697   1.290  -1.514  0.00  0.00    -0.003 A 
ATOM      4  C5  UNL d   1       2.606   0.432  -1.420  0.00  0.00     0.000 A 
ATOM      5  C6  UNL d   1       2.022   0.184  -0.179  0.00  0.00     0.000 A 
ATOM      6  C7  UNL d   1       2.519   0.790   0.987  0.00  0.00    -0.073 A 
ATOM      7  C8  UNL d   1       1.854   0.483   2.301  0.00  0.00     0.078 C 
ENDROOT
BRANCH   1   8
ATOM      8  C1  UNL d   1       4.266   2.288   2.112  0.00  0.00     0.053 C 
ATOM      9  C   UNL d   1       5.156   3.467   1.749  0.00  0.00     0.018 C 
ENDBRANCH   1   8
TORSDOF 1
ENDMDL
