MODEL 1
REMARK minimizedAffinity -4.70825338
REMARK minimizedRMSD -1
REMARK  2 active torsions:
REMARK  status: ('A' for Active; 'I' for Inactive)
REMARK    1  A    between atoms: C2'_3  and  C1'_4 
REMARK    2  A    between atoms: C1'_4  and  C1_5 
ROOT
ATOM      1  C1  I4B d   1      -0.293  -0.048  -0.552  0.00  0.00    -0.075 A 
ATOM      2  C2  I4B d   1      -0.503  -0.455   0.742  0.00  0.00     0.003 A 
ATOM      3  C3  I4B d   1      -1.349   0.292   1.596  0.00  0.00     0.002 A 
ATOM      4  C4  I4B d   1      -1.922   1.460   1.134  0.00  0.00    -0.004 A 
ATOM      5  C5  I4B d   1      -1.726   1.859  -0.185  0.00  0.00     0.002 A 
ATOM      6  C6  I4B d   1      -0.917   1.094  -1.038  0.00  0.00     0.003 A 
ENDROOT
BRANCH   1   7
ATOM      7  C1' I4B d   1       0.632  -0.843  -1.417  0.00  0.00     0.060 C 
BRANCH   7   8
ATOM      8  C2' I4B d   1       0.815  -0.092  -2.720  0.00  0.00    -0.013 C 
ATOM      9  C4' I4B d   1       2.244   0.348  -2.900  0.00  0.00     0.013 C 
ATOM     10  C3' I4B d   1       0.380  -0.992  -3.838  0.00  0.00     0.013 C 
ENDBRANCH   7   8
ENDBRANCH   1   7
TORSDOF 2
ENDMDL
