MODEL 1
REMARK minimizedAffinity -1.78796172
REMARK minimizedRMSD -1
REMARK  2 active torsions:
REMARK  status: ('A' for Active; 'I' for Inactive)
REMARK    1  A    between atoms: C2'_3  and  C1'_4 
REMARK    2  A    between atoms: C1'_4  and  C1_5 
ROOT
ATOM      1  C1  I4B d   1      -0.011  -0.340  -1.449  0.00  0.00    -0.075 A 
ATOM      2  C2  I4B d   1      -0.642  -0.598  -2.641  0.00  0.00     0.003 A 
ATOM      3  C3  I4B d   1      -0.007  -0.282  -3.867  0.00  0.00     0.002 A 
ATOM      4  C4  I4B d   1       1.228   0.334  -3.853  0.00  0.00    -0.004 A 
ATOM      5  C5  I4B d   1       1.876   0.573  -2.645  0.00  0.00     0.002 A 
ATOM      6  C6  I4B d   1       1.258   0.223  -1.435  0.00  0.00     0.003 A 
ENDROOT
BRANCH   1   7
ATOM      7  C1' I4B d   1      -0.724  -0.657  -0.173  0.00  0.00     0.060 C 
BRANCH   7   8
ATOM      8  C2' I4B d   1      -0.877   0.632   0.608  0.00  0.00    -0.013 C 
ATOM      9  C4' I4B d   1      -1.877   1.550  -0.045  0.00  0.00     0.013 C 
ATOM     10  C3' I4B d   1      -1.297   0.280   2.004  0.00  0.00     0.013 C 
ENDBRANCH   7   8
ENDBRANCH   1   7
TORSDOF 2
ENDMDL
