MODEL 1
REMARK minimizedAffinity -4.96518612
REMARK minimizedRMSD -1
REMARK  2 active torsions:
REMARK  status: ('A' for Active; 'I' for Inactive)
REMARK    1  A    between atoms: C2'_3  and  C1'_4 
REMARK    2  A    between atoms: C1'_4  and  C1_5 
ROOT
ATOM      1  C1  I4B d   1      -0.161   0.440  -1.066  0.00  0.00    -0.075 A 
ATOM      2  C2  I4B d   1      -0.042  -0.921  -0.935  0.00  0.00     0.003 A 
ATOM      3  C3  I4B d   1       0.611  -1.680  -1.936  0.00  0.00     0.002 A 
ATOM      4  C4  I4B d   1       1.083  -1.048  -3.068  0.00  0.00    -0.004 A 
ATOM      5  C5  I4B d   1       0.983   0.335  -3.189  0.00  0.00     0.002 A 
ATOM      6  C6  I4B d   1       0.368   1.086  -2.176  0.00  0.00     0.003 A 
ENDROOT
BRANCH   1   7
ATOM      7  C1' I4B d   1      -0.886   1.206  -0.006  0.00  0.00     0.060 C 
BRANCH   7   8
ATOM      8  C2' I4B d   1      -1.666   0.216   0.835  0.00  0.00    -0.013 C 
ATOM      9  C4' I4B d   1      -1.271   0.302   2.286  0.00  0.00     0.013 C 
ATOM     10  C3' I4B d   1      -3.126   0.503   0.653  0.00  0.00     0.013 C 
ENDBRANCH   7   8
ENDBRANCH   1   7
TORSDOF 2
ENDMDL
