MODEL 1
REMARK minimizedAffinity -4.56896067
REMARK minimizedRMSD -1
REMARK  2 active torsions:
REMARK  status: ('A' for Active; 'I' for Inactive)
REMARK    1  A    between atoms: C2'_3  and  C1'_4 
REMARK    2  A    between atoms: C1'_4  and  C1_5 
ROOT
ATOM      1  C1  I4B d   1       0.162  -0.355  -0.220  0.00  0.00    -0.075 A 
ATOM      2  C2  I4B d   1      -1.145  -0.075  -0.535  0.00  0.00     0.003 A 
ATOM      3  C3  I4B d   1      -2.064   0.275   0.483  0.00  0.00     0.002 A 
ATOM      4  C4  I4B d   1      -1.650   0.284   1.799  0.00  0.00    -0.004 A 
ATOM      5  C5  I4B d   1      -0.320   0.023   2.114  0.00  0.00     0.002 A 
ATOM      6  C6  I4B d   1       0.595  -0.286   1.098  0.00  0.00     0.003 A 
ENDROOT
BRANCH   1   7
ATOM      7  C1' I4B d   1       1.098  -0.753  -1.316  0.00  0.00     0.060 C 
BRANCH   7   8
ATOM      8  C2' I4B d   1       0.961   0.257  -2.437  0.00  0.00    -0.013 C 
ATOM      9  C4' I4B d   1       2.231   1.045  -2.619  0.00  0.00     0.013 C 
ATOM     10  C3' I4B d   1       0.602  -0.487  -3.689  0.00  0.00     0.013 C 
ENDBRANCH   7   8
ENDBRANCH   1   7
TORSDOF 2
ENDMDL
