MODEL 1
REMARK minimizedAffinity -3.19160509
REMARK minimizedRMSD -1
REMARK  2 active torsions:
REMARK  status: ('A' for Active; 'I' for Inactive)
REMARK    1  A    between atoms: C2'_3  and  C1'_4 
REMARK    2  A    between atoms: C1'_4  and  C1_5 
ROOT
ATOM      1  C1  I4B d   1      -0.137   0.172   2.256  0.00  0.00    -0.075 A 
ATOM      2  C2  I4B d   1       0.942  -0.312   1.560  0.00  0.00     0.003 A 
ATOM      3  C3  I4B d   1       2.081  -0.789   2.252  0.00  0.00     0.002 A 
ATOM      4  C4  I4B d   1       2.119  -0.717   3.630  0.00  0.00    -0.004 A 
ATOM      5  C5  I4B d   1       1.015  -0.248   4.335  0.00  0.00     0.002 A 
ATOM      6  C6  I4B d   1      -0.126   0.188   3.645  0.00  0.00     0.003 A 
ENDROOT
BRANCH   1   7
ATOM      7  C1' I4B d   1      -1.311   0.698   1.493  0.00  0.00     0.060 C 
BRANCH   7   8
ATOM      8  C2' I4B d   1      -1.146   0.289   0.043  0.00  0.00    -0.013 C 
ATOM      9  C4' I4B d   1      -2.092  -0.824  -0.321  0.00  0.00     0.013 C 
ATOM     10  C3' I4B d   1      -1.381   1.501  -0.809  0.00  0.00     0.013 C 
ENDBRANCH   7   8
ENDBRANCH   1   7
TORSDOF 2
ENDMDL
