MODEL 1
REMARK minimizedAffinity 19.29179
REMARK minimizedRMSD -1
REMARK  1 active torsions:
REMARK  status: ('A' for Active; 'I' for Inactive)
REMARK    1  A    between atoms: N_2  and  C1_3 
ROOT
ATOM      1  C1  UNL d   1      -0.308  -3.031  -5.061  0.00  0.00     0.143 A 
ATOM      2  C2  UNL d   1       0.384  -2.259  -6.000  0.00  0.00    -0.057 A 
ATOM      3  C3  UNL d   1       0.609  -0.893  -5.792  0.00  0.00     0.033 A 
ATOM      4  C4  UNL d   1       0.119  -0.267  -4.651  0.00  0.00    -0.042 A 
ATOM      5  C5  UNL d   1      -0.593  -1.009  -3.716  0.00  0.00     0.033 A 
ATOM      6  C6  UNL d   1      -0.809  -2.375  -3.925  0.00  0.00    -0.057 A 
ENDROOT
BRANCH   1   7
ATOM      7  N   UNL d   1      -0.649  -4.372  -5.256  0.00  0.00    -0.732 N 
ATOM      8  C   UNL d   1      -2.033  -4.794  -5.214  0.00  0.00     0.284 C 
ATOM      9  H3  UNL d   1      -0.104  -4.808  -5.996  0.00  0.00     0.395 HD
ENDBRANCH   1   7
TORSDOF 1
ENDMDL
