MODEL 1
REMARK minimizedAffinity 10.709095
REMARK minimizedRMSD -1
REMARK  1 active torsions:
REMARK  status: ('A' for Active; 'I' for Inactive)
REMARK    1  A    between atoms: N_2  and  C1_3 
ROOT
ATOM      1  C1  UNL d   1      -5.977   3.122  -1.137  0.00  0.00     0.143 A 
ATOM      2  C2  UNL d   1      -5.975   3.990  -0.039  0.00  0.00    -0.057 A 
ATOM      3  C3  UNL d   1      -6.000   5.379  -0.212  0.00  0.00     0.033 A 
ATOM      4  C4  UNL d   1      -5.998   5.927  -1.490  0.00  0.00    -0.042 A 
ATOM      5  C5  UNL d   1      -5.974   5.084  -2.596  0.00  0.00     0.033 A 
ATOM      6  C6  UNL d   1      -5.956   3.698  -2.417  0.00  0.00    -0.057 A 
ENDROOT
BRANCH   1   7
ATOM      7  N   UNL d   1      -5.853   1.735  -1.031  0.00  0.00    -0.732 N 
ATOM      8  C   UNL d   1      -5.978   0.893  -2.202  0.00  0.00     0.284 C 
ATOM      9  H3  UNL d   1      -5.106   1.458  -0.398  0.00  0.00     0.395 HD
ENDBRANCH   1   7
TORSDOF 1
ENDMDL
