MODEL 1
REMARK minimizedAffinity 9.49289131
REMARK minimizedRMSD -1
REMARK  1 active torsions:
REMARK  status: ('A' for Active; 'I' for Inactive)
REMARK    1  A    between atoms: N_2  and  C1_3 
ROOT
ATOM      1  C1  UNL d   1       0.082   1.453   3.849  0.00  0.00     0.143 A 
ATOM      2  C2  UNL d   1       0.806   0.406   4.431  0.00  0.00    -0.057 A 
ATOM      3  C3  UNL d   1       1.188  -0.715   3.684  0.00  0.00     0.033 A 
ATOM      4  C4  UNL d   1       0.827  -0.822   2.345  0.00  0.00    -0.042 A 
ATOM      5  C5  UNL d   1       0.087   0.195   1.753  0.00  0.00     0.033 A 
ATOM      6  C6  UNL d   1      -0.287   1.314   2.502  0.00  0.00    -0.057 A 
ENDROOT
BRANCH   1   7
ATOM      7  N   UNL d   1      -0.412   2.547   4.563  0.00  0.00    -0.732 N 
ATOM      8  C   UNL d   1      -0.237   2.632   5.997  0.00  0.00     0.284 C 
ATOM      9  H3  UNL d   1      -0.268   3.427   4.074  0.00  0.00     0.395 HD
ENDBRANCH   1   7
TORSDOF 1
ENDMDL
