MODEL 1
REMARK minimizedAffinity 12.7390671
REMARK minimizedRMSD -1
REMARK  1 active torsions:
REMARK  status: ('A' for Active; 'I' for Inactive)
REMARK    1  A    between atoms: N_2  and  C1_3 
ROOT
ATOM      1  C1  UNL d   1      -1.501  -0.562   1.051  0.00  0.00     0.143 A 
ATOM      2  C2  UNL d   1      -0.336  -1.178   1.520  0.00  0.00    -0.057 A 
ATOM      3  C3  UNL d   1       0.587  -0.480   2.308  0.00  0.00     0.033 A 
ATOM      4  C4  UNL d   1       0.374   0.859   2.619  0.00  0.00    -0.042 A 
ATOM      5  C5  UNL d   1      -0.765   1.498   2.143  0.00  0.00     0.033 A 
ATOM      6  C6  UNL d   1      -1.687   0.794   1.362  0.00  0.00    -0.057 A 
ENDROOT
BRANCH   1   7
ATOM      7  N   UNL d   1      -2.408  -1.173   0.182  0.00  0.00    -0.732 N 
ATOM      8  C   UNL d   1      -1.974  -1.672  -1.105  0.00  0.00     0.284 C 
ATOM      9  H3  UNL d   1      -3.059  -1.787   0.667  0.00  0.00     0.395 HD
ENDBRANCH   1   7
TORSDOF 1
ENDMDL
