MODEL 1
REMARK minimizedAffinity 6.49479723
REMARK minimizedRMSD -1
REMARK  1 active torsions:
REMARK  status: ('A' for Active; 'I' for Inactive)
REMARK    1  A    between atoms: N_2  and  C1_3 
ROOT
ATOM      1  C1  UNL d   1       0.210  -0.760   2.801  0.00  0.00     0.143 A 
ATOM      2  C2  UNL d   1      -1.020  -0.967   2.168  0.00  0.00    -0.057 A 
ATOM      3  C3  UNL d   1      -1.859   0.105   1.842  0.00  0.00     0.033 A 
ATOM      4  C4  UNL d   1      -1.494   1.407   2.170  0.00  0.00    -0.042 A 
ATOM      5  C5  UNL d   1      -0.287   1.634   2.822  0.00  0.00     0.033 A 
ATOM      6  C6  UNL d   1       0.550   0.560   3.139  0.00  0.00    -0.057 A 
ENDROOT
BRANCH   1   7
ATOM      7  N   UNL d   1       1.043  -1.792   3.240  0.00  0.00    -0.732 N 
ATOM      8  C   UNL d   1       1.369  -1.930   4.643  0.00  0.00     0.284 C 
ATOM      9  H3  UNL d   1       0.850  -2.673   2.769  0.00  0.00     0.395 HD
ENDBRANCH   1   7
TORSDOF 1
ENDMDL
