MODEL 1
REMARK minimizedAffinity 6.47850132
REMARK minimizedRMSD -1
REMARK  1 active torsions:
REMARK  status: ('A' for Active; 'I' for Inactive)
REMARK    1  A    between atoms: N_2  and  C1_3 
ROOT
ATOM      1  C1  UNL d   1       0.220  -1.104   3.399  0.00  0.00     0.143 A 
ATOM      2  C2  UNL d   1       0.346   0.200   3.890  0.00  0.00    -0.057 A 
ATOM      3  C3  UNL d   1       0.192   1.310   3.051  0.00  0.00     0.033 A 
ATOM      4  C4  UNL d   1      -0.064   1.134   1.695  0.00  0.00    -0.042 A 
ATOM      5  C5  UNL d   1      -0.169  -0.153   1.180  0.00  0.00     0.033 A 
ATOM      6  C6  UNL d   1      -0.020  -1.258   2.025  0.00  0.00    -0.057 A 
ENDROOT
BRANCH   1   7
ATOM      7  N   UNL d   1       0.460  -2.249   4.162  0.00  0.00    -0.732 N 
ATOM      8  C   UNL d   1       1.477  -2.250   5.192  0.00  0.00     0.284 C 
ATOM      9  H3  UNL d   1      -0.399  -2.727   4.426  0.00  0.00     0.395 HD
ENDBRANCH   1   7
TORSDOF 1
ENDMDL
