MODEL 1
REMARK minimizedAffinity 8.10133934
REMARK minimizedRMSD -1
REMARK  1 active torsions:
REMARK  status: ('A' for Active; 'I' for Inactive)
REMARK    1  A    between atoms: N_2  and  C1_3 
ROOT
ATOM      1  C1  UNL d   1       0.125   1.482   4.033  0.00  0.00     0.143 A 
ATOM      2  C2  UNL d   1       0.757   0.447   4.729  0.00  0.00    -0.057 A 
ATOM      3  C3  UNL d   1       1.006  -0.790   4.123  0.00  0.00     0.033 A 
ATOM      4  C4  UNL d   1       0.599  -1.024   2.814  0.00  0.00    -0.042 A 
ATOM      5  C5  UNL d   1      -0.054  -0.018   2.110  0.00  0.00     0.033 A 
ATOM      6  C6  UNL d   1      -0.293   1.218   2.719  0.00  0.00    -0.057 A 
ENDROOT
BRANCH   1   7
ATOM      7  N   UNL d   1      -0.239   2.701   4.611  0.00  0.00    -0.732 N 
ATOM      8  C   UNL d   1       0.072   2.981   5.997  0.00  0.00     0.284 C 
ATOM      9  H3  UNL d   1      -0.090   3.488   3.985  0.00  0.00     0.395 HD
ENDBRANCH   1   7
TORSDOF 1
ENDMDL
