MODEL 1
REMARK minimizedAffinity 3.08681059
REMARK minimizedRMSD -1
REMARK  1 active torsions:
REMARK  status: ('A' for Active; 'I' for Inactive)
REMARK    1  A    between atoms: N_2  and  C1_3 
ROOT
ATOM      1  C1  UNL d   1       4.458   2.773   3.956  0.00  0.00     0.143 A 
ATOM      2  C2  UNL d   1       4.588   4.105   4.363  0.00  0.00    -0.057 A 
ATOM      3  C3  UNL d   1       4.352   5.162   3.477  0.00  0.00     0.033 A 
ATOM      4  C4  UNL d   1       4.007   4.904   2.154  0.00  0.00    -0.042 A 
ATOM      5  C5  UNL d   1       3.896   3.588   1.720  0.00  0.00     0.033 A 
ATOM      6  C6  UNL d   1       4.128   2.537   2.612  0.00  0.00    -0.057 A 
ENDROOT
BRANCH   1   7
ATOM      7  N   UNL d   1       4.776   1.678   4.763  0.00  0.00    -0.732 N 
ATOM      8  C   UNL d   1       3.824   0.606   4.959  0.00  0.00     0.284 C 
ATOM      9  H3  UNL d   1       5.734   1.363   4.631  0.00  0.00     0.395 HD
ENDBRANCH   1   7
TORSDOF 1
ENDMDL
