MODEL 1
REMARK minimizedAffinity 10.5426826
REMARK minimizedRMSD -1
REMARK  1 active torsions:
REMARK  status: ('A' for Active; 'I' for Inactive)
REMARK    1  A    between atoms: N_2  and  C1_3 
ROOT
ATOM      1  C1  UNL d   1       1.065  -1.541   3.995  0.00  0.00     0.143 A 
ATOM      2  C2  UNL d   1       0.318  -1.548   2.812  0.00  0.00    -0.057 A 
ATOM      3  C3  UNL d   1      -0.050  -0.355   2.179  0.00  0.00     0.033 A 
ATOM      4  C4  UNL d   1       0.300   0.871   2.735  0.00  0.00    -0.042 A 
ATOM      5  C5  UNL d   1       1.020   0.903   3.923  0.00  0.00     0.033 A 
ATOM      6  C6  UNL d   1       1.390  -0.293   4.548  0.00  0.00    -0.057 A 
ENDROOT
BRANCH   1   7
ATOM      7  N   UNL d   1       1.376  -2.691   4.725  0.00  0.00    -0.732 N 
ATOM      8  C   UNL d   1       2.724  -2.920   5.200  0.00  0.00     0.284 C 
ATOM      9  H3  UNL d   1       0.652  -2.932   5.398  0.00  0.00     0.395 HD
ENDBRANCH   1   7
TORSDOF 1
ENDMDL
