MODEL 1
REMARK minimizedAffinity -5.10907888
REMARK minimizedRMSD -1
REMARK  0 active torsions:
REMARK  status: ('A' for Active; 'I' for Inactive)
ROOT
ATOM      1  C   UNL d   1      -1.157   3.159   0.705  0.00  0.00     0.023 A 
ATOM      2  C1  UNL d   1      -1.097   2.956  -0.674  0.00  0.00     0.003 A 
ATOM      3  C2  UNL d   1      -0.711   1.713  -1.182  0.00  0.00     0.048 A 
ATOM      4  C3  UNL d   1      -0.387   0.679  -0.305  0.00  0.00     0.023 A 
ATOM      5  C4  UNL d   1      -0.446   0.877   1.075  0.00  0.00     0.048 A 
ATOM      6  C5  UNL d   1      -0.832   2.121   1.578  0.00  0.00     0.003 A 
ATOM      7  I   UNL d   1       0.187  -1.171  -1.058  0.00  0.00    -0.146 I 
ENDROOT
TORSDOF 0
ENDMDL
