MODEL 1
REMARK minimizedAffinity 0.0728993341
REMARK minimizedRMSD -1
REMARK  0 active torsions:
REMARK  status: ('A' for Active; 'I' for Inactive)
ROOT
ATOM      1  C   UNL d   1       1.123   1.739   2.821  0.00  0.00     0.023 A 
ATOM      2  C1  UNL d   1      -0.189   1.430   2.462  0.00  0.00     0.003 A 
ATOM      3  C2  UNL d   1      -0.438   0.466   1.483  0.00  0.00     0.048 A 
ATOM      4  C3  UNL d   1       0.630  -0.185   0.867  0.00  0.00     0.023 A 
ATOM      5  C4  UNL d   1       1.944   0.120   1.223  0.00  0.00     0.048 A 
ATOM      6  C5  UNL d   1       2.188   1.085   2.202  0.00  0.00     0.003 A 
ATOM      7  I   UNL d   1       0.261  -1.620  -0.591  0.00  0.00    -0.146 I 
ENDROOT
TORSDOF 0
ENDMDL
