MODEL 1
REMARK minimizedAffinity -5.25709248
REMARK minimizedRMSD -1
REMARK  0 active torsions:
REMARK  status: ('A' for Active; 'I' for Inactive)
ROOT
ATOM      1  C   UNL d   1      -0.875   1.992   2.144  0.00  0.00     0.023 A 
ATOM      2  C1  UNL d   1       0.223   1.166   2.383  0.00  0.00     0.003 A 
ATOM      3  C2  UNL d   1       0.586   0.197   1.445  0.00  0.00     0.048 A 
ATOM      4  C3  UNL d   1      -0.152   0.061   0.270  0.00  0.00     0.023 A 
ATOM      5  C4  UNL d   1      -1.251   0.886   0.026  0.00  0.00     0.048 A 
ATOM      6  C5  UNL d   1      -1.611   1.853   0.967  0.00  0.00     0.003 A 
ATOM      7  I   UNL d   1       0.387  -1.380  -1.127  0.00  0.00    -0.146 I 
ENDROOT
TORSDOF 0
ENDMDL
