MODEL 1
REMARK minimizedAffinity -5.35948753
REMARK minimizedRMSD -1
REMARK  0 active torsions:
REMARK  status: ('A' for Active; 'I' for Inactive)
ROOT
ATOM      1  C   UNL d   1      -0.890   1.994   1.428  0.00  0.00     0.023 A 
ATOM      2  C1  UNL d   1      -0.176   0.912   1.943  0.00  0.00     0.003 A 
ATOM      3  C2  UNL d   1       0.151  -0.166   1.118  0.00  0.00     0.048 A 
ATOM      4  C3  UNL d   1      -0.238  -0.155  -0.221  0.00  0.00     0.023 A 
ATOM      5  C4  UNL d   1      -0.952   0.926  -0.741  0.00  0.00     0.048 A 
ATOM      6  C5  UNL d   1      -1.278   2.001   0.088  0.00  0.00     0.003 A 
ATOM      7  I   UNL d   1       0.248  -1.759  -1.450  0.00  0.00    -0.146 I 
ENDROOT
TORSDOF 0
ENDMDL
