MODEL 1
REMARK minimizedAffinity -3.51919723
REMARK minimizedRMSD -1
REMARK  0 active torsions:
REMARK  status: ('A' for Active; 'I' for Inactive)
ROOT
ATOM      1  C   UNL d   1       0.195   1.595   2.336  0.00  0.00     0.023 A 
ATOM      2  C1  UNL d   1      -0.743   1.636   1.304  0.00  0.00     0.003 A 
ATOM      3  C2  UNL d   1      -0.787   0.609   0.358  0.00  0.00     0.048 A 
ATOM      4  C3  UNL d   1       0.108  -0.456   0.451  0.00  0.00     0.023 A 
ATOM      5  C4  UNL d   1       1.048  -0.501   1.482  0.00  0.00     0.048 A 
ATOM      6  C5  UNL d   1       1.089   0.528   2.425  0.00  0.00     0.003 A 
ATOM      7  I   UNL d   1       0.044  -1.985  -0.955  0.00  0.00    -0.146 I 
ENDROOT
TORSDOF 0
ENDMDL
