MODEL 1
REMARK minimizedAffinity -2.3853178
REMARK minimizedRMSD -1
REMARK  0 active torsions:
REMARK  status: ('A' for Active; 'I' for Inactive)
ROOT
ATOM      1  C   UNL d   1      -0.042  -3.093  -2.368  0.00  0.00     0.023 A 
ATOM      2  C1  UNL d   1      -1.099  -3.105  -1.457  0.00  0.00     0.003 A 
ATOM      3  C2  UNL d   1      -1.133  -2.177  -0.414  0.00  0.00     0.048 A 
ATOM      4  C3  UNL d   1      -0.109  -1.240  -0.289  0.00  0.00     0.023 A 
ATOM      5  C4  UNL d   1       0.950  -1.223  -1.199  0.00  0.00     0.048 A 
ATOM      6  C5  UNL d   1       0.980  -2.153  -2.239  0.00  0.00     0.003 A 
ATOM      7  I   UNL d   1      -0.158   0.143   1.263  0.00  0.00    -0.146 I 
ENDROOT
TORSDOF 0
ENDMDL
