MODEL 1
REMARK minimizedAffinity -2.17119598
REMARK minimizedRMSD -1
REMARK  0 active torsions:
REMARK  status: ('A' for Active; 'I' for Inactive)
ROOT
ATOM      1  C   UNL d   1      -0.397   1.772   1.965  0.00  0.00     0.023 A 
ATOM      2  C1  UNL d   1       0.505   0.772   2.329  0.00  0.00     0.003 A 
ATOM      3  C2  UNL d   1       0.697  -0.333   1.496  0.00  0.00     0.048 A 
ATOM      4  C3  UNL d   1      -0.015  -0.430   0.301  0.00  0.00     0.023 A 
ATOM      5  C4  UNL d   1      -0.917   0.568  -0.067  0.00  0.00     0.048 A 
ATOM      6  C5  UNL d   1      -1.107   1.670   0.769  0.00  0.00     0.003 A 
ATOM      7  I   UNL d   1       0.270  -2.073  -0.939  0.00  0.00    -0.146 I 
ENDROOT
TORSDOF 0
ENDMDL
