MODEL 1
REMARK minimizedAffinity -3.81236744
REMARK minimizedRMSD -1
REMARK  0 active torsions:
REMARK  status: ('A' for Active; 'I' for Inactive)
ROOT
ATOM      1  C   UNL d   1      -0.654   2.030   1.975  0.00  0.00     0.023 A 
ATOM      2  C1  UNL d   1       0.375   1.156   2.327  0.00  0.00     0.003 A 
ATOM      3  C2  UNL d   1       0.646   0.040   1.534  0.00  0.00     0.048 A 
ATOM      4  C3  UNL d   1      -0.114  -0.198   0.390  0.00  0.00     0.023 A 
ATOM      5  C4  UNL d   1      -1.145   0.674   0.033  0.00  0.00     0.048 A 
ATOM      6  C5  UNL d   1      -1.413   1.789   0.830  0.00  0.00     0.003 A 
ATOM      7  I   UNL d   1       0.288  -1.859  -0.792  0.00  0.00    -0.146 I 
ENDROOT
TORSDOF 0
ENDMDL
