MODEL 1
REMARK minimizedAffinity -3.40354896
REMARK minimizedRMSD -1
REMARK  0 active torsions:
REMARK  status: ('A' for Active; 'I' for Inactive)
ROOT
ATOM      1  C   UNL d   1       1.913   0.335  -2.323  0.00  0.00     0.172 C 
ATOM      2  N   UNL d   1       1.054   0.177  -1.173  0.00  0.00    -0.070 N 
ATOM      3  C1  UNL d   1       0.825   1.125  -0.212  0.00  0.00    -0.004 A 
ATOM      4  C2  UNL d   1      -0.049   0.589   0.710  0.00  0.00    -0.047 A 
ATOM      5  C3  UNL d   1      -0.354  -0.727   0.288  0.00  0.00    -0.047 A 
ATOM      6  C4  UNL d   1       0.343  -0.956  -0.880  0.00  0.00    -0.004 A 
ENDROOT
TORSDOF 0
ENDMDL
