MODEL 1
REMARK minimizedAffinity -2.21653986
REMARK minimizedRMSD -1
REMARK  0 active torsions:
REMARK  status: ('A' for Active; 'I' for Inactive)
ROOT
ATOM      1  C   UNL d   1      -4.878   2.132  -5.971  0.00  0.00     0.172 C 
ATOM      2  N   UNL d   1      -4.827   3.575  -5.983  0.00  0.00    -0.070 N 
ATOM      3  C1  UNL d   1      -5.910   4.412  -5.990  0.00  0.00    -0.004 A 
ATOM      4  C2  UNL d   1      -5.441   5.708  -6.000  0.00  0.00    -0.047 A 
ATOM      5  C3  UNL d   1      -4.027   5.647  -6.000  0.00  0.00    -0.047 A 
ATOM      6  C4  UNL d   1      -3.674   4.315  -5.989  0.00  0.00    -0.004 A 
ENDROOT
TORSDOF 0
ENDMDL
