MODEL 1
REMARK minimizedAffinity -1.34570265
REMARK minimizedRMSD -1
REMARK  0 active torsions:
REMARK  status: ('A' for Active; 'I' for Inactive)
ROOT
ATOM      1  C   UNL d   1       2.900   1.565  -0.798  0.00  0.00     0.172 C 
ATOM      2  N   UNL d   1       1.853   0.660  -1.211  0.00  0.00    -0.070 N 
ATOM      3  C1  UNL d   1       0.736   0.346  -0.484  0.00  0.00    -0.004 A 
ATOM      4  C2  UNL d   1      -0.010  -0.547  -1.222  0.00  0.00    -0.047 A 
ATOM      5  C3  UNL d   1       0.683  -0.779  -2.434  0.00  0.00    -0.047 A 
ATOM      6  C4  UNL d   1       1.833  -0.019  -2.401  0.00  0.00    -0.004 A 
ENDROOT
TORSDOF 0
ENDMDL
