MODEL 1
REMARK minimizedAffinity -1.42509222
REMARK minimizedRMSD -1
REMARK  0 active torsions:
REMARK  status: ('A' for Active; 'I' for Inactive)
ROOT
ATOM      1  C   UNL d   1      -3.094   2.264   3.668  0.00  0.00     0.172 C 
ATOM      2  N   UNL d   1      -3.209   1.345   2.559  0.00  0.00    -0.070 N 
ATOM      3  C1  UNL d   1      -2.175   0.901   1.780  0.00  0.00    -0.004 A 
ATOM      4  C2  UNL d   1      -2.696   0.042   0.836  0.00  0.00    -0.047 A 
ATOM      5  C3  UNL d   1      -4.092  -0.031   1.056  0.00  0.00    -0.047 A 
ATOM      6  C4  UNL d   1      -4.383   0.785   2.128  0.00  0.00    -0.004 A 
ENDROOT
TORSDOF 0
ENDMDL
