MODEL 1
REMARK minimizedAffinity -3.25637174
REMARK minimizedRMSD -1
REMARK  0 active torsions:
REMARK  status: ('A' for Active; 'I' for Inactive)
ROOT
ATOM      1  C   UNL d   1       1.109  -0.517  -2.513  0.00  0.00     0.172 C 
ATOM      2  N   UNL d   1       0.592  -0.787  -1.192  0.00  0.00    -0.070 N 
ATOM      3  C1  UNL d   1       0.480  -2.024  -0.617  0.00  0.00    -0.004 A 
ATOM      4  C2  UNL d   1      -0.056  -1.857   0.642  0.00  0.00    -0.047 A 
ATOM      5  C3  UNL d   1      -0.274  -0.471   0.829  0.00  0.00    -0.047 A 
ATOM      6  C4  UNL d   1       0.136   0.168  -0.322  0.00  0.00    -0.004 A 
ENDROOT
TORSDOF 0
ENDMDL
