MODEL 1
REMARK minimizedAffinity -2.47364759
REMARK minimizedRMSD -1
REMARK  0 active torsions:
REMARK  status: ('A' for Active; 'I' for Inactive)
ROOT
ATOM      1  C   UNL d   1      -5.981   2.762  -5.917  0.00  0.00     0.172 C 
ATOM      2  N   UNL d   1      -4.958   3.781  -5.935  0.00  0.00    -0.070 N 
ATOM      3  C1  UNL d   1      -3.608   3.558  -5.903  0.00  0.00    -0.004 A 
ATOM      4  C2  UNL d   1      -2.977   4.783  -5.936  0.00  0.00    -0.047 A 
ATOM      5  C3  UNL d   1      -3.983   5.777  -5.988  0.00  0.00    -0.047 A 
ATOM      6  C4  UNL d   1      -5.200   5.129  -5.986  0.00  0.00    -0.004 A 
ENDROOT
TORSDOF 0
ENDMDL
