MODEL 1
REMARK minimizedAffinity -3.60481763
REMARK minimizedRMSD -1
REMARK  0 active torsions:
REMARK  status: ('A' for Active; 'I' for Inactive)
ROOT
ATOM      1  C   UNL d   1      -0.717  -0.557   1.044  0.00  0.00     0.172 C 
ATOM      2  N   UNL d   1      -0.063  -0.453  -0.239  0.00  0.00    -0.070 N 
ATOM      3  C1  UNL d   1       0.287   0.714  -0.864  0.00  0.00    -0.004 A 
ATOM      4  C2  UNL d   1       0.886   0.387  -2.062  0.00  0.00    -0.047 A 
ATOM      5  C3  UNL d   1       0.894  -1.024  -2.161  0.00  0.00    -0.047 A 
ATOM      6  C4  UNL d   1       0.300  -1.519  -1.019  0.00  0.00    -0.004 A 
ENDROOT
TORSDOF 0
ENDMDL
