MODEL 1
REMARK minimizedAffinity 3.00381184
REMARK minimizedRMSD -1
REMARK  0 active torsions:
REMARK  status: ('A' for Active; 'I' for Inactive)
ROOT
ATOM      1  C   UNL d   1       0.728  -0.102   5.278  0.00  0.00     0.172 C 
ATOM      2  N   UNL d   1       1.189   0.792   4.242  0.00  0.00    -0.070 N 
ATOM      3  C1  UNL d   1       0.491   1.137   3.116  0.00  0.00    -0.004 A 
ATOM      4  C2  UNL d   1       1.272   2.006   2.384  0.00  0.00    -0.047 A 
ATOM      5  C3  UNL d   1       2.482   2.188   3.095  0.00  0.00    -0.047 A 
ATOM      6  C4  UNL d   1       2.404   1.425   4.241  0.00  0.00    -0.004 A 
ENDROOT
TORSDOF 0
ENDMDL
