MODEL 1
REMARK minimizedAffinity -1.07608831
REMARK minimizedRMSD -1
REMARK  0 active torsions:
REMARK  status: ('A' for Active; 'I' for Inactive)
ROOT
ATOM      1  C   UNL d   1      -1.115  -0.400   1.312  0.00  0.00     0.172 C 
ATOM      2  N   UNL d   1      -2.417   0.084   1.709  0.00  0.00    -0.070 N 
ATOM      3  C1  UNL d   1      -2.655   1.062   2.638  0.00  0.00    -0.004 A 
ATOM      4  C2  UNL d   1      -4.020   1.232   2.730  0.00  0.00    -0.047 A 
ATOM      5  C3  UNL d   1      -4.622   0.325   1.826  0.00  0.00    -0.047 A 
ATOM      6  C4  UNL d   1      -3.606  -0.373   1.207  0.00  0.00    -0.004 A 
ENDROOT
TORSDOF 0
ENDMDL
