MODEL 1
REMARK minimizedAffinity -2.12363243
REMARK minimizedRMSD -1
REMARK  0 active torsions:
REMARK  status: ('A' for Active; 'I' for Inactive)
ROOT
ATOM      1  C   UNL d   1      -0.801  -0.120   0.317  0.00  0.00     0.172 C 
ATOM      2  N   UNL d   1       0.310   0.020  -0.595  0.00  0.00    -0.070 N 
ATOM      3  C1  UNL d   1       0.464  -0.658  -1.775  0.00  0.00    -0.004 A 
ATOM      4  C2  UNL d   1       1.647  -0.244  -2.348  0.00  0.00    -0.047 A 
ATOM      5  C3  UNL d   1       2.224   0.715  -1.482  0.00  0.00    -0.047 A 
ATOM      6  C4  UNL d   1       1.376   0.859  -0.405  0.00  0.00    -0.004 A 
ENDROOT
TORSDOF 0
ENDMDL
