MODEL 1
REMARK minimizedAffinity -1.29045796
REMARK minimizedRMSD -1
REMARK  0 active torsions:
REMARK  status: ('A' for Active; 'I' for Inactive)
ROOT
ATOM      1  C   UNL d   1      -0.906  -0.055   1.152  0.00  0.00     0.172 C 
ATOM      2  N   UNL d   1      -2.341  -0.018   1.305  0.00  0.00    -0.070 N 
ATOM      3  C1  UNL d   1      -3.113   1.113   1.328  0.00  0.00    -0.004 A 
ATOM      4  C2  UNL d   1      -4.425   0.725   1.490  0.00  0.00    -0.047 A 
ATOM      5  C3  UNL d   1      -4.443  -0.688   1.569  0.00  0.00    -0.047 A 
ATOM      6  C4  UNL d   1      -3.139  -1.122   1.451  0.00  0.00    -0.004 A 
ENDROOT
TORSDOF 0
ENDMDL
