MODEL 1
REMARK minimizedAffinity -2.66003323
REMARK minimizedRMSD -1
REMARK  0 active torsions:
REMARK  status: ('A' for Active; 'I' for Inactive)
ROOT
ATOM      1  C   UNL d   1      -0.194   0.295   1.181  0.00  0.00     0.172 C 
ATOM      2  N   UNL d   1       0.748   1.139   1.878  0.00  0.00    -0.070 N 
ATOM      3  C1  UNL d   1       0.984   1.128   3.226  0.00  0.00    -0.004 A 
ATOM      4  C2  UNL d   1       1.948   2.075   3.494  0.00  0.00    -0.047 A 
ATOM      5  C3  UNL d   1       2.303   2.677   2.263  0.00  0.00    -0.047 A 
ATOM      6  C4  UNL d   1       1.545   2.079   1.279  0.00  0.00    -0.004 A 
ENDROOT
TORSDOF 0
ENDMDL
