MODEL 1
REMARK minimizedAffinity -3.67283726
REMARK minimizedRMSD -1
REMARK  0 active torsions:
REMARK  status: ('A' for Active; 'I' for Inactive)
ROOT
ATOM      1  C   UNL d   1      -0.576  -0.321   0.714  0.00  0.00     0.172 C 
ATOM      2  N   UNL d   1       0.363   0.035  -0.323  0.00  0.00    -0.070 N 
ATOM      3  C1  UNL d   1       1.077   1.202  -0.388  0.00  0.00    -0.004 A 
ATOM      4  C2  UNL d   1       1.856   1.158  -1.524  0.00  0.00    -0.047 A 
ATOM      5  C3  UNL d   1       1.601  -0.077  -2.165  0.00  0.00    -0.047 A 
ATOM      6  C4  UNL d   1       0.673  -0.753  -1.400  0.00  0.00    -0.004 A 
ENDROOT
TORSDOF 0
ENDMDL
