MODEL 1
REMARK minimizedAffinity -3.52362561
REMARK minimizedRMSD -1
REMARK  0 active torsions:
REMARK  status: ('A' for Active; 'I' for Inactive)
ROOT
ATOM      1  C   UNL d   1      -0.521  -0.068   1.497  0.00  0.00     0.172 C 
ATOM      2  N   UNL d   1      -1.548   0.620   2.243  0.00  0.00    -0.070 N 
ATOM      3  C1  UNL d   1      -1.336   1.473   3.293  0.00  0.00    -0.004 A 
ATOM      4  C2  UNL d   1      -2.565   1.919   3.729  0.00  0.00    -0.047 A 
ATOM      5  C3  UNL d   1      -3.550   1.312   2.914  0.00  0.00    -0.047 A 
ATOM      6  C4  UNL d   1      -2.892   0.513   2.002  0.00  0.00    -0.004 A 
ENDROOT
TORSDOF 0
ENDMDL
