MODEL 1
REMARK minimizedAffinity -1.78500974
REMARK minimizedRMSD -1
REMARK  0 active torsions:
REMARK  status: ('A' for Active; 'I' for Inactive)
ROOT
ATOM      1  C   UNL d   1       1.528  -1.453  -2.446  0.00  0.00     0.172 C 
ATOM      2  N   UNL d   1       1.222  -0.432  -1.472  0.00  0.00    -0.070 N 
ATOM      3  C1  UNL d   1       1.947   0.710  -1.259  0.00  0.00    -0.004 A 
ATOM      4  C2  UNL d   1       1.331   1.419  -0.251  0.00  0.00    -0.047 A 
ATOM      5  C3  UNL d   1       0.197   0.678   0.156  0.00  0.00    -0.047 A 
ATOM      6  C4  UNL d   1       0.153  -0.464  -0.616  0.00  0.00    -0.004 A 
ENDROOT
TORSDOF 0
ENDMDL
