MODEL 1
REMARK minimizedAffinity -2.38818192
REMARK minimizedRMSD -1
REMARK  0 active torsions:
REMARK  status: ('A' for Active; 'I' for Inactive)
ROOT
ATOM      1  C   UNL d   1      -2.395   4.106  -5.989  0.00  0.00     0.172 C 
ATOM      2  N   UNL d   1      -3.839   4.084  -5.993  0.00  0.00    -0.070 N 
ATOM      3  C1  UNL d   1      -4.620   2.959  -5.998  0.00  0.00    -0.004 A 
ATOM      4  C2  UNL d   1      -5.939   3.361  -6.000  0.00  0.00    -0.047 A 
ATOM      5  C3  UNL d   1      -5.950   4.776  -5.996  0.00  0.00    -0.047 A 
ATOM      6  C4  UNL d   1      -4.637   5.197  -5.992  0.00  0.00    -0.004 A 
ENDROOT
TORSDOF 0
ENDMDL
