MODEL 1
REMARK minimizedAffinity -4.98898029
REMARK minimizedRMSD -1
REMARK  0 active torsions:
REMARK  status: ('A' for Active; 'I' for Inactive)
ROOT
ATOM      1  N1  IND d   1       0.979   1.218   0.255  0.00  0.00    -0.196 N 
ATOM      2  C2  IND d   1       0.591   0.814  -0.992  0.00  0.00     0.054 A 
ATOM      3  C3  IND d   1      -0.276  -0.220  -0.902  0.00  0.00    -0.031 A 
ATOM      4  C4  IND d   1      -1.273  -1.342   1.189  0.00  0.00     0.051 A 
ATOM      5  C5  IND d   1      -1.193  -1.342   2.554  0.00  0.00    -0.031 A 
ATOM      6  C6  IND d   1      -0.370  -0.469   3.235  0.00  0.00     0.015 A 
ATOM      7  C7  IND d   1       0.398   0.448   2.575  0.00  0.00    -0.016 A 
ATOM      8  C8  IND d   1       0.324   0.447   1.190  0.00  0.00    -0.047 A 
ATOM      9  C9  IND d   1      -0.477  -0.465   0.491  0.00  0.00    -0.096 A 
ATOM     10  HN1 IND d   1       1.537   1.849   0.426  0.00  0.00     0.298 HD
ENDROOT
TORSDOF 0
ENDMDL
