MODEL 1
REMARK minimizedAffinity -4.24664736
REMARK minimizedRMSD -1
REMARK  0 active torsions:
REMARK  status: ('A' for Active; 'I' for Inactive)
ROOT
ATOM      1  N1  IND d   1      -0.980  -0.669  -0.463  0.00  0.00    -0.196 N 
ATOM      2  C2  IND d   1      -0.019  -0.387  -1.393  0.00  0.00     0.054 A 
ATOM      3  C3  IND d   1       1.058   0.177  -0.802  0.00  0.00    -0.031 A 
ATOM      4  C4  IND d   1       1.501   0.636   1.692  0.00  0.00     0.051 A 
ATOM      5  C5  IND d   1       0.903   0.582   2.920  0.00  0.00    -0.031 A 
ATOM      6  C6  IND d   1      -0.378   0.097   3.087  0.00  0.00     0.015 A 
ATOM      7  C7  IND d   1      -1.108  -0.366   2.029  0.00  0.00    -0.016 A 
ATOM      8  C8  IND d   1      -0.506  -0.307   0.779  0.00  0.00    -0.047 A 
ATOM      9  C9  IND d   1       0.777   0.224   0.598  0.00  0.00    -0.096 A 
ATOM     10  HN1 IND d   1      -1.750  -1.014  -0.626  0.00  0.00     0.298 HD
ENDROOT
TORSDOF 0
ENDMDL
