MODEL 1
REMARK minimizedAffinity -3.52731562
REMARK minimizedRMSD -1
REMARK  0 active torsions:
REMARK  status: ('A' for Active; 'I' for Inactive)
ROOT
ATOM      1  N1  IND d   1      -1.400  -0.285  -0.515  0.00  0.00    -0.196 N 
ATOM      2  C2  IND d   1      -0.540   0.102  -1.505  0.00  0.00     0.054 A 
ATOM      3  C3  IND d   1       0.601   0.593  -0.971  0.00  0.00    -0.031 A 
ATOM      4  C4  IND d   1       1.312   0.761   1.497  0.00  0.00     0.051 A 
ATOM      5  C5  IND d   1       0.847   0.567   2.768  0.00  0.00    -0.031 A 
ATOM      6  C6  IND d   1      -0.415   0.066   3.014  0.00  0.00     0.015 A 
ATOM      7  C7  IND d   1      -1.259  -0.271   1.994  0.00  0.00    -0.016 A 
ATOM      8  C8  IND d   1      -0.793  -0.068   0.702  0.00  0.00    -0.047 A 
ATOM      9  C9  IND d   1       0.471   0.479   0.447  0.00  0.00    -0.096 A 
ATOM     10  HN1 IND d   1      -2.188  -0.609  -0.633  0.00  0.00     0.298 HD
ENDROOT
TORSDOF 0
ENDMDL
