MODEL 1
REMARK minimizedAffinity -4.55263472
REMARK minimizedRMSD -1
REMARK  0 active torsions:
REMARK  status: ('A' for Active; 'I' for Inactive)
ROOT
ATOM      1  N1  IND d   1      -1.585  -0.567   1.902  0.00  0.00    -0.196 N 
ATOM      2  C2  IND d   1      -0.972  -0.393   3.111  0.00  0.00     0.054 A 
ATOM      3  C3  IND d   1       0.315  -0.018   2.935  0.00  0.00    -0.031 A 
ATOM      4  C4  IND d   1       1.594   0.469   0.755  0.00  0.00     0.051 A 
ATOM      5  C5  IND d   1       1.466   0.415  -0.605  0.00  0.00    -0.031 A 
ATOM      6  C6  IND d   1       0.289   0.025  -1.210  0.00  0.00     0.015 A 
ATOM      7  C7  IND d   1      -0.812  -0.316  -0.476  0.00  0.00    -0.016 A 
ATOM      8  C8  IND d   1      -0.683  -0.268   0.905  0.00  0.00    -0.047 A 
ATOM      9  C9  IND d   1       0.522   0.086   1.526  0.00  0.00    -0.096 A 
ATOM     10  HN1 IND d   1      -2.399  -0.820   1.784  0.00  0.00     0.298 HD
ENDROOT
TORSDOF 0
ENDMDL
