MODEL 1
REMARK minimizedAffinity -4.91353083
REMARK minimizedRMSD -1
REMARK  0 active torsions:
REMARK  status: ('A' for Active; 'I' for Inactive)
ROOT
ATOM      1  N1  IND d   1      -0.628  -0.041  -0.581  0.00  0.00    -0.196 N 
ATOM      2  C2  IND d   1       0.544   0.487  -1.045  0.00  0.00     0.054 A 
ATOM      3  C3  IND d   1       1.443   0.590  -0.041  0.00  0.00    -0.031 A 
ATOM      4  C4  IND d   1       1.240  -0.143   2.418  0.00  0.00     0.051 A 
ATOM      5  C5  IND d   1       0.346  -0.645   3.322  0.00  0.00    -0.031 A 
ATOM      6  C6  IND d   1      -0.943  -0.980   2.964  0.00  0.00     0.015 A 
ATOM      7  C7  IND d   1      -1.386  -0.837   1.679  0.00  0.00    -0.016 A 
ATOM      8  C8  IND d   1      -0.483  -0.321   0.760  0.00  0.00    -0.047 A 
ATOM      9  C9  IND d   1       0.814   0.061   1.127  0.00  0.00    -0.096 A 
ATOM     10  HN1 IND d   1      -1.337  -0.176  -1.049  0.00  0.00     0.298 HD
ENDROOT
TORSDOF 0
ENDMDL
