MODEL 1
REMARK minimizedAffinity -2.5906713
REMARK minimizedRMSD -1
REMARK  0 active torsions:
REMARK  status: ('A' for Active; 'I' for Inactive)
ROOT
ATOM      1  N1  IND d   1      -0.574  -0.725  -0.856  0.00  0.00    -0.196 N 
ATOM      2  C2  IND d   1       0.325   0.010  -1.577  0.00  0.00     0.054 A 
ATOM      3  C3  IND d   1       1.102   0.746  -0.750  0.00  0.00    -0.031 A 
ATOM      4  C4  IND d   1       1.139   0.821   1.823  0.00  0.00     0.051 A 
ATOM      5  C5  IND d   1       0.480   0.352   2.924  0.00  0.00    -0.031 A 
ATOM      6  C6  IND d   1      -0.585  -0.521   2.819  0.00  0.00     0.015 A 
ATOM      7  C7  IND d   1      -1.024  -0.967   1.605  0.00  0.00    -0.016 A 
ATOM      8  C8  IND d   1      -0.361  -0.486   0.484  0.00  0.00    -0.047 A 
ATOM      9  C9  IND d   1       0.692   0.432   0.582  0.00  0.00    -0.096 A 
ATOM     10  HN1 IND d   1      -1.172  -1.248  -1.184  0.00  0.00     0.298 HD
ENDROOT
TORSDOF 0
ENDMDL
