MODEL 1
REMARK minimizedAffinity -4.28500938
REMARK minimizedRMSD -1
REMARK  0 active torsions:
REMARK  status: ('A' for Active; 'I' for Inactive)
ROOT
ATOM      1  N1  IND d   1       3.477  -1.236  -4.474  0.00  0.00    -0.196 N 
ATOM      2  C2  IND d   1       4.124  -0.054  -4.242  0.00  0.00     0.054 A 
ATOM      3  C3  IND d   1       3.325   0.792  -3.554  0.00  0.00    -0.031 A 
ATOM      4  C4  IND d   1       0.957   0.410  -2.619  0.00  0.00     0.051 A 
ATOM      5  C5  IND d   1      -0.063  -0.500  -2.608  0.00  0.00    -0.031 A 
ATOM      6  C6  IND d   1       0.048  -1.728  -3.229  0.00  0.00     0.015 A 
ATOM      7  C7  IND d   1       1.193  -2.097  -3.876  0.00  0.00    -0.016 A 
ATOM      8  C8  IND d   1       2.228  -1.173  -3.896  0.00  0.00    -0.047 A 
ATOM      9  C9  IND d   1       2.105   0.091  -3.304  0.00  0.00    -0.096 A 
ATOM     10  HN1 IND d   1       3.796  -1.906  -4.908  0.00  0.00     0.298 HD
ENDROOT
TORSDOF 0
ENDMDL
