MODEL 1
REMARK minimizedAffinity -4.44332075
REMARK minimizedRMSD -1
REMARK  0 active torsions:
REMARK  status: ('A' for Active; 'I' for Inactive)
ROOT
ATOM      1  N1  IND d   1      -1.253  -0.754   2.039  0.00  0.00    -0.196 N 
ATOM      2  C2  IND d   1      -0.563  -0.618   3.211  0.00  0.00     0.054 A 
ATOM      3  C3  IND d   1       0.669  -0.113   2.976  0.00  0.00    -0.031 A 
ATOM      4  C4  IND d   1       1.726   0.655   0.758  0.00  0.00     0.051 A 
ATOM      5  C5  IND d   1       1.496   0.693  -0.588  0.00  0.00    -0.031 A 
ATOM      6  C6  IND d   1       0.314   0.243  -1.139  0.00  0.00     0.015 A 
ATOM      7  C7  IND d   1      -0.692  -0.252  -0.359  0.00  0.00    -0.016 A 
ATOM      8  C8  IND d   1      -0.460  -0.298   1.008  0.00  0.00    -0.047 A 
ATOM      9  C9  IND d   1       0.755   0.117   1.569  0.00  0.00    -0.096 A 
ATOM     10  HN1 IND d   1      -2.048  -1.072   1.958  0.00  0.00     0.298 HD
ENDROOT
TORSDOF 0
ENDMDL
