MODEL 1
REMARK minimizedAffinity -4.79826784
REMARK minimizedRMSD -1
REMARK  0 active torsions:
REMARK  status: ('A' for Active; 'I' for Inactive)
ROOT
ATOM      1  N1  IND d   1      -1.825   0.735  -1.217  0.00  0.00    -0.196 N 
ATOM      2  C2  IND d   1      -0.840   1.097  -2.093  0.00  0.00     0.054 A 
ATOM      3  C3  IND d   1       0.378   0.867  -1.553  0.00  0.00    -0.031 A 
ATOM      4  C4  IND d   1       0.988  -0.192   0.713  0.00  0.00     0.051 A 
ATOM      5  C5  IND d   1       0.429  -0.650   1.873  0.00  0.00    -0.031 A 
ATOM      6  C6  IND d   1      -0.937  -0.673   2.065  0.00  0.00     0.015 A 
ATOM      7  C7  IND d   1      -1.800  -0.247   1.095  0.00  0.00    -0.016 A 
ATOM      8  C8  IND d   1      -1.236   0.225  -0.081  0.00  0.00    -0.047 A 
ATOM      9  C9  IND d   1       0.151   0.291  -0.265  0.00  0.00    -0.096 A 
ATOM     10  HN1 IND d   1      -2.671   0.813  -1.353  0.00  0.00     0.298 HD
ENDROOT
TORSDOF 0
ENDMDL
