MODEL 1
REMARK minimizedAffinity -4.23787975
REMARK minimizedRMSD -1
REMARK  0 active torsions:
REMARK  status: ('A' for Active; 'I' for Inactive)
ROOT
ATOM      1  N1  IND d   1       1.463   1.226   0.235  0.00  0.00    -0.196 N 
ATOM      2  C2  IND d   1       1.052   1.029  -1.054  0.00  0.00     0.054 A 
ATOM      3  C3  IND d   1       0.009   0.169  -1.089  0.00  0.00    -0.031 A 
ATOM      4  C4  IND d   1      -1.250  -0.955   0.855  0.00  0.00     0.051 A 
ATOM      5  C5  IND d   1      -1.219  -1.109   2.213  0.00  0.00    -0.031 A 
ATOM      6  C6  IND d   1      -0.275  -0.477   2.997  0.00  0.00     0.015 A 
ATOM      7  C7  IND d   1       0.670   0.344   2.451  0.00  0.00    -0.016 A 
ATOM      8  C8  IND d   1       0.646   0.497   1.072  0.00  0.00    -0.047 A 
ATOM      9  C9  IND d   1      -0.283  -0.175   0.267  0.00  0.00    -0.096 A 
ATOM     10  HN1 IND d   1       2.120   1.722   0.482  0.00  0.00     0.298 HD
ENDROOT
TORSDOF 0
ENDMDL
