MODEL 1
REMARK minimizedAffinity -3.69354033
REMARK minimizedRMSD -1
REMARK  0 active torsions:
REMARK  status: ('A' for Active; 'I' for Inactive)
ROOT
ATOM      1  N1  IND d   1      -1.026  -0.005  -0.513  0.00  0.00    -0.196 N 
ATOM      2  C2  IND d   1       0.020   0.185  -1.373  0.00  0.00     0.054 A 
ATOM      3  C3  IND d   1       1.178   0.302  -0.686  0.00  0.00    -0.031 A 
ATOM      4  C4  IND d   1       1.604   0.112   1.846  0.00  0.00     0.051 A 
ATOM      5  C5  IND d   1       0.954  -0.021   3.041  0.00  0.00    -0.031 A 
ATOM      6  C6  IND d   1      -0.417  -0.161   3.113  0.00  0.00     0.015 A 
ATOM      7  C7  IND d   1      -1.191  -0.185   1.988  0.00  0.00    -0.016 A 
ATOM      8  C8  IND d   1      -0.535  -0.043   0.773  0.00  0.00    -0.047 A 
ATOM      9  C9  IND d   1       0.852   0.143   0.696  0.00  0.00    -0.096 A 
ATOM     10  HN1 IND d   1      -1.852  -0.087  -0.738  0.00  0.00     0.298 HD
ENDROOT
TORSDOF 0
ENDMDL
