MODEL 1
REMARK minimizedAffinity -4.00196075
REMARK minimizedRMSD -1
REMARK  0 active torsions:
REMARK  status: ('A' for Active; 'I' for Inactive)
ROOT
ATOM      1  N1  IND d   1       1.384   0.516  -0.363  0.00  0.00    -0.196 N 
ATOM      2  C2  IND d   1       0.611   0.240  -1.456  0.00  0.00     0.054 A 
ATOM      3  C3  IND d   1      -0.492  -0.451  -1.089  0.00  0.00    -0.031 A 
ATOM      4  C4  IND d   1      -1.280  -1.146   1.261  0.00  0.00     0.051 A 
ATOM      5  C5  IND d   1      -0.891  -1.148   2.571  0.00  0.00    -0.031 A 
ATOM      6  C6  IND d   1       0.300  -0.582   2.979  0.00  0.00     0.015 A 
ATOM      7  C7  IND d   1       1.144   0.020   2.089  0.00  0.00    -0.016 A 
ATOM      8  C8  IND d   1       0.755   0.018   0.757  0.00  0.00    -0.047 A 
ATOM      9  C9  IND d   1      -0.432  -0.592   0.331  0.00  0.00    -0.096 A 
ATOM     10  HN1 IND d   1       2.137   0.931  -0.373  0.00  0.00     0.298 HD
ENDROOT
TORSDOF 0
ENDMDL
