MODEL 1
REMARK minimizedAffinity -2.98449874
REMARK minimizedRMSD -1
REMARK  0 active torsions:
REMARK  status: ('A' for Active; 'I' for Inactive)
ROOT
ATOM      1  N1  IND d   1      -0.950  -0.525  -0.599  0.00  0.00    -0.196 N 
ATOM      2  C2  IND d   1       0.119  -0.031  -1.293  0.00  0.00     0.054 A 
ATOM      3  C3  IND d   1       1.021   0.511  -0.444  0.00  0.00    -0.031 A 
ATOM      4  C4  IND d   1       0.994   0.605   2.129  0.00  0.00     0.051 A 
ATOM      5  C5  IND d   1       0.208   0.316   3.209  0.00  0.00    -0.031 A 
ATOM      6  C6  IND d   1      -1.028  -0.282   3.072  0.00  0.00     0.015 A 
ATOM      7  C7  IND d   1      -1.521  -0.626   1.846  0.00  0.00    -0.016 A 
ATOM      8  C8  IND d   1      -0.729  -0.328   0.746  0.00  0.00    -0.047 A 
ATOM      9  C9  IND d   1       0.507   0.318   0.875  0.00  0.00    -0.096 A 
ATOM     10  HN1 IND d   1      -1.644  -0.897  -0.945  0.00  0.00     0.298 HD
ENDROOT
TORSDOF 0
ENDMDL
