MODEL 1
REMARK minimizedAffinity -1.51265335
REMARK minimizedRMSD -1
REMARK  0 active torsions:
REMARK  status: ('A' for Active; 'I' for Inactive)
ROOT
ATOM      1  N1  IND d   1      -2.088   0.155   2.664  0.00  0.00    -0.196 N 
ATOM      2  C2  IND d   1      -1.271   0.274   3.753  0.00  0.00     0.054 A 
ATOM      3  C3  IND d   1       0.025   0.304   3.369  0.00  0.00    -0.031 A 
ATOM      4  C4  IND d   1       1.029   0.277   0.999  0.00  0.00     0.051 A 
ATOM      5  C5  IND d   1       0.682   0.140  -0.316  0.00  0.00    -0.031 A 
ATOM      6  C6  IND d   1      -0.632   0.002  -0.713  0.00  0.00     0.015 A 
ATOM      7  C7  IND d   1      -1.654   0.006   0.193  0.00  0.00    -0.016 A 
ATOM      8  C8  IND d   1      -1.306   0.137   1.530  0.00  0.00    -0.047 A 
ATOM      9  C9  IND d   1       0.029   0.235   1.942  0.00  0.00    -0.096 A 
ATOM     10  HN1 IND d   1      -2.946   0.100   2.683  0.00  0.00     0.298 HD
ENDROOT
TORSDOF 0
ENDMDL
