MODEL 1
REMARK minimizedAffinity -3.70878267
REMARK minimizedRMSD -1
REMARK  0 active torsions:
REMARK  status: ('A' for Active; 'I' for Inactive)
ROOT
ATOM      1  N1  IND d   1       0.458   0.240   3.289  0.00  0.00    -0.196 N 
ATOM      2  C2  IND d   1      -0.826  -0.005   3.688  0.00  0.00     0.054 A 
ATOM      3  C3  IND d   1      -1.643  -0.092   2.614  0.00  0.00    -0.031 A 
ATOM      4  C4  IND d   1      -1.069   0.034   0.108  0.00  0.00     0.051 A 
ATOM      5  C5  IND d   1      -0.034   0.282  -0.749  0.00  0.00    -0.031 A 
ATOM      6  C6  IND d   1       1.245   0.531  -0.295  0.00  0.00     0.015 A 
ATOM      7  C7  IND d   1       1.540   0.530   1.039  0.00  0.00    -0.016 A 
ATOM      8  C8  IND d   1       0.489   0.286   1.913  0.00  0.00    -0.047 A 
ATOM      9  C9  IND d   1      -0.819   0.075   1.459  0.00  0.00    -0.096 A 
ATOM     10  HN1 IND d   1       1.134   0.348   3.811  0.00  0.00     0.298 HD
ENDROOT
TORSDOF 0
ENDMDL
