MODEL 1
REMARK minimizedAffinity -6.12334347
REMARK minimizedRMSD -1
REMARK  0 active torsions:
REMARK  status: ('A' for Active; 'I' for Inactive)
ROOT
ATOM      1  N1  IND d   1       0.120   0.186  -0.484  0.00  0.00    -0.196 N 
ATOM      2  C2  IND d   1       1.442   0.086  -0.153  0.00  0.00     0.054 A 
ATOM      3  C3  IND d   1       1.587   0.012   1.189  0.00  0.00    -0.031 A 
ATOM      4  C4  IND d   1      -0.214  -0.064   3.027  0.00  0.00     0.051 A 
ATOM      5  C5  IND d   1      -1.564   0.036   3.217  0.00  0.00    -0.031 A 
ATOM      6  C6  IND d   1      -2.439   0.191   2.161  0.00  0.00     0.015 A 
ATOM      7  C7  IND d   1      -1.996   0.241   0.870  0.00  0.00    -0.016 A 
ATOM      8  C8  IND d   1      -0.626   0.148   0.674  0.00  0.00    -0.047 A 
ATOM      9  C9  IND d   1       0.271   0.033   1.744  0.00  0.00    -0.096 A 
ATOM     10  HN1 IND d   1      -0.194   0.261  -1.281  0.00  0.00     0.298 HD
ENDROOT
TORSDOF 0
ENDMDL
