MODEL 1
REMARK minimizedAffinity -2.32903981
REMARK minimizedRMSD -1
REMARK  1 active torsions:
REMARK  status: ('A' for Active; 'I' for Inactive)
REMARK    1  A    between atoms: C1_2  and  C2_3 
ROOT
ATOM      1  C2  UNL d   1       0.229   0.548  -0.190  0.00  0.00    -0.077 A 
ATOM      2  C3  UNL d   1       0.006   1.792   0.416  0.00  0.00     0.002 A 
ATOM      3  C4  UNL d   1       0.204   1.955   1.789  0.00  0.00     0.002 A 
ATOM      4  C5  UNL d   1       0.629   0.879   2.565  0.00  0.00    -0.004 A 
ATOM      5  C6  UNL d   1       0.851  -0.363   1.972  0.00  0.00     0.002 A 
ATOM      6  C7  UNL d   1       0.653  -0.528   0.601  0.00  0.00     0.002 A 
ENDROOT
BRANCH   1   7
ATOM      7  C1  UNL d   1       0.064   0.384  -1.678  0.00  0.00     0.055 C 
ATOM      8  C   UNL d   1      -0.115   1.728  -2.367  0.00  0.00     0.019 C 
ENDBRANCH   1   7
TORSDOF 1
ENDMDL
