MODEL 1
REMARK minimizedAffinity -4.53128004
REMARK minimizedRMSD -1
REMARK  1 active torsions:
REMARK  status: ('A' for Active; 'I' for Inactive)
REMARK    1  A    between atoms: C1_2  and  C2_3 
ROOT
ATOM      1  C2  UNL d   1       0.438  -0.513  -0.394  0.00  0.00    -0.077 A 
ATOM      2  C3  UNL d   1       1.118  -0.864   0.781  0.00  0.00     0.002 A 
ATOM      3  C4  UNL d   1       0.863  -0.186   1.974  0.00  0.00     0.002 A 
ATOM      4  C5  UNL d   1      -0.075   0.844   2.005  0.00  0.00    -0.004 A 
ATOM      5  C6  UNL d   1      -0.755   1.202   0.842  0.00  0.00     0.002 A 
ATOM      6  C7  UNL d   1      -0.500   0.525  -0.352  0.00  0.00     0.002 A 
ENDROOT
BRANCH   1   7
ATOM      7  C1  UNL d   1       0.676  -1.276  -1.671  0.00  0.00     0.055 C 
ATOM      8  C   UNL d   1       0.624  -2.779  -1.436  0.00  0.00     0.019 C 
ENDBRANCH   1   7
TORSDOF 1
ENDMDL
