MODEL 1
REMARK minimizedAffinity -5.56841993
REMARK minimizedRMSD -1
REMARK  1 active torsions:
REMARK  status: ('A' for Active; 'I' for Inactive)
REMARK    1  A    between atoms: C1_2  and  C2_3 
ROOT
ATOM      1  C2  UNL d   1      -0.127   1.153   1.391  0.00  0.00    -0.077 A 
ATOM      2  C3  UNL d   1      -0.878   1.805   0.403  0.00  0.00     0.002 A 
ATOM      3  C4  UNL d   1      -0.889   3.199   0.328  0.00  0.00     0.002 A 
ATOM      4  C5  UNL d   1      -0.148   3.953   1.236  0.00  0.00    -0.004 A 
ATOM      5  C6  UNL d   1       0.601   3.314   2.223  0.00  0.00     0.002 A 
ATOM      6  C7  UNL d   1       0.612   1.921   2.300  0.00  0.00     0.002 A 
ENDROOT
BRANCH   1   7
ATOM      7  C1  UNL d   1      -0.075  -0.351   1.442  0.00  0.00     0.055 C 
ATOM      8  C   UNL d   1       0.293  -0.939   0.087  0.00  0.00     0.019 C 
ENDBRANCH   1   7
TORSDOF 1
ENDMDL
