MODEL 1
REMARK minimizedAffinity -3.76577687
REMARK minimizedRMSD -1
REMARK  1 active torsions:
REMARK  status: ('A' for Active; 'I' for Inactive)
REMARK    1  A    between atoms: C1_2  and  C2_3 
ROOT
ATOM      1  C2  UNL d   1       0.044   1.893   1.998  0.00  0.00    -0.077 A 
ATOM      2  C3  UNL d   1      -0.170   3.020   1.191  0.00  0.00     0.002 A 
ATOM      3  C4  UNL d   1       0.738   4.081   1.204  0.00  0.00     0.002 A 
ATOM      4  C5  UNL d   1       1.867   4.023   2.018  0.00  0.00    -0.004 A 
ATOM      5  C6  UNL d   1       2.088   2.908   2.825  0.00  0.00     0.002 A 
ATOM      6  C7  UNL d   1       1.181   1.847   2.815  0.00  0.00     0.002 A 
ENDROOT
BRANCH   1   7
ATOM      7  C1  UNL d   1      -0.909   0.727   1.948  0.00  0.00     0.055 C 
ATOM      8  C   UNL d   1      -0.400  -0.364   1.018  0.00  0.00     0.019 C 
ENDBRANCH   1   7
TORSDOF 1
ENDMDL
