MODEL 1
REMARK minimizedAffinity -3.53978515
REMARK minimizedRMSD -1
REMARK  1 active torsions:
REMARK  status: ('A' for Active; 'I' for Inactive)
REMARK    1  A    between atoms: C1_2  and  C2_3 
ROOT
ATOM      1  C2  UNL d   1      -0.049   0.367  -0.232  0.00  0.00    -0.077 A 
ATOM      2  C3  UNL d   1       0.468   0.318   1.070  0.00  0.00     0.002 A 
ATOM      3  C4  UNL d   1       0.010   1.205   2.046  0.00  0.00     0.002 A 
ATOM      4  C5  UNL d   1      -0.971   2.143   1.731  0.00  0.00    -0.004 A 
ATOM      5  C6  UNL d   1      -1.490   2.201   0.438  0.00  0.00     0.002 A 
ATOM      6  C7  UNL d   1      -1.032   1.316  -0.539  0.00  0.00     0.002 A 
ENDROOT
BRANCH   1   7
ATOM      7  C1  UNL d   1       0.409  -0.621  -1.273  0.00  0.00     0.055 C 
ATOM      8  C   UNL d   1       0.199  -2.054  -0.806  0.00  0.00     0.019 C 
ENDBRANCH   1   7
TORSDOF 1
ENDMDL
