MODEL 1
REMARK minimizedAffinity -1.03608215
REMARK minimizedRMSD -1
REMARK  1 active torsions:
REMARK  status: ('A' for Active; 'I' for Inactive)
REMARK    1  A    between atoms: C1_2  and  C2_3 
ROOT
ATOM      1  C2  UNL d   1      -0.030   1.022   1.694  0.00  0.00    -0.077 A 
ATOM      2  C3  UNL d   1       0.524   0.056   0.842  0.00  0.00     0.002 A 
ATOM      3  C4  UNL d   1       0.026  -0.113  -0.452  0.00  0.00     0.002 A 
ATOM      4  C5  UNL d   1      -1.024   0.682  -0.906  0.00  0.00    -0.004 A 
ATOM      5  C6  UNL d   1      -1.583   1.644  -0.065  0.00  0.00     0.002 A 
ATOM      6  C7  UNL d   1      -1.088   1.814   1.228  0.00  0.00     0.002 A 
ENDROOT
BRANCH   1   7
ATOM      7  C1  UNL d   1       0.537   1.240   3.072  0.00  0.00     0.055 C 
ATOM      8  C   UNL d   1       1.672   2.254   3.050  0.00  0.00     0.019 C 
ENDBRANCH   1   7
TORSDOF 1
ENDMDL
