MODEL 1
REMARK minimizedAffinity 3.30163932
REMARK minimizedRMSD -1
REMARK  2 active torsions:
REMARK  status: ('A' for Active; 'I' for Inactive)
REMARK    1  A    between atoms: C1_2  and  C2_3 
REMARK    2  A    between atoms: C2_3  and  C3_4 
ROOT
ATOM      1  C3  UNL d   1       3.769  -0.755   3.591  0.00  0.00    -0.075 A 
ATOM      2  C4  UNL d   1       3.155  -0.433   4.810  0.00  0.00     0.002 A 
ATOM      3  C5  UNL d   1       3.883  -0.462   6.000  0.00  0.00     0.002 A 
ATOM      4  C6  UNL d   1       5.228  -0.824   5.988  0.00  0.00    -0.004 A 
ATOM      5  C7  UNL d   1       5.844  -1.162   4.785  0.00  0.00     0.002 A 
ATOM      6  C8  UNL d   1       5.120  -1.129   3.592  0.00  0.00     0.002 A 
ENDROOT
BRANCH   1   7
ATOM      7  C2  UNL d   1       2.994  -0.696   2.296  0.00  0.00     0.056 C 
BRANCH   7   8
ATOM      8  C1  UNL d   1       2.371  -2.033   1.881  0.00  0.00     0.007 C 
ATOM      9  C   UNL d   1       1.469  -2.633   2.952  0.00  0.00     0.009 C 
ENDBRANCH   7   8
ENDBRANCH   1   7
TORSDOF 2
ENDMDL
