MODEL 1
REMARK minimizedAffinity 3.39871335
REMARK minimizedRMSD -1
REMARK  2 active torsions:
REMARK  status: ('A' for Active; 'I' for Inactive)
REMARK    1  A    between atoms: C1_2  and  C2_3 
REMARK    2  A    between atoms: C2_3  and  C3_4 
ROOT
ATOM      1  C3  UNL d   1       0.961   3.377   2.255  0.00  0.00    -0.075 A 
ATOM      2  C4  UNL d   1       2.358   3.307   2.355  0.00  0.00     0.002 A 
ATOM      3  C5  UNL d   1       2.963   2.867   3.532  0.00  0.00     0.002 A 
ATOM      4  C6  UNL d   1       2.181   2.502   4.626  0.00  0.00    -0.004 A 
ATOM      5  C7  UNL d   1       0.793   2.583   4.544  0.00  0.00     0.002 A 
ATOM      6  C8  UNL d   1       0.185   3.019   3.366  0.00  0.00     0.002 A 
ENDROOT
BRANCH   1   7
ATOM      7  C2  UNL d   1       0.299   3.824   0.973  0.00  0.00     0.056 C 
BRANCH   7   8
ATOM      8  C1  UNL d   1       0.350   2.784  -0.151  0.00  0.00     0.007 C 
ATOM      9  C   UNL d   1      -0.948   2.002  -0.304  0.00  0.00     0.009 C 
ENDBRANCH   7   8
ENDBRANCH   1   7
TORSDOF 2
ENDMDL
