MODEL 1
REMARK minimizedAffinity 3.20917368
REMARK minimizedRMSD -1
REMARK  0 active torsions:
REMARK  status: ('A' for Active; 'I' for Inactive)
ROOT
ATOM      1  C1  DEN d   1       5.286   1.530   1.822  0.00  0.00     0.130 A 
ATOM      2  C2  DEN d   1       4.574   2.706   2.314  0.00  0.00    -0.031 A 
ATOM      3  C3  DEN d   1       4.284   2.498   3.747  0.00  0.00     0.027 A 
ATOM      4  C4  DEN d   1       4.869   0.482   5.245  0.00  0.00     0.027 A 
ATOM      5  C5  DEN d   1       5.460  -0.762   5.273  0.00  0.00    -0.003 A 
ATOM      6  C6  DEN d   1       6.000  -1.339   4.154  0.00  0.00     0.001 A 
ATOM      7  C7  DEN d   1       6.000  -0.652   2.968  0.00  0.00     0.017 A 
ATOM      8  C8  DEN d   1       5.399   0.600   2.931  0.00  0.00    -0.094 A 
ATOM      9  C9  DEN d   1       4.870   1.171   4.076  0.00  0.00    -0.072 A 
ENDROOT
TORSDOF 0
ENDMDL
