MODEL 1
REMARK minimizedAffinity -2.47785163
REMARK minimizedRMSD -1
REMARK  0 active torsions:
REMARK  status: ('A' for Active; 'I' for Inactive)
ROOT
ATOM      1  C1  DEN d   1       5.972   3.327   4.882  0.00  0.00     0.130 A 
ATOM      2  C2  DEN d   1       5.995   3.905   3.541  0.00  0.00    -0.031 A 
ATOM      3  C3  DEN d   1       6.000   2.796   2.566  0.00  0.00     0.027 A 
ATOM      4  C4  DEN d   1       5.971   0.254   2.999  0.00  0.00     0.027 A 
ATOM      5  C5  DEN d   1       5.961  -0.718   3.975  0.00  0.00    -0.003 A 
ATOM      6  C6  DEN d   1       5.989  -0.414   5.310  0.00  0.00     0.001 A 
ATOM      7  C7  DEN d   1       5.982   0.897   5.707  0.00  0.00     0.017 A 
ATOM      8  C8  DEN d   1       5.999   1.883   4.729  0.00  0.00    -0.094 A 
ATOM      9  C9  DEN d   1       5.958   1.555   3.385  0.00  0.00    -0.072 A 
ENDROOT
TORSDOF 0
ENDMDL
