MODEL 1
REMARK minimizedAffinity -3.20974374
REMARK minimizedRMSD -1
REMARK  0 active torsions:
REMARK  status: ('A' for Active; 'I' for Inactive)
ROOT
ATOM      1  C1  DEN d   1       6.000   2.991   5.317  0.00  0.00     0.130 A 
ATOM      2  C2  DEN d   1       5.844   3.684   4.041  0.00  0.00    -0.031 A 
ATOM      3  C3  DEN d   1       5.510   2.678   3.013  0.00  0.00     0.027 A 
ATOM      4  C4  DEN d   1       5.218   0.128   3.272  0.00  0.00     0.027 A 
ATOM      5  C5  DEN d   1       5.263  -0.922   4.162  0.00  0.00    -0.003 A 
ATOM      6  C6  DEN d   1       5.587  -0.748   5.481  0.00  0.00     0.001 A 
ATOM      7  C7  DEN d   1       5.836   0.512   5.959  0.00  0.00     0.017 A 
ATOM      8  C8  DEN d   1       5.799   1.575   5.066  0.00  0.00    -0.094 A 
ATOM      9  C9  DEN d   1       5.457   1.380   3.738  0.00  0.00    -0.072 A 
ENDROOT
TORSDOF 0
ENDMDL
