MODEL 1
REMARK minimizedAffinity -2.93530774
REMARK minimizedRMSD -1
REMARK  0 active torsions:
REMARK  status: ('A' for Active; 'I' for Inactive)
ROOT
ATOM      1  C1  DEN d   1       5.997   0.773   6.000  0.00  0.00     0.130 A 
ATOM      2  C2  DEN d   1       5.968  -0.628   5.588  0.00  0.00    -0.031 A 
ATOM      3  C3  DEN d   1       5.954  -0.670   4.112  0.00  0.00     0.027 A 
ATOM      4  C4  DEN d   1       5.981   1.288   2.433  0.00  0.00     0.027 A 
ATOM      5  C5  DEN d   1       5.995   2.660   2.308  0.00  0.00    -0.003 A 
ATOM      6  C6  DEN d   1       5.976   3.492   3.396  0.00  0.00     0.001 A 
ATOM      7  C7  DEN d   1       5.988   2.960   4.658  0.00  0.00     0.017 A 
ATOM      8  C8  DEN d   1       5.967   1.578   4.792  0.00  0.00    -0.094 A 
ATOM      9  C9  DEN d   1       5.999   0.753   3.680  0.00  0.00    -0.072 A 
ENDROOT
TORSDOF 0
ENDMDL
