MODEL 1
REMARK minimizedAffinity -1.58246613
REMARK minimizedRMSD -1
REMARK  0 active torsions:
REMARK  status: ('A' for Active; 'I' for Inactive)
ROOT
ATOM      1  C1  DEN d   1       5.995   0.381   5.959  0.00  0.00     0.130 A 
ATOM      2  C2  DEN d   1       5.967  -1.063   5.744  0.00  0.00    -0.031 A 
ATOM      3  C3  DEN d   1       5.956  -1.307   4.287  0.00  0.00     0.027 A 
ATOM      4  C4  DEN d   1       5.984   0.401   2.355  0.00  0.00     0.027 A 
ATOM      5  C5  DEN d   1       5.997   1.743   2.044  0.00  0.00    -0.003 A 
ATOM      6  C6  DEN d   1       5.976   2.717   3.007  0.00  0.00     0.001 A 
ATOM      7  C7  DEN d   1       5.987   2.363   4.330  0.00  0.00     0.017 A 
ATOM      8  C8  DEN d   1       5.966   1.012   4.652  0.00  0.00    -0.094 A 
ATOM      9  C9  DEN d   1       6.000   0.043   3.664  0.00  0.00    -0.072 A 
ENDROOT
TORSDOF 0
ENDMDL
