MODEL 1
REMARK minimizedAffinity -4.06144047
REMARK minimizedRMSD -1
REMARK  0 active torsions:
REMARK  status: ('A' for Active; 'I' for Inactive)
ROOT
ATOM      1  C1  DEN d   1       6.000   3.004   4.674  0.00  0.00     0.130 A 
ATOM      2  C2  DEN d   1       6.000   3.674   3.376  0.00  0.00    -0.031 A 
ATOM      3  C3  DEN d   1       5.709   2.662   2.340  0.00  0.00     0.027 A 
ATOM      4  C4  DEN d   1       5.257   0.138   2.620  0.00  0.00     0.027 A 
ATOM      5  C5  DEN d   1       5.163  -0.891   3.530  0.00  0.00    -0.003 A 
ATOM      6  C6  DEN d   1       5.373  -0.703   4.870  0.00  0.00     0.001 A 
ATOM      7  C7  DEN d   1       5.643   0.554   5.345  0.00  0.00     0.017 A 
ATOM      8  C8  DEN d   1       5.747   1.595   4.432  0.00  0.00    -0.094 A 
ATOM      9  C9  DEN d   1       5.519   1.386   3.082  0.00  0.00    -0.072 A 
ENDROOT
TORSDOF 0
ENDMDL
