MODEL 1
REMARK minimizedAffinity -1.99299932
REMARK minimizedRMSD -1
REMARK  0 active torsions:
REMARK  status: ('A' for Active; 'I' for Inactive)
ROOT
ATOM      1  C1  DEN d   1       5.303   3.814   4.818  0.00  0.00     0.130 A 
ATOM      2  C2  DEN d   1       5.661   4.588   3.632  0.00  0.00    -0.031 A 
ATOM      3  C3  DEN d   1       5.999   3.638   2.553  0.00  0.00     0.027 A 
ATOM      4  C4  DEN d   1       5.999   1.059   2.602  0.00  0.00     0.027 A 
ATOM      5  C5  DEN d   1       5.777  -0.048   3.390  0.00  0.00    -0.003 A 
ATOM      6  C6  DEN d   1       5.417   0.053   4.708  0.00  0.00     0.001 A 
ATOM      7  C7  DEN d   1       5.225   1.289   5.265  0.00  0.00     0.017 A 
ATOM      8  C8  DEN d   1       5.454   2.411   4.479  0.00  0.00    -0.094 A 
ATOM      9  C9  DEN d   1       5.805   2.287   3.146  0.00  0.00    -0.072 A 
ENDROOT
TORSDOF 0
ENDMDL
