MODEL 1
REMARK minimizedAffinity 14.1990213
REMARK minimizedRMSD -1
REMARK  0 active torsions:
REMARK  status: ('A' for Active; 'I' for Inactive)
ROOT
ATOM      1  C1  DEN d   1       5.960   5.526   3.032  0.00  0.00     0.130 A 
ATOM      2  C2  DEN d   1       5.987   5.888   4.447  0.00  0.00    -0.031 A 
ATOM      3  C3  DEN d   1       5.998   4.640   5.236  0.00  0.00     0.027 A 
ATOM      4  C4  DEN d   1       5.980   2.197   4.411  0.00  0.00     0.027 A 
ATOM      5  C5  DEN d   1       5.946   1.389   3.295  0.00  0.00    -0.003 A 
ATOM      6  C6  DEN d   1       5.880   1.899   2.026  0.00  0.00     0.001 A 
ATOM      7  C7  DEN d   1       5.892   3.256   1.838  0.00  0.00     0.017 A 
ATOM      8  C8  DEN d   1       5.919   4.077   2.958  0.00  0.00    -0.094 A 
ATOM      9  C9  DEN d   1       5.998   3.542   4.233  0.00  0.00    -0.072 A 
ENDROOT
TORSDOF 0
ENDMDL
