MODEL 1
REMARK minimizedAffinity -0.993017137
REMARK minimizedRMSD -1
REMARK  0 active torsions:
REMARK  status: ('A' for Active; 'I' for Inactive)
ROOT
ATOM      1  C1  DEN d   1       5.996   0.614   5.987  0.00  0.00     0.130 A 
ATOM      2  C2  DEN d   1       5.960  -0.808   5.653  0.00  0.00    -0.031 A 
ATOM      3  C3  DEN d   1       5.942  -0.931   4.181  0.00  0.00     0.027 A 
ATOM      4  C4  DEN d   1       5.971   0.931   2.397  0.00  0.00     0.027 A 
ATOM      5  C5  DEN d   1       5.990   2.294   2.196  0.00  0.00    -0.003 A 
ATOM      6  C6  DEN d   1       5.977   3.185   3.236  0.00  0.00     0.001 A 
ATOM      7  C7  DEN d   1       5.991   2.723   4.526  0.00  0.00     0.017 A 
ATOM      8  C8  DEN d   1       5.965   1.351   4.736  0.00  0.00    -0.094 A 
ATOM      9  C9  DEN d   1       5.990   0.466   3.672  0.00  0.00    -0.072 A 
ENDROOT
TORSDOF 0
ENDMDL
