MODEL 1
REMARK minimizedAffinity -1.71704984
REMARK minimizedRMSD -1
REMARK  0 active torsions:
REMARK  status: ('A' for Active; 'I' for Inactive)
ROOT
ATOM      1  C1  DEN d   1       5.970   2.790   4.499  0.00  0.00     0.130 A 
ATOM      2  C2  DEN d   1       5.984   2.952   3.047  0.00  0.00    -0.031 A 
ATOM      3  C3  DEN d   1       5.989   1.608   2.438  0.00  0.00     0.027 A 
ATOM      4  C4  DEN d   1       5.969  -0.698   3.593  0.00  0.00     0.027 A 
ATOM      5  C5  DEN d   1       5.967  -1.344   4.810  0.00  0.00    -0.003 A 
ATOM      6  C6  DEN d   1       6.000  -0.664   5.998  0.00  0.00     0.001 A 
ATOM      7  C7  DEN d   1       5.990   0.706   5.996  0.00  0.00     0.017 A 
ATOM      8  C8  DEN d   1       6.000   1.365   4.773  0.00  0.00    -0.094 A 
ATOM      9  C9  DEN d   1       5.954   0.659   3.583  0.00  0.00    -0.072 A 
ENDROOT
TORSDOF 0
ENDMDL
