MODEL 1
REMARK minimizedAffinity 0.751565814
REMARK minimizedRMSD -1
REMARK  0 active torsions:
REMARK  status: ('A' for Active; 'I' for Inactive)
ROOT
ATOM      1  C1  DEN d   1       6.000   1.130   2.243  0.00  0.00     0.130 A 
ATOM      2  C2  DEN d   1       5.966   2.533   2.647  0.00  0.00    -0.031 A 
ATOM      3  C3  DEN d   1       5.951   2.583   4.123  0.00  0.00     0.027 A 
ATOM      4  C4  DEN d   1       5.983   0.634   5.812  0.00  0.00     0.027 A 
ATOM      5  C5  DEN d   1       6.000  -0.737   5.945  0.00  0.00    -0.003 A 
ATOM      6  C6  DEN d   1       5.984  -1.575   4.862  0.00  0.00     0.001 A 
ATOM      7  C7  DEN d   1       5.996  -1.050   3.597  0.00  0.00     0.017 A 
ATOM      8  C8  DEN d   1       5.971   0.331   3.455  0.00  0.00    -0.094 A 
ATOM      9  C9  DEN d   1       6.000   1.162   4.562  0.00  0.00    -0.072 A 
ENDROOT
TORSDOF 0
ENDMDL
