MODEL 1
REMARK minimizedAffinity -1.0083487
REMARK minimizedRMSD -1
REMARK  0 active torsions:
REMARK  status: ('A' for Active; 'I' for Inactive)
ROOT
ATOM      1  C1  DEN d   1       5.973   0.205   2.216  0.00  0.00     0.130 A 
ATOM      2  C2  DEN d   1       5.929   1.625   2.555  0.00  0.00    -0.031 A 
ATOM      3  C3  DEN d   1       5.919   1.742   4.027  0.00  0.00     0.027 A 
ATOM      4  C4  DEN d   1       5.971  -0.126   5.805  0.00  0.00     0.027 A 
ATOM      5  C5  DEN d   1       6.000  -1.490   5.999  0.00  0.00    -0.003 A 
ATOM      6  C6  DEN d   1       5.987  -2.377   4.956  0.00  0.00     0.001 A 
ATOM      7  C7  DEN d   1       5.990  -1.910   3.668  0.00  0.00     0.017 A 
ATOM      8  C8  DEN d   1       5.954  -0.537   3.464  0.00  0.00    -0.094 A 
ATOM      9  C9  DEN d   1       5.980   0.344   4.532  0.00  0.00    -0.072 A 
ENDROOT
TORSDOF 0
ENDMDL
