MODEL 1
REMARK minimizedAffinity -4.28950119
REMARK minimizedRMSD -1
REMARK  0 active torsions:
REMARK  status: ('A' for Active; 'I' for Inactive)
ROOT
ATOM      1  C1  DEN d   1       5.741  -1.066   3.660  0.00  0.00     0.130 A 
ATOM      2  C2  DEN d   1       5.638  -1.716   4.964  0.00  0.00    -0.031 A 
ATOM      3  C3  DEN d   1       5.639  -0.663   6.000  0.00  0.00     0.027 A 
ATOM      4  C4  DEN d   1       5.784   1.896   5.712  0.00  0.00     0.027 A 
ATOM      5  C5  DEN d   1       5.897   2.918   4.795  0.00  0.00    -0.003 A 
ATOM      6  C6  DEN d   1       6.000   2.684   3.450  0.00  0.00     0.001 A 
ATOM      7  C7  DEN d   1       5.946   1.399   2.978  0.00  0.00     0.017 A 
ATOM      8  C8  DEN d   1       5.839   0.363   3.897  0.00  0.00    -0.094 A 
ATOM      9  C9  DEN d   1       5.724   0.621   5.252  0.00  0.00    -0.072 A 
ENDROOT
TORSDOF 0
ENDMDL
