MODEL 1
REMARK minimizedAffinity 0.922461331
REMARK minimizedRMSD -1
REMARK  0 active torsions:
REMARK  status: ('A' for Active; 'I' for Inactive)
ROOT
ATOM      1  C1  DEN d   1       5.943   2.173   2.246  0.00  0.00     0.130 A 
ATOM      2  C2  DEN d   1       5.972   1.349   3.451  0.00  0.00    -0.031 A 
ATOM      3  C3  DEN d   1       6.000   2.250   4.620  0.00  0.00     0.027 A 
ATOM      4  C4  DEN d   1       5.996   4.829   4.682  0.00  0.00     0.027 A 
ATOM      5  C5  DEN d   1       5.989   5.970   3.911  0.00  0.00    -0.003 A 
ATOM      6  C6  DEN d   1       6.000   5.926   2.542  0.00  0.00     0.001 A 
ATOM      7  C7  DEN d   1       5.973   4.716   1.901  0.00  0.00     0.017 A 
ATOM      8  C8  DEN d   1       5.988   3.561   2.672  0.00  0.00    -0.094 A 
ATOM      9  C9  DEN d   1       5.965   3.626   4.054  0.00  0.00    -0.072 A 
ENDROOT
TORSDOF 0
ENDMDL
