MODEL 1
REMARK minimizedAffinity -2.49337959
REMARK minimizedRMSD -1
REMARK  0 active torsions:
REMARK  status: ('A' for Active; 'I' for Inactive)
ROOT
ATOM      1  C1  DEN d   1       5.997   0.805   5.999  0.00  0.00     0.130 A 
ATOM      2  C2  DEN d   1       5.960  -0.619   5.677  0.00  0.00    -0.031 A 
ATOM      3  C3  DEN d   1       5.944  -0.754   4.206  0.00  0.00     0.027 A 
ATOM      4  C4  DEN d   1       5.978   1.094   2.407  0.00  0.00     0.027 A 
ATOM      5  C5  DEN d   1       5.999   2.455   2.196  0.00  0.00    -0.003 A 
ATOM      6  C6  DEN d   1       5.985   3.354   3.228  0.00  0.00     0.001 A 
ATOM      7  C7  DEN d   1       5.997   2.903   4.522  0.00  0.00     0.017 A 
ATOM      8  C8  DEN d   1       5.969   1.532   4.743  0.00  0.00    -0.094 A 
ATOM      9  C9  DEN d   1       5.995   0.639   3.685  0.00  0.00    -0.072 A 
ENDROOT
TORSDOF 0
ENDMDL
