MODEL 1
REMARK minimizedAffinity 0.175466374
REMARK minimizedRMSD -1
REMARK  0 active torsions:
REMARK  status: ('A' for Active; 'I' for Inactive)
ROOT
ATOM      1  C1  DEN d   1       5.942   4.571   4.361  0.00  0.00     0.130 A 
ATOM      2  C2  DEN d   1       5.969   4.719   2.908  0.00  0.00    -0.031 A 
ATOM      3  C3  DEN d   1       5.995   3.369   2.312  0.00  0.00     0.027 A 
ATOM      4  C4  DEN d   1       5.992   1.074   3.490  0.00  0.00     0.027 A 
ATOM      5  C5  DEN d   1       5.986   0.441   4.713  0.00  0.00    -0.003 A 
ATOM      6  C6  DEN d   1       5.999   1.133   5.895  0.00  0.00     0.001 A 
ATOM      7  C7  DEN d   1       5.973   2.503   5.879  0.00  0.00     0.017 A 
ATOM      8  C8  DEN d   1       5.987   3.149   4.650  0.00  0.00    -0.094 A 
ATOM      9  C9  DEN d   1       5.961   2.431   3.466  0.00  0.00    -0.072 A 
ENDROOT
TORSDOF 0
ENDMDL
