MODEL 1
REMARK minimizedAffinity 2.73262072
REMARK minimizedRMSD -1
REMARK  0 active torsions:
REMARK  status: ('A' for Active; 'I' for Inactive)
ROOT
ATOM      1  N1  IND d   1       1.427   0.207   0.414  0.00  0.00    -0.196 N 
ATOM      2  C2  IND d   1       1.983  -0.995   0.754  0.00  0.00     0.054 A 
ATOM      3  C3  IND d   1       1.125  -1.712   1.514  0.00  0.00    -0.031 A 
ATOM      4  C4  IND d   1      -1.281  -1.151   2.236  0.00  0.00     0.051 A 
ATOM      5  C5  IND d   1      -2.211  -0.150   2.199  0.00  0.00    -0.031 A 
ATOM      6  C6  IND d   1      -1.972   1.044   1.549  0.00  0.00     0.015 A 
ATOM      7  C7  IND d   1      -0.793   1.278   0.900  0.00  0.00    -0.016 A 
ATOM      8  C8  IND d   1       0.156   0.267   0.942  0.00  0.00    -0.047 A 
ATOM      9  C9  IND d   1      -0.064  -0.930   1.636  0.00  0.00    -0.096 A 
ATOM     10  HN1 IND d   1       1.808   0.822  -0.051  0.00  0.00     0.298 HD
ENDROOT
TORSDOF 0
ENDMDL
