MODEL 1
REMARK minimizedAffinity 3.17762017
REMARK minimizedRMSD -1
REMARK  0 active torsions:
REMARK  status: ('A' for Active; 'I' for Inactive)
ROOT
ATOM      1  N1  IND d   1      -4.446  -3.980   4.319  0.00  0.00    -0.196 N 
ATOM      2  C2  IND d   1      -4.805  -5.294   4.439  0.00  0.00     0.054 A 
ATOM      3  C3  IND d   1      -4.367  -6.000   3.372  0.00  0.00    -0.031 A 
ATOM      4  C4  IND d   1      -2.957  -5.223   1.364  0.00  0.00     0.051 A 
ATOM      5  C5  IND d   1      -2.417  -4.103   0.795  0.00  0.00    -0.031 A 
ATOM      6  C6  IND d   1      -2.526  -2.861   1.386  0.00  0.00     0.015 A 
ATOM      7  C7  IND d   1      -3.172  -2.693   2.578  0.00  0.00    -0.016 A 
ATOM      8  C8  IND d   1      -3.727  -3.826   3.154  0.00  0.00    -0.047 A 
ATOM      9  C9  IND d   1      -3.657  -5.083   2.539  0.00  0.00    -0.096 A 
ATOM     10  HN1 IND d   1      -4.638  -3.355   4.878  0.00  0.00     0.298 HD
ENDROOT
TORSDOF 0
ENDMDL
