MODEL 1
REMARK minimizedAffinity 8.62923622
REMARK minimizedRMSD -1
REMARK  0 active torsions:
REMARK  status: ('A' for Active; 'I' for Inactive)
ROOT
ATOM      1  N1  IND d   1      -3.772  -0.378  -1.587  0.00  0.00    -0.196 N 
ATOM      2  C2  IND d   1      -3.961   0.971  -1.704  0.00  0.00     0.054 A 
ATOM      3  C3  IND d   1      -3.781   1.576  -0.509  0.00  0.00    -0.031 A 
ATOM      4  C4  IND d   1      -3.075   0.561   1.749  0.00  0.00     0.051 A 
ATOM      5  C5  IND d   1      -2.823  -0.635   2.361  0.00  0.00    -0.031 A 
ATOM      6  C6  IND d   1      -2.873  -1.830   1.673  0.00  0.00     0.015 A 
ATOM      7  C7  IND d   1      -3.167  -1.873   0.339  0.00  0.00    -0.016 A 
ATOM      8  C8  IND d   1      -3.430  -0.661  -0.283  0.00  0.00    -0.047 A 
ATOM      9  C9  IND d   1      -3.423   0.551   0.419  0.00  0.00    -0.096 A 
ATOM     10  HN1 IND d   1      -3.853  -0.953  -2.222  0.00  0.00     0.298 HD
ENDROOT
TORSDOF 0
ENDMDL
