MODEL 1
REMARK minimizedAffinity 8.54502583
REMARK minimizedRMSD -1
REMARK  0 active torsions:
REMARK  status: ('A' for Active; 'I' for Inactive)
ROOT
ATOM      1  N1  IND d   1       4.023  -1.616  -2.245  0.00  0.00    -0.196 N 
ATOM      2  C2  IND d   1       4.192  -0.348  -2.728  0.00  0.00     0.054 A 
ATOM      3  C3  IND d   1       3.483   0.535  -1.989  0.00  0.00    -0.031 A 
ATOM      4  C4  IND d   1       2.059   0.134   0.118  0.00  0.00     0.051 A 
ATOM      5  C5  IND d   1       1.576  -0.864   0.917  0.00  0.00    -0.031 A 
ATOM      6  C6  IND d   1       1.892  -2.189   0.701  0.00  0.00     0.015 A 
ATOM      7  C7  IND d   1       2.717  -2.567  -0.321  0.00  0.00    -0.016 A 
ATOM      8  C8  IND d   1       3.204  -1.558  -1.139  0.00  0.00    -0.047 A 
ATOM      9  C9  IND d   1       2.852  -0.215  -0.950  0.00  0.00    -0.096 A 
ATOM     10  HN1 IND d   1       4.370  -2.329  -2.576  0.00  0.00     0.298 HD
ENDROOT
TORSDOF 0
ENDMDL
