MODEL 1
REMARK minimizedAffinity 1.09826958
REMARK minimizedRMSD -1
REMARK  0 active torsions:
REMARK  status: ('A' for Active; 'I' for Inactive)
ROOT
ATOM      1  N1  IND d   1       0.559   1.448   0.208  0.00  0.00    -0.196 N 
ATOM      2  C2  IND d   1       1.548   2.341  -0.099  0.00  0.00     0.054 A 
ATOM      3  C3  IND d   1       2.708   1.693  -0.344  0.00  0.00    -0.031 A 
ATOM      4  C4  IND d   1       3.190  -0.835  -0.400  0.00  0.00     0.051 A 
ATOM      5  C5  IND d   1       2.610  -2.048  -0.151  0.00  0.00    -0.031 A 
ATOM      6  C6  IND d   1       1.290  -2.160   0.235  0.00  0.00     0.015 A 
ATOM      7  C7  IND d   1       0.494  -1.059   0.376  0.00  0.00    -0.016 A 
ATOM      8  C8  IND d   1       1.081   0.175   0.132  0.00  0.00    -0.047 A 
ATOM      9  C9  IND d   1       2.431   0.297  -0.219  0.00  0.00    -0.096 A 
ATOM     10  HN1 IND d   1      -0.251   1.647   0.413  0.00  0.00     0.298 HD
ENDROOT
TORSDOF 0
ENDMDL
