MODEL 1
REMARK minimizedAffinity 0.9362427
REMARK minimizedRMSD -1
REMARK  0 active torsions:
REMARK  status: ('A' for Active; 'I' for Inactive)
ROOT
ATOM      1  N1  IND d   1      -3.898  -5.407  -1.910  0.00  0.00    -0.196 N 
ATOM      2  C2  IND d   1      -5.100  -5.824  -2.410  0.00  0.00     0.054 A 
ATOM      3  C3  IND d   1      -5.990  -5.999  -1.408  0.00  0.00    -0.031 A 
ATOM      4  C4  IND d   1      -5.721  -5.562   1.114  0.00  0.00     0.051 A 
ATOM      5  C5  IND d   1      -4.793  -5.209   2.053  0.00  0.00    -0.031 A 
ATOM      6  C6  IND d   1      -3.494  -4.895   1.712  0.00  0.00     0.015 A 
ATOM      7  C7  IND d   1      -3.075  -4.911   0.412  0.00  0.00    -0.016 A 
ATOM      8  C8  IND d   1      -4.013  -5.276  -0.544  0.00  0.00    -0.047 A 
ATOM      9  C9  IND d   1      -5.322  -5.637  -0.199  0.00  0.00    -0.096 A 
ATOM     10  HN1 IND d   1      -3.189  -5.252  -2.372  0.00  0.00     0.298 HD
ENDROOT
TORSDOF 0
ENDMDL
