MODEL 1
REMARK minimizedAffinity -2.3648653
REMARK minimizedRMSD -1
REMARK  0 active torsions:
REMARK  status: ('A' for Active; 'I' for Inactive)
ROOT
ATOM      1  N1  IND d   1      -2.656  -5.983   1.557  0.00  0.00    -0.196 N 
ATOM      2  C2  IND d   1      -3.793  -5.969   2.316  0.00  0.00     0.054 A 
ATOM      3  C3  IND d   1      -4.887  -5.935   1.523  0.00  0.00    -0.031 A 
ATOM      4  C4  IND d   1      -5.049  -6.000  -1.045  0.00  0.00     0.051 A 
ATOM      5  C5  IND d   1      -4.279  -5.980  -2.174  0.00  0.00    -0.031 A 
ATOM      6  C6  IND d   1      -2.900  -5.962  -2.116  0.00  0.00     0.015 A 
ATOM      7  C7  IND d   1      -2.238  -5.976  -0.921  0.00  0.00    -0.016 A 
ATOM      8  C8  IND d   1      -3.017  -5.989   0.227  0.00  0.00    -0.047 A 
ATOM      9  C9  IND d   1      -4.416  -5.964   0.175  0.00  0.00    -0.096 A 
ATOM     10  HN1 IND d   1      -1.851  -5.988   1.859  0.00  0.00     0.298 HD
ENDROOT
TORSDOF 0
ENDMDL
