MODEL 1
REMARK minimizedAffinity 2.4593842
REMARK minimizedRMSD -1
REMARK  0 active torsions:
REMARK  status: ('A' for Active; 'I' for Inactive)
ROOT
ATOM      1  N1  IND d   1      -4.659  -5.680   2.729  0.00  0.00    -0.196 N 
ATOM      2  C2  IND d   1      -3.835  -5.270   3.740  0.00  0.00     0.054 A 
ATOM      3  C3  IND d   1      -2.752  -4.637   3.236  0.00  0.00    -0.031 A 
ATOM      4  C4  IND d   1      -2.178  -4.072   0.791  0.00  0.00     0.051 A 
ATOM      5  C5  IND d   1      -2.608  -4.273  -0.490  0.00  0.00    -0.031 A 
ATOM      6  C6  IND d   1      -3.769  -4.965  -0.770  0.00  0.00     0.015 A 
ATOM      7  C7  IND d   1      -4.552  -5.474   0.227  0.00  0.00    -0.016 A 
ATOM      8  C8  IND d   1      -4.114  -5.278   1.529  0.00  0.00    -0.047 A 
ATOM      9  C9  IND d   1      -2.915  -4.613   1.817  0.00  0.00    -0.096 A 
ATOM     10  HN1 IND d   1      -5.393  -6.116   2.827  0.00  0.00     0.298 HD
ENDROOT
TORSDOF 0
ENDMDL
