MODEL 1
REMARK minimizedAffinity 7.49679852
REMARK minimizedRMSD -1
REMARK  0 active torsions:
REMARK  status: ('A' for Active; 'I' for Inactive)
ROOT
ATOM      1  N1  IND d   1      -4.607  -5.047   3.074  0.00  0.00    -0.196 N 
ATOM      2  C2  IND d   1      -3.578  -4.483   3.776  0.00  0.00     0.054 A 
ATOM      3  C3  IND d   1      -2.613  -4.054   2.933  0.00  0.00    -0.031 A 
ATOM      4  C4  IND d   1      -2.557  -4.083   0.359  0.00  0.00     0.051 A 
ATOM      5  C5  IND d   1      -3.254  -4.531  -0.728  0.00  0.00    -0.031 A 
ATOM      6  C6  IND d   1      -4.462  -5.184  -0.601  0.00  0.00     0.015 A 
ATOM      7  C7  IND d   1      -5.028  -5.405   0.623  0.00  0.00    -0.016 A 
ATOM      8  C8  IND d   1      -4.320  -4.958   1.730  0.00  0.00    -0.047 A 
ATOM      9  C9  IND d   1      -3.073  -4.332   1.610  0.00  0.00    -0.096 A 
ATOM     10  HN1 IND d   1      -5.314  -5.398   3.415  0.00  0.00     0.298 HD
ENDROOT
TORSDOF 0
ENDMDL
