MODEL 1
REMARK minimizedAffinity 9.40659237
REMARK minimizedRMSD -1
REMARK  0 active torsions:
REMARK  status: ('A' for Active; 'I' for Inactive)
ROOT
ATOM      1  N1  IND d   1       0.053   0.704  -0.154  0.00  0.00    -0.196 N 
ATOM      2  C2  IND d   1       1.222   0.944  -0.822  0.00  0.00     0.054 A 
ATOM      3  C3  IND d   1       1.833  -0.220  -1.134  0.00  0.00    -0.031 A 
ATOM      4  C4  IND d   1       1.045  -2.639  -0.739  0.00  0.00     0.051 A 
ATOM      5  C5  IND d   1       0.057  -3.365  -0.135  0.00  0.00    -0.031 A 
ATOM      6  C6  IND d   1      -1.006  -2.759   0.504  0.00  0.00     0.015 A 
ATOM      7  C7  IND d   1      -1.126  -1.399   0.553  0.00  0.00    -0.016 A 
ATOM      8  C8  IND d   1      -0.121  -0.659  -0.053  0.00  0.00    -0.047 A 
ATOM      9  C9  IND d   1       0.982  -1.267  -0.666  0.00  0.00    -0.096 A 
ATOM     10  HN1 IND d   1      -0.482   1.303   0.151  0.00  0.00     0.298 HD
ENDROOT
TORSDOF 0
ENDMDL
