MODEL 1
REMARK minimizedAffinity -2.10511184
REMARK minimizedRMSD -1
REMARK  0 active torsions:
REMARK  status: ('A' for Active; 'I' for Inactive)
ROOT
ATOM      1  N1  IND d   1      -1.565  -5.987  -3.920  0.00  0.00    -0.196 N 
ATOM      2  C2  IND d   1      -1.878  -5.947  -5.250  0.00  0.00     0.054 A 
ATOM      3  C3  IND d   1      -0.752  -5.893  -5.997  0.00  0.00    -0.031 A 
ATOM      4  C4  IND d   1       1.711  -5.965  -5.250  0.00  0.00     0.051 A 
ATOM      5  C5  IND d   1       2.498  -5.964  -4.133  0.00  0.00    -0.031 A 
ATOM      6  C6  IND d   1       1.960  -5.974  -2.862  0.00  0.00     0.015 A 
ATOM      7  C7  IND d   1       0.609  -5.997  -2.660  0.00  0.00    -0.016 A 
ATOM      8  C8  IND d   1      -0.194  -5.990  -3.792  0.00  0.00    -0.047 A 
ATOM      9  C9  IND d   1       0.346  -5.937  -5.084  0.00  0.00    -0.096 A 
ATOM     10  HN1 IND d   1      -2.130  -6.007  -3.272  0.00  0.00     0.298 HD
ENDROOT
TORSDOF 0
ENDMDL
