MODEL 1
REMARK minimizedAffinity 6.81602144
REMARK minimizedRMSD -1
REMARK  0 active torsions:
REMARK  status: ('A' for Active; 'I' for Inactive)
ROOT
ATOM      1  N1  IND d   1      -0.116   0.860  -1.768  0.00  0.00    -0.196 N 
ATOM      2  C2  IND d   1       0.619   0.744  -2.914  0.00  0.00     0.054 A 
ATOM      3  C3  IND d   1       1.858   0.280  -2.634  0.00  0.00    -0.031 A 
ATOM      4  C4  IND d   1       2.858  -0.449  -0.376  0.00  0.00     0.051 A 
ATOM      5  C5  IND d   1       2.581  -0.491   0.961  0.00  0.00    -0.031 A 
ATOM      6  C6  IND d   1       1.366  -0.079   1.468  0.00  0.00     0.015 A 
ATOM      7  C7  IND d   1       0.373   0.382   0.650  0.00  0.00    -0.016 A 
ATOM      8  C8  IND d   1       0.653   0.433  -0.708  0.00  0.00    -0.047 A 
ATOM      9  C9  IND d   1       1.900   0.056  -1.223  0.00  0.00    -0.096 A 
ATOM     10  HN1 IND d   1      -0.924   1.152  -1.717  0.00  0.00     0.298 HD
ENDROOT
TORSDOF 0
ENDMDL
