MODEL 1
REMARK minimizedAffinity 2.87227011
REMARK minimizedRMSD -1
REMARK  0 active torsions:
REMARK  status: ('A' for Active; 'I' for Inactive)
ROOT
ATOM      1  N1  IND d   1      -2.163   1.019  -2.772  0.00  0.00    -0.196 N 
ATOM      2  C2  IND d   1      -1.927   2.364  -2.703  0.00  0.00     0.054 A 
ATOM      3  C3  IND d   1      -1.798   2.753  -1.415  0.00  0.00    -0.031 A 
ATOM      4  C4  IND d   1      -1.835   1.336   0.734  0.00  0.00     0.051 A 
ATOM      5  C5  IND d   1      -2.055   0.064   1.182  0.00  0.00    -0.031 A 
ATOM      6  C6  IND d   1      -2.326  -0.977   0.317  0.00  0.00     0.015 A 
ATOM      7  C7  IND d   1      -2.375  -0.785  -1.035  0.00  0.00    -0.016 A 
ATOM      8  C8  IND d   1      -2.158   0.507  -1.493  0.00  0.00    -0.047 A 
ATOM      9  C9  IND d   1      -1.926   1.575  -0.617  0.00  0.00    -0.096 A 
ATOM     10  HN1 IND d   1      -2.293   0.568  -3.493  0.00  0.00     0.298 HD
ENDROOT
TORSDOF 0
ENDMDL
