MODEL 1
REMARK minimizedAffinity 2.18980384
REMARK minimizedRMSD -1
REMARK  1 active torsions:
REMARK  status: ('A' for Active; 'I' for Inactive)
REMARK    1  A    between atoms: C1_2  and  C2_3 
ROOT
ATOM      1  C2  UNL d   1      -0.072  -2.997  -4.815  0.00  0.00    -0.076 A 
ATOM      2  C3  UNL d   1      -0.683  -2.370  -3.715  0.00  0.00     0.004 A 
ATOM      3  C4  UNL d   1      -1.103  -3.108  -2.610  0.00  0.00    -0.003 A 
ATOM      4  C5  UNL d   1      -0.917  -4.485  -2.585  0.00  0.00     0.000 A 
ATOM      5  C6  UNL d   1      -0.296  -5.122  -3.659  0.00  0.00     0.000 A 
ATOM      6  C7  UNL d   1       0.148  -4.391  -4.774  0.00  0.00    -0.073 A 
ATOM      7  C8  UNL d   1       0.806  -5.130  -5.907  0.00  0.00     0.078 C 
ENDROOT
BRANCH   1   8
ATOM      8  C1  UNL d   1       0.338  -2.149  -5.997  0.00  0.00     0.053 C 
ATOM      9  C   UNL d   1      -0.059  -0.690  -5.834  0.00  0.00     0.018 C 
ENDBRANCH   1   8
TORSDOF 1
ENDMDL
