MODEL 1
REMARK minimizedAffinity 9.24016094
REMARK minimizedRMSD -1
REMARK  1 active torsions:
REMARK  status: ('A' for Active; 'I' for Inactive)
REMARK    1  A    between atoms: C1_2  and  C2_3 
ROOT
ATOM      1  C2  UNL d   1      -2.886  -0.284   0.649  0.00  0.00    -0.076 A 
ATOM      2  C3  UNL d   1      -1.844  -0.195   1.589  0.00  0.00     0.004 A 
ATOM      3  C4  UNL d   1      -1.464   1.034   2.124  0.00  0.00    -0.003 A 
ATOM      4  C5  UNL d   1      -2.119   2.195   1.728  0.00  0.00     0.000 A 
ATOM      5  C6  UNL d   1      -3.166   2.123   0.810  0.00  0.00     0.000 A 
ATOM      6  C7  UNL d   1      -3.573   0.890   0.273  0.00  0.00    -0.073 A 
ATOM      7  C8  UNL d   1      -4.704   0.872  -0.718  0.00  0.00     0.078 C 
ENDROOT
BRANCH   1   8
ATOM      8  C1  UNL d   1      -3.236  -1.642   0.083  0.00  0.00     0.053 C 
ATOM      9  C   UNL d   1      -2.258  -2.723   0.514  0.00  0.00     0.018 C 
ENDBRANCH   1   8
TORSDOF 1
ENDMDL
