MODEL 1
REMARK minimizedAffinity 3.02056432
REMARK minimizedRMSD -1
REMARK  1 active torsions:
REMARK  status: ('A' for Active; 'I' for Inactive)
REMARK    1  A    between atoms: C1_2  and  C2_3 
ROOT
ATOM      1  C2  UNL d   1      -1.652  -3.995  -4.431  0.00  0.00    -0.076 A 
ATOM      2  C3  UNL d   1      -1.883  -2.783  -3.757  0.00  0.00     0.004 A 
ATOM      3  C4  UNL d   1      -0.885  -1.814  -3.662  0.00  0.00    -0.003 A 
ATOM      4  C5  UNL d   1       0.359  -2.040  -4.240  0.00  0.00     0.000 A 
ATOM      5  C6  UNL d   1       0.599  -3.229  -4.928  0.00  0.00     0.000 A 
ATOM      6  C7  UNL d   1      -0.401  -4.210  -5.047  0.00  0.00    -0.073 A 
ATOM      7  C8  UNL d   1      -0.084  -5.476  -5.795  0.00  0.00     0.078 C 
ENDROOT
BRANCH   1   8
ATOM      8  C1  UNL d   1      -2.762  -5.020  -4.478  0.00  0.00     0.053 C 
ATOM      9  C   UNL d   1      -3.813  -4.692  -5.528  0.00  0.00     0.018 C 
ENDBRANCH   1   8
TORSDOF 1
ENDMDL
