MODEL 1
REMARK minimizedAffinity 3.46243858
REMARK minimizedRMSD -1
REMARK  1 active torsions:
REMARK  status: ('A' for Active; 'I' for Inactive)
REMARK    1  A    between atoms: C1_2  and  C2_3 
ROOT
ATOM      1  C2  UNL d   1      -2.440   0.454   1.257  0.00  0.00    -0.076 A 
ATOM      2  C3  UNL d   1      -2.976   0.951   0.056  0.00  0.00     0.004 A 
ATOM      3  C4  UNL d   1      -3.298   0.095  -0.995  0.00  0.00    -0.003 A 
ATOM      4  C5  UNL d   1      -3.089  -1.273  -0.863  0.00  0.00     0.000 A 
ATOM      5  C6  UNL d   1      -2.574  -1.786   0.327  0.00  0.00     0.000 A 
ATOM      6  C7  UNL d   1      -2.260  -0.938   1.403  0.00  0.00    -0.073 A 
ATOM      7  C8  UNL d   1      -1.702  -1.545   2.661  0.00  0.00     0.078 C 
ENDROOT
BRANCH   1   8
ATOM      8  C1  UNL d   1      -2.085   1.434   2.352  0.00  0.00     0.053 C 
ATOM      9  C   UNL d   1      -0.595   1.453   2.657  0.00  0.00     0.018 C 
ENDBRANCH   1   8
TORSDOF 1
ENDMDL
