MODEL 1
REMARK minimizedAffinity 2.60148001
REMARK minimizedRMSD -1
REMARK  1 active torsions:
REMARK  status: ('A' for Active; 'I' for Inactive)
REMARK    1  A    between atoms: C1_2  and  C2_3 
ROOT
ATOM      1  C2  UNL d   1      -0.308  -1.966  -5.417  0.00  0.00    -0.076 A 
ATOM      2  C3  UNL d   1       0.742  -2.703  -5.991  0.00  0.00     0.004 A 
ATOM      3  C4  UNL d   1       0.778  -4.093  -5.899  0.00  0.00    -0.003 A 
ATOM      4  C5  UNL d   1      -0.237  -4.769  -5.232  0.00  0.00     0.000 A 
ATOM      5  C6  UNL d   1      -1.296  -4.056  -4.671  0.00  0.00     0.000 A 
ATOM      6  C7  UNL d   1      -1.356  -2.655  -4.769  0.00  0.00    -0.073 A 
ATOM      7  C8  UNL d   1      -2.518  -1.936  -4.141  0.00  0.00     0.078 C 
ENDROOT
BRANCH   1   8
ATOM      8  C1  UNL d   1      -0.279  -0.458  -5.525  0.00  0.00     0.053 C 
ATOM      9  C   UNL d   1       0.981   0.145  -4.922  0.00  0.00     0.018 C 
ENDBRANCH   1   8
TORSDOF 1
ENDMDL
