MODEL 1
REMARK minimizedAffinity -2.3220427
REMARK minimizedRMSD -1
REMARK  1 active torsions:
REMARK  status: ('A' for Active; 'I' for Inactive)
REMARK    1  A    between atoms: C1_2  and  C2_3 
ROOT
ATOM      1  C2  UNL d   1      -1.168  -0.072   1.332  0.00  0.00    -0.076 A 
ATOM      2  C3  UNL d   1      -1.799   1.034   1.928  0.00  0.00     0.004 A 
ATOM      3  C4  UNL d   1      -2.938   1.602   1.360  0.00  0.00    -0.003 A 
ATOM      4  C5  UNL d   1      -3.465   1.073   0.187  0.00  0.00     0.000 A 
ATOM      5  C6  UNL d   1      -2.862  -0.034  -0.408  0.00  0.00     0.000 A 
ATOM      6  C7  UNL d   1      -1.723  -0.629   0.160  0.00  0.00    -0.073 A 
ATOM      7  C8  UNL d   1      -1.110  -1.818  -0.528  0.00  0.00     0.078 C 
ENDROOT
BRANCH   1   8
ATOM      8  C1  UNL d   1       0.081  -0.629   1.978  0.00  0.00     0.053 C 
ATOM      9  C   UNL d   1       0.300  -0.089   3.383  0.00  0.00     0.018 C 
ENDBRANCH   1   8
TORSDOF 1
ENDMDL
