MODEL 1
REMARK minimizedAffinity 2.90952682
REMARK minimizedRMSD -1
REMARK  0 active torsions:
REMARK  status: ('A' for Active; 'I' for Inactive)
ROOT
ATOM      1  O1  BZF d   1       0.132  -1.997   3.760  0.00  0.00    -0.204 OA
ATOM      2  C2  BZF d   1       1.123  -1.100   4.110  0.00  0.00     0.174 A 
ATOM      3  C3  BZF d   1       1.944  -1.631   5.039  0.00  0.00    -0.012 A 
ATOM      4  C3A BZF d   1       1.488  -2.976   5.218  0.00  0.00    -0.107 A 
ATOM      5  C4  BZF d   1       1.910  -4.013   6.000  0.00  0.00     0.055 A 
ATOM      6  C5  BZF d   1       1.203  -5.173   5.995  0.00  0.00    -0.016 A 
ATOM      7  C6  BZF d   1       0.068  -5.329   5.226  0.00  0.00     0.022 A 
ATOM      8  C7  BZF d   1      -0.386  -4.330   4.431  0.00  0.00     0.029 A 
ATOM      9  C7A BZF d   1       0.345  -3.167   4.409  0.00  0.00     0.058 A 
ENDROOT
TORSDOF 0
ENDMDL
