MODEL 1
REMARK minimizedAffinity 4.83559132
REMARK minimizedRMSD -1
REMARK  0 active torsions:
REMARK  status: ('A' for Active; 'I' for Inactive)
ROOT
ATOM      1  O1  BZF d   1      -1.243  -4.490   4.453  0.00  0.00    -0.204 OA
ATOM      2  C2  BZF d   1      -0.641  -5.507   5.169  0.00  0.00     0.174 A 
ATOM      3  C3  BZF d   1       0.477  -5.065   5.780  0.00  0.00    -0.012 A 
ATOM      4  C3A BZF d   1       0.530  -3.663   5.500  0.00  0.00    -0.107 A 
ATOM      5  C4  BZF d   1       1.399  -2.668   5.847  0.00  0.00     0.055 A 
ATOM      6  C5  BZF d   1       1.206  -1.419   5.348  0.00  0.00    -0.016 A 
ATOM      7  C6  BZF d   1       0.160  -1.130   4.497  0.00  0.00     0.022 A 
ATOM      8  C7  BZF d   1      -0.731  -2.083   4.128  0.00  0.00     0.029 A 
ATOM      9  C7A BZF d   1      -0.558  -3.339   4.657  0.00  0.00     0.058 A 
ENDROOT
TORSDOF 0
ENDMDL
