MODEL 1
REMARK minimizedAffinity 1.29927289
REMARK minimizedRMSD -1
REMARK  0 active torsions:
REMARK  status: ('A' for Active; 'I' for Inactive)
ROOT
ATOM      1  O1  BZF d   1       4.382   1.114   5.813  0.00  0.00    -0.204 OA
ATOM      2  C2  BZF d   1       5.719   1.411   5.635  0.00  0.00     0.174 A 
ATOM      3  C3  BZF d   1       5.900   2.741   5.505  0.00  0.00    -0.012 A 
ATOM      4  C3A BZF d   1       4.606   3.318   5.701  0.00  0.00    -0.107 A 
ATOM      5  C4  BZF d   1       4.142   4.603   5.708  0.00  0.00     0.055 A 
ATOM      6  C5  BZF d   1       2.809   4.823   5.856  0.00  0.00    -0.016 A 
ATOM      7  C6  BZF d   1       1.912   3.783   5.994  0.00  0.00     0.022 A 
ATOM      8  C7  BZF d   1       2.326   2.492   5.997  0.00  0.00     0.029 A 
ATOM      9  C7A BZF d   1       3.676   2.268   5.881  0.00  0.00     0.058 A 
ENDROOT
TORSDOF 0
ENDMDL
