MODEL 1
REMARK minimizedAffinity 14.826189
REMARK minimizedRMSD -1
REMARK  0 active torsions:
REMARK  status: ('A' for Active; 'I' for Inactive)
ROOT
ATOM      1  O1  BZF d   1      -1.931   1.384  -2.805  0.00  0.00    -0.204 OA
ATOM      2  C2  BZF d   1      -1.971   0.177  -2.133  0.00  0.00     0.174 A 
ATOM      3  C3  BZF d   1      -3.114  -0.485  -2.407  0.00  0.00    -0.012 A 
ATOM      4  C3A BZF d   1      -3.791   0.318  -3.378  0.00  0.00    -0.107 A 
ATOM      5  C4  BZF d   1      -4.971   0.181  -4.052  0.00  0.00     0.055 A 
ATOM      6  C5  BZF d   1      -5.380   1.180  -4.877  0.00  0.00    -0.016 A 
ATOM      7  C6  BZF d   1      -4.638   2.330  -5.049  0.00  0.00     0.022 A 
ATOM      8  C7  BZF d   1      -3.458   2.509  -4.406  0.00  0.00     0.029 A 
ATOM      9  C7A BZF d   1      -3.026   1.487  -3.596  0.00  0.00     0.058 A 
ENDROOT
TORSDOF 0
ENDMDL
