MODEL 1
REMARK minimizedAffinity -3.14866281
REMARK minimizedRMSD -1
REMARK  0 active torsions:
REMARK  status: ('A' for Active; 'I' for Inactive)
ROOT
ATOM      1  O1  BZF d   1       3.742   5.624   5.553  0.00  0.00    -0.204 OA
ATOM      2  C2  BZF d   1       2.403   5.752   5.868  0.00  0.00     0.174 A 
ATOM      3  C3  BZF d   1       1.824   4.541   5.999  0.00  0.00    -0.012 A 
ATOM      4  C3A BZF d   1       2.887   3.597   5.841  0.00  0.00    -0.107 A 
ATOM      5  C4  BZF d   1       2.946   2.233   5.882  0.00  0.00     0.055 A 
ATOM      6  C5  BZF d   1       4.126   1.614   5.614  0.00  0.00    -0.016 A 
ATOM      7  C6  BZF d   1       5.264   2.327   5.298  0.00  0.00     0.022 A 
ATOM      8  C7  BZF d   1       5.256   3.681   5.250  0.00  0.00     0.029 A 
ATOM      9  C7A BZF d   1       4.073   4.311   5.552  0.00  0.00     0.058 A 
ENDROOT
TORSDOF 0
ENDMDL
