MODEL 1
REMARK minimizedAffinity 4.16158485
REMARK minimizedRMSD -1
REMARK  0 active torsions:
REMARK  status: ('A' for Active; 'I' for Inactive)
ROOT
ATOM      1  O1  BZF d   1       3.214   1.948   5.213  0.00  0.00    -0.204 OA
ATOM      2  C2  BZF d   1       4.219   1.320   4.503  0.00  0.00     0.174 A 
ATOM      3  C3  BZF d   1       5.179   2.200   4.152  0.00  0.00    -0.012 A 
ATOM      4  C3A BZF d   1       4.792   3.439   4.756  0.00  0.00    -0.107 A 
ATOM      5  C4  BZF d   1       5.350   4.685   4.783  0.00  0.00     0.055 A 
ATOM      6  C5  BZF d   1       4.682   5.695   5.400  0.00  0.00    -0.016 A 
ATOM      7  C6  BZF d   1       3.454   5.495   5.996  0.00  0.00     0.022 A 
ATOM      8  C7  BZF d   1       2.863   4.276   5.999  0.00  0.00     0.029 A 
ATOM      9  C7A BZF d   1       3.550   3.246   5.405  0.00  0.00     0.058 A 
ENDROOT
TORSDOF 0
ENDMDL
