MODEL 1
REMARK minimizedAffinity 4.73586559
REMARK minimizedRMSD -1
REMARK  0 active torsions:
REMARK  status: ('A' for Active; 'I' for Inactive)
ROOT
ATOM      1  O1  BZF d   1       3.118   5.653   4.514  0.00  0.00    -0.204 OA
ATOM      2  C2  BZF d   1       2.004   5.698   5.330  0.00  0.00     0.174 A 
ATOM      3  C3  BZF d   1       1.854   4.536   5.999  0.00  0.00    -0.012 A 
ATOM      4  C3A BZF d   1       2.994   3.748   5.645  0.00  0.00    -0.107 A 
ATOM      5  C4  BZF d   1       3.420   2.500   6.000  0.00  0.00     0.055 A 
ATOM      6  C5  BZF d   1       4.539   1.994   5.418  0.00  0.00    -0.016 A 
ATOM      7  C6  BZF d   1       5.252   2.704   4.475  0.00  0.00     0.022 A 
ATOM      8  C7  BZF d   1       4.871   3.948   4.094  0.00  0.00     0.029 A 
ATOM      9  C7A BZF d   1       3.760   4.476   4.704  0.00  0.00     0.058 A 
ENDROOT
TORSDOF 0
ENDMDL
