MODEL 1
REMARK minimizedAffinity 7.29992867
REMARK minimizedRMSD -1
REMARK  1 active torsions:
REMARK  status: ('A' for Active; 'I' for Inactive)
REMARK    1  A    between atoms: C1_2  and  C2_3 
ROOT
ATOM      1  C2  UNL d   1       2.205  -3.321   2.086  0.00  0.00    -0.081 A 
ATOM      2  C3  UNL d   1       0.976  -2.650   2.120  0.00  0.00     0.006 A 
ATOM      3  C4  UNL d   1       0.932  -1.259   2.232  0.00  0.00     0.002 A 
ATOM      4  C5  UNL d   1       2.114  -0.514   2.303  0.00  0.00    -0.080 A 
ATOM      5  C6  UNL d   1       2.080   0.983   2.392  0.00  0.00     0.076 C 
ATOM      6  C7  UNL d   1       3.341  -1.185   2.286  0.00  0.00     0.002 A 
ATOM      7  C8  UNL d   1       3.387  -2.576   2.176  0.00  0.00     0.006 A 
ENDROOT
BRANCH   1   8
ATOM      8  C1  UNL d   1       2.258  -4.816   1.901  0.00  0.00     0.054 C 
ATOM      9  C   UNL d   1       2.449  -5.185   0.437  0.00  0.00     0.018 C 
ENDBRANCH   1   8
TORSDOF 1
ENDMDL
