MODEL 1
REMARK minimizedAffinity 3.91285825
REMARK minimizedRMSD -1
REMARK  1 active torsions:
REMARK  status: ('A' for Active; 'I' for Inactive)
REMARK    1  A    between atoms: C1_2  and  C2_3 
ROOT
ATOM      1  C2  UNL d   1       2.714  -4.405   4.486  0.00  0.00    -0.081 A 
ATOM      2  C3  UNL d   1       3.715  -3.426   4.467  0.00  0.00     0.006 A 
ATOM      3  C4  UNL d   1       3.561  -2.270   3.698  0.00  0.00     0.002 A 
ATOM      4  C5  UNL d   1       2.401  -2.070   2.942  0.00  0.00    -0.080 A 
ATOM      5  C6  UNL d   1       2.210  -0.820   2.135  0.00  0.00     0.076 C 
ATOM      6  C7  UNL d   1       1.409  -3.056   2.947  0.00  0.00     0.002 A 
ATOM      7  C8  UNL d   1       1.562  -4.212   3.715  0.00  0.00     0.006 A 
ENDROOT
BRANCH   1   8
ATOM      8  C1  UNL d   1       2.849  -5.622   5.365  0.00  0.00     0.054 C 
ATOM      9  C   UNL d   1       1.517  -5.996   6.000  0.00  0.00     0.018 C 
ENDBRANCH   1   8
TORSDOF 1
ENDMDL
