MODEL 1
REMARK minimizedAffinity 9.95725918
REMARK minimizedRMSD -1
REMARK  1 active torsions:
REMARK  status: ('A' for Active; 'I' for Inactive)
REMARK    1  A    between atoms: C1_2  and  C2_3 
ROOT
ATOM      1  C2  UNL d   1       2.498  -2.064   2.523  0.00  0.00    -0.081 A 
ATOM      2  C3  UNL d   1       3.519  -2.991   2.767  0.00  0.00     0.006 A 
ATOM      3  C4  UNL d   1       3.345  -4.001   3.717  0.00  0.00     0.002 A 
ATOM      4  C5  UNL d   1       2.147  -4.105   4.432  0.00  0.00    -0.080 A 
ATOM      5  C6  UNL d   1       1.937  -5.202   5.432  0.00  0.00     0.076 C 
ATOM      6  C7  UNL d   1       1.134  -3.168   4.200  0.00  0.00     0.002 A 
ATOM      7  C8  UNL d   1       1.307  -2.158   3.251  0.00  0.00     0.006 A 
ENDROOT
BRANCH   1   8
ATOM      8  C1  UNL d   1       2.657  -1.014   1.453  0.00  0.00     0.054 C 
ATOM      9  C   UNL d   1       1.418  -0.136   1.351  0.00  0.00     0.018 C 
ENDBRANCH   1   8
TORSDOF 1
ENDMDL
