MODEL 1
REMARK minimizedAffinity 3.03626823
REMARK minimizedRMSD -1
REMARK  1 active torsions:
REMARK  status: ('A' for Active; 'I' for Inactive)
REMARK    1  A    between atoms: C1_2  and  C2_3 
ROOT
ATOM      1  C2  UNL d   1       2.287  -1.275   2.761  0.00  0.00    -0.081 A 
ATOM      2  C3  UNL d   1       2.027  -1.226   4.136  0.00  0.00     0.006 A 
ATOM      3  C4  UNL d   1       1.900  -2.404   4.876  0.00  0.00     0.002 A 
ATOM      4  C5  UNL d   1       2.038  -3.650   4.254  0.00  0.00    -0.080 A 
ATOM      5  C6  UNL d   1       1.934  -4.922   5.042  0.00  0.00     0.076 C 
ATOM      6  C7  UNL d   1       2.281  -3.699   2.878  0.00  0.00     0.002 A 
ATOM      7  C8  UNL d   1       2.408  -2.522   2.138  0.00  0.00     0.006 A 
ENDROOT
BRANCH   1   8
ATOM      8  C1  UNL d   1       2.490  -0.005   1.974  0.00  0.00     0.054 C 
ATOM      9  C   UNL d   1       3.688  -0.117   1.042  0.00  0.00     0.018 C 
ENDBRANCH   1   8
TORSDOF 1
ENDMDL
