MODEL 1
REMARK minimizedAffinity 12.0999794
REMARK minimizedRMSD -1
REMARK  1 active torsions:
REMARK  status: ('A' for Active; 'I' for Inactive)
REMARK    1  A    between atoms: C1_2  and  C2_3 
ROOT
ATOM      1  C2  UNL d   1       1.788  -0.691   2.688  0.00  0.00    -0.081 A 
ATOM      2  C3  UNL d   1       2.882  -1.414   2.197  0.00  0.00     0.006 A 
ATOM      3  C4  UNL d   1       2.898  -2.809   2.269  0.00  0.00     0.002 A 
ATOM      4  C5  UNL d   1       1.819  -3.504   2.825  0.00  0.00    -0.080 A 
ATOM      5  C6  UNL d   1       1.811  -5.003   2.880  0.00  0.00     0.076 C 
ATOM      6  C7  UNL d   1       0.734  -2.781   3.331  0.00  0.00     0.002 A 
ATOM      7  C8  UNL d   1       0.717  -1.386   3.260  0.00  0.00     0.006 A 
ENDROOT
BRANCH   1   8
ATOM      8  C1  UNL d   1       1.738   0.809   2.553  0.00  0.00     0.054 C 
ATOM      9  C   UNL d   1       2.627   1.293   1.416  0.00  0.00     0.018 C 
ENDBRANCH   1   8
TORSDOF 1
ENDMDL
