MODEL 1
REMARK minimizedAffinity -4.3267436
REMARK minimizedRMSD -1
REMARK  0 active torsions:
REMARK  status: ('A' for Active; 'I' for Inactive)
ROOT
ATOM      1  C   UNL d   1       2.768  -0.315   0.129  0.00  0.00     0.077 C 
ATOM      2  C1  UNL d   1       1.272  -0.256   0.215  0.00  0.00    -0.074 A 
ATOM      3  C2  UNL d   1       0.476  -0.555  -0.895  0.00  0.00    -0.005 A 
ATOM      4  C3  UNL d   1      -0.915  -0.504  -0.797  0.00  0.00     0.006 A 
ATOM      5  C4  UNL d   1      -1.522  -0.155   0.410  0.00  0.00    -0.005 A 
ATOM      6  C5  UNL d   1      -0.742   0.146   1.531  0.00  0.00    -0.074 A 
ATOM      7  C6  UNL d   1      -1.378   0.514   2.838  0.00  0.00     0.077 C 
ATOM      8  C7  UNL d   1       0.655   0.087   1.426  0.00  0.00    -0.001 A 
ENDROOT
TORSDOF 0
ENDMDL
