MODEL 1
REMARK minimizedAffinity -3.47081733
REMARK minimizedRMSD -1
REMARK  0 active torsions:
REMARK  status: ('A' for Active; 'I' for Inactive)
ROOT
ATOM      1  C   UNL d   1       0.513  -1.697   4.971  0.00  0.00     0.077 C 
ATOM      2  C1  UNL d   1       0.210  -0.667   3.924  0.00  0.00    -0.074 A 
ATOM      3  C2  UNL d   1       0.457   0.690   4.157  0.00  0.00    -0.005 A 
ATOM      4  C3  UNL d   1       0.179   1.635   3.170  0.00  0.00     0.006 A 
ATOM      5  C4  UNL d   1      -0.347   1.234   1.942  0.00  0.00    -0.005 A 
ATOM      6  C5  UNL d   1      -0.600  -0.118   1.690  0.00  0.00    -0.074 A 
ATOM      7  C6  UNL d   1      -1.157  -0.567   0.371  0.00  0.00     0.077 C 
ATOM      8  C7  UNL d   1      -0.312  -1.063   2.684  0.00  0.00    -0.001 A 
ENDROOT
TORSDOF 0
ENDMDL
