MODEL 1
REMARK minimizedAffinity 3.95213842
REMARK minimizedRMSD -1
REMARK  0 active torsions:
REMARK  status: ('A' for Active; 'I' for Inactive)
ROOT
ATOM      1  C   UNL d   1       0.512  -0.840  -0.352  0.00  0.00     0.077 C 
ATOM      2  C1  UNL d   1      -0.184  -0.514   0.936  0.00  0.00    -0.074 A 
ATOM      3  C2  UNL d   1      -1.459   0.059   0.939  0.00  0.00    -0.005 A 
ATOM      4  C3  UNL d   1      -2.098   0.348   2.145  0.00  0.00     0.006 A 
ATOM      5  C4  UNL d   1      -1.469   0.067   3.358  0.00  0.00    -0.005 A 
ATOM      6  C5  UNL d   1      -0.193  -0.507   3.375  0.00  0.00    -0.074 A 
ATOM      7  C6  UNL d   1       0.493  -0.824   4.670  0.00  0.00     0.077 C 
ATOM      8  C7  UNL d   1       0.439  -0.801   2.159  0.00  0.00    -0.001 A 
ENDROOT
TORSDOF 0
ENDMDL
