MODEL 1
REMARK minimizedAffinity -1.54261541
REMARK minimizedRMSD -1
REMARK  0 active torsions:
REMARK  status: ('A' for Active; 'I' for Inactive)
ROOT
ATOM      1  C   UNL d   1      -0.019  -1.702  -2.436  0.00  0.00     0.077 C 
ATOM      2  C1  UNL d   1       0.005  -1.165  -1.036  0.00  0.00    -0.074 A 
ATOM      3  C2  UNL d   1       1.178  -1.194  -0.275  0.00  0.00    -0.005 A 
ATOM      4  C3  UNL d   1       1.188  -0.682   1.023  0.00  0.00     0.006 A 
ATOM      5  C4  UNL d   1       0.027  -0.136   1.571  0.00  0.00    -0.005 A 
ATOM      6  C5  UNL d   1      -1.155  -0.097   0.825  0.00  0.00    -0.074 A 
ATOM      7  C6  UNL d   1      -2.409   0.495   1.396  0.00  0.00     0.077 C 
ATOM      8  C7  UNL d   1      -1.155  -0.607  -0.480  0.00  0.00    -0.001 A 
ENDROOT
TORSDOF 0
ENDMDL
