MODEL 1
REMARK minimizedAffinity 1.59448898
REMARK minimizedRMSD -1
REMARK  0 active torsions:
REMARK  status: ('A' for Active; 'I' for Inactive)
ROOT
ATOM      1  C   UNL d   1      -1.699   0.505   2.810  0.00  0.00     0.077 C 
ATOM      2  C1  UNL d   1      -1.650   0.027   1.389  0.00  0.00    -0.074 A 
ATOM      3  C2  UNL d   1      -0.442  -0.016   0.686  0.00  0.00    -0.005 A 
ATOM      4  C3  UNL d   1      -0.411  -0.473  -0.632  0.00  0.00     0.006 A 
ATOM      5  C4  UNL d   1      -1.585  -0.890  -1.258  0.00  0.00    -0.005 A 
ATOM      6  C5  UNL d   1      -2.803  -0.856  -0.571  0.00  0.00    -0.074 A 
ATOM      7  C6  UNL d   1      -4.073  -1.310  -1.226  0.00  0.00     0.077 C 
ATOM      8  C7  UNL d   1      -2.825  -0.402   0.755  0.00  0.00    -0.001 A 
ENDROOT
TORSDOF 0
ENDMDL
