MODEL 1
REMARK minimizedAffinity 0.865518928
REMARK minimizedRMSD -1
REMARK  0 active torsions:
REMARK  status: ('A' for Active; 'I' for Inactive)
ROOT
ATOM      1  C   UNL d   1       0.388  -0.727  -0.423  0.00  0.00     0.077 C 
ATOM      2  C1  UNL d   1      -0.559  -0.348   0.677  0.00  0.00    -0.074 A 
ATOM      3  C2  UNL d   1      -1.689   0.432   0.415  0.00  0.00    -0.005 A 
ATOM      4  C3  UNL d   1      -2.566   0.769   1.447  0.00  0.00     0.006 A 
ATOM      5  C4  UNL d   1      -2.320   0.330   2.748  0.00  0.00    -0.005 A 
ATOM      6  C5  UNL d   1      -1.195  -0.451   3.029  0.00  0.00    -0.074 A 
ATOM      7  C6  UNL d   1      -0.922  -0.939   4.421  0.00  0.00     0.077 C 
ATOM      8  C7  UNL d   1      -0.323  -0.792   1.986  0.00  0.00    -0.001 A 
ENDROOT
TORSDOF 0
ENDMDL
