MODEL 1
REMARK minimizedAffinity -0.558744192
REMARK minimizedRMSD -1
REMARK  0 active torsions:
REMARK  status: ('A' for Active; 'I' for Inactive)
ROOT
ATOM      1  C   UNL d   1       4.379  -1.106  -1.500  0.00  0.00     0.077 C 
ATOM      2  C1  UNL d   1       4.148   0.359  -1.272  0.00  0.00    -0.074 A 
ATOM      3  C2  UNL d   1       4.469   1.298  -2.257  0.00  0.00    -0.005 A 
ATOM      4  C3  UNL d   1       4.240   2.656  -2.035  0.00  0.00     0.006 A 
ATOM      5  C4  UNL d   1       3.689   3.087  -0.827  0.00  0.00    -0.005 A 
ATOM      6  C5  UNL d   1       3.361   2.162   0.169  0.00  0.00    -0.074 A 
ATOM      7  C6  UNL d   1       2.759   2.608   1.468  0.00  0.00     0.077 C 
ATOM      8  C7  UNL d   1       3.588   0.799  -0.065  0.00  0.00    -0.001 A 
ENDROOT
TORSDOF 0
ENDMDL
