MODEL 1
REMARK minimizedAffinity -2.7924149
REMARK minimizedRMSD -1
REMARK  0 active torsions:
REMARK  status: ('A' for Active; 'I' for Inactive)
ROOT
ATOM      1  C   UNL d   1       2.199   0.267   0.437  0.00  0.00     0.077 C 
ATOM      2  C1  UNL d   1       0.801  -0.035   0.889  0.00  0.00    -0.074 A 
ATOM      3  C2  UNL d   1       0.427   0.129   2.226  0.00  0.00    -0.005 A 
ATOM      4  C3  UNL d   1      -0.880  -0.148   2.630  0.00  0.00     0.006 A 
ATOM      5  C4  UNL d   1      -1.823  -0.590   1.702  0.00  0.00    -0.005 A 
ATOM      6  C5  UNL d   1      -1.468  -0.759   0.360  0.00  0.00    -0.074 A 
ATOM      7  C6  UNL d   1      -2.472  -1.224  -0.652  0.00  0.00     0.077 C 
ATOM      8  C7  UNL d   1      -0.155  -0.472  -0.039  0.00  0.00    -0.001 A 
ENDROOT
TORSDOF 0
ENDMDL
