MODEL 1
REMARK minimizedAffinity 10.2522621
REMARK minimizedRMSD -1
REMARK  0 active torsions:
REMARK  status: ('A' for Active; 'I' for Inactive)
ROOT
ATOM      1  C   UNL d   1       3.717   1.021   5.510  0.00  0.00     0.077 C 
ATOM      2  C1  UNL d   1       4.185   2.168   4.664  0.00  0.00    -0.074 A 
ATOM      3  C2  UNL d   1       5.423   2.775   4.897  0.00  0.00    -0.005 A 
ATOM      4  C3  UNL d   1       5.849   3.834   4.096  0.00  0.00     0.006 A 
ATOM      5  C4  UNL d   1       5.043   4.297   3.056  0.00  0.00    -0.005 A 
ATOM      6  C5  UNL d   1       3.802   3.701   2.807  0.00  0.00    -0.074 A 
ATOM      7  C6  UNL d   1       2.927   4.179   1.686  0.00  0.00     0.077 C 
ATOM      8  C7  UNL d   1       3.384   2.633   3.612  0.00  0.00    -0.001 A 
ENDROOT
TORSDOF 0
ENDMDL
