MODEL 1
REMARK minimizedAffinity 5.11669302
REMARK minimizedRMSD -1
REMARK  3 active torsions:
REMARK  status: ('A' for Active; 'I' for Inactive)
REMARK    1  A    between atoms: C3'_2  and  C2'_3 
REMARK    2  A    between atoms: C2'_3  and  C1'_4 
REMARK    3  A    between atoms: C1'_4  and  C1_5 
ROOT
ATOM      1  C1  N4B d   1       2.916  -2.619   0.944  0.00  0.00    -0.075 A 
ATOM      2  C2  N4B d   1       1.642  -2.297   1.460  0.00  0.00     0.002 A 
ATOM      3  C3  N4B d   1       1.172  -1.010   1.375  0.00  0.00     0.002 A 
ATOM      4  C4  N4B d   1       1.963  -0.027   0.798  0.00  0.00    -0.004 A 
ATOM      5  C5  N4B d   1       3.182  -0.352   0.279  0.00  0.00     0.002 A 
ATOM      6  C6  N4B d   1       3.665  -1.643   0.354  0.00  0.00     0.002 A 
ENDROOT
BRANCH   1   7
ATOM      7  C1' N4B d   1       3.508  -3.994   1.090  0.00  0.00     0.057 C 
BRANCH   7   8
ATOM      8  C2' N4B d   1       4.843  -3.890   1.820  0.00  0.00     0.009 C 
BRANCH   8   9
ATOM      9  C3' N4B d   1       5.998  -4.384   0.966  0.00  0.00     0.004 C 
ATOM     10  C4' N4B d   1       5.860  -5.827   0.582  0.00  0.00     0.003 C 
ENDBRANCH   8   9
ENDBRANCH   7   8
ENDBRANCH   1   7
TORSDOF 3
ENDMDL
