MODEL 1
REMARK minimizedAffinity 3.927351
REMARK minimizedRMSD -1
REMARK  3 active torsions:
REMARK  status: ('A' for Active; 'I' for Inactive)
REMARK    1  A    between atoms: C3'_2  and  C2'_3 
REMARK    2  A    between atoms: C2'_3  and  C1'_4 
REMARK    3  A    between atoms: C1'_4  and  C1_5 
ROOT
ATOM      1  C1  N4B d   1      -1.655  -0.850   1.458  0.00  0.00    -0.075 A 
ATOM      2  C2  N4B d   1      -0.496  -1.362   0.833  0.00  0.00     0.002 A 
ATOM      3  C3  N4B d   1       0.706  -1.347   1.497  0.00  0.00     0.002 A 
ATOM      4  C4  N4B d   1       0.777  -0.811   2.774  0.00  0.00    -0.004 A 
ATOM      5  C5  N4B d   1      -0.351  -0.342   3.381  0.00  0.00     0.002 A 
ATOM      6  C6  N4B d   1      -1.567  -0.354   2.727  0.00  0.00     0.002 A 
ENDROOT
BRANCH   1   7
ATOM      7  C1' N4B d   1      -2.973  -0.766   0.739  0.00  0.00     0.057 C 
BRANCH   7   8
ATOM      8  C2' N4B d   1      -3.978  -1.686   1.426  0.00  0.00     0.009 C 
BRANCH   8   9
ATOM      9  C3' N4B d   1      -5.411  -1.242   1.190  0.00  0.00     0.004 C 
ATOM     10  C4' N4B d   1      -5.999  -0.526   2.369  0.00  0.00     0.003 C 
ENDBRANCH   8   9
ENDBRANCH   7   8
ENDBRANCH   1   7
TORSDOF 3
ENDMDL
