MODEL 1
REMARK minimizedAffinity 4.41471481
REMARK minimizedRMSD -1
REMARK  3 active torsions:
REMARK  status: ('A' for Active; 'I' for Inactive)
REMARK    1  A    between atoms: C3'_2  and  C2'_3 
REMARK    2  A    between atoms: C2'_3  and  C1'_4 
REMARK    3  A    between atoms: C1'_4  and  C1_5 
ROOT
ATOM      1  C1  N4B d   1       1.709   0.809   2.436  0.00  0.00    -0.075 A 
ATOM      2  C2  N4B d   1       0.637   0.911   3.350  0.00  0.00     0.002 A 
ATOM      3  C3  N4B d   1      -0.376  -0.016   3.325  0.00  0.00     0.002 A 
ATOM      4  C4  N4B d   1      -0.349  -1.037   2.387  0.00  0.00    -0.004 A 
ATOM      5  C5  N4B d   1       0.703  -1.143   1.525  0.00  0.00     0.002 A 
ATOM      6  C6  N4B d   1       1.731  -0.222   1.541  0.00  0.00     0.002 A 
ENDROOT
BRANCH   1   7
ATOM      7  C1' N4B d   1       2.796   1.847   2.368  0.00  0.00     0.057 C 
BRANCH   7   8
ATOM      8  C2' N4B d   1       3.679   1.569   1.155  0.00  0.00     0.009 C 
BRANCH   8   9
ATOM      9  C3' N4B d   1       4.532   2.770   0.786  0.00  0.00     0.004 C 
ATOM     10  C4' N4B d   1       3.738   4.039   0.691  0.00  0.00     0.003 C 
ENDBRANCH   8   9
ENDBRANCH   7   8
ENDBRANCH   1   7
TORSDOF 3
ENDMDL
