MODEL 1
REMARK minimizedAffinity 12.717804
REMARK minimizedRMSD -1
REMARK  3 active torsions:
REMARK  status: ('A' for Active; 'I' for Inactive)
REMARK    1  A    between atoms: C3'_2  and  C2'_3 
REMARK    2  A    between atoms: C2'_3  and  C1'_4 
REMARK    3  A    between atoms: C1'_4  and  C1_5 
ROOT
ATOM      1  C1  N4B d   1      -4.182   2.333  -4.845  0.00  0.00    -0.075 A 
ATOM      2  C2  N4B d   1      -5.496   2.359  -5.363  0.00  0.00     0.002 A 
ATOM      3  C3  N4B d   1      -5.998   3.518  -5.904  0.00  0.00     0.002 A 
ATOM      4  C4  N4B d   1      -5.215   4.662  -5.921  0.00  0.00    -0.004 A 
ATOM      5  C5  N4B d   1      -3.938   4.622  -5.442  0.00  0.00     0.002 A 
ATOM      6  C6  N4B d   1      -3.419   3.464  -4.899  0.00  0.00     0.002 A 
ENDROOT
BRANCH   1   7
ATOM      7  C1' N4B d   1      -3.620   1.114  -4.166  0.00  0.00     0.057 C 
BRANCH   7   8
ATOM      8  C2' N4B d   1      -4.738   0.402  -3.411  0.00  0.00     0.009 C 
BRANCH   8   9
ATOM      9  C3' N4B d   1      -4.367  -1.030  -3.065  0.00  0.00     0.004 C 
ATOM     10  C4' N4B d   1      -3.049  -1.134  -2.358  0.00  0.00     0.003 C 
ENDBRANCH   8   9
ENDBRANCH   7   8
ENDBRANCH   1   7
TORSDOF 3
ENDMDL
