MODEL 1
REMARK minimizedAffinity -4.64854193
REMARK minimizedRMSD -1
REMARK  3 active torsions:
REMARK  status: ('A' for Active; 'I' for Inactive)
REMARK    1  A    between atoms: C3'_2  and  C2'_3 
REMARK    2  A    between atoms: C2'_3  and  C1'_4 
REMARK    3  A    between atoms: C1'_4  and  C1_5 
ROOT
ATOM      1  C1  N4B d   1       1.681   5.245   4.288  0.00  0.00    -0.075 A 
ATOM      2  C2  N4B d   1       0.840   4.432   3.497  0.00  0.00     0.002 A 
ATOM      3  C3  N4B d   1      -0.511   4.398   3.743  0.00  0.00     0.002 A 
ATOM      4  C4  N4B d   1      -1.038   5.150   4.782  0.00  0.00    -0.004 A 
ATOM      5  C5  N4B d   1      -0.223   5.952   5.525  0.00  0.00     0.002 A 
ATOM      6  C6  N4B d   1       1.136   6.000   5.286  0.00  0.00     0.002 A 
ENDROOT
BRANCH   1   7
ATOM      7  C1' N4B d   1       3.175   5.250   4.112  0.00  0.00     0.057 C 
BRANCH   7   8
ATOM      8  C2' N4B d   1       3.840   5.117   5.479  0.00  0.00     0.009 C 
BRANCH   8   9
ATOM      9  C3' N4B d   1       5.347   5.291   5.397  0.00  0.00     0.004 C 
ATOM     10  C4' N4B d   1       5.976   4.425   4.347  0.00  0.00     0.003 C 
ENDBRANCH   8   9
ENDBRANCH   7   8
ENDBRANCH   1   7
TORSDOF 3
ENDMDL
