MODEL 1
REMARK minimizedAffinity 0.0394768231
REMARK minimizedRMSD -1
REMARK  3 active torsions:
REMARK  status: ('A' for Active; 'I' for Inactive)
REMARK    1  A    between atoms: C3'_2  and  C2'_3 
REMARK    2  A    between atoms: C2'_3  and  C1'_4 
REMARK    3  A    between atoms: C1'_4  and  C1_5 
ROOT
ATOM      1  C1  N4B d   1       3.241   5.220   5.161  0.00  0.00    -0.075 A 
ATOM      2  C2  N4B d   1       3.895   4.408   4.209  0.00  0.00     0.002 A 
ATOM      3  C3  N4B d   1       5.265   4.415   4.125  0.00  0.00     0.002 A 
ATOM      4  C4  N4B d   1       6.000   5.237   4.967  0.00  0.00    -0.004 A 
ATOM      5  C5  N4B d   1       5.362   6.000   5.901  0.00  0.00     0.002 A 
ATOM      6  C6  N4B d   1       3.985   5.999   5.999  0.00  0.00     0.002 A 
ENDROOT
BRANCH   1   7
ATOM      7  C1' N4B d   1       1.741   5.311   5.233  0.00  0.00     0.057 C 
BRANCH   7   8
ATOM      8  C2' N4B d   1       1.166   5.208   3.823  0.00  0.00     0.009 C 
BRANCH   8   9
ATOM      9  C3' N4B d   1       0.988   3.764   3.387  0.00  0.00     0.004 C 
ATOM     10  C4' N4B d   1       1.793   3.422   2.169  0.00  0.00     0.003 C 
ENDBRANCH   8   9
ENDBRANCH   7   8
ENDBRANCH   1   7
TORSDOF 3
ENDMDL
