MODEL 1
REMARK minimizedAffinity 7.17220449
REMARK minimizedRMSD -1
REMARK  3 active torsions:
REMARK  status: ('A' for Active; 'I' for Inactive)
REMARK    1  A    between atoms: C3'_2  and  C2'_3 
REMARK    2  A    between atoms: C2'_3  and  C1'_4 
REMARK    3  A    between atoms: C1'_4  and  C1_5 
ROOT
ATOM      1  C1  N4B d   1       3.270  -4.700  -0.558  0.00  0.00    -0.075 A 
ATOM      2  C2  N4B d   1       4.119  -3.590  -0.354  0.00  0.00     0.002 A 
ATOM      3  C3  N4B d   1       5.473  -3.715  -0.551  0.00  0.00     0.002 A 
ATOM      4  C4  N4B d   1       6.000  -4.939  -0.933  0.00  0.00    -0.004 A 
ATOM      5  C5  N4B d   1       5.170  -6.000  -1.153  0.00  0.00     0.002 A 
ATOM      6  C6  N4B d   1       3.808  -5.888  -0.962  0.00  0.00     0.002 A 
ENDROOT
BRANCH   1   7
ATOM      7  C1' N4B d   1       1.795  -4.635  -0.272  0.00  0.00     0.057 C 
BRANCH   7   8
ATOM      8  C2' N4B d   1       1.583  -4.118   1.148  0.00  0.00     0.009 C 
BRANCH   8   9
ATOM      9  C3' N4B d   1       1.006  -2.713   1.161  0.00  0.00     0.004 C 
ATOM     10  C4' N4B d   1       1.655  -1.828   2.184  0.00  0.00     0.003 C 
ENDBRANCH   8   9
ENDBRANCH   7   8
ENDBRANCH   1   7
TORSDOF 3
ENDMDL
