MODEL 1
REMARK minimizedAffinity -4.7954874
REMARK minimizedRMSD -1
REMARK  2 active torsions:
REMARK  status: ('A' for Active; 'I' for Inactive)
REMARK    1  A    between atoms: C2'_3  and  C1'_4 
REMARK    2  A    between atoms: C1'_4  and  C1_5 
ROOT
ATOM      1  C1  I4B d   1      -0.182  -0.038  -0.196  0.00  0.00    -0.075 A 
ATOM      2  C2  I4B d   1       0.929  -0.670   0.304  0.00  0.00     0.003 A 
ATOM      3  C3  I4B d   1       1.064  -0.876   1.699  0.00  0.00     0.002 A 
ATOM      4  C4  I4B d   1       0.095  -0.393   2.554  0.00  0.00    -0.004 A 
ATOM      5  C5  I4B d   1      -1.042   0.227   2.043  0.00  0.00     0.002 A 
ATOM      6  C6  I4B d   1      -1.187   0.395   0.659  0.00  0.00     0.003 A 
ENDROOT
BRANCH   1   7
ATOM      7  C1' I4B d   1      -0.277   0.192  -1.671  0.00  0.00     0.060 C 
BRANCH   7   8
ATOM      8  C2' I4B d   1      -0.593   1.657  -1.895  0.00  0.00    -0.013 C 
ATOM      9  C4' I4B d   1       0.543   2.359  -2.592  0.00  0.00     0.013 C 
ATOM     10  C3' I4B d   1      -1.855   1.741  -2.700  0.00  0.00     0.013 C 
ENDBRANCH   7   8
ENDBRANCH   1   7
TORSDOF 2
ENDMDL
