MODEL 1
REMARK minimizedAffinity -5.18713427
REMARK minimizedRMSD -1
REMARK  2 active torsions:
REMARK  status: ('A' for Active; 'I' for Inactive)
REMARK    1  A    between atoms: C2'_3  and  C1'_4 
REMARK    2  A    between atoms: C1'_4  and  C1_5 
ROOT
ATOM      1  C1  I4B d   1      -0.027   0.007  -0.292  0.00  0.00    -0.075 A 
ATOM      2  C2  I4B d   1       1.201  -0.413   0.156  0.00  0.00     0.003 A 
ATOM      3  C3  I4B d   1       1.403  -0.685   1.531  0.00  0.00     0.002 A 
ATOM      4  C4  I4B d   1       0.372  -0.477   2.424  0.00  0.00    -0.004 A 
ATOM      5  C5  I4B d   1      -0.879  -0.074   1.965  0.00  0.00     0.002 A 
ATOM      6  C6  I4B d   1      -1.083   0.158   0.597  0.00  0.00     0.003 A 
ENDROOT
BRANCH   1   7
ATOM      7  C1' I4B d   1      -0.196   0.318  -1.745  0.00  0.00     0.060 C 
BRANCH   7   8
ATOM      8  C2' I4B d   1      -0.680   1.749  -1.863  0.00  0.00    -0.013 C 
ATOM      9  C4' I4B d   1       0.385   2.638  -2.450  0.00  0.00     0.013 C 
ATOM     10  C3' I4B d   1      -1.916   1.751  -2.714  0.00  0.00     0.013 C 
ENDBRANCH   7   8
ENDBRANCH   1   7
TORSDOF 2
ENDMDL
