MODEL 1
REMARK minimizedAffinity -3.54506922
REMARK minimizedRMSD -1
REMARK  2 active torsions:
REMARK  status: ('A' for Active; 'I' for Inactive)
REMARK    1  A    between atoms: C2'_3  and  C1'_4 
REMARK    2  A    between atoms: C1'_4  and  C1_5 
ROOT
ATOM      1  C1  I4B d   1      -0.204   0.015  -0.555  0.00  0.00    -0.075 A 
ATOM      2  C2  I4B d   1       1.102  -0.404  -0.512  0.00  0.00     0.003 A 
ATOM      3  C3  I4B d   1       1.677  -0.819   0.714  0.00  0.00     0.002 A 
ATOM      4  C4  I4B d   1       0.931  -0.750   1.873  0.00  0.00    -0.004 A 
ATOM      5  C5  I4B d   1      -0.400  -0.346   1.823  0.00  0.00     0.002 A 
ATOM      6  C6  I4B d   1      -0.975   0.027   0.600  0.00  0.00     0.003 A 
ENDROOT
BRANCH   1   7
ATOM      7  C1' I4B d   1      -0.769   0.478  -1.860  0.00  0.00     0.060 C 
BRANCH   7   8
ATOM      8  C2' I4B d   1      -0.881   1.988  -1.812  0.00  0.00    -0.013 C 
ATOM      9  C4' I4B d   1       0.257   2.642  -2.552  0.00  0.00     0.013 C 
ATOM     10  C3' I4B d   1      -2.204   2.374  -2.404  0.00  0.00     0.013 C 
ENDBRANCH   7   8
ENDBRANCH   1   7
TORSDOF 2
ENDMDL
