MODEL 1
REMARK minimizedAffinity 0.174205586
REMARK minimizedRMSD -1
REMARK  2 active torsions:
REMARK  status: ('A' for Active; 'I' for Inactive)
REMARK    1  A    between atoms: C2'_3  and  C1'_4 
REMARK    2  A    between atoms: C1'_4  and  C1_5 
ROOT
ATOM      1  C1  I4B d   1       1.394  -0.174   0.900  0.00  0.00    -0.075 A 
ATOM      2  C2  I4B d   1       2.655  -0.708   0.800  0.00  0.00     0.003 A 
ATOM      3  C3  I4B d   1       3.066  -1.343  -0.397  0.00  0.00     0.002 A 
ATOM      4  C4  I4B d   1       2.174  -1.466  -1.443  0.00  0.00    -0.004 A 
ATOM      5  C5  I4B d   1       0.904  -0.903  -1.347  0.00  0.00     0.002 A 
ATOM      6  C6  I4B d   1       0.516  -0.242  -0.173  0.00  0.00     0.003 A 
ENDROOT
BRANCH   1   7
ATOM      7  C1' I4B d   1       0.982   0.461   2.190  0.00  0.00     0.060 C 
BRANCH   7   8
ATOM      8  C2' I4B d   1      -0.282  -0.226   2.665  0.00  0.00    -0.013 C 
ATOM      9  C4' I4B d   1      -1.367  -0.153   1.623  0.00  0.00     0.013 C 
ATOM     10  C3' I4B d   1       0.060  -1.649   2.993  0.00  0.00     0.013 C 
ENDBRANCH   7   8
ENDBRANCH   1   7
TORSDOF 2
ENDMDL
