MODEL 1
REMARK minimizedAffinity -5.19447041
REMARK minimizedRMSD -1
REMARK  2 active torsions:
REMARK  status: ('A' for Active; 'I' for Inactive)
REMARK    1  A    between atoms: C2'_3  and  C1'_4 
REMARK    2  A    between atoms: C1'_4  and  C1_5 
ROOT
ATOM      1  C1  I4B d   1       0.085   0.141   0.007  0.00  0.00    -0.075 A 
ATOM      2  C2  I4B d   1      -0.967  -0.259   0.794  0.00  0.00     0.003 A 
ATOM      3  C3  I4B d   1      -0.758  -0.566   2.160  0.00  0.00     0.002 A 
ATOM      4  C4  I4B d   1       0.518  -0.509   2.682  0.00  0.00    -0.004 A 
ATOM      5  C5  I4B d   1       1.579  -0.082   1.889  0.00  0.00     0.002 A 
ATOM      6  C6  I4B d   1       1.359   0.258   0.546  0.00  0.00     0.003 A 
ENDROOT
BRANCH   1   7
ATOM      7  C1' I4B d   1      -0.166   0.426  -1.440  0.00  0.00     0.060 C 
BRANCH   7   8
ATOM      8  C2' I4B d   1      -0.522   1.893  -1.572  0.00  0.00    -0.013 C 
ATOM      9  C4' I4B d   1       0.513   2.635  -2.377  0.00  0.00     0.013 C 
ATOM     10  C3' I4B d   1      -1.875   1.985  -2.213  0.00  0.00     0.013 C 
ENDBRANCH   7   8
ENDBRANCH   1   7
TORSDOF 2
ENDMDL
