MODEL 1
REMARK minimizedAffinity -6.20717907
REMARK minimizedRMSD -1
REMARK  2 active torsions:
REMARK  status: ('A' for Active; 'I' for Inactive)
REMARK    1  A    between atoms: C2'_3  and  C1'_4 
REMARK    2  A    between atoms: C1'_4  and  C1_5 
ROOT
ATOM      1  C1  I4B d   1       0.050  -0.213  -0.217  0.00  0.00    -0.075 A 
ATOM      2  C2  I4B d   1       1.325  -0.605   0.107  0.00  0.00     0.003 A 
ATOM      3  C3  I4B d   1       1.677  -0.839   1.459  0.00  0.00     0.002 A 
ATOM      4  C4  I4B d   1       0.744  -0.622   2.452  0.00  0.00    -0.004 A 
ATOM      5  C5  I4B d   1      -0.555  -0.247   2.119  0.00  0.00     0.002 A 
ATOM      6  C6  I4B d   1      -0.908  -0.053   0.776  0.00  0.00     0.003 A 
ENDROOT
BRANCH   1   7
ATOM      7  C1' I4B d   1      -0.278   0.057  -1.651  0.00  0.00     0.060 C 
BRANCH   7   8
ATOM      8  C2' I4B d   1      -0.771   1.486  -1.755  0.00  0.00    -0.013 C 
ATOM      9  C4' I4B d   1       0.286   2.386  -2.340  0.00  0.00     0.013 C 
ATOM     10  C3' I4B d   1      -2.010   1.488  -2.599  0.00  0.00     0.013 C 
ENDBRANCH   7   8
ENDBRANCH   1   7
TORSDOF 2
ENDMDL
