MODEL 1
REMARK minimizedAffinity -4.01213598
REMARK minimizedRMSD -1
REMARK  2 active torsions:
REMARK  status: ('A' for Active; 'I' for Inactive)
REMARK    1  A    between atoms: C2'_3  and  C1'_4 
REMARK    2  A    between atoms: C1'_4  and  C1_5 
ROOT
ATOM      1  C1  I4B d   1      -0.093   1.174  -1.382  0.00  0.00    -0.075 A 
ATOM      2  C2  I4B d   1       0.896   2.079  -1.676  0.00  0.00     0.003 A 
ATOM      3  C3  I4B d   1       0.593   3.252  -2.410  0.00  0.00     0.002 A 
ATOM      4  C4  I4B d   1      -0.692   3.453  -2.871  0.00  0.00    -0.004 A 
ATOM      5  C5  I4B d   1      -1.698   2.545  -2.552  0.00  0.00     0.002 A 
ATOM      6  C6  I4B d   1      -1.400   1.405  -1.792  0.00  0.00     0.003 A 
ENDROOT
BRANCH   1   7
ATOM      7  C1' I4B d   1       0.268  -0.070  -0.633  0.00  0.00     0.060 C 
BRANCH   7   8
ATOM      8  C2' I4B d   1      -0.246   0.073   0.785  0.00  0.00    -0.013 C 
ATOM      9  C4' I4B d   1      -1.622  -0.523   0.929  0.00  0.00     0.013 C 
ATOM     10  C3' I4B d   1       0.733  -0.596   1.703  0.00  0.00     0.013 C 
ENDBRANCH   7   8
ENDBRANCH   1   7
TORSDOF 2
ENDMDL
