MODEL 1
REMARK minimizedAffinity -2.97309327
REMARK minimizedRMSD -1
REMARK  1 active torsions:
REMARK  status: ('A' for Active; 'I' for Inactive)
REMARK    1  A    between atoms: C1_2  and  C2_3 
ROOT
ATOM      1  C2  UNL d   1      -0.682  -0.686  -1.198  0.00  0.00    -0.081 A 
ATOM      2  C3  UNL d   1       0.127  -0.443  -0.082  0.00  0.00     0.006 A 
ATOM      3  C4  UNL d   1       0.559   0.852   0.213  0.00  0.00     0.002 A 
ATOM      4  C5  UNL d   1       0.181   1.927  -0.599  0.00  0.00    -0.080 A 
ATOM      5  C6  UNL d   1       0.612   3.328  -0.277  0.00  0.00     0.076 C 
ATOM      6  C7  UNL d   1      -0.613   1.683  -1.724  0.00  0.00     0.002 A 
ATOM      7  C8  UNL d   1      -1.044   0.388  -2.020  0.00  0.00     0.006 A 
ENDROOT
BRANCH   1   8
ATOM      8  C1  UNL d   1      -1.202  -2.072  -1.482  0.00  0.00     0.054 C 
ATOM      9  C   UNL d   1      -0.655  -2.610  -2.796  0.00  0.00     0.018 C 
ENDBRANCH   1   8
TORSDOF 1
ENDMDL
