MODEL 1
REMARK minimizedAffinity -5.48261166
REMARK minimizedRMSD -1
REMARK  1 active torsions:
REMARK  status: ('A' for Active; 'I' for Inactive)
REMARK    1  A    between atoms: C1_2  and  C2_3 
ROOT
ATOM      1  C2  UNL d   1      -0.214  -0.698  -0.223  0.00  0.00    -0.081 A 
ATOM      2  C3  UNL d   1      -1.263   0.176   0.092  0.00  0.00     0.006 A 
ATOM      3  C4  UNL d   1      -1.017   1.538   0.280  0.00  0.00     0.002 A 
ATOM      4  C5  UNL d   1       0.278   2.050   0.149  0.00  0.00    -0.080 A 
ATOM      5  C6  UNL d   1       0.551   3.515   0.319  0.00  0.00     0.076 C 
ATOM      6  C7  UNL d   1       1.328   1.175  -0.148  0.00  0.00     0.002 A 
ATOM      7  C8  UNL d   1       1.083  -0.187  -0.336  0.00  0.00     0.006 A 
ENDROOT
BRANCH   1   8
ATOM      8  C1  UNL d   1      -0.486  -2.156  -0.490  0.00  0.00     0.054 C 
ATOM      9  C   UNL d   1      -0.112  -2.537  -1.916  0.00  0.00     0.018 C 
ENDBRANCH   1   8
TORSDOF 1
ENDMDL
