MODEL 1
REMARK minimizedAffinity -4.48979664
REMARK minimizedRMSD -1
REMARK  1 active torsions:
REMARK  status: ('A' for Active; 'I' for Inactive)
REMARK    1  A    between atoms: C1_2  and  C2_3 
ROOT
ATOM      1  C2  UNL d   1      -0.015  -0.323   0.381  0.00  0.00    -0.081 A 
ATOM      2  C3  UNL d   1      -1.095   0.564   0.293  0.00  0.00     0.006 A 
ATOM      3  C4  UNL d   1      -0.874   1.935   0.141  0.00  0.00     0.002 A 
ATOM      4  C5  UNL d   1       0.428   2.441   0.067  0.00  0.00    -0.080 A 
ATOM      5  C6  UNL d   1       0.678   3.907  -0.127  0.00  0.00     0.076 C 
ATOM      6  C7  UNL d   1       1.507   1.556   0.172  0.00  0.00     0.002 A 
ATOM      7  C8  UNL d   1       1.287   0.186   0.325  0.00  0.00     0.006 A 
ENDROOT
BRANCH   1   8
ATOM      8  C1  UNL d   1      -0.250  -1.809   0.480  0.00  0.00     0.054 C 
ATOM      9  C   UNL d   1      -0.175  -2.473  -0.888  0.00  0.00     0.018 C 
ENDBRANCH   1   8
TORSDOF 1
ENDMDL
