MODEL 1
REMARK minimizedAffinity -4.32252216
REMARK minimizedRMSD -1
REMARK  1 active torsions:
REMARK  status: ('A' for Active; 'I' for Inactive)
REMARK    1  A    between atoms: C1_2  and  C2_3 
ROOT
ATOM      1  C2  UNL d   1      -0.138  -1.590  -1.000  0.00  0.00    -0.081 A 
ATOM      2  C3  UNL d   1      -0.025  -1.517   0.394  0.00  0.00     0.006 A 
ATOM      3  C4  UNL d   1      -0.211  -0.302   1.057  0.00  0.00     0.002 A 
ATOM      4  C5  UNL d   1      -0.521   0.858   0.338  0.00  0.00    -0.080 A 
ATOM      5  C6  UNL d   1      -0.754   2.163   1.040  0.00  0.00     0.076 C 
ATOM      6  C7  UNL d   1      -0.617   0.789  -1.056  0.00  0.00     0.002 A 
ATOM      7  C8  UNL d   1      -0.430  -0.426  -1.719  0.00  0.00     0.006 A 
ENDROOT
BRANCH   1   8
ATOM      8  C1  UNL d   1      -0.001  -2.912  -1.711  0.00  0.00     0.054 C 
ATOM      9  C   UNL d   1      -0.909  -2.981  -2.931  0.00  0.00     0.018 C 
ENDBRANCH   1   8
TORSDOF 1
ENDMDL
