MODEL 1
REMARK minimizedAffinity -3.17796445
REMARK minimizedRMSD -1
REMARK  1 active torsions:
REMARK  status: ('A' for Active; 'I' for Inactive)
REMARK    1  A    between atoms: C1_2  and  C2_3 
ROOT
ATOM      1  C2  UNL d   1      -0.178  -0.848  -0.419  0.00  0.00    -0.081 A 
ATOM      2  C3  UNL d   1      -0.970  -0.123   0.478  0.00  0.00     0.006 A 
ATOM      3  C4  UNL d   1      -0.767   1.248   0.654  0.00  0.00     0.002 A 
ATOM      4  C5  UNL d   1       0.226   1.917  -0.069  0.00  0.00    -0.080 A 
ATOM      5  C6  UNL d   1       0.435   3.394   0.088  0.00  0.00     0.076 C 
ATOM      6  C7  UNL d   1       1.030   1.189  -0.953  0.00  0.00     0.002 A 
ATOM      7  C8  UNL d   1       0.827  -0.182  -1.129  0.00  0.00     0.006 A 
ENDROOT
BRANCH   1   8
ATOM      8  C1  UNL d   1      -0.437  -2.314  -0.659  0.00  0.00     0.054 C 
ATOM      9  C   UNL d   1      -0.549  -2.620  -2.146  0.00  0.00     0.018 C 
ENDBRANCH   1   8
TORSDOF 1
ENDMDL
