MODEL 1
REMARK minimizedAffinity -5.74456644
REMARK minimizedRMSD -1
REMARK  1 active torsions:
REMARK  status: ('A' for Active; 'I' for Inactive)
REMARK    1  A    between atoms: C1_2  and  C2_3 
ROOT
ATOM      1  C2  UNL d   1       0.316  -0.759  -0.170  0.00  0.00    -0.081 A 
ATOM      2  C3  UNL d   1       1.494  -0.004  -0.217  0.00  0.00     0.006 A 
ATOM      3  C4  UNL d   1       1.440   1.392  -0.242  0.00  0.00     0.002 A 
ATOM      4  C5  UNL d   1       0.209   2.055  -0.211  0.00  0.00    -0.080 A 
ATOM      5  C6  UNL d   1       0.137   3.553  -0.206  0.00  0.00     0.076 C 
ATOM      6  C7  UNL d   1      -0.969   1.301  -0.182  0.00  0.00     0.002 A 
ATOM      7  C8  UNL d   1      -0.916  -0.095  -0.158  0.00  0.00     0.006 A 
ENDROOT
BRANCH   1   8
ATOM      8  C1  UNL d   1       0.373  -2.262  -0.079  0.00  0.00     0.054 C 
ATOM      9  C   UNL d   1      -0.812  -2.905  -0.785  0.00  0.00     0.018 C 
ENDBRANCH   1   8
TORSDOF 1
ENDMDL
