MODEL 1
REMARK minimizedAffinity -4.1620779
REMARK minimizedRMSD -1
REMARK  1 active torsions:
REMARK  status: ('A' for Active; 'I' for Inactive)
REMARK    1  A    between atoms: C1_2  and  C2_3 
ROOT
ATOM      1  C2  UNL d   1       0.164  -0.615   0.255  0.00  0.00    -0.081 A 
ATOM      2  C3  UNL d   1      -0.999   0.134   0.469  0.00  0.00     0.006 A 
ATOM      3  C4  UNL d   1      -0.968   1.528   0.389  0.00  0.00     0.002 A 
ATOM      4  C5  UNL d   1       0.224   2.196   0.087  0.00  0.00    -0.080 A 
ATOM      5  C6  UNL d   1       0.264   3.690  -0.032  0.00  0.00     0.076 C 
ATOM      6  C7  UNL d   1       1.390   1.448  -0.110  0.00  0.00     0.002 A 
ATOM      7  C8  UNL d   1       1.359   0.054  -0.030  0.00  0.00     0.006 A 
ENDROOT
BRANCH   1   8
ATOM      8  C1  UNL d   1       0.120  -2.122   0.276  0.00  0.00     0.054 C 
ATOM      9  C   UNL d   1      -0.308  -2.682  -1.073  0.00  0.00     0.018 C 
ENDBRANCH   1   8
TORSDOF 1
ENDMDL
