MODEL 1
REMARK minimizedAffinity -5.20338869
REMARK minimizedRMSD -1
REMARK  1 active torsions:
REMARK  status: ('A' for Active; 'I' for Inactive)
REMARK    1  A    between atoms: C1_2  and  C2_3 
ROOT
ATOM      1  C2  UNL d   1       0.111  -0.698  -0.568  0.00  0.00    -0.081 A 
ATOM      2  C3  UNL d   1      -1.022   0.061  -0.250  0.00  0.00     0.006 A 
ATOM      3  C4  UNL d   1      -0.921   1.443  -0.071  0.00  0.00     0.002 A 
ATOM      4  C5  UNL d   1       0.312   2.089  -0.213  0.00  0.00    -0.080 A 
ATOM      5  C6  UNL d   1       0.429   3.575  -0.053  0.00  0.00     0.076 C 
ATOM      6  C7  UNL d   1       1.447   1.328  -0.514  0.00  0.00     0.002 A 
ATOM      7  C8  UNL d   1       1.347  -0.054  -0.693  0.00  0.00     0.006 A 
ENDROOT
BRANCH   1   8
ATOM      8  C1  UNL d   1      -0.007  -2.179  -0.826  0.00  0.00     0.054 C 
ATOM      9  C   UNL d   1       0.238  -2.506  -2.292  0.00  0.00     0.018 C 
ENDBRANCH   1   8
TORSDOF 1
ENDMDL
