MODEL 1
REMARK minimizedAffinity -3.97618794
REMARK minimizedRMSD -1
REMARK  1 active torsions:
REMARK  status: ('A' for Active; 'I' for Inactive)
REMARK    1  A    between atoms: C1_2  and  C2_3 
ROOT
ATOM      1  C2  UNL d   1      -0.146  -0.473  -0.076  0.00  0.00    -0.081 A 
ATOM      2  C3  UNL d   1      -1.167   0.321   0.462  0.00  0.00     0.006 A 
ATOM      3  C4  UNL d   1      -1.043   1.712   0.485  0.00  0.00     0.002 A 
ATOM      4  C5  UNL d   1       0.098   2.332  -0.035  0.00  0.00    -0.080 A 
ATOM      5  C6  UNL d   1       0.229   3.827  -0.043  0.00  0.00     0.076 C 
ATOM      6  C7  UNL d   1       1.125   1.538  -0.556  0.00  0.00     0.002 A 
ATOM      7  C8  UNL d   1       1.002   0.147  -0.579  0.00  0.00     0.006 A 
ENDROOT
BRANCH   1   8
ATOM      8  C1  UNL d   1      -0.305  -1.970  -0.162  0.00  0.00     0.054 C 
ATOM      9  C   UNL d   1      -0.641  -2.410  -1.579  0.00  0.00     0.018 C 
ENDBRANCH   1   8
TORSDOF 1
ENDMDL
