MODEL 1
REMARK minimizedAffinity -4.74944782
REMARK minimizedRMSD -1
REMARK  1 active torsions:
REMARK  status: ('A' for Active; 'I' for Inactive)
REMARK    1  A    between atoms: C1_2  and  C2_3 
ROOT
ATOM      1  C2  UNL d   1      -0.622  -1.285  -0.224  0.00  0.00    -0.081 A 
ATOM      2  C3  UNL d   1      -1.295  -0.322   0.537  0.00  0.00     0.006 A 
ATOM      3  C4  UNL d   1      -0.836   0.997   0.576  0.00  0.00     0.002 A 
ATOM      4  C5  UNL d   1       0.297   1.376  -0.151  0.00  0.00    -0.080 A 
ATOM      5  C6  UNL d   1       0.782   2.795  -0.142  0.00  0.00     0.076 C 
ATOM      6  C7  UNL d   1       0.980   0.410  -0.898  0.00  0.00     0.002 A 
ATOM      7  C8  UNL d   1       0.522  -0.909  -0.937  0.00  0.00     0.006 A 
ENDROOT
BRANCH   1   8
ATOM      8  C1  UNL d   1      -1.151  -2.694  -0.320  0.00  0.00     0.054 C 
ATOM      9  C   UNL d   1      -1.200  -3.169  -1.765  0.00  0.00     0.018 C 
ENDBRANCH   1   8
TORSDOF 1
ENDMDL
