MODEL 1
REMARK minimizedAffinity -6.0226841
REMARK minimizedRMSD -1
REMARK  1 active torsions:
REMARK  status: ('A' for Active; 'I' for Inactive)
REMARK    1  A    between atoms: C1_2  and  C2_3 
ROOT
ATOM      1  C2  UNL d   1      -0.282  -0.688  -0.465  0.00  0.00    -0.081 A 
ATOM      2  C3  UNL d   1      -1.247   0.169   0.077  0.00  0.00     0.006 A 
ATOM      3  C4  UNL d   1      -0.944   1.511   0.323  0.00  0.00     0.002 A 
ATOM      4  C5  UNL d   1       0.324   2.019   0.024  0.00  0.00    -0.080 A 
ATOM      5  C6  UNL d   1       0.652   3.464   0.255  0.00  0.00     0.076 C 
ATOM      6  C7  UNL d   1       1.294   1.158  -0.502  0.00  0.00     0.002 A 
ATOM      7  C8  UNL d   1       0.993  -0.183  -0.747  0.00  0.00     0.006 A 
ENDROOT
BRANCH   1   8
ATOM      8  C1  UNL d   1      -0.624  -2.119  -0.792  0.00  0.00     0.054 C 
ATOM      9  C   UNL d   1      -0.396  -2.420  -2.266  0.00  0.00     0.018 C 
ENDBRANCH   1   8
TORSDOF 1
ENDMDL
