MODEL 1
REMARK minimizedAffinity -6.12722969
REMARK minimizedRMSD -1
REMARK  1 active torsions:
REMARK  status: ('A' for Active; 'I' for Inactive)
REMARK    1  A    between atoms: C1_2  and  C2_3 
ROOT
ATOM      1  C2  UNL d   1      -0.064  -0.950   0.028  0.00  0.00    -0.081 A 
ATOM      2  C3  UNL d   1      -1.076   0.012  -0.079  0.00  0.00     0.006 A 
ATOM      3  C4  UNL d   1      -0.768   1.373  -0.023  0.00  0.00     0.002 A 
ATOM      4  C5  UNL d   1       0.557   1.796   0.132  0.00  0.00    -0.080 A 
ATOM      5  C6  UNL d   1       0.905   3.254   0.162  0.00  0.00     0.076 C 
ATOM      6  C7  UNL d   1       1.566   0.835   0.256  0.00  0.00     0.002 A 
ATOM      7  C8  UNL d   1       1.258  -0.527   0.201  0.00  0.00     0.006 A 
ENDROOT
BRANCH   1   8
ATOM      8  C1  UNL d   1      -0.386  -2.417  -0.096  0.00  0.00     0.054 C 
ATOM      9  C   UNL d   1       0.168  -2.997  -1.390  0.00  0.00     0.018 C 
ENDBRANCH   1   8
TORSDOF 1
ENDMDL
