MODEL 1
REMARK minimizedAffinity 2.71251297
REMARK minimizedRMSD -1
REMARK  1 active torsions:
REMARK  status: ('A' for Active; 'I' for Inactive)
REMARK    1  A    between atoms: C1_2  and  C2_3 
ROOT
ATOM      1  C2  UNL d   1       1.424   2.050   0.918  0.00  0.00    -0.081 A 
ATOM      2  C3  UNL d   1       0.284   2.819   1.181  0.00  0.00     0.006 A 
ATOM      3  C4  UNL d   1      -0.989   2.314   0.909  0.00  0.00     0.002 A 
ATOM      4  C5  UNL d   1      -1.144   1.029   0.377  0.00  0.00    -0.080 A 
ATOM      5  C6  UNL d   1      -2.507   0.463   0.108  0.00  0.00     0.076 C 
ATOM      6  C7  UNL d   1      -0.005   0.268   0.097  0.00  0.00     0.002 A 
ATOM      7  C8  UNL d   1       1.269   0.773   0.368  0.00  0.00     0.006 A 
ENDROOT
BRANCH   1   8
ATOM      8  C1  UNL d   1       2.796   2.567   1.270  0.00  0.00     0.054 C 
ATOM      9  C   UNL d   1       3.887   1.657   0.725  0.00  0.00     0.018 C 
ENDBRANCH   1   8
TORSDOF 1
ENDMDL
