MODEL 1
REMARK minimizedAffinity -5.28210068
REMARK minimizedRMSD -1
REMARK  1 active torsions:
REMARK  status: ('A' for Active; 'I' for Inactive)
REMARK    1  A    between atoms: C1_2  and  C2_3 
ROOT
ATOM      1  C2  UNL d   1      -0.034  -0.627  -0.696  0.00  0.00    -0.081 A 
ATOM      2  C3  UNL d   1       0.803  -0.152   0.321  0.00  0.00     0.006 A 
ATOM      3  C4  UNL d   1       0.961   1.221   0.525  0.00  0.00     0.002 A 
ATOM      4  C5  UNL d   1       0.280   2.141  -0.279  0.00  0.00    -0.080 A 
ATOM      5  C6  UNL d   1       0.418   3.617  -0.051  0.00  0.00     0.076 C 
ATOM      6  C7  UNL d   1      -0.542   1.667  -1.307  0.00  0.00     0.002 A 
ATOM      7  C8  UNL d   1      -0.700   0.295  -1.511  0.00  0.00     0.006 A 
ENDROOT
BRANCH   1   8
ATOM      8  C1  UNL d   1      -0.257  -2.106  -0.877  0.00  0.00     0.054 C 
ATOM      9  C   UNL d   1      -0.144  -2.508  -2.341  0.00  0.00     0.018 C 
ENDBRANCH   1   8
TORSDOF 1
ENDMDL
