MODEL 1
REMARK minimizedAffinity -6.2112546
REMARK minimizedRMSD -1
REMARK  1 active torsions:
REMARK  status: ('A' for Active; 'I' for Inactive)
REMARK    1  A    between atoms: C1_2  and  C2_3 
ROOT
ATOM      1  C2  UNL d   1       0.574  -0.058  -0.078  0.00  0.00    -0.081 A 
ATOM      2  C3  UNL d   1      -0.371   0.975  -0.041  0.00  0.00     0.006 A 
ATOM      3  C4  UNL d   1       0.034   2.299   0.139  0.00  0.00     0.002 A 
ATOM      4  C5  UNL d   1       1.390   2.614   0.279  0.00  0.00    -0.080 A 
ATOM      5  C6  UNL d   1       1.840   4.036   0.443  0.00  0.00     0.076 C 
ATOM      6  C7  UNL d   1       2.333   1.581   0.260  0.00  0.00     0.002 A 
ATOM      7  C8  UNL d   1       1.929   0.257   0.080  0.00  0.00     0.006 A 
ENDROOT
BRANCH   1   8
ATOM      8  C1  UNL d   1       0.147  -1.480  -0.338  0.00  0.00     0.054 C 
ATOM      9  C   UNL d   1       0.512  -1.919  -1.748  0.00  0.00     0.018 C 
ENDBRANCH   1   8
TORSDOF 1
ENDMDL
