MODEL 1
REMARK minimizedAffinity -4.25091839
REMARK minimizedRMSD -1
REMARK  1 active torsions:
REMARK  status: ('A' for Active; 'I' for Inactive)
REMARK    1  A    between atoms: C1_2  and  C2_3 
ROOT
ATOM      1  C2  UNL d   1      -0.401  -1.597  -0.912  0.00  0.00    -0.081 A 
ATOM      2  C3  UNL d   1      -1.295  -0.599  -1.318  0.00  0.00     0.006 A 
ATOM      3  C4  UNL d   1      -1.316   0.639  -0.672  0.00  0.00     0.002 A 
ATOM      4  C5  UNL d   1      -0.438   0.903   0.385  0.00  0.00    -0.080 A 
ATOM      5  C6  UNL d   1      -0.430   2.238   1.067  0.00  0.00     0.076 C 
ATOM      6  C7  UNL d   1       0.443  -0.100   0.802  0.00  0.00     0.002 A 
ATOM      7  C8  UNL d   1       0.464  -1.339   0.157  0.00  0.00     0.006 A 
ENDROOT
BRANCH   1   8
ATOM      8  C1  UNL d   1      -0.332  -2.911  -1.648  0.00  0.00     0.054 C 
ATOM      9  C   UNL d   1      -1.204  -2.893  -2.895  0.00  0.00     0.018 C 
ENDBRANCH   1   8
TORSDOF 1
ENDMDL
