MODEL 1
REMARK minimizedAffinity -5.83164597
REMARK minimizedRMSD -1
REMARK  1 active torsions:
REMARK  status: ('A' for Active; 'I' for Inactive)
REMARK    1  A    between atoms: C1_2  and  C2_3 
ROOT
ATOM      1  C2  UNL d   1       0.174   0.265  -0.232  0.00  0.00    -0.076 A 
ATOM      2  C3  UNL d   1      -0.184   1.469  -0.861  0.00  0.00     0.004 A 
ATOM      3  C4  UNL d   1      -1.131   2.321  -0.295  0.00  0.00    -0.003 A 
ATOM      4  C5  UNL d   1      -1.734   1.983   0.911  0.00  0.00     0.000 A 
ATOM      5  C6  UNL d   1      -1.378   0.800   1.559  0.00  0.00     0.000 A 
ATOM      6  C7  UNL d   1      -0.414  -0.062   1.009  0.00  0.00    -0.073 A 
ATOM      7  C8  UNL d   1      -0.072  -1.327   1.748  0.00  0.00     0.078 C 
ENDROOT
BRANCH   1   8
ATOM      8  C1  UNL d   1       1.187  -0.632  -0.907  0.00  0.00     0.053 C 
ATOM      9  C   UNL d   1       0.545  -1.599  -1.889  0.00  0.00     0.018 C 
ENDBRANCH   1   8
TORSDOF 1
ENDMDL
