MODEL 1
REMARK minimizedAffinity -2.99196029
REMARK minimizedRMSD -1
REMARK  1 active torsions:
REMARK  status: ('A' for Active; 'I' for Inactive)
REMARK    1  A    between atoms: C1_2  and  C2_3 
ROOT
ATOM      1  C2  UNL d   1       0.261   0.019   0.220  0.00  0.00    -0.076 A 
ATOM      2  C3  UNL d   1      -0.176  -0.943   1.147  0.00  0.00     0.004 A 
ATOM      3  C4  UNL d   1      -1.036  -0.598   2.188  0.00  0.00    -0.003 A 
ATOM      4  C5  UNL d   1      -1.475   0.715   2.318  0.00  0.00     0.000 A 
ATOM      5  C6  UNL d   1      -1.066   1.679   1.397  0.00  0.00     0.000 A 
ATOM      6  C7  UNL d   1      -0.211   1.345   0.332  0.00  0.00    -0.073 A 
ATOM      7  C8  UNL d   1       0.203   2.425  -0.628  0.00  0.00     0.078 C 
ENDROOT
BRANCH   1   8
ATOM      8  C1  UNL d   1       1.216  -0.408  -0.872  0.00  0.00     0.053 C 
ATOM      9  C   UNL d   1       0.832  -1.742  -1.493  0.00  0.00     0.018 C 
ENDBRANCH   1   8
TORSDOF 1
ENDMDL
