MODEL 1
REMARK minimizedAffinity -4.3044219
REMARK minimizedRMSD -1
REMARK  1 active torsions:
REMARK  status: ('A' for Active; 'I' for Inactive)
REMARK    1  A    between atoms: C1_2  and  C2_3 
ROOT
ATOM      1  C2  UNL d   1      -0.284   0.291   0.129  0.00  0.00    -0.076 A 
ATOM      2  C3  UNL d   1      -0.716   1.476  -0.491  0.00  0.00     0.004 A 
ATOM      3  C4  UNL d   1      -1.263   2.518   0.257  0.00  0.00    -0.003 A 
ATOM      4  C5  UNL d   1      -1.385   2.392   1.636  0.00  0.00     0.000 A 
ATOM      5  C6  UNL d   1      -0.945   1.230   2.269  0.00  0.00     0.000 A 
ATOM      6  C7  UNL d   1      -0.377   0.176   1.532  0.00  0.00    -0.073 A 
ATOM      7  C8  UNL d   1       0.075  -1.056   2.266  0.00  0.00     0.078 C 
ENDROOT
BRANCH   1   8
ATOM      8  C1  UNL d   1       0.275  -0.816  -0.736  0.00  0.00     0.053 C 
ATOM      9  C   UNL d   1       1.659  -0.490  -1.278  0.00  0.00     0.018 C 
ENDBRANCH   1   8
TORSDOF 1
ENDMDL
