MODEL 1
REMARK minimizedAffinity -5.12098074
REMARK minimizedRMSD -1
REMARK  1 active torsions:
REMARK  status: ('A' for Active; 'I' for Inactive)
REMARK    1  A    between atoms: C1_2  and  C2_3 
ROOT
ATOM      1  C2  UNL d   1       0.089   0.661   0.080  0.00  0.00    -0.076 A 
ATOM      2  C3  UNL d   1      -0.295   1.862  -0.541  0.00  0.00     0.004 A 
ATOM      3  C4  UNL d   1      -1.228   2.710   0.053  0.00  0.00    -0.003 A 
ATOM      4  C5  UNL d   1      -1.791   2.371   1.279  0.00  0.00     0.000 A 
ATOM      5  C6  UNL d   1      -1.408   1.192   1.918  0.00  0.00     0.000 A 
ATOM      6  C7  UNL d   1      -0.457   0.334   1.340  0.00  0.00    -0.073 A 
ATOM      7  C8  UNL d   1      -0.085  -0.928   2.070  0.00  0.00     0.078 C 
ENDROOT
BRANCH   1   8
ATOM      8  C1  UNL d   1       1.085  -0.233  -0.624  0.00  0.00     0.053 C 
ATOM      9  C   UNL d   1       0.452  -1.513  -1.146  0.00  0.00     0.018 C 
ENDBRANCH   1   8
TORSDOF 1
ENDMDL
