MODEL 1
REMARK minimizedAffinity -5.22042847
REMARK minimizedRMSD -1
REMARK  1 active torsions:
REMARK  status: ('A' for Active; 'I' for Inactive)
REMARK    1  A    between atoms: C1_2  and  C2_3 
ROOT
ATOM      1  C2  UNL d   1      -0.380   0.938   0.920  0.00  0.00    -0.076 A 
ATOM      2  C3  UNL d   1      -0.179   2.261   0.489  0.00  0.00     0.004 A 
ATOM      3  C4  UNL d   1      -1.217   3.191   0.520  0.00  0.00    -0.003 A 
ATOM      4  C5  UNL d   1      -2.472   2.813   0.983  0.00  0.00     0.000 A 
ATOM      5  C6  UNL d   1      -2.685   1.510   1.432  0.00  0.00     0.000 A 
ATOM      6  C7  UNL d   1      -1.645   0.565   1.423  0.00  0.00    -0.073 A 
ATOM      7  C8  UNL d   1      -1.931  -0.828   1.913  0.00  0.00     0.078 C 
ENDROOT
BRANCH   1   8
ATOM      8  C1  UNL d   1       0.776  -0.034   0.838  0.00  0.00     0.053 C 
ATOM      9  C   UNL d   1       0.796  -0.806  -0.472  0.00  0.00     0.018 C 
ENDBRANCH   1   8
TORSDOF 1
ENDMDL
