MODEL 1
REMARK minimizedAffinity -4.84348345
REMARK minimizedRMSD -1
REMARK  1 active torsions:
REMARK  status: ('A' for Active; 'I' for Inactive)
REMARK    1  A    between atoms: C1_2  and  C2_3 
ROOT
ATOM      1  C2  UNL d   1       0.305   0.592   0.202  0.00  0.00    -0.076 A 
ATOM      2  C3  UNL d   1      -0.318  -0.211   1.173  0.00  0.00     0.004 A 
ATOM      3  C4  UNL d   1      -1.235   0.332   2.072  0.00  0.00    -0.003 A 
ATOM      4  C5  UNL d   1      -1.543   1.687   2.015  0.00  0.00     0.000 A 
ATOM      5  C6  UNL d   1      -0.948   2.494   1.046  0.00  0.00     0.000 A 
ATOM      6  C7  UNL d   1      -0.034   1.960   0.122  0.00  0.00    -0.073 A 
ATOM      7  C8  UNL d   1       0.583   2.878  -0.897  0.00  0.00     0.078 C 
ENDROOT
BRANCH   1   8
ATOM      8  C1  UNL d   1       1.311  -0.047  -0.728  0.00  0.00     0.053 C 
ATOM      9  C   UNL d   1       1.089  -1.543  -0.889  0.00  0.00     0.018 C 
ENDBRANCH   1   8
TORSDOF 1
ENDMDL
