MODEL 1
REMARK minimizedAffinity -6.19426489
REMARK minimizedRMSD -1
REMARK  1 active torsions:
REMARK  status: ('A' for Active; 'I' for Inactive)
REMARK    1  A    between atoms: C1_2  and  C2_3 
ROOT
ATOM      1  C2  UNL d   1      -0.104   1.266  -0.269  0.00  0.00    -0.076 A 
ATOM      2  C3  UNL d   1      -0.406   2.578  -0.675  0.00  0.00     0.004 A 
ATOM      3  C4  UNL d   1      -1.208   3.405   0.110  0.00  0.00    -0.003 A 
ATOM      4  C5  UNL d   1      -1.720   2.934   1.314  0.00  0.00     0.000 A 
ATOM      5  C6  UNL d   1      -1.416   1.641   1.740  0.00  0.00     0.000 A 
ATOM      6  C7  UNL d   1      -0.597   0.800   0.969  0.00  0.00    -0.073 A 
ATOM      7  C8  UNL d   1      -0.307  -0.587   1.473  0.00  0.00     0.078 C 
ENDROOT
BRANCH   1   8
ATOM      8  C1  UNL d   1       0.747   0.406  -1.175  0.00  0.00     0.053 C 
ATOM      9  C   UNL d   1       1.798   1.211  -1.925  0.00  0.00     0.018 C 
ENDBRANCH   1   8
TORSDOF 1
ENDMDL
