MODEL 1
REMARK minimizedAffinity -4.3886137
REMARK minimizedRMSD -1
REMARK  1 active torsions:
REMARK  status: ('A' for Active; 'I' for Inactive)
REMARK    1  A    between atoms: C1_2  and  C2_3 
ROOT
ATOM      1  C2  UNL d   1      -0.263   0.372   0.140  0.00  0.00    -0.076 A 
ATOM      2  C3  UNL d   1      -0.825  -0.348   1.208  0.00  0.00     0.004 A 
ATOM      3  C4  UNL d   1      -1.645   0.280   2.144  0.00  0.00    -0.003 A 
ATOM      4  C5  UNL d   1      -1.918   1.639   2.026  0.00  0.00     0.000 A 
ATOM      5  C6  UNL d   1      -1.383   2.364   0.962  0.00  0.00     0.000 A 
ATOM      6  C7  UNL d   1      -0.567   1.743   0.001  0.00  0.00    -0.073 A 
ATOM      7  C8  UNL d   1      -0.013   2.575  -1.123  0.00  0.00     0.078 C 
ENDROOT
BRANCH   1   8
ATOM      8  C1  UNL d   1       0.641  -0.357  -0.829  0.00  0.00     0.053 C 
ATOM      9  C   UNL d   1       0.225  -1.805  -1.037  0.00  0.00     0.018 C 
ENDBRANCH   1   8
TORSDOF 1
ENDMDL
