MODEL 1
REMARK minimizedAffinity -5.43567753
REMARK minimizedRMSD -1
REMARK  1 active torsions:
REMARK  status: ('A' for Active; 'I' for Inactive)
REMARK    1  A    between atoms: C1_2  and  C2_3 
ROOT
ATOM      1  C2  UNL d   1      -0.502   1.278   0.014  0.00  0.00    -0.076 A 
ATOM      2  C3  UNL d   1      -1.123   0.560   1.050  0.00  0.00     0.004 A 
ATOM      3  C4  UNL d   1      -2.091   1.157   1.856  0.00  0.00    -0.003 A 
ATOM      4  C5  UNL d   1      -2.455   2.481   1.638  0.00  0.00     0.000 A 
ATOM      5  C6  UNL d   1      -1.862   3.203   0.602  0.00  0.00     0.000 A 
ATOM      6  C7  UNL d   1      -0.896   2.612  -0.230  0.00  0.00    -0.073 A 
ATOM      7  C8  UNL d   1      -0.284   3.439  -1.327  0.00  0.00     0.078 C 
ENDROOT
BRANCH   1   8
ATOM      8  C1  UNL d   1       0.562   0.587  -0.810  0.00  0.00     0.053 C 
ATOM      9  C   UNL d   1       0.779  -0.857  -0.387  0.00  0.00     0.018 C 
ENDBRANCH   1   8
TORSDOF 1
ENDMDL
