MODEL 1
REMARK minimizedAffinity -5.81202221
REMARK minimizedRMSD -1
REMARK  1 active torsions:
REMARK  status: ('A' for Active; 'I' for Inactive)
REMARK    1  A    between atoms: C1_2  and  C2_3 
ROOT
ATOM      1  C2  UNL d   1      -0.322   0.988   0.107  0.00  0.00    -0.076 A 
ATOM      2  C3  UNL d   1       0.055   2.061  -0.720  0.00  0.00     0.004 A 
ATOM      3  C4  UNL d   1      -0.485   3.333  -0.535  0.00  0.00    -0.003 A 
ATOM      4  C5  UNL d   1      -1.409   3.553   0.480  0.00  0.00     0.000 A 
ATOM      5  C6  UNL d   1      -1.781   2.504   1.321  0.00  0.00     0.000 A 
ATOM      6  C7  UNL d   1      -1.234   1.220   1.158  0.00  0.00    -0.073 A 
ATOM      7  C8  UNL d   1      -1.676   0.124   2.090  0.00  0.00     0.078 C 
ENDROOT
BRANCH   1   8
ATOM      8  C1  UNL d   1       0.276  -0.375  -0.159  0.00  0.00     0.053 C 
ATOM      9  C   UNL d   1       1.444  -0.320  -1.131  0.00  0.00     0.018 C 
ENDBRANCH   1   8
TORSDOF 1
ENDMDL
