MODEL 1
REMARK minimizedAffinity -3.59376955
REMARK minimizedRMSD -1
REMARK  1 active torsions:
REMARK  status: ('A' for Active; 'I' for Inactive)
REMARK    1  A    between atoms: C1_2  and  C2_3 
ROOT
ATOM      1  C2  UNL d   1       0.137   0.554   0.014  0.00  0.00    -0.076 A 
ATOM      2  C3  UNL d   1      -0.290  -0.163   1.146  0.00  0.00     0.004 A 
ATOM      3  C4  UNL d   1      -1.112   0.429   2.103  0.00  0.00    -0.003 A 
ATOM      4  C5  UNL d   1      -1.522   1.748   1.943  0.00  0.00     0.000 A 
ATOM      5  C6  UNL d   1      -1.123   2.469   0.818  0.00  0.00     0.000 A 
ATOM      6  C7  UNL d   1      -0.308   1.882  -0.164  0.00  0.00    -0.073 A 
ATOM      7  C8  UNL d   1       0.097   2.707  -1.354  0.00  0.00     0.078 C 
ENDROOT
BRANCH   1   8
ATOM      8  C1  UNL d   1       1.050  -0.132  -0.976  0.00  0.00     0.053 C 
ATOM      9  C   UNL d   1       0.987  -1.648  -0.874  0.00  0.00     0.018 C 
ENDBRANCH   1   8
TORSDOF 1
ENDMDL
