MODEL 1
REMARK minimizedAffinity -6.23581457
REMARK minimizedRMSD -1
REMARK  1 active torsions:
REMARK  status: ('A' for Active; 'I' for Inactive)
REMARK    1  A    between atoms: C1_2  and  C2_3 
ROOT
ATOM      1  C2  UNL d   1      -0.705   0.463   1.113  0.00  0.00    -0.076 A 
ATOM      2  C3  UNL d   1      -1.550   1.372   1.774  0.00  0.00     0.004 A 
ATOM      3  C4  UNL d   1      -1.848   2.612   1.211  0.00  0.00    -0.003 A 
ATOM      4  C5  UNL d   1      -1.308   2.962  -0.021  0.00  0.00     0.000 A 
ATOM      5  C6  UNL d   1      -0.483   2.065  -0.699  0.00  0.00     0.000 A 
ATOM      6  C7  UNL d   1      -0.185   0.805  -0.153  0.00  0.00    -0.073 A 
ATOM      7  C8  UNL d   1       0.716  -0.121  -0.924  0.00  0.00     0.078 C 
ENDROOT
BRANCH   1   8
ATOM      8  C1  UNL d   1      -0.395  -0.856   1.785  0.00  0.00     0.053 C 
ATOM      9  C   UNL d   1       1.040  -0.934   2.281  0.00  0.00     0.018 C 
ENDBRANCH   1   8
TORSDOF 1
ENDMDL
