MODEL 1
REMARK minimizedAffinity -5.81946564
REMARK minimizedRMSD -1
REMARK  1 active torsions:
REMARK  status: ('A' for Active; 'I' for Inactive)
REMARK    1  A    between atoms: C1_2  and  C2_3 
ROOT
ATOM      1  C2  UNL d   1      -0.070   0.684   0.126  0.00  0.00    -0.076 A 
ATOM      2  C3  UNL d   1      -0.271   1.834  -0.658  0.00  0.00     0.004 A 
ATOM      3  C4  UNL d   1      -1.214   2.793  -0.295  0.00  0.00    -0.003 A 
ATOM      4  C5  UNL d   1      -1.971   2.619   0.859  0.00  0.00     0.000 A 
ATOM      5  C6  UNL d   1      -1.773   1.493   1.657  0.00  0.00     0.000 A 
ATOM      6  C7  UNL d   1      -0.814   0.524   1.314  0.00  0.00    -0.073 A 
ATOM      7  C8  UNL d   1      -0.646  -0.673   2.208  0.00  0.00     0.078 C 
ENDROOT
BRANCH   1   8
ATOM      8  C1  UNL d   1       0.948  -0.336  -0.333  0.00  0.00     0.053 C 
ATOM      9  C   UNL d   1       0.341  -1.403  -1.231  0.00  0.00     0.018 C 
ENDBRANCH   1   8
TORSDOF 1
ENDMDL
