MODEL 1
REMARK minimizedAffinity -5.73416185
REMARK minimizedRMSD -1
REMARK  1 active torsions:
REMARK  status: ('A' for Active; 'I' for Inactive)
REMARK    1  A    between atoms: C1_2  and  C2_3 
ROOT
ATOM      1  C2  UNL d   1      -0.125   1.105  -0.010  0.00  0.00    -0.076 A 
ATOM      2  C3  UNL d   1       0.155   2.175  -0.877  0.00  0.00     0.004 A 
ATOM      3  C4  UNL d   1       0.099   3.494  -0.430  0.00  0.00    -0.003 A 
ATOM      4  C5  UNL d   1      -0.237   3.764   0.892  0.00  0.00     0.000 A 
ATOM      5  C6  UNL d   1      -0.501   2.714   1.771  0.00  0.00     0.000 A 
ATOM      6  C7  UNL d   1      -0.433   1.378   1.340  0.00  0.00    -0.073 A 
ATOM      7  C8  UNL d   1      -0.733   0.284   2.329  0.00  0.00     0.078 C 
ENDROOT
BRANCH   1   8
ATOM      8  C1  UNL d   1      -0.076  -0.304  -0.558  0.00  0.00     0.053 C 
ATOM      9  C   UNL d   1       1.336  -0.869  -0.585  0.00  0.00     0.018 C 
ENDBRANCH   1   8
TORSDOF 1
ENDMDL
