MODEL 1
REMARK minimizedAffinity -3.49149108
REMARK minimizedRMSD -1
REMARK  1 active torsions:
REMARK  status: ('A' for Active; 'I' for Inactive)
REMARK    1  A    between atoms: C1_2  and  C2_3 
ROOT
ATOM      1  C2  UNL d   1       0.015  -0.173  -0.152  0.00  0.00    -0.076 A 
ATOM      2  C3  UNL d   1      -0.531   0.867  -0.924  0.00  0.00     0.004 A 
ATOM      3  C4  UNL d   1      -1.471   1.744  -0.384  0.00  0.00    -0.003 A 
ATOM      4  C5  UNL d   1      -1.879   1.595   0.936  0.00  0.00     0.000 A 
ATOM      5  C6  UNL d   1      -1.335   0.580   1.722  0.00  0.00     0.000 A 
ATOM      6  C7  UNL d   1      -0.375  -0.303   1.198  0.00  0.00    -0.073 A 
ATOM      7  C8  UNL d   1       0.174  -1.384   2.088  0.00  0.00     0.078 C 
ENDROOT
BRANCH   1   8
ATOM      8  C1  UNL d   1       1.009  -1.110  -0.800  0.00  0.00     0.053 C 
ATOM      9  C   UNL d   1       0.371  -1.995  -1.859  0.00  0.00     0.018 C 
ENDBRANCH   1   8
TORSDOF 1
ENDMDL
