MODEL 1
REMARK minimizedAffinity -5.2893343
REMARK minimizedRMSD -1
REMARK  1 active torsions:
REMARK  status: ('A' for Active; 'I' for Inactive)
REMARK    1  A    between atoms: C1_2  and  C2_3 
ROOT
ATOM      1  C2  UNL d   1      -0.614   2.132  -0.433  0.00  0.00    -0.076 A 
ATOM      2  C3  UNL d   1      -1.395   3.010   0.340  0.00  0.00     0.004 A 
ATOM      3  C4  UNL d   1      -2.004   2.580   1.518  0.00  0.00    -0.003 A 
ATOM      4  C5  UNL d   1      -1.841   1.266   1.942  0.00  0.00     0.000 A 
ATOM      5  C6  UNL d   1      -1.055   0.387   1.198  0.00  0.00     0.000 A 
ATOM      6  C7  UNL d   1      -0.421   0.808   0.017  0.00  0.00    -0.073 A 
ATOM      7  C8  UNL d   1       0.410  -0.183  -0.750  0.00  0.00     0.078 C 
ENDROOT
BRANCH   1   8
ATOM      8  C1  UNL d   1      -0.000   2.647  -1.715  0.00  0.00     0.053 C 
ATOM      9  C   UNL d   1       0.087   4.165  -1.751  0.00  0.00     0.018 C 
ENDBRANCH   1   8
TORSDOF 1
ENDMDL
