MODEL 1
REMARK minimizedAffinity -4.52115822
REMARK minimizedRMSD -1
REMARK  1 active torsions:
REMARK  status: ('A' for Active; 'I' for Inactive)
REMARK    1  A    between atoms: C1_2  and  C2_3 
ROOT
ATOM      1  C2  UNL d   1       0.116   1.134  -0.016  0.00  0.00    -0.076 A 
ATOM      2  C3  UNL d   1       0.070   2.437  -0.541  0.00  0.00     0.004 A 
ATOM      3  C4  UNL d   1      -0.747   3.412   0.029  0.00  0.00    -0.003 A 
ATOM      4  C5  UNL d   1      -1.532   3.099   1.133  0.00  0.00     0.000 A 
ATOM      5  C6  UNL d   1      -1.486   1.816   1.678  0.00  0.00     0.000 A 
ATOM      6  C7  UNL d   1      -0.655   0.827   1.125  0.00  0.00    -0.073 A 
ATOM      7  C8  UNL d   1      -0.649  -0.542   1.750  0.00  0.00     0.078 C 
ENDROOT
BRANCH   1   8
ATOM      8  C1  UNL d   1       1.001   0.111  -0.693  0.00  0.00     0.053 C 
ATOM      9  C   UNL d   1       2.278   0.722  -1.249  0.00  0.00     0.018 C 
ENDBRANCH   1   8
TORSDOF 1
ENDMDL
