MODEL 1
REMARK minimizedAffinity 14.8180285
REMARK minimizedRMSD -1
REMARK  1 active torsions:
REMARK  status: ('A' for Active; 'I' for Inactive)
REMARK    1  A    between atoms: C1_2  and  C2_3 
ROOT
ATOM      1  C2  UNL d   1       1.783   4.686   1.041  0.00  0.00    -0.076 A 
ATOM      2  C3  UNL d   1       1.434   5.825   0.295  0.00  0.00     0.004 A 
ATOM      3  C4  UNL d   1       0.250   5.867  -0.439  0.00  0.00    -0.003 A 
ATOM      4  C5  UNL d   1      -0.605   4.771  -0.439  0.00  0.00     0.000 A 
ATOM      5  C6  UNL d   1      -0.284   3.639   0.310  0.00  0.00     0.000 A 
ATOM      6  C7  UNL d   1       0.898   3.586   1.068  0.00  0.00    -0.073 A 
ATOM      7  C8  UNL d   1       1.198   2.338   1.852  0.00  0.00     0.078 C 
ENDROOT
BRANCH   1   8
ATOM      8  C1  UNL d   1       3.093   4.687   1.795  0.00  0.00     0.053 C 
ATOM      9  C   UNL d   1       3.346   6.000   2.521  0.00  0.00     0.018 C 
ENDBRANCH   1   8
TORSDOF 1
ENDMDL
