MODEL 1
REMARK minimizedAffinity 17.1017303
REMARK minimizedRMSD -1
REMARK  1 active torsions:
REMARK  status: ('A' for Active; 'I' for Inactive)
REMARK    1  A    between atoms: C1_2  and  C2_3 
ROOT
ATOM      1  C2  UNL d   1       4.802  -4.279  -2.488  0.00  0.00    -0.076 A 
ATOM      2  C3  UNL d   1       4.774  -3.941  -1.124  0.00  0.00     0.004 A 
ATOM      3  C4  UNL d   1       5.357  -2.761  -0.664  0.00  0.00    -0.003 A 
ATOM      4  C5  UNL d   1       5.978  -1.900  -1.562  0.00  0.00     0.000 A 
ATOM      5  C6  UNL d   1       6.000  -2.210  -2.921  0.00  0.00     0.000 A 
ATOM      6  C7  UNL d   1       5.402  -3.387  -3.403  0.00  0.00    -0.073 A 
ATOM      7  C8  UNL d   1       5.461  -3.675  -4.878  0.00  0.00     0.078 C 
ENDROOT
BRANCH   1   8
ATOM      8  C1  UNL d   1       4.177  -5.584  -2.924  0.00  0.00     0.053 C 
ATOM      9  C   UNL d   1       2.976  -5.968  -2.073  0.00  0.00     0.018 C 
ENDBRANCH   1   8
TORSDOF 1
ENDMDL
