MODEL 1
REMARK minimizedAffinity 9.48383141
REMARK minimizedRMSD -1
REMARK  1 active torsions:
REMARK  status: ('A' for Active; 'I' for Inactive)
REMARK    1  A    between atoms: C1_2  and  C2_3 
ROOT
ATOM      1  C2  UNL d   1       1.275   3.511   1.433  0.00  0.00    -0.076 A 
ATOM      2  C3  UNL d   1       0.173   3.061   0.685  0.00  0.00     0.004 A 
ATOM      3  C4  UNL d   1      -0.374   3.844  -0.330  0.00  0.00    -0.003 A 
ATOM      4  C5  UNL d   1       0.172   5.091  -0.613  0.00  0.00     0.000 A 
ATOM      5  C6  UNL d   1       1.276   5.547   0.107  0.00  0.00     0.000 A 
ATOM      6  C7  UNL d   1       1.850   4.762   1.123  0.00  0.00    -0.073 A 
ATOM      7  C8  UNL d   1       3.036   5.305   1.872  0.00  0.00     0.078 C 
ENDROOT
BRANCH   1   8
ATOM      8  C1  UNL d   1       1.808   2.629   2.539  0.00  0.00     0.053 C 
ATOM      9  C   UNL d   1       0.800   1.583   2.988  0.00  0.00     0.018 C 
ENDBRANCH   1   8
TORSDOF 1
ENDMDL
