MODEL 1
REMARK minimizedAffinity 19.9546223
REMARK minimizedRMSD -1
REMARK  1 active torsions:
REMARK  status: ('A' for Active; 'I' for Inactive)
REMARK    1  A    between atoms: C1_2  and  C2_3 
ROOT
ATOM      1  C2  UNL d   1      -1.021   4.700   0.070  0.00  0.00    -0.076 A 
ATOM      2  C3  UNL d   1      -1.514   4.031   1.204  0.00  0.00     0.004 A 
ATOM      3  C4  UNL d   1      -0.762   3.043   1.837  0.00  0.00    -0.003 A 
ATOM      4  C5  UNL d   1       0.495   2.707   1.347  0.00  0.00     0.000 A 
ATOM      5  C6  UNL d   1       1.007   3.372   0.233  0.00  0.00     0.000 A 
ATOM      6  C7  UNL d   1       0.269   4.382  -0.407  0.00  0.00    -0.073 A 
ATOM      7  C8  UNL d   1       0.867   5.062  -1.608  0.00  0.00     0.078 C 
ENDROOT
BRANCH   1   8
ATOM      8  C1  UNL d   1      -1.892   5.744  -0.591  0.00  0.00     0.053 C 
ATOM      9  C   UNL d   1      -2.597   5.215  -1.830  0.00  0.00     0.018 C 
ENDBRANCH   1   8
TORSDOF 1
ENDMDL
