MODEL 1
REMARK minimizedAffinity 6.90601444
REMARK minimizedRMSD -1
REMARK  0 active torsions:
REMARK  status: ('A' for Active; 'I' for Inactive)
ROOT
ATOM      1  N1  IND d   1       2.041   0.667  -0.586  0.00  0.00    -0.196 N 
ATOM      2  C2  IND d   1       2.106  -0.685  -0.396  0.00  0.00     0.054 A 
ATOM      3  C3  IND d   1       3.390  -1.106  -0.437  0.00  0.00    -0.031 A 
ATOM      4  C4  IND d   1       5.552   0.267  -0.704  0.00  0.00     0.051 A 
ATOM      5  C5  IND d   1       6.000   1.535  -0.945  0.00  0.00    -0.031 A 
ATOM      6  C6  IND d   1       5.134   2.601  -1.079  0.00  0.00     0.015 A 
ATOM      7  C7  IND d   1       3.782   2.439  -0.964  0.00  0.00    -0.016 A 
ATOM      8  C8  IND d   1       3.323   1.151  -0.727  0.00  0.00    -0.047 A 
ATOM      9  C9  IND d   1       4.195   0.059  -0.632  0.00  0.00    -0.096 A 
ATOM     10  HN1 IND d   1       1.321   1.136  -0.613  0.00  0.00     0.298 HD
ENDROOT
TORSDOF 0
ENDMDL
