MODEL 1
REMARK minimizedAffinity -0.914867461
REMARK minimizedRMSD -1
REMARK  0 active torsions:
REMARK  status: ('A' for Active; 'I' for Inactive)
ROOT
ATOM      1  N1  IND d   1       4.479   1.502  -1.859  0.00  0.00    -0.196 N 
ATOM      2  C2  IND d   1       4.183   0.357  -1.174  0.00  0.00     0.054 A 
ATOM      3  C3  IND d   1       4.535   0.482   0.126  0.00  0.00    -0.031 A 
ATOM      4  C4  IND d   1       5.516   2.513   1.366  0.00  0.00     0.051 A 
ATOM      5  C5  IND d   1       5.993   3.777   1.156  0.00  0.00    -0.031 A 
ATOM      6  C6  IND d   1       5.988   4.359  -0.095  0.00  0.00     0.015 A 
ATOM      7  C7  IND d   1       5.492   3.701  -1.185  0.00  0.00    -0.016 A 
ATOM      8  C8  IND d   1       5.013   2.415  -0.976  0.00  0.00    -0.047 A 
ATOM      9  C9  IND d   1       5.055   1.803   0.283  0.00  0.00    -0.096 A 
ATOM     10  HN1 IND d   1       4.354   1.630  -2.700  0.00  0.00     0.298 HD
ENDROOT
TORSDOF 0
ENDMDL
