MODEL 1
REMARK minimizedAffinity 2.73363948
REMARK minimizedRMSD -1
REMARK  0 active torsions:
REMARK  status: ('A' for Active; 'I' for Inactive)
ROOT
ATOM      1  N1  IND d   1      -2.895   2.010   1.028  0.00  0.00    -0.196 N 
ATOM      2  C2  IND d   1      -1.671   1.744   0.482  0.00  0.00     0.054 A 
ATOM      3  C3  IND d   1      -0.811   2.756   0.739  0.00  0.00    -0.031 A 
ATOM      4  C4  IND d   1      -1.172   4.897   2.122  0.00  0.00     0.051 A 
ATOM      5  C5  IND d   1      -2.137   5.598   2.789  0.00  0.00    -0.031 A 
ATOM      6  C6  IND d   1      -3.429   5.129   2.908  0.00  0.00     0.015 A 
ATOM      7  C7  IND d   1      -3.804   3.929   2.371  0.00  0.00    -0.016 A 
ATOM      8  C8  IND d   1      -2.828   3.217   1.687  0.00  0.00    -0.047 A 
ATOM      9  C9  IND d   1      -1.526   3.709   1.527  0.00  0.00    -0.096 A 
ATOM     10  HN1 IND d   1      -3.590   1.507   0.970  0.00  0.00     0.298 HD
ENDROOT
TORSDOF 0
ENDMDL
