MODEL 1
REMARK minimizedAffinity 8.91588974
REMARK minimizedRMSD -1
REMARK  0 active torsions:
REMARK  status: ('A' for Active; 'I' for Inactive)
ROOT
ATOM      1  N1  IND d   1       4.353   1.920  -1.808  0.00  0.00    -0.196 N 
ATOM      2  C2  IND d   1       4.291   0.861  -0.945  0.00  0.00     0.054 A 
ATOM      3  C3  IND d   1       4.709   1.232   0.286  0.00  0.00    -0.031 A 
ATOM      4  C4  IND d   1       5.444   3.549   1.134  0.00  0.00     0.051 A 
ATOM      5  C5  IND d   1       5.701   4.821   0.706  0.00  0.00    -0.031 A 
ATOM      6  C6  IND d   1       5.515   5.200  -0.608  0.00  0.00     0.015 A 
ATOM      7  C7  IND d   1       5.053   4.319  -1.544  0.00  0.00    -0.016 A 
ATOM      8  C8  IND d   1       4.798   3.024  -1.115  0.00  0.00    -0.047 A 
ATOM      9  C9  IND d   1       5.025   2.623   0.208  0.00  0.00    -0.096 A 
ATOM     10  HN1 IND d   1       4.150   1.899  -2.643  0.00  0.00     0.298 HD
ENDROOT
TORSDOF 0
ENDMDL
