MODEL 1
REMARK minimizedAffinity 3.81470394
REMARK minimizedRMSD -1
REMARK  0 active torsions:
REMARK  status: ('A' for Active; 'I' for Inactive)
ROOT
ATOM      1  N1  IND d   1       5.386   3.663  -1.877  0.00  0.00    -0.196 N 
ATOM      2  C2  IND d   1       5.959   4.439  -0.908  0.00  0.00     0.054 A 
ATOM      3  C3  IND d   1       6.000   3.772   0.267  0.00  0.00    -0.031 A 
ATOM      4  C4  IND d   1       5.275   1.361   0.805  0.00  0.00     0.051 A 
ATOM      5  C5  IND d   1       4.660   0.273   0.252  0.00  0.00    -0.031 A 
ATOM      6  C6  IND d   1       4.250   0.257  -1.065  0.00  0.00     0.015 A 
ATOM      7  C7  IND d   1       4.451   1.331  -1.886  0.00  0.00    -0.016 A 
ATOM      8  C8  IND d   1       5.068   2.440  -1.327  0.00  0.00    -0.047 A 
ATOM      9  C9  IND d   1       5.448   2.478   0.021  0.00  0.00    -0.096 A 
ATOM     10  HN1 IND d   1       5.247   3.899  -2.692  0.00  0.00     0.298 HD
ENDROOT
TORSDOF 0
ENDMDL
