MODEL 1
REMARK minimizedAffinity 17.8852024
REMARK minimizedRMSD -1
REMARK  0 active torsions:
REMARK  status: ('A' for Active; 'I' for Inactive)
ROOT
ATOM      1  N1  IND d   1      -3.366   2.028  -5.705  0.00  0.00    -0.196 N 
ATOM      2  C2  IND d   1      -3.113   0.719  -5.400  0.00  0.00     0.054 A 
ATOM      3  C3  IND d   1      -3.740   0.374  -4.253  0.00  0.00    -0.031 A 
ATOM      4  C4  IND d   1      -5.314   1.766  -2.766  0.00  0.00     0.051 A 
ATOM      5  C5  IND d   1      -5.819   3.027  -2.616  0.00  0.00    -0.031 A 
ATOM      6  C6  IND d   1      -5.528   4.039  -3.508  0.00  0.00     0.015 A 
ATOM      7  C7  IND d   1      -4.728   3.824  -4.594  0.00  0.00    -0.016 A 
ATOM      8  C8  IND d   1      -4.207   2.546  -4.745  0.00  0.00    -0.047 A 
ATOM      9  C9  IND d   1      -4.464   1.526  -3.820  0.00  0.00    -0.096 A 
ATOM     10  HN1 IND d   1      -3.053   2.455  -6.382  0.00  0.00     0.298 HD
ENDROOT
TORSDOF 0
ENDMDL
