MODEL 1
REMARK minimizedAffinity 3.9405632
REMARK minimizedRMSD -1
REMARK  0 active torsions:
REMARK  status: ('A' for Active; 'I' for Inactive)
ROOT
ATOM      1  N1  IND d   1      -0.734  -3.030   3.773  0.00  0.00    -0.196 N 
ATOM      2  C2  IND d   1       0.371  -2.381   3.297  0.00  0.00     0.054 A 
ATOM      3  C3  IND d   1       1.498  -2.974   3.753  0.00  0.00    -0.031 A 
ATOM      4  C4  IND d   1       1.762  -5.082   5.208  0.00  0.00     0.051 A 
ATOM      5  C5  IND d   1       1.039  -5.999   5.916  0.00  0.00    -0.031 A 
ATOM      6  C6  IND d   1      -0.341  -5.975   5.945  0.00  0.00     0.015 A 
ATOM      7  C7  IND d   1      -1.051  -5.035   5.253  0.00  0.00    -0.016 A 
ATOM      8  C8  IND d   1      -0.320  -4.098   4.539  0.00  0.00    -0.047 A 
ATOM      9  C9  IND d   1       1.081  -4.091   4.540  0.00  0.00    -0.096 A 
ATOM     10  HN1 IND d   1      -1.550  -2.809   3.619  0.00  0.00     0.298 HD
ENDROOT
TORSDOF 0
ENDMDL
