MODEL 1
REMARK minimizedAffinity 10.6305981
REMARK minimizedRMSD -1
REMARK  0 active torsions:
REMARK  status: ('A' for Active; 'I' for Inactive)
ROOT
ATOM      1  N1  IND d   1       3.362   0.361  -1.498  0.00  0.00    -0.196 N 
ATOM      2  C2  IND d   1       3.030  -0.569  -0.553  0.00  0.00     0.054 A 
ATOM      3  C3  IND d   1       3.714  -0.343   0.591  0.00  0.00    -0.031 A 
ATOM      4  C4  IND d   1       5.353   1.557   1.168  0.00  0.00     0.051 A 
ATOM      5  C5  IND d   1       6.000   2.627   0.615  0.00  0.00    -0.031 A 
ATOM      6  C6  IND d   1       5.794   3.005  -0.696  0.00  0.00     0.015 A 
ATOM      7  C7  IND d   1       4.921   2.332  -1.503  0.00  0.00    -0.016 A 
ATOM      8  C8  IND d   1       4.268   1.241  -0.947  0.00  0.00    -0.047 A 
ATOM      9  C9  IND d   1       4.505   0.826   0.370  0.00  0.00    -0.096 A 
ATOM     10  HN1 IND d   1       3.057   0.392  -2.301  0.00  0.00     0.298 HD
ENDROOT
TORSDOF 0
ENDMDL
