MODEL 1
REMARK minimizedAffinity -4.44306421
REMARK minimizedRMSD -1
REMARK  0 active torsions:
REMARK  status: ('A' for Active; 'I' for Inactive)
ROOT
ATOM      1  C4' PXY d   1       0.249  -0.383  -2.101  0.00  0.00     0.077 C 
ATOM      2  C1' PXY d   1      -1.072  -0.765   3.513  0.00  0.00     0.077 C 
ATOM      3  C1  PXY d   1      -0.713  -0.661   2.044  0.00  0.00    -0.082 A 
ATOM      4  C2  PXY d   1      -1.667  -0.448   1.151  0.00  0.00     0.003 A 
ATOM      5  C3  PXY d   1      -1.364  -0.384  -0.184  0.00  0.00     0.003 A 
ATOM      6  C4  PXY d   1      -0.066  -0.485  -0.606  0.00  0.00    -0.082 A 
ATOM      7  C5  PXY d   1       0.914  -0.692   0.299  0.00  0.00     0.003 A 
ATOM      8  C6  PXY d   1       0.581  -0.795   1.647  0.00  0.00     0.003 A 
ENDROOT
TORSDOF 0
ENDMDL
