MODEL 1
REMARK minimizedAffinity -3.27724981
REMARK minimizedRMSD -1
REMARK  0 active torsions:
REMARK  status: ('A' for Active; 'I' for Inactive)
ROOT
ATOM      1  C4' PXY d   1       0.527  -0.421  -2.460  0.00  0.00     0.077 C 
ATOM      2  C1' PXY d   1      -0.614  -0.335   3.206  0.00  0.00     0.077 C 
ATOM      3  C1  PXY d   1      -0.327  -0.361   1.718  0.00  0.00    -0.082 A 
ATOM      4  C2  PXY d   1       0.920  -0.492   1.294  0.00  0.00     0.003 A 
ATOM      5  C3  PXY d   1       1.200  -0.486  -0.048  0.00  0.00     0.003 A 
ATOM      6  C4  PXY d   1       0.189  -0.399  -0.967  0.00  0.00    -0.082 A 
ATOM      7  C5  PXY d   1      -1.087  -0.276  -0.543  0.00  0.00     0.003 A 
ATOM      8  C6  PXY d   1      -1.346  -0.243   0.824  0.00  0.00     0.003 A 
ENDROOT
TORSDOF 0
ENDMDL
