MODEL 1
REMARK minimizedAffinity -4.93326378
REMARK minimizedRMSD -1
REMARK  0 active torsions:
REMARK  status: ('A' for Active; 'I' for Inactive)
ROOT
ATOM      1  C4' PXY d   1       1.514  -1.127  -4.147  0.00  0.00     0.077 C 
ATOM      2  C1' PXY d   1      -0.793  -0.147   1.062  0.00  0.00     0.077 C 
ATOM      3  C1  PXY d   1      -0.193  -0.393  -0.308  0.00  0.00    -0.082 A 
ATOM      4  C2  PXY d   1       0.019  -1.633  -0.717  0.00  0.00     0.003 A 
ATOM      5  C3  PXY d   1       0.591  -1.872  -1.940  0.00  0.00     0.003 A 
ATOM      6  C4  PXY d   1       0.901  -0.832  -2.775  0.00  0.00    -0.082 A 
ATOM      7  C5  PXY d   1       0.679   0.436  -2.369  0.00  0.00     0.003 A 
ATOM      8  C6  PXY d   1       0.135   0.659  -1.108  0.00  0.00     0.003 A 
ENDROOT
TORSDOF 0
ENDMDL
