MODEL 1
REMARK minimizedAffinity -3.97246146
REMARK minimizedRMSD -1
REMARK  0 active torsions:
REMARK  status: ('A' for Active; 'I' for Inactive)
ROOT
ATOM      1  C4' PXY d   1       0.013  -0.007   2.135  0.00  0.00     0.077 C 
ATOM      2  C1' PXY d   1       0.838  -1.357  -3.425  0.00  0.00     0.077 C 
ATOM      3  C1  PXY d   1       0.624  -0.990  -1.970  0.00  0.00    -0.082 A 
ATOM      4  C2  PXY d   1       0.789  -1.909  -1.033  0.00  0.00     0.003 A 
ATOM      5  C3  PXY d   1       0.568  -1.603   0.286  0.00  0.00     0.003 A 
ATOM      6  C4  PXY d   1       0.227  -0.330   0.653  0.00  0.00    -0.082 A 
ATOM      7  C5  PXY d   1       0.067   0.617  -0.296  0.00  0.00     0.003 A 
ATOM      8  C6  PXY d   1       0.256   0.276  -1.632  0.00  0.00     0.003 A 
ENDROOT
TORSDOF 0
ENDMDL
