MODEL 1
REMARK minimizedAffinity -3.67840171
REMARK minimizedRMSD -1
REMARK  0 active torsions:
REMARK  status: ('A' for Active; 'I' for Inactive)
ROOT
ATOM      1  C4' PXY d   1       0.699  -0.692  -2.562  0.00  0.00     0.077 C 
ATOM      2  C1' PXY d   1      -0.162   0.195   3.085  0.00  0.00     0.077 C 
ATOM      3  C1  PXY d   1       0.051  -0.037   1.602  0.00  0.00    -0.082 A 
ATOM      4  C2  PXY d   1       1.154  -0.638   1.186  0.00  0.00     0.003 A 
ATOM      5  C3  PXY d   1       1.377  -0.827  -0.154  0.00  0.00     0.003 A 
ATOM      6  C4  PXY d   1       0.438  -0.445  -1.073  0.00  0.00    -0.082 A 
ATOM      7  C5  PXY d   1      -0.695   0.159  -0.656  0.00  0.00     0.003 A 
ATOM      8  C6  PXY d   1      -0.884   0.379   0.705  0.00  0.00     0.003 A 
ENDROOT
TORSDOF 0
ENDMDL
