MODEL 1
REMARK minimizedAffinity -3.00835133
REMARK minimizedRMSD -1
REMARK  0 active torsions:
REMARK  status: ('A' for Active; 'I' for Inactive)
ROOT
ATOM      1  C4' PXY d   1       0.024  -0.077   3.106  0.00  0.00     0.077 C 
ATOM      2  C1' PXY d   1       0.855  -0.213  -2.613  0.00  0.00     0.077 C 
ATOM      3  C1  PXY d   1       0.650  -0.177  -1.112  0.00  0.00    -0.082 A 
ATOM      4  C2  PXY d   1      -0.480  -0.630  -0.595  0.00  0.00     0.003 A 
ATOM      5  C3  PXY d   1      -0.695  -0.576   0.758  0.00  0.00     0.003 A 
ATOM      6  C4  PXY d   1       0.278  -0.103   1.596  0.00  0.00    -0.082 A 
ATOM      7  C5  PXY d   1       1.439   0.352   1.078  0.00  0.00     0.003 A 
ATOM      8  C6  PXY d   1       1.621   0.326  -0.302  0.00  0.00     0.003 A 
ENDROOT
TORSDOF 0
ENDMDL
