MODEL 1
REMARK minimizedAffinity -3.25467515
REMARK minimizedRMSD -1
REMARK  0 active torsions:
REMARK  status: ('A' for Active; 'I' for Inactive)
ROOT
ATOM      1  C4' PXY d   1       2.589   0.418   0.574  0.00  0.00     0.077 C 
ATOM      2  C1' PXY d   1      -2.850  -0.047   2.476  0.00  0.00     0.077 C 
ATOM      3  C1  PXY d   1      -1.426   0.067   1.967  0.00  0.00    -0.082 A 
ATOM      4  C2  PXY d   1      -0.459   0.414   2.801  0.00  0.00     0.003 A 
ATOM      5  C3  PXY d   1       0.828   0.553   2.351  0.00  0.00     0.003 A 
ATOM      6  C4  PXY d   1       1.139   0.282   1.046  0.00  0.00    -0.082 A 
ATOM      7  C5  PXY d   1       0.160  -0.084   0.191  0.00  0.00     0.003 A 
ATOM      8  C6  PXY d   1      -1.148  -0.179   0.658  0.00  0.00     0.003 A 
ENDROOT
TORSDOF 0
ENDMDL
