MODEL 1
REMARK minimizedAffinity -4.38245344
REMARK minimizedRMSD -1
REMARK  0 active torsions:
REMARK  status: ('A' for Active; 'I' for Inactive)
ROOT
ATOM      1  C4' PXY d   1       0.807   0.653  -2.092  0.00  0.00     0.077 C 
ATOM      2  C1' PXY d   1      -0.458  -0.900   3.330  0.00  0.00     0.077 C 
ATOM      3  C1  PXY d   1      -0.117  -0.485   1.912  0.00  0.00    -0.082 A 
ATOM      4  C2  PXY d   1      -1.018  -0.630   0.954  0.00  0.00     0.003 A 
ATOM      5  C3  PXY d   1      -0.715  -0.289  -0.339  0.00  0.00     0.003 A 
ATOM      6  C4  PXY d   1       0.503   0.256  -0.645  0.00  0.00    -0.082 A 
ATOM      7  C5  PXY d   1       1.424   0.417   0.329  0.00  0.00     0.003 A 
ATOM      8  C6  PXY d   1       1.111   0.026   1.628  0.00  0.00     0.003 A 
ENDROOT
TORSDOF 0
ENDMDL
