MODEL 1
REMARK minimizedAffinity -4.08475351
REMARK minimizedRMSD -1
REMARK  0 active torsions:
REMARK  status: ('A' for Active; 'I' for Inactive)
ROOT
ATOM      1  C4' PXY d   1       0.831  -0.785  -2.490  0.00  0.00     0.077 C 
ATOM      2  C1' PXY d   1      -0.255   0.188   3.104  0.00  0.00     0.077 C 
ATOM      3  C1  PXY d   1       0.017  -0.067   1.634  0.00  0.00    -0.082 A 
ATOM      4  C2  PXY d   1       1.173  -0.596   1.265  0.00  0.00     0.003 A 
ATOM      5  C3  PXY d   1       1.448  -0.804  -0.062  0.00  0.00     0.003 A 
ATOM      6  C4  PXY d   1       0.509  -0.518  -1.017  0.00  0.00    -0.082 A 
ATOM      7  C5  PXY d   1      -0.676   0.012  -0.647  0.00  0.00     0.003 A 
ATOM      8  C6  PXY d   1      -0.920   0.254   0.701  0.00  0.00     0.003 A 
ENDROOT
TORSDOF 0
ENDMDL
