MODEL 1
REMARK minimizedAffinity -3.18749952
REMARK minimizedRMSD -1
REMARK  0 active torsions:
REMARK  status: ('A' for Active; 'I' for Inactive)
ROOT
ATOM      1  C4' PXY d   1       0.992  -0.080  -2.701  0.00  0.00     0.077 C 
ATOM      2  C1' PXY d   1      -0.354  -0.162   2.920  0.00  0.00     0.077 C 
ATOM      3  C1  PXY d   1      -0.013  -0.146   1.443  0.00  0.00    -0.082 A 
ATOM      4  C2  PXY d   1       1.254  -0.077   1.066  0.00  0.00     0.003 A 
ATOM      5  C3  PXY d   1       1.579  -0.029  -0.265  0.00  0.00     0.003 A 
ATOM      6  C4  PXY d   1       0.601  -0.108  -1.221  0.00  0.00    -0.082 A 
ATOM      7  C5  PXY d   1      -0.692  -0.189  -0.843  0.00  0.00     0.003 A 
ATOM      8  C6  PXY d   1      -1.004  -0.195   0.513  0.00  0.00     0.003 A 
ENDROOT
TORSDOF 0
ENDMDL
