MODEL 1
REMARK minimizedAffinity -4.28254461
REMARK minimizedRMSD -1
REMARK  0 active torsions:
REMARK  status: ('A' for Active; 'I' for Inactive)
ROOT
ATOM      1  C4' PXY d   1       0.601   0.887  -1.474  0.00  0.00     0.077 C 
ATOM      2  C1' PXY d   1      -1.286  -1.015   3.648  0.00  0.00     0.077 C 
ATOM      3  C1  PXY d   1      -0.786  -0.506   2.311  0.00  0.00    -0.082 A 
ATOM      4  C2  PXY d   1      -1.393  -0.886   1.198  0.00  0.00     0.003 A 
ATOM      5  C3  PXY d   1      -0.933  -0.460  -0.022  0.00  0.00     0.003 A 
ATOM      6  C4  PXY d   1       0.125   0.405  -0.101  0.00  0.00    -0.082 A 
ATOM      7  C5  PXY d   1       0.742   0.806   1.031  0.00  0.00     0.003 A 
ATOM      8  C6  PXY d   1       0.286   0.330   2.257  0.00  0.00     0.003 A 
ENDROOT
TORSDOF 0
ENDMDL
