MODEL 1
REMARK minimizedAffinity -5.20339966
REMARK minimizedRMSD -1
REMARK  0 active torsions:
REMARK  status: ('A' for Active; 'I' for Inactive)
ROOT
ATOM      1  C4' PXY d   1      -0.356  -0.691   2.501  0.00  0.00     0.077 C 
ATOM      2  C1' PXY d   1       1.189  -0.055  -3.033  0.00  0.00     0.077 C 
ATOM      3  C1  PXY d   1       0.780  -0.234  -1.584  0.00  0.00    -0.082 A 
ATOM      4  C2  PXY d   1       0.443   0.824  -0.864  0.00  0.00     0.003 A 
ATOM      5  C3  PXY d   1       0.102   0.683   0.457  0.00  0.00     0.003 A 
ATOM      6  C4  PXY d   1       0.054  -0.558   1.032  0.00  0.00    -0.082 A 
ATOM      7  C5  PXY d   1       0.387  -1.643   0.301  0.00  0.00     0.003 A 
ATOM      8  C6  PXY d   1       0.770  -1.475  -1.026  0.00  0.00     0.003 A 
ENDROOT
TORSDOF 0
ENDMDL
