MODEL 1
REMARK minimizedAffinity -3.89016104
REMARK minimizedRMSD -1
REMARK  0 active torsions:
REMARK  status: ('A' for Active; 'I' for Inactive)
ROOT
ATOM      1  C4' PXY d   1       1.265  -0.832  -2.778  0.00  0.00     0.077 C 
ATOM      2  C1' PXY d   1       0.234   0.334   2.789  0.00  0.00     0.077 C 
ATOM      3  C1  PXY d   1       0.492   0.026   1.327  0.00  0.00    -0.082 A 
ATOM      4  C2  PXY d   1       1.683  -0.410   0.951  0.00  0.00     0.003 A 
ATOM      5  C3  PXY d   1       1.943  -0.663  -0.372  0.00  0.00     0.003 A 
ATOM      6  C4  PXY d   1       0.957  -0.518  -1.311  0.00  0.00    -0.082 A 
ATOM      7  C5  PXY d   1      -0.263  -0.083  -0.934  0.00  0.00     0.003 A 
ATOM      8  C6  PXY d   1      -0.495   0.207   0.408  0.00  0.00     0.003 A 
ENDROOT
TORSDOF 0
ENDMDL
