MODEL 1
REMARK minimizedAffinity -3.09082007
REMARK minimizedRMSD -1
REMARK  0 active torsions:
REMARK  status: ('A' for Active; 'I' for Inactive)
ROOT
ATOM      1  C4' PXY d   1       0.577  -0.769  -3.097  0.00  0.00     0.077 C 
ATOM      2  C1' PXY d   1      -0.388  -0.091   2.562  0.00  0.00     0.077 C 
ATOM      3  C1  PXY d   1      -0.148  -0.266   1.075  0.00  0.00    -0.082 A 
ATOM      4  C2  PXY d   1       0.883  -0.984   0.660  0.00  0.00     0.003 A 
ATOM      5  C3  PXY d   1       1.134  -1.127  -0.681  0.00  0.00     0.003 A 
ATOM      6  C4  PXY d   1       0.290  -0.573  -1.606  0.00  0.00    -0.082 A 
ATOM      7  C5  PXY d   1      -0.770   0.152  -1.190  0.00  0.00     0.003 A 
ATOM      8  C6  PXY d   1      -0.983   0.319   0.175  0.00  0.00     0.003 A 
ENDROOT
TORSDOF 0
ENDMDL
