MODEL 1
REMARK minimizedAffinity -4.82359171
REMARK minimizedRMSD -1
REMARK  0 active torsions:
REMARK  status: ('A' for Active; 'I' for Inactive)
ROOT
ATOM      1  C4' PXY d   1       0.701  -1.610  -3.375  0.00  0.00     0.077 C 
ATOM      2  C1' PXY d   1      -0.091   0.167   2.068  0.00  0.00     0.077 C 
ATOM      3  C1  PXY d   1       0.110  -0.288   0.636  0.00  0.00    -0.082 A 
ATOM      4  C2  PXY d   1       0.344  -1.566   0.383  0.00  0.00     0.003 A 
ATOM      5  C3  PXY d   1       0.560  -1.990  -0.903  0.00  0.00     0.003 A 
ATOM      6  C4  PXY d   1       0.482  -1.107  -1.946  0.00  0.00    -0.082 A 
ATOM      7  C5  PXY d   1       0.233   0.196  -1.697  0.00  0.00     0.003 A 
ATOM      8  C6  PXY d   1       0.058   0.614  -0.381  0.00  0.00     0.003 A 
ENDROOT
TORSDOF 0
ENDMDL
