MODEL 1
REMARK minimizedAffinity -5.42308569
REMARK minimizedRMSD -1
REMARK  0 active torsions:
REMARK  status: ('A' for Active; 'I' for Inactive)
ROOT
ATOM      1  C4' PXY d   1       0.385  -0.278   2.834  0.00  0.00     0.077 C 
ATOM      2  C1' PXY d   1       0.723  -0.124  -2.935  0.00  0.00     0.077 C 
ATOM      3  C1  PXY d   1       0.630  -0.152  -1.422  0.00  0.00    -0.082 A 
ATOM      4  C2  PXY d   1       1.355  -1.023  -0.739  0.00  0.00     0.003 A 
ATOM      5  C3  PXY d   1       1.259  -1.083   0.628  0.00  0.00     0.003 A 
ATOM      6  C4  PXY d   1       0.454  -0.208   1.306  0.00  0.00    -0.082 A 
ATOM      7  C5  PXY d   1      -0.280   0.691   0.616  0.00  0.00     0.003 A 
ATOM      8  C6  PXY d   1      -0.200   0.709  -0.774  0.00  0.00     0.003 A 
ENDROOT
TORSDOF 0
ENDMDL
