MODEL 1
REMARK minimizedAffinity -1.397524
REMARK minimizedRMSD -1
REMARK  0 active torsions:
REMARK  status: ('A' for Active; 'I' for Inactive)
ROOT
ATOM      1  C4' PXY d   1       0.424  -0.604  -2.814  0.00  0.00     0.077 C 
ATOM      2  C1' PXY d   1       0.319   0.610   2.837  0.00  0.00     0.077 C 
ATOM      3  C1  PXY d   1       0.342   0.303   1.352  0.00  0.00    -0.082 A 
ATOM      4  C2  PXY d   1       0.248  -0.951   0.942  0.00  0.00     0.003 A 
ATOM      5  C3  PXY d   1       0.300  -1.249  -0.396  0.00  0.00     0.003 A 
ATOM      6  C4  PXY d   1       0.395  -0.248  -1.325  0.00  0.00    -0.082 A 
ATOM      7  C5  PXY d   1       0.480   1.036  -0.914  0.00  0.00     0.003 A 
ATOM      8  C6  PXY d   1       0.467   1.313   0.449  0.00  0.00     0.003 A 
ENDROOT
TORSDOF 0
ENDMDL
