MODEL 1
REMARK minimizedAffinity -2.61575294
REMARK minimizedRMSD -1
REMARK  0 active torsions:
REMARK  status: ('A' for Active; 'I' for Inactive)
ROOT
ATOM      1  C4' PXY d   1       1.385  -1.274  -4.049  0.00  0.00     0.077 C 
ATOM      2  C1' PXY d   1      -0.290   0.079   1.316  0.00  0.00     0.077 C 
ATOM      3  C1  PXY d   1       0.145  -0.264  -0.095  0.00  0.00    -0.082 A 
ATOM      4  C2  PXY d   1       0.304  -1.532  -0.440  0.00  0.00     0.003 A 
ATOM      5  C3  PXY d   1       0.727  -1.859  -1.703  0.00  0.00     0.003 A 
ATOM      6  C4  PXY d   1       0.939  -0.881  -2.638  0.00  0.00    -0.082 A 
ATOM      7  C5  PXY d   1       0.768   0.414  -2.296  0.00  0.00     0.003 A 
ATOM      8  C6  PXY d   1       0.378   0.727  -0.998  0.00  0.00     0.003 A 
ENDROOT
TORSDOF 0
ENDMDL
