MODEL 1
REMARK minimizedAffinity -3.09973669
REMARK minimizedRMSD -1
REMARK  0 active torsions:
REMARK  status: ('A' for Active; 'I' for Inactive)
ROOT
ATOM      1  C4' PXY d   1       0.386   0.031  -2.126  0.00  0.00     0.077 C 
ATOM      2  C1' PXY d   1      -1.331  -0.084   3.393  0.00  0.00     0.077 C 
ATOM      3  C1  PXY d   1      -0.893  -0.057   1.942  0.00  0.00    -0.082 A 
ATOM      4  C2  PXY d   1       0.386  -0.215   1.642  0.00  0.00     0.003 A 
ATOM      5  C3  PXY d   1       0.804  -0.162   0.337  0.00  0.00     0.003 A 
ATOM      6  C4  PXY d   1      -0.103   0.002  -0.675  0.00  0.00    -0.082 A 
ATOM      7  C5  PXY d   1      -1.412   0.153  -0.378  0.00  0.00     0.003 A 
ATOM      8  C6  PXY d   1      -1.810   0.137   0.956  0.00  0.00     0.003 A 
ENDROOT
TORSDOF 0
ENDMDL
