MODEL 1
REMARK minimizedAffinity -1.30126309
REMARK minimizedRMSD -1
REMARK  3 active torsions:
REMARK  status: ('A' for Active; 'I' for Inactive)
REMARK    1  A    between atoms: C3'_2  and  C2'_3 
REMARK    2  A    between atoms: C2'_3  and  C1'_4 
REMARK    3  A    between atoms: C1'_4  and  C1_5 
ROOT
ATOM      1  C1  N4B d   1       0.417  -0.380   0.668  0.00  0.00    -0.075 A 
ATOM      2  C2  N4B d   1       1.583  -1.131   0.933  0.00  0.00     0.002 A 
ATOM      3  C3  N4B d   1       1.651  -1.920   2.054  0.00  0.00     0.002 A 
ATOM      4  C4  N4B d   1       0.577  -1.960   2.931  0.00  0.00    -0.004 A 
ATOM      5  C5  N4B d   1      -0.555  -1.251   2.655  0.00  0.00     0.002 A 
ATOM      6  C6  N4B d   1      -0.639  -0.456   1.529  0.00  0.00     0.002 A 
ENDROOT
BRANCH   1   7
ATOM      7  C1' N4B d   1       0.329   0.564  -0.501  0.00  0.00     0.057 C 
BRANCH   7   8
ATOM      8  C2' N4B d   1      -0.949   1.389  -0.383  0.00  0.00     0.009 C 
BRANCH   8   9
ATOM      9  C3' N4B d   1      -1.282   2.109  -1.678  0.00  0.00     0.004 C 
ATOM     10  C4' N4B d   1      -2.182   1.309  -2.573  0.00  0.00     0.003 C 
ENDBRANCH   8   9
ENDBRANCH   7   8
ENDBRANCH   1   7
TORSDOF 3
ENDMDL
