MODEL 1
REMARK minimizedAffinity -4.31940174
REMARK minimizedRMSD -1
REMARK  3 active torsions:
REMARK  status: ('A' for Active; 'I' for Inactive)
REMARK    1  A    between atoms: C3'_2  and  C2'_3 
REMARK    2  A    between atoms: C2'_3  and  C1'_4 
REMARK    3  A    between atoms: C1'_4  and  C1_5 
ROOT
ATOM      1  C1  N4B d   1      -1.384   1.230  -1.262  0.00  0.00    -0.075 A 
ATOM      2  C2  N4B d   1      -1.590   2.424  -1.987  0.00  0.00     0.002 A 
ATOM      3  C3  N4B d   1      -2.040   2.372  -3.283  0.00  0.00     0.002 A 
ATOM      4  C4  N4B d   1      -2.271   1.141  -3.880  0.00  0.00    -0.004 A 
ATOM      5  C5  N4B d   1      -2.093  -0.007  -3.164  0.00  0.00     0.002 A 
ATOM      6  C6  N4B d   1      -1.646   0.031  -1.859  0.00  0.00     0.002 A 
ENDROOT
BRANCH   1   7
ATOM      7  C1' N4B d   1      -0.811   1.234   0.129  0.00  0.00     0.057 C 
BRANCH   7   8
ATOM      8  C2' N4B d   1      -0.169  -0.121   0.410  0.00  0.00     0.009 C 
BRANCH   8   9
ATOM      9  C3' N4B d   1       1.314  -0.125   0.084  0.00  0.00     0.004 C 
ATOM     10  C4' N4B d   1       2.037  -1.296   0.681  0.00  0.00     0.003 C 
ENDBRANCH   8   9
ENDBRANCH   7   8
ENDBRANCH   1   7
TORSDOF 3
ENDMDL
