MODEL 1
REMARK minimizedAffinity -3.72846532
REMARK minimizedRMSD -1
REMARK  3 active torsions:
REMARK  status: ('A' for Active; 'I' for Inactive)
REMARK    1  A    between atoms: C3'_2  and  C2'_3 
REMARK    2  A    between atoms: C2'_3  and  C1'_4 
REMARK    3  A    between atoms: C1'_4  and  C1_5 
ROOT
ATOM      1  C1  N4B d   1      -1.331   1.741  -1.101  0.00  0.00    -0.075 A 
ATOM      2  C2  N4B d   1      -0.940   2.611  -2.143  0.00  0.00     0.002 A 
ATOM      3  C3  N4B d   1      -1.739   2.756  -3.251  0.00  0.00     0.002 A 
ATOM      4  C4  N4B d   1      -2.918   2.032  -3.347  0.00  0.00    -0.004 A 
ATOM      5  C5  N4B d   1      -3.300   1.214  -2.325  0.00  0.00     0.002 A 
ATOM      6  C6  N4B d   1      -2.510   1.061  -1.203  0.00  0.00     0.002 A 
ENDROOT
BRANCH   1   7
ATOM      7  C1' N4B d   1      -0.450   1.484   0.090  0.00  0.00     0.057 C 
BRANCH   7   8
ATOM      8  C2' N4B d   1       0.840   0.816  -0.376  0.00  0.00     0.009 C 
BRANCH   8   9
ATOM      9  C3' N4B d   1       0.742  -0.699  -0.336  0.00  0.00     0.004 C 
ATOM     10  C4' N4B d   1       1.594  -1.309   0.736  0.00  0.00     0.003 C 
ENDBRANCH   8   9
ENDBRANCH   7   8
ENDBRANCH   1   7
TORSDOF 3
ENDMDL
