MODEL 1
REMARK minimizedAffinity 3.49545574
REMARK minimizedRMSD -1
REMARK  3 active torsions:
REMARK  status: ('A' for Active; 'I' for Inactive)
REMARK    1  A    between atoms: C3'_2  and  C2'_3 
REMARK    2  A    between atoms: C2'_3  and  C1'_4 
REMARK    3  A    between atoms: C1'_4  and  C1_5 
ROOT
ATOM      1  C1  N4B d   1      -0.160  -0.243   1.267  0.00  0.00    -0.075 A 
ATOM      2  C2  N4B d   1       0.030  -1.627   1.472  0.00  0.00     0.002 A 
ATOM      3  C3  N4B d   1       1.252  -2.198   1.216  0.00  0.00     0.002 A 
ATOM      4  C4  N4B d   1       2.290  -1.411   0.739  0.00  0.00    -0.004 A 
ATOM      5  C5  N4B d   1       2.106  -0.070   0.568  0.00  0.00     0.002 A 
ATOM      6  C6  N4B d   1       0.883   0.517   0.825  0.00  0.00     0.002 A 
ENDROOT
BRANCH   1   7
ATOM      7  C1' N4B d   1      -1.503   0.410   1.452  0.00  0.00     0.057 C 
BRANCH   7   8
ATOM      8  C2' N4B d   1      -1.874   1.160   0.176  0.00  0.00     0.009 C 
BRANCH   8   9
ATOM      9  C3' N4B d   1      -2.883   0.393  -0.661  0.00  0.00     0.004 C 
ATOM     10  C4' N4B d   1      -2.934   0.862  -2.084  0.00  0.00     0.003 C 
ENDBRANCH   8   9
ENDBRANCH   7   8
ENDBRANCH   1   7
TORSDOF 3
ENDMDL
