MODEL 1
REMARK minimizedAffinity -2.81343818
REMARK minimizedRMSD -1
REMARK  3 active torsions:
REMARK  status: ('A' for Active; 'I' for Inactive)
REMARK    1  A    between atoms: C3'_2  and  C2'_3 
REMARK    2  A    between atoms: C2'_3  and  C1'_4 
REMARK    3  A    between atoms: C1'_4  and  C1_5 
ROOT
ATOM      1  C1  N4B d   1      -1.303   1.613  -1.374  0.00  0.00    -0.075 A 
ATOM      2  C2  N4B d   1      -0.678   2.365  -2.393  0.00  0.00     0.002 A 
ATOM      3  C3  N4B d   1      -1.178   2.336  -3.672  0.00  0.00     0.002 A 
ATOM      4  C4  N4B d   1      -2.285   1.551  -3.958  0.00  0.00    -0.004 A 
ATOM      5  C5  N4B d   1      -2.898   0.848  -2.962  0.00  0.00     0.002 A 
ATOM      6  C6  N4B d   1      -2.409   0.871  -1.671  0.00  0.00     0.002 A 
ENDROOT
BRANCH   1   7
ATOM      7  C1' N4B d   1      -0.742   1.546   0.021  0.00  0.00     0.057 C 
BRANCH   7   8
ATOM      8  C2' N4B d   1       0.085   0.272   0.167  0.00  0.00     0.009 C 
BRANCH   8   9
ATOM      9  C3' N4B d   1       1.561   0.520  -0.090  0.00  0.00     0.004 C 
ATOM     10  C4' N4B d   1       2.417  -0.663   0.252  0.00  0.00     0.003 C 
ENDBRANCH   8   9
ENDBRANCH   7   8
ENDBRANCH   1   7
TORSDOF 3
ENDMDL
