MODEL 1
REMARK minimizedAffinity -4.84535456
REMARK minimizedRMSD -1
REMARK  3 active torsions:
REMARK  status: ('A' for Active; 'I' for Inactive)
REMARK    1  A    between atoms: C3'_2  and  C2'_3 
REMARK    2  A    between atoms: C2'_3  and  C1'_4 
REMARK    3  A    between atoms: C1'_4  and  C1_5 
ROOT
ATOM      1  C1  N4B d   1       0.153  -0.579   0.629  0.00  0.00    -0.075 A 
ATOM      2  C2  N4B d   1      -0.711  -0.618   1.746  0.00  0.00     0.002 A 
ATOM      3  C3  N4B d   1      -0.330  -1.284   2.885  0.00  0.00     0.002 A 
ATOM      4  C4  N4B d   1       0.895  -1.932   2.924  0.00  0.00    -0.004 A 
ATOM      5  C5  N4B d   1       1.735  -1.868   1.850  0.00  0.00     0.002 A 
ATOM      6  C6  N4B d   1       1.367  -1.198   0.700  0.00  0.00     0.002 A 
ENDROOT
BRANCH   1   7
ATOM      7  C1' N4B d   1      -0.255   0.064  -0.668  0.00  0.00     0.057 C 
BRANCH   7   8
ATOM      8  C2' N4B d   1      -1.244   1.190  -0.380  0.00  0.00     0.009 C 
BRANCH   8   9
ATOM      9  C3' N4B d   1      -2.366   1.237  -1.403  0.00  0.00     0.004 C 
ATOM     10  C4' N4B d   1      -2.129   2.255  -2.478  0.00  0.00     0.003 C 
ENDBRANCH   8   9
ENDBRANCH   7   8
ENDBRANCH   1   7
TORSDOF 3
ENDMDL
