MODEL 1
REMARK minimizedAffinity -6.0206356
REMARK minimizedRMSD -1
REMARK  3 active torsions:
REMARK  status: ('A' for Active; 'I' for Inactive)
REMARK    1  A    between atoms: C3'_2  and  C2'_3 
REMARK    2  A    between atoms: C2'_3  and  C1'_4 
REMARK    3  A    between atoms: C1'_4  and  C1_5 
ROOT
ATOM      1  C1  N4B d   1      -0.214  -0.606   0.987  0.00  0.00    -0.075 A 
ATOM      2  C2  N4B d   1       0.618  -1.359   0.130  0.00  0.00     0.002 A 
ATOM      3  C3  N4B d   1       1.250  -2.483   0.601  0.00  0.00     0.002 A 
ATOM      4  C4  N4B d   1       1.082  -2.861   1.925  0.00  0.00    -0.004 A 
ATOM      5  C5  N4B d   1       0.256  -2.142   2.739  0.00  0.00     0.002 A 
ATOM      6  C6  N4B d   1      -0.389  -1.013   2.278  0.00  0.00     0.002 A 
ENDROOT
BRANCH   1   7
ATOM      7  C1' N4B d   1      -0.859   0.678   0.541  0.00  0.00     0.057 C 
BRANCH   7   8
ATOM      8  C2' N4B d   1      -0.637   0.855  -0.958  0.00  0.00     0.009 C 
BRANCH   8   9
ATOM      9  C3' N4B d   1      -1.930   0.718  -1.744  0.00  0.00     0.004 C 
ATOM     10  C4' N4B d   1      -1.877   1.406  -3.075  0.00  0.00     0.003 C 
ENDBRANCH   8   9
ENDBRANCH   7   8
ENDBRANCH   1   7
TORSDOF 3
ENDMDL
