MODEL 1
REMARK minimizedAffinity -5.38415098
REMARK minimizedRMSD -1
REMARK  3 active torsions:
REMARK  status: ('A' for Active; 'I' for Inactive)
REMARK    1  A    between atoms: C3'_2  and  C2'_3 
REMARK    2  A    between atoms: C2'_3  and  C1'_4 
REMARK    3  A    between atoms: C1'_4  and  C1_5 
ROOT
ATOM      1  C1  N4B d   1       0.379   0.346   0.032  0.00  0.00    -0.075 A 
ATOM      2  C2  N4B d   1       0.647  -0.826   0.773  0.00  0.00     0.002 A 
ATOM      3  C3  N4B d   1       1.799  -1.537   0.541  0.00  0.00     0.002 A 
ATOM      4  C4  N4B d   1       2.685  -1.107  -0.436  0.00  0.00    -0.004 A 
ATOM      5  C5  N4B d   1       2.431   0.041  -1.129  0.00  0.00     0.002 A 
ATOM      6  C6  N4B d   1       1.279   0.767  -0.904  0.00  0.00     0.002 A 
ENDROOT
BRANCH   1   7
ATOM      7  C1' N4B d   1      -0.908   1.108   0.190  0.00  0.00     0.057 C 
BRANCH   7   8
ATOM      8  C2' N4B d   1      -1.214   1.850  -1.108  0.00  0.00     0.009 C 
BRANCH   8   9
ATOM      9  C3' N4B d   1      -2.464   1.318  -1.786  0.00  0.00     0.004 C 
ATOM     10  C4' N4B d   1      -2.556   1.716  -3.229  0.00  0.00     0.003 C 
ENDBRANCH   8   9
ENDBRANCH   7   8
ENDBRANCH   1   7
TORSDOF 3
ENDMDL
