MODEL 1
REMARK minimizedAffinity -2.97597075
REMARK minimizedRMSD -1
REMARK  3 active torsions:
REMARK  status: ('A' for Active; 'I' for Inactive)
REMARK    1  A    between atoms: C3'_2  and  C2'_3 
REMARK    2  A    between atoms: C2'_3  and  C1'_4 
REMARK    3  A    between atoms: C1'_4  and  C1_5 
ROOT
ATOM      1  C1  N4B d   1      -0.754   0.972  -0.887  0.00  0.00    -0.075 A 
ATOM      2  C2  N4B d   1      -0.477   2.253  -1.412  0.00  0.00     0.002 A 
ATOM      3  C3  N4B d   1      -1.335   2.822  -2.321  0.00  0.00     0.002 A 
ATOM      4  C4  N4B d   1      -2.460   2.124  -2.733  0.00  0.00    -0.004 A 
ATOM      5  C5  N4B d   1      -2.734   0.898  -2.202  0.00  0.00     0.002 A 
ATOM      6  C6  N4B d   1      -1.883   0.315  -1.284  0.00  0.00     0.002 A 
ENDROOT
BRANCH   1   7
ATOM      7  C1' N4B d   1       0.198   0.273   0.045  0.00  0.00     0.057 C 
BRANCH   7   8
ATOM      8  C2' N4B d   1       1.519   0.031  -0.678  0.00  0.00     0.009 C 
BRANCH   8   9
ATOM      9  C3' N4B d   1       2.180  -1.264  -0.238  0.00  0.00     0.004 C 
ATOM     10  C4' N4B d   1       2.472  -1.296   1.233  0.00  0.00     0.003 C 
ENDBRANCH   8   9
ENDBRANCH   7   8
ENDBRANCH   1   7
TORSDOF 3
ENDMDL
