MODEL 1
REMARK minimizedAffinity 0.222529992
REMARK minimizedRMSD -1
REMARK  0 active torsions:
REMARK  status: ('A' for Active; 'I' for Inactive)
ROOT
ATOM      1  C   UNL d   1       5.024   3.751  -5.445  0.00  0.00     0.077 C 
ATOM      2  C1  UNL d   1       4.910   4.383  -4.090  0.00  0.00    -0.074 A 
ATOM      3  C2  UNL d   1       6.000   5.040  -3.509  0.00  0.00    -0.005 A 
ATOM      4  C3  UNL d   1       5.876   5.632  -2.252  0.00  0.00     0.006 A 
ATOM      5  C4  UNL d   1       4.663   5.574  -1.564  0.00  0.00    -0.005 A 
ATOM      6  C5  UNL d   1       3.562   4.922  -2.130  0.00  0.00    -0.074 A 
ATOM      7  C6  UNL d   1       2.249   4.859  -1.408  0.00  0.00     0.077 C 
ATOM      8  C7  UNL d   1       3.693   4.336  -3.396  0.00  0.00    -0.001 A 
ENDROOT
TORSDOF 0
ENDMDL
