MODEL 1
REMARK minimizedAffinity 0.969949961
REMARK minimizedRMSD -1
REMARK  0 active torsions:
REMARK  status: ('A' for Active; 'I' for Inactive)
ROOT
ATOM      1  C   UNL d   1       2.464  -2.682   2.553  0.00  0.00     0.077 C 
ATOM      2  C1  UNL d   1       3.348  -2.507   3.753  0.00  0.00    -0.074 A 
ATOM      3  C2  UNL d   1       3.294  -1.340   4.521  0.00  0.00    -0.005 A 
ATOM      4  C3  UNL d   1       4.115  -1.196   5.640  0.00  0.00     0.006 A 
ATOM      5  C4  UNL d   1       4.997  -2.215   6.000  0.00  0.00    -0.005 A 
ATOM      6  C5  UNL d   1       5.064  -3.390   5.244  0.00  0.00    -0.074 A 
ATOM      7  C6  UNL d   1       6.000  -4.499   5.623  0.00  0.00     0.077 C 
ATOM      8  C7  UNL d   1       4.231  -3.530   4.126  0.00  0.00    -0.001 A 
ENDROOT
TORSDOF 0
ENDMDL
