MODEL 1
REMARK minimizedAffinity 5.85178185
REMARK minimizedRMSD -1
REMARK  0 active torsions:
REMARK  status: ('A' for Active; 'I' for Inactive)
ROOT
ATOM      1  C   UNL d   1       0.660  -1.920  -2.365  0.00  0.00     0.077 C 
ATOM      2  C1  UNL d   1      -0.471  -2.290  -1.452  0.00  0.00    -0.074 A 
ATOM      3  C2  UNL d   1      -1.755  -2.521  -1.955  0.00  0.00    -0.005 A 
ATOM      4  C3  UNL d   1      -2.794  -2.873  -1.095  0.00  0.00     0.006 A 
ATOM      5  C4  UNL d   1      -2.561  -2.998   0.275  0.00  0.00    -0.005 A 
ATOM      6  C5  UNL d   1      -1.283  -2.772   0.796  0.00  0.00    -0.074 A 
ATOM      7  C6  UNL d   1      -1.013  -2.912   2.265  0.00  0.00     0.077 C 
ATOM      8  C7  UNL d   1      -0.242  -2.425  -0.076  0.00  0.00    -0.001 A 
ENDROOT
TORSDOF 0
ENDMDL
