MODEL 1
REMARK minimizedAffinity 3.12592435
REMARK minimizedRMSD -1
REMARK  0 active torsions:
REMARK  status: ('A' for Active; 'I' for Inactive)
ROOT
ATOM      1  C   UNL d   1       1.828  -0.847   5.965  0.00  0.00     0.077 C 
ATOM      2  C1  UNL d   1       2.722  -1.841   5.285  0.00  0.00    -0.074 A 
ATOM      3  C2  UNL d   1       2.411  -2.336   4.014  0.00  0.00    -0.005 A 
ATOM      4  C3  UNL d   1       3.257  -3.253   3.390  0.00  0.00     0.006 A 
ATOM      5  C4  UNL d   1       4.420  -3.684   4.030  0.00  0.00    -0.005 A 
ATOM      6  C5  UNL d   1       4.748  -3.200   5.300  0.00  0.00    -0.074 A 
ATOM      7  C6  UNL d   1       5.999  -3.645   5.997  0.00  0.00     0.077 C 
ATOM      8  C7  UNL d   1       3.896  -2.273   5.917  0.00  0.00    -0.001 A 
ENDROOT
TORSDOF 0
ENDMDL
