MODEL 1
REMARK minimizedAffinity -1.29096162
REMARK minimizedRMSD -1
REMARK  0 active torsions:
REMARK  status: ('A' for Active; 'I' for Inactive)
ROOT
ATOM      1  C   UNL d   1       5.129   3.391  -5.658  0.00  0.00     0.077 C 
ATOM      2  C1  UNL d   1       5.029   4.239  -4.425  0.00  0.00    -0.074 A 
ATOM      3  C2  UNL d   1       6.000   5.203  -4.134  0.00  0.00    -0.005 A 
ATOM      4  C3  UNL d   1       5.888   5.991  -2.989  0.00  0.00     0.006 A 
ATOM      5  C4  UNL d   1       4.806   5.823  -2.123  0.00  0.00    -0.005 A 
ATOM      6  C5  UNL d   1       3.825   4.865  -2.398  0.00  0.00    -0.074 A 
ATOM      7  C6  UNL d   1       2.651   4.679  -1.483  0.00  0.00     0.077 C 
ATOM      8  C7  UNL d   1       3.941   4.082  -3.554  0.00  0.00    -0.001 A 
ENDROOT
TORSDOF 0
ENDMDL
