MODEL 1
REMARK minimizedAffinity -0.965929449
REMARK minimizedRMSD -1
REMARK  0 active torsions:
REMARK  status: ('A' for Active; 'I' for Inactive)
ROOT
ATOM      1  C   UNL d   1       5.999   3.588  -5.985  0.00  0.00     0.077 C 
ATOM      2  C1  UNL d   1       5.357   4.436  -4.927  0.00  0.00    -0.074 A 
ATOM      3  C2  UNL d   1       4.170   5.129  -5.185  0.00  0.00    -0.005 A 
ATOM      4  C3  UNL d   1       3.579   5.906  -4.189  0.00  0.00     0.006 A 
ATOM      5  C4  UNL d   1       4.168   5.998  -2.927  0.00  0.00    -0.005 A 
ATOM      6  C5  UNL d   1       5.354   5.311  -2.651  0.00  0.00    -0.074 A 
ATOM      7  C6  UNL d   1       5.995   5.391  -1.297  0.00  0.00     0.077 C 
ATOM      8  C7  UNL d   1       5.938   4.526  -3.655  0.00  0.00    -0.001 A 
ENDROOT
TORSDOF 0
ENDMDL
