MODEL 1
REMARK minimizedAffinity 9.91990852
REMARK minimizedRMSD -1
REMARK  0 active torsions:
REMARK  status: ('A' for Active; 'I' for Inactive)
ROOT
ATOM      1  C   UNL d   1       5.371   2.948  -4.932  0.00  0.00     0.077 C 
ATOM      2  C1  UNL d   1       5.010   4.009  -3.935  0.00  0.00    -0.074 A 
ATOM      3  C2  UNL d   1       6.000   4.693  -3.223  0.00  0.00    -0.005 A 
ATOM      4  C3  UNL d   1       5.649   5.684  -2.306  0.00  0.00     0.006 A 
ATOM      5  C4  UNL d   1       4.306   6.000  -2.093  0.00  0.00    -0.005 A 
ATOM      6  C5  UNL d   1       3.303   5.327  -2.797  0.00  0.00    -0.074 A 
ATOM      7  C6  UNL d   1       1.856   5.662  -2.587  0.00  0.00     0.077 C 
ATOM      8  C7  UNL d   1       3.664   4.338  -3.722  0.00  0.00    -0.001 A 
ENDROOT
TORSDOF 0
ENDMDL
