MODEL 1
REMARK minimizedAffinity 3.46522665
REMARK minimizedRMSD -1
REMARK  0 active torsions:
REMARK  status: ('A' for Active; 'I' for Inactive)
ROOT
ATOM      1  C   UNL d   1       0.119  -5.999  -2.697  0.00  0.00     0.077 C 
ATOM      2  C1  UNL d   1      -0.115  -4.558  -2.351  0.00  0.00    -0.074 A 
ATOM      3  C2  UNL d   1      -0.044  -3.563  -3.330  0.00  0.00    -0.005 A 
ATOM      4  C3  UNL d   1      -0.274  -2.228  -2.995  0.00  0.00     0.006 A 
ATOM      5  C4  UNL d   1      -0.577  -1.877  -1.679  0.00  0.00    -0.005 A 
ATOM      6  C5  UNL d   1      -0.654  -2.859  -0.686  0.00  0.00    -0.074 A 
ATOM      7  C6  UNL d   1      -0.988  -2.500   0.731  0.00  0.00     0.077 C 
ATOM      8  C7  UNL d   1      -0.428  -4.199  -1.033  0.00  0.00    -0.001 A 
ENDROOT
TORSDOF 0
ENDMDL
