MODEL 1
REMARK minimizedAffinity 4.741745
REMARK minimizedRMSD -1
REMARK  0 active torsions:
REMARK  status: ('A' for Active; 'I' for Inactive)
ROOT
ATOM      1  C   UNL d   1       1.795  -2.431  -3.071  0.00  0.00     0.077 C 
ATOM      2  C1  UNL d   1       0.398  -2.285  -2.544  0.00  0.00    -0.074 A 
ATOM      3  C2  UNL d   1      -0.688  -2.151  -3.414  0.00  0.00    -0.005 A 
ATOM      4  C3  UNL d   1      -1.983  -2.026  -2.909  0.00  0.00     0.006 A 
ATOM      5  C4  UNL d   1      -2.203  -2.034  -1.532  0.00  0.00    -0.005 A 
ATOM      6  C5  UNL d   1      -1.130  -2.168  -0.646  0.00  0.00    -0.074 A 
ATOM      7  C6  UNL d   1      -1.350  -2.189   0.838  0.00  0.00     0.077 C 
ATOM      8  C7  UNL d   1       0.167  -2.300  -1.161  0.00  0.00    -0.001 A 
ENDROOT
TORSDOF 0
ENDMDL
