MODEL 1
REMARK minimizedAffinity 1.95951271
REMARK minimizedRMSD -1
REMARK  0 active torsions:
REMARK  status: ('A' for Active; 'I' for Inactive)
ROOT
ATOM      1  C   UNL d   1      -1.650  -2.555   1.345  0.00  0.00     0.077 C 
ATOM      2  C1  UNL d   1      -0.998  -2.428  -0.000  0.00  0.00    -0.074 A 
ATOM      3  C2  UNL d   1      -0.367  -1.241  -0.384  0.00  0.00    -0.005 A 
ATOM      4  C3  UNL d   1       0.244  -1.141  -1.634  0.00  0.00     0.006 A 
ATOM      5  C4  UNL d   1       0.229  -2.225  -2.512  0.00  0.00    -0.005 A 
ATOM      6  C5  UNL d   1      -0.397  -3.421  -2.146  0.00  0.00    -0.074 A 
ATOM      7  C6  UNL d   1      -0.414  -4.600  -3.073  0.00  0.00     0.077 C 
ATOM      8  C7  UNL d   1      -1.002  -3.516  -0.885  0.00  0.00    -0.001 A 
ENDROOT
TORSDOF 0
ENDMDL
