MODEL 1
REMARK minimizedAffinity 1.13256681
REMARK minimizedRMSD -1
REMARK  0 active torsions:
REMARK  status: ('A' for Active; 'I' for Inactive)
ROOT
ATOM      1  C   UNL d   1       5.999   3.672  -5.504  0.00  0.00     0.077 C 
ATOM      2  C1  UNL d   1       5.482   4.362  -4.277  0.00  0.00    -0.074 A 
ATOM      3  C2  UNL d   1       4.521   5.373  -4.372  0.00  0.00    -0.005 A 
ATOM      4  C3  UNL d   1       4.043   6.000  -3.221  0.00  0.00     0.006 A 
ATOM      5  C4  UNL d   1       4.521   5.622  -1.965  0.00  0.00    -0.005 A 
ATOM      6  C5  UNL d   1       5.482   4.612  -1.851  0.00  0.00    -0.074 A 
ATOM      7  C6  UNL d   1       5.999   4.187  -0.509  0.00  0.00     0.077 C 
ATOM      8  C7  UNL d   1       5.952   3.983  -3.012  0.00  0.00    -0.001 A 
ENDROOT
TORSDOF 0
ENDMDL
