MODEL 1
REMARK minimizedAffinity 0.201170295
REMARK minimizedRMSD -1
REMARK  0 active torsions:
REMARK  status: ('A' for Active; 'I' for Inactive)
ROOT
ATOM      1  C   UNL d   1       5.999   5.994  -0.844  0.00  0.00     0.077 C 
ATOM      2  C1  UNL d   1       5.250   5.460  -2.028  0.00  0.00    -0.074 A 
ATOM      3  C2  UNL d   1       3.871   5.235  -1.964  0.00  0.00    -0.005 A 
ATOM      4  C3  UNL d   1       3.186   4.747  -3.077  0.00  0.00     0.006 A 
ATOM      5  C4  UNL d   1       3.871   4.480  -4.263  0.00  0.00    -0.005 A 
ATOM      6  C5  UNL d   1       5.250   4.700  -4.346  0.00  0.00    -0.074 A 
ATOM      7  C6  UNL d   1       6.000   4.427  -5.616  0.00  0.00     0.077 C 
ATOM      8  C7  UNL d   1       5.930   5.197  -3.226  0.00  0.00    -0.001 A 
ENDROOT
TORSDOF 0
ENDMDL
