MODEL 1
REMARK minimizedAffinity 7.74724674
REMARK minimizedRMSD -1
REMARK  0 active torsions:
REMARK  status: ('A' for Active; 'I' for Inactive)
ROOT
ATOM      1  C   UNL d   1      -0.634  -2.118  -0.111  0.00  0.00     0.077 C 
ATOM      2  C1  UNL d   1      -0.277  -2.139  -1.568  0.00  0.00    -0.074 A 
ATOM      3  C2  UNL d   1      -1.269  -2.217  -2.550  0.00  0.00    -0.005 A 
ATOM      4  C3  UNL d   1      -0.923  -2.226  -3.901  0.00  0.00     0.006 A 
ATOM      5  C4  UNL d   1       0.418  -2.157  -4.283  0.00  0.00    -0.005 A 
ATOM      6  C5  UNL d   1       1.424  -2.077  -3.315  0.00  0.00    -0.074 A 
ATOM      7  C6  UNL d   1       2.869  -1.992  -3.708  0.00  0.00     0.077 C 
ATOM      8  C7  UNL d   1       1.067  -2.062  -1.960  0.00  0.00    -0.001 A 
ENDROOT
TORSDOF 0
ENDMDL
