MODEL 1
REMARK minimizedAffinity 1.15227735
REMARK minimizedRMSD -1
REMARK  0 active torsions:
REMARK  status: ('A' for Active; 'I' for Inactive)
ROOT
ATOM      1  C   UNL d   1       5.948   5.021  -1.628  0.00  0.00     0.077 C 
ATOM      2  C1  UNL d   1       5.448   4.873  -3.034  0.00  0.00    -0.074 A 
ATOM      3  C2  UNL d   1       4.523   5.776  -3.567  0.00  0.00    -0.005 A 
ATOM      4  C3  UNL d   1       4.075   5.631  -4.880  0.00  0.00     0.006 A 
ATOM      5  C4  UNL d   1       4.546   4.583  -5.672  0.00  0.00    -0.005 A 
ATOM      6  C5  UNL d   1       5.473   3.671  -5.157  0.00  0.00    -0.074 A 
ATOM      7  C6  UNL d   1       5.998   2.545  -5.998  0.00  0.00     0.077 C 
ATOM      8  C7  UNL d   1       5.924   3.827  -3.839  0.00  0.00    -0.001 A 
ENDROOT
TORSDOF 0
ENDMDL
