MODEL 1
REMARK minimizedAffinity -1.07620275
REMARK minimizedRMSD -1
REMARK  0 active torsions:
REMARK  status: ('A' for Active; 'I' for Inactive)
ROOT
ATOM      1  C   UNL d   1       6.000   3.063  -6.000  0.00  0.00     0.077 C 
ATOM      2  C1  UNL d   1       5.302   3.939  -5.002  0.00  0.00    -0.074 A 
ATOM      3  C2  UNL d   1       4.014   4.424  -5.249  0.00  0.00    -0.005 A 
ATOM      4  C3  UNL d   1       3.373   5.230  -4.308  0.00  0.00     0.006 A 
ATOM      5  C4  UNL d   1       4.013   5.558  -3.112  0.00  0.00    -0.005 A 
ATOM      6  C5  UNL d   1       5.300   5.080  -2.847  0.00  0.00    -0.074 A 
ATOM      7  C6  UNL d   1       5.998   5.415  -1.562  0.00  0.00     0.077 C 
ATOM      8  C7  UNL d   1       5.935   4.266  -3.795  0.00  0.00    -0.001 A 
ENDROOT
TORSDOF 0
ENDMDL
