MODEL 1
REMARK minimizedAffinity -1.35503006
REMARK minimizedRMSD -1
REMARK  0 active torsions:
REMARK  status: ('A' for Active; 'I' for Inactive)
ROOT
ATOM      1  C   UNL d   1       1.877   4.699  -2.633  0.00  0.00     0.077 C 
ATOM      2  C1  UNL d   1       3.316   4.705  -3.056  0.00  0.00    -0.074 A 
ATOM      3  C2  UNL d   1       4.302   5.269  -2.240  0.00  0.00    -0.005 A 
ATOM      4  C3  UNL d   1       5.638   5.259  -2.643  0.00  0.00     0.006 A 
ATOM      5  C4  UNL d   1       6.000   4.686  -3.862  0.00  0.00    -0.005 A 
ATOM      6  C5  UNL d   1       5.028   4.116  -4.690  0.00  0.00    -0.074 A 
ATOM      7  C6  UNL d   1       5.401   3.488  -6.000  0.00  0.00     0.077 C 
ATOM      8  C7  UNL d   1       3.689   4.124  -4.276  0.00  0.00    -0.001 A 
ENDROOT
TORSDOF 0
ENDMDL
