MODEL 1
REMARK minimizedAffinity -1.61397958
REMARK minimizedRMSD -1
REMARK  0 active torsions:
REMARK  status: ('A' for Active; 'I' for Inactive)
ROOT
ATOM      1  C   UNL d   1       0.766  -1.120  -0.753  0.00  0.00     0.078 C 
ATOM      2  C1  UNL d   1      -0.440  -1.278  -1.631  0.00  0.00    -0.077 A 
ATOM      3  C2  UNL d   1      -0.486  -0.697  -2.904  0.00  0.00    -0.001 A 
ATOM      4  C3  UNL d   1      -1.619  -0.844  -3.707  0.00  0.00     0.003 A 
ATOM      5  C4  UNL d   1      -2.714  -1.572  -3.245  0.00  0.00    -0.005 A 
ATOM      6  C5  UNL d   1      -2.677  -2.152  -1.978  0.00  0.00     0.003 A 
ATOM      7  C6  UNL d   1      -1.546  -2.006  -1.174  0.00  0.00    -0.001 A 
ENDROOT
TORSDOF 0
ENDMDL
