MODEL 1
REMARK minimizedAffinity -2.89426589
REMARK minimizedRMSD -1
REMARK  0 active torsions:
REMARK  status: ('A' for Active; 'I' for Inactive)
ROOT
ATOM      1  C   UNL d   1       4.527   1.831   2.636  0.00  0.00     0.078 C 
ATOM      2  C1  UNL d   1       3.101   1.654   2.209  0.00  0.00    -0.077 A 
ATOM      3  C2  UNL d   1       2.781   0.981   1.024  0.00  0.00    -0.001 A 
ATOM      4  C3  UNL d   1       1.449   0.832   0.633  0.00  0.00     0.003 A 
ATOM      5  C4  UNL d   1       0.426   1.355   1.422  0.00  0.00    -0.005 A 
ATOM      6  C5  UNL d   1       0.735   2.028   2.602  0.00  0.00     0.003 A 
ATOM      7  C6  UNL d   1       2.066   2.178   2.994  0.00  0.00    -0.001 A 
ENDROOT
TORSDOF 0
ENDMDL
