MODEL 1
REMARK minimizedAffinity 1.77320218
REMARK minimizedRMSD -1
REMARK  0 active torsions:
REMARK  status: ('A' for Active; 'I' for Inactive)
ROOT
ATOM      1  C   UNL d   1       1.857  -0.302  -1.071  0.00  0.00     0.078 C 
ATOM      2  C1  UNL d   1       1.121   0.294   0.091  0.00  0.00    -0.077 A 
ATOM      3  C2  UNL d   1       1.558   1.484   0.688  0.00  0.00    -0.001 A 
ATOM      4  C3  UNL d   1       0.868   2.022   1.775  0.00  0.00     0.003 A 
ATOM      5  C4  UNL d   1      -0.261   1.378   2.276  0.00  0.00    -0.005 A 
ATOM      6  C5  UNL d   1      -0.702   0.193   1.691  0.00  0.00     0.003 A 
ATOM      7  C6  UNL d   1      -0.014  -0.347   0.603  0.00  0.00    -0.001 A 
ENDROOT
TORSDOF 0
ENDMDL
