MODEL 1
REMARK minimizedAffinity -0.335802764
REMARK minimizedRMSD -1
REMARK  0 active torsions:
REMARK  status: ('A' for Active; 'I' for Inactive)
ROOT
ATOM      1  C   UNL d   1      -3.703  -5.584  -0.415  0.00  0.00     0.078 C 
ATOM      2  C1  UNL d   1      -2.650  -4.907   0.412  0.00  0.00    -0.077 A 
ATOM      3  C2  UNL d   1      -2.477  -3.519   0.362  0.00  0.00    -0.001 A 
ATOM      4  C3  UNL d   1      -1.486  -2.903   1.130  0.00  0.00     0.003 A 
ATOM      5  C4  UNL d   1      -0.661  -3.669   1.951  0.00  0.00    -0.005 A 
ATOM      6  C5  UNL d   1      -0.824  -5.051   2.005  0.00  0.00     0.003 A 
ATOM      7  C6  UNL d   1      -1.814  -5.668   1.238  0.00  0.00    -0.001 A 
ENDROOT
TORSDOF 0
ENDMDL
