MODEL 1
REMARK minimizedAffinity -2.20166469
REMARK minimizedRMSD -1
REMARK  0 active torsions:
REMARK  status: ('A' for Active; 'I' for Inactive)
ROOT
ATOM      1  C   UNL d   1      -1.018  -1.466  -3.314  0.00  0.00     0.078 C 
ATOM      2  C1  UNL d   1      -0.052  -0.531  -2.650  0.00  0.00    -0.077 A 
ATOM      3  C2  UNL d   1       0.806  -0.979  -1.638  0.00  0.00    -0.001 A 
ATOM      4  C3  UNL d   1       1.693  -0.095  -1.022  0.00  0.00     0.003 A 
ATOM      5  C4  UNL d   1       1.730   1.243  -1.409  0.00  0.00    -0.005 A 
ATOM      6  C5  UNL d   1       0.878   1.699  -2.413  0.00  0.00     0.003 A 
ATOM      7  C6  UNL d   1      -0.010   0.816  -3.031  0.00  0.00    -0.001 A 
ENDROOT
TORSDOF 0
ENDMDL
