MODEL 1
REMARK minimizedAffinity 0.264295548
REMARK minimizedRMSD -1
REMARK  0 active torsions:
REMARK  status: ('A' for Active; 'I' for Inactive)
ROOT
ATOM      1  C   UNL d   1      -0.892   3.701  -0.135  0.00  0.00     0.078 C 
ATOM      2  C1  UNL d   1      -0.410   2.787   0.951  0.00  0.00    -0.077 A 
ATOM      3  C2  UNL d   1      -1.300   2.245   1.886  0.00  0.00    -0.001 A 
ATOM      4  C3  UNL d   1      -0.835   1.403   2.898  0.00  0.00     0.003 A 
ATOM      5  C4  UNL d   1       0.521   1.096   2.985  0.00  0.00    -0.005 A 
ATOM      6  C5  UNL d   1       1.415   1.633   2.060  0.00  0.00     0.003 A 
ATOM      7  C6  UNL d   1       0.952   2.475   1.048  0.00  0.00    -0.001 A 
ENDROOT
TORSDOF 0
ENDMDL
