MODEL 1
REMARK minimizedAffinity 1.80927193
REMARK minimizedRMSD -1
REMARK  0 active torsions:
REMARK  status: ('A' for Active; 'I' for Inactive)
ROOT
ATOM      1  C   UNL d   1       1.488   0.730   0.995  0.00  0.00     0.078 C 
ATOM      2  C1  UNL d   1       1.643   0.344  -0.445  0.00  0.00    -0.077 A 
ATOM      3  C2  UNL d   1       2.806  -0.287  -0.902  0.00  0.00    -0.001 A 
ATOM      4  C3  UNL d   1       2.941  -0.632  -2.248  0.00  0.00     0.003 A 
ATOM      5  C4  UNL d   1       1.916  -0.349  -3.148  0.00  0.00    -0.005 A 
ATOM      6  C5  UNL d   1       0.756   0.281  -2.704  0.00  0.00     0.003 A 
ATOM      7  C6  UNL d   1       0.619   0.627  -1.358  0.00  0.00    -0.001 A 
ENDROOT
TORSDOF 0
ENDMDL
