MODEL 1
REMARK minimizedAffinity 0.196742401
REMARK minimizedRMSD -1
REMARK  0 active torsions:
REMARK  status: ('A' for Active; 'I' for Inactive)
ROOT
ATOM      1  C   UNL d   1      -0.983  -3.549   1.196  0.00  0.00     0.078 C 
ATOM      2  C1  UNL d   1      -1.975  -3.894   0.126  0.00  0.00    -0.077 A 
ATOM      3  C2  UNL d   1      -2.790  -2.909  -0.447  0.00  0.00    -0.001 A 
ATOM      4  C3  UNL d   1      -3.716  -3.246  -1.435  0.00  0.00     0.003 A 
ATOM      5  C4  UNL d   1      -3.838  -4.568  -1.859  0.00  0.00    -0.005 A 
ATOM      6  C5  UNL d   1      -3.033  -5.555  -1.293  0.00  0.00     0.003 A 
ATOM      7  C6  UNL d   1      -2.106  -5.220  -0.305  0.00  0.00    -0.001 A 
ENDROOT
TORSDOF 0
ENDMDL
