MODEL 1
REMARK minimizedAffinity 10.4123344
REMARK minimizedRMSD -1
REMARK  0 active torsions:
REMARK  status: ('A' for Active; 'I' for Inactive)
ROOT
ATOM      1  C   UNL d   1      -2.982   1.644   2.112  0.00  0.00     0.078 C 
ATOM      2  C1  UNL d   1      -1.487   1.704   2.221  0.00  0.00    -0.077 A 
ATOM      3  C2  UNL d   1      -0.737   0.552   2.488  0.00  0.00    -0.001 A 
ATOM      4  C3  UNL d   1       0.653   0.624   2.596  0.00  0.00     0.003 A 
ATOM      5  C4  UNL d   1       1.304   1.846   2.440  0.00  0.00    -0.005 A 
ATOM      6  C5  UNL d   1       0.566   2.998   2.177  0.00  0.00     0.003 A 
ATOM      7  C6  UNL d   1      -0.824   2.928   2.068  0.00  0.00    -0.001 A 
ENDROOT
TORSDOF 0
ENDMDL
