MODEL 1
REMARK minimizedAffinity 10.0999746
REMARK minimizedRMSD -1
REMARK  0 active torsions:
REMARK  status: ('A' for Active; 'I' for Inactive)
ROOT
ATOM      1  C   UNL d   1      -2.856  -0.001   2.586  0.00  0.00     0.078 C 
ATOM      2  C1  UNL d   1      -1.546   0.728   2.621  0.00  0.00    -0.077 A 
ATOM      3  C2  UNL d   1      -0.525   0.335   3.495  0.00  0.00    -0.001 A 
ATOM      4  C3  UNL d   1       0.686   1.029   3.524  0.00  0.00     0.003 A 
ATOM      5  C4  UNL d   1       0.886   2.121   2.682  0.00  0.00    -0.005 A 
ATOM      6  C5  UNL d   1      -0.125   2.522   1.811  0.00  0.00     0.003 A 
ATOM      7  C6  UNL d   1      -1.336   1.829   1.781  0.00  0.00    -0.001 A 
ENDROOT
TORSDOF 0
ENDMDL
