MODEL 1
REMARK minimizedAffinity -3.86085677
REMARK minimizedRMSD -1
REMARK  0 active torsions:
REMARK  status: ('A' for Active; 'I' for Inactive)
ROOT
ATOM      1  C   UNL d   1      -2.542   0.940   2.176  0.00  0.00     0.078 C 
ATOM      2  C1  UNL d   1      -1.173   1.415   1.789  0.00  0.00    -0.077 A 
ATOM      3  C2  UNL d   1      -0.150   0.505   1.498  0.00  0.00    -0.001 A 
ATOM      4  C3  UNL d   1       1.122   0.961   1.148  0.00  0.00     0.003 A 
ATOM      5  C4  UNL d   1       1.383   2.329   1.087  0.00  0.00    -0.005 A 
ATOM      6  C5  UNL d   1       0.371   3.242   1.377  0.00  0.00     0.003 A 
ATOM      7  C6  UNL d   1      -0.901   2.787   1.727  0.00  0.00    -0.001 A 
ENDROOT
TORSDOF 0
ENDMDL
