MODEL 1
REMARK minimizedAffinity 3.5893271
REMARK minimizedRMSD -1
REMARK  0 active torsions:
REMARK  status: ('A' for Active; 'I' for Inactive)
ROOT
ATOM      1  C   UNL d   1      -2.868   1.662   2.636  0.00  0.00     0.078 C 
ATOM      2  C1  UNL d   1      -1.415   1.514   2.296  0.00  0.00    -0.077 A 
ATOM      3  C2  UNL d   1      -0.838   0.248   2.135  0.00  0.00    -0.001 A 
ATOM      4  C3  UNL d   1       0.519   0.126   1.829  0.00  0.00     0.003 A 
ATOM      5  C4  UNL d   1       1.309   1.264   1.682  0.00  0.00    -0.005 A 
ATOM      6  C5  UNL d   1       0.743   2.527   1.843  0.00  0.00     0.003 A 
ATOM      7  C6  UNL d   1      -0.613   2.652   2.149  0.00  0.00    -0.001 A 
ENDROOT
TORSDOF 0
ENDMDL
