MODEL 1
REMARK minimizedAffinity 7.71636295
REMARK minimizedRMSD -1
REMARK  0 active torsions:
REMARK  status: ('A' for Active; 'I' for Inactive)
ROOT
ATOM      1  C   UNL d   1       0.799   1.585   2.102  0.00  0.00     0.078 C 
ATOM      2  C1  UNL d   1       1.610   0.887   1.051  0.00  0.00    -0.077 A 
ATOM      3  C2  UNL d   1       2.864   1.376   0.665  0.00  0.00    -0.001 A 
ATOM      4  C3  UNL d   1       3.603   0.721  -0.321  0.00  0.00     0.003 A 
ATOM      5  C4  UNL d   1       3.096  -0.425  -0.931  0.00  0.00    -0.005 A 
ATOM      6  C5  UNL d   1       1.848  -0.917  -0.555  0.00  0.00     0.003 A 
ATOM      7  C6  UNL d   1       1.107  -0.264   0.431  0.00  0.00    -0.001 A 
ENDROOT
TORSDOF 0
ENDMDL
