MODEL 1
REMARK minimizedAffinity 6.19842577
REMARK minimizedRMSD -1
REMARK  0 active torsions:
REMARK  status: ('A' for Active; 'I' for Inactive)
ROOT
ATOM      1  C   UNL d   1      -0.006   2.509   2.007  0.00  0.00     0.078 C 
ATOM      2  C1  UNL d   1       0.944   1.658   1.219  0.00  0.00    -0.077 A 
ATOM      3  C2  UNL d   1       2.326   1.877   1.275  0.00  0.00    -0.001 A 
ATOM      4  C3  UNL d   1       3.197   1.083   0.528  0.00  0.00     0.003 A 
ATOM      5  C4  UNL d   1       2.697   0.066  -0.282  0.00  0.00    -0.005 A 
ATOM      6  C5  UNL d   1       1.323  -0.158  -0.347  0.00  0.00     0.003 A 
ATOM      7  C6  UNL d   1       0.450   0.635   0.400  0.00  0.00    -0.001 A 
ENDROOT
TORSDOF 0
ENDMDL
