MODEL 1
REMARK minimizedAffinity -2.36105609
REMARK minimizedRMSD -1
REMARK  0 active torsions:
REMARK  status: ('A' for Active; 'I' for Inactive)
ROOT
ATOM      1  C   UNL d   1       1.619  -0.602  -0.347  0.00  0.00     0.078 C 
ATOM      2  C1  UNL d   1       0.818   0.213   0.624  0.00  0.00    -0.077 A 
ATOM      3  C2  UNL d   1       1.419   1.221   1.387  0.00  0.00    -0.001 A 
ATOM      4  C3  UNL d   1       0.663   1.966   2.294  0.00  0.00     0.003 A 
ATOM      5  C4  UNL d   1      -0.698   1.709   2.447  0.00  0.00    -0.005 A 
ATOM      6  C5  UNL d   1      -1.304   0.707   1.693  0.00  0.00     0.003 A 
ATOM      7  C6  UNL d   1      -0.550  -0.039   0.786  0.00  0.00    -0.001 A 
ENDROOT
TORSDOF 0
ENDMDL
