MODEL 1
REMARK minimizedAffinity -5.51297331
REMARK minimizedRMSD -1
REMARK  1 active torsions:
REMARK  status: ('A' for Active; 'I' for Inactive)
REMARK    1  A    between atoms: C3_4  and  O_7 
ROOT
ATOM      1  C   UNL d   1       0.019   0.670   3.749  0.00  0.00    -0.033 A 
ATOM      2  C1  UNL d   1       1.279   0.144   3.457  0.00  0.00     0.039 A 
ATOM      3  C2  UNL d   1       1.662  -0.061   2.129  0.00  0.00    -0.080 A 
ATOM      4  C3  UNL d   1       0.777   0.265   1.105  0.00  0.00     0.150 A 
ATOM      5  C4  UNL d   1      -0.478   0.794   1.389  0.00  0.00    -0.007 A 
ATOM      6  C5  UNL d   1      -0.859   0.996   2.715  0.00  0.00     0.039 A 
ENDROOT
BRANCH   4   7
ATOM      7  O   UNL d   1       1.104   0.079  -0.205  0.00  0.00    -0.526 OA
ATOM      8  H5  UNL d   1       1.989  -0.319  -0.248  0.00  0.00     0.418 HD
ENDBRANCH   4   7
TORSDOF 1
ENDMDL
