MODEL 1
REMARK minimizedAffinity -4.61889458
REMARK minimizedRMSD -1
REMARK  1 active torsions:
REMARK  status: ('A' for Active; 'I' for Inactive)
REMARK    1  A    between atoms: C3_4  and  O_7 
ROOT
ATOM      1  C   UNL d   1      -0.240   0.894   3.171  0.00  0.00    -0.033 A 
ATOM      2  C1  UNL d   1      -1.342   0.811   2.318  0.00  0.00     0.039 A 
ATOM      3  C2  UNL d   1      -1.182   0.346   1.011  0.00  0.00    -0.080 A 
ATOM      4  C3  UNL d   1       0.083  -0.033   0.571  0.00  0.00     0.150 A 
ATOM      5  C4  UNL d   1       1.184   0.044   1.416  0.00  0.00    -0.007 A 
ATOM      6  C5  UNL d   1       1.023   0.510   2.721  0.00  0.00     0.039 A 
ENDROOT
BRANCH   4   7
ATOM      7  O   UNL d   1       0.289  -0.488  -0.698  0.00  0.00    -0.526 OA
ATOM      8  H5  UNL d   1      -0.556  -0.460  -1.176  0.00  0.00     0.418 HD
ENDBRANCH   4   7
TORSDOF 1
ENDMDL
