MODEL 1
REMARK minimizedAffinity -5.58130836
REMARK minimizedRMSD -1
REMARK  1 active torsions:
REMARK  status: ('A' for Active; 'I' for Inactive)
REMARK    1  A    between atoms: C3_4  and  O_7 
ROOT
ATOM      1  C   UNL d   1      -0.449   1.091   3.275  0.00  0.00    -0.033 A 
ATOM      2  C1  UNL d   1       0.824   0.551   3.082  0.00  0.00     0.039 A 
ATOM      3  C2  UNL d   1       1.202   0.081   1.823  0.00  0.00    -0.080 A 
ATOM      4  C3  UNL d   1       0.299   0.157   0.766  0.00  0.00     0.150 A 
ATOM      5  C4  UNL d   1      -0.969   0.697   0.950  0.00  0.00    -0.007 A 
ATOM      6  C5  UNL d   1      -1.345   1.166   2.208  0.00  0.00     0.039 A 
ENDROOT
BRANCH   4   7
ATOM      7  O   UNL d   1       0.621  -0.293  -0.480  0.00  0.00    -0.526 OA
ATOM      8  H5  UNL d   1       1.518  -0.666  -0.450  0.00  0.00     0.418 HD
ENDBRANCH   4   7
TORSDOF 1
ENDMDL
