MODEL 1
REMARK minimizedAffinity -3.52595496
REMARK minimizedRMSD -1
REMARK  1 active torsions:
REMARK  status: ('A' for Active; 'I' for Inactive)
REMARK    1  A    between atoms: C3_4  and  O_7 
ROOT
ATOM      1  C   UNL d   1      -0.676   0.925   3.321  0.00  0.00    -0.033 A 
ATOM      2  C1  UNL d   1      -1.682   0.286   2.593  0.00  0.00     0.039 A 
ATOM      3  C2  UNL d   1      -1.476  -0.040   1.252  0.00  0.00    -0.080 A 
ATOM      4  C3  UNL d   1      -0.261   0.277   0.650  0.00  0.00     0.150 A 
ATOM      5  C4  UNL d   1       0.747   0.910   1.370  0.00  0.00    -0.007 A 
ATOM      6  C5  UNL d   1       0.539   1.236   2.709  0.00  0.00     0.039 A 
ENDROOT
BRANCH   4   7
ATOM      7  O   UNL d   1      -0.015  -0.018  -0.658  0.00  0.00    -0.526 OA
ATOM      8  H5  UNL d   1      -0.812  -0.427  -1.036  0.00  0.00     0.418 HD
ENDBRANCH   4   7
TORSDOF 1
ENDMDL
