MODEL 1
REMARK minimizedAffinity -4.61210585
REMARK minimizedRMSD -1
REMARK  1 active torsions:
REMARK  status: ('A' for Active; 'I' for Inactive)
REMARK    1  A    between atoms: C3_4  and  O_7 
ROOT
ATOM      1  C   UNL d   1       1.270   0.690   3.508  0.00  0.00    -0.033 A 
ATOM      2  C1  UNL d   1      -0.080   1.047   3.531  0.00  0.00     0.039 A 
ATOM      3  C2  UNL d   1      -0.844   0.967   2.366  0.00  0.00    -0.080 A 
ATOM      4  C3  UNL d   1      -0.249   0.529   1.186  0.00  0.00     0.150 A 
ATOM      5  C4  UNL d   1       1.094   0.168   1.157  0.00  0.00    -0.007 A 
ATOM      6  C5  UNL d   1       1.857   0.249   2.321  0.00  0.00     0.039 A 
ENDROOT
BRANCH   4   7
ATOM      7  O   UNL d   1      -0.954   0.439   0.023  0.00  0.00    -0.526 OA
ATOM      8  H5  UNL d   1      -1.860   0.748   0.187  0.00  0.00     0.418 HD
ENDBRANCH   4   7
TORSDOF 1
ENDMDL
