MODEL 1
REMARK minimizedAffinity -4.77475166
REMARK minimizedRMSD -1
REMARK  1 active torsions:
REMARK  status: ('A' for Active; 'I' for Inactive)
REMARK    1  A    between atoms: C3_4  and  O_7 
ROOT
ATOM      1  C   UNL d   1      -0.768   0.935   3.003  0.00  0.00    -0.033 A 
ATOM      2  C1  UNL d   1       0.513   0.462   2.711  0.00  0.00     0.039 A 
ATOM      3  C2  UNL d   1       0.836   0.072   1.410  0.00  0.00    -0.080 A 
ATOM      4  C3  UNL d   1      -0.130   0.161   0.411  0.00  0.00     0.150 A 
ATOM      5  C4  UNL d   1      -1.407   0.635   0.694  0.00  0.00    -0.007 A 
ATOM      6  C5  UNL d   1      -1.727   1.023   1.994  0.00  0.00     0.039 A 
ENDROOT
BRANCH   4   7
ATOM      7  O   UNL d   1       0.137  -0.212  -0.873  0.00  0.00    -0.526 OA
ATOM      8  H5  UNL d   1       1.049  -0.546  -0.913  0.00  0.00     0.418 HD
ENDBRANCH   4   7
TORSDOF 1
ENDMDL
