MODEL 1
REMARK minimizedAffinity 13.7035608
REMARK minimizedRMSD -1
REMARK  0 active torsions:
REMARK  status: ('A' for Active; 'I' for Inactive)
ROOT
ATOM      1  C4' PXY d   1       3.681   1.405   3.641  0.00  0.00     0.077 C 
ATOM      2  C1' PXY d   1      -1.444  -1.087   2.671  0.00  0.00     0.077 C 
ATOM      3  C1  PXY d   1      -0.106  -0.424   2.933  0.00  0.00    -0.082 A 
ATOM      4  C2  PXY d   1       0.888  -0.597   2.077  0.00  0.00     0.003 A 
ATOM      5  C3  PXY d   1       2.114  -0.031   2.314  0.00  0.00     0.003 A 
ATOM      6  C4  PXY d   1       2.309   0.763   3.412  0.00  0.00    -0.082 A 
ATOM      7  C5  PXY d   1       1.297   0.953   4.285  0.00  0.00     0.003 A 
ATOM      8  C6  PXY d   1       0.072   0.336   4.047  0.00  0.00     0.003 A 
ENDROOT
TORSDOF 0
ENDMDL
