MODEL 1
REMARK minimizedAffinity 4.98147011
REMARK minimizedRMSD -1
REMARK  0 active torsions:
REMARK  status: ('A' for Active; 'I' for Inactive)
ROOT
ATOM      1  C4' PXY d   1       1.278   0.503   2.965  0.00  0.00     0.077 C 
ATOM      2  C1' PXY d   1      -3.936  -1.989   3.100  0.00  0.00     0.077 C 
ATOM      3  C1  PXY d   1      -2.564  -1.343   3.074  0.00  0.00    -0.082 A 
ATOM      4  C2  PXY d   1      -2.429  -0.114   2.604  0.00  0.00     0.003 A 
ATOM      5  C3  PXY d   1      -1.191   0.473   2.544  0.00  0.00     0.003 A 
ATOM      6  C4  PXY d   1      -0.089  -0.185   3.019  0.00  0.00    -0.082 A 
ATOM      7  C5  PXY d   1      -0.220  -1.435   3.510  0.00  0.00     0.003 A 
ATOM      8  C6  PXY d   1      -1.479  -2.029   3.524  0.00  0.00     0.003 A 
ENDROOT
TORSDOF 0
ENDMDL
