MODEL 1
REMARK minimizedAffinity 12.9940243
REMARK minimizedRMSD -1
REMARK  0 active torsions:
REMARK  status: ('A' for Active; 'I' for Inactive)
ROOT
ATOM      1  C4' PXY d   1       3.918   0.779   3.991  0.00  0.00     0.077 C 
ATOM      2  C1' PXY d   1       4.584   6.000   1.600  0.00  0.00     0.077 C 
ATOM      3  C1  PXY d   1       4.403   4.627   2.217  0.00  0.00    -0.082 A 
ATOM      4  C2  PXY d   1       4.405   4.495   3.533  0.00  0.00     0.003 A 
ATOM      5  C3  PXY d   1       4.275   3.256   4.106  0.00  0.00     0.003 A 
ATOM      6  C4  PXY d   1       4.088   2.148   3.325  0.00  0.00    -0.082 A 
ATOM      7  C5  PXY d   1       4.075   2.275   1.981  0.00  0.00     0.003 A 
ATOM      8  C6  PXY d   1       4.250   3.536   1.418  0.00  0.00     0.003 A 
ENDROOT
TORSDOF 0
ENDMDL
