MODEL 1
REMARK minimizedAffinity 11.6198263
REMARK minimizedRMSD -1
REMARK  0 active torsions:
REMARK  status: ('A' for Active; 'I' for Inactive)
ROOT
ATOM      1  C4' PXY d   1      -1.888  -1.090   1.607  0.00  0.00     0.077 C 
ATOM      2  C1' PXY d   1       3.146   0.726   3.792  0.00  0.00     0.077 C 
ATOM      3  C1  PXY d   1       1.820   0.260   3.224  0.00  0.00    -0.082 A 
ATOM      4  C2  PXY d   1       1.624  -1.027   2.993  0.00  0.00     0.003 A 
ATOM      5  C3  PXY d   1       0.442  -1.462   2.449  0.00  0.00     0.003 A 
ATOM      6  C4  PXY d   1      -0.568  -0.576   2.189  0.00  0.00    -0.082 A 
ATOM      7  C5  PXY d   1      -0.379   0.739   2.432  0.00  0.00     0.003 A 
ATOM      8  C6  PXY d   1       0.842   1.165   2.945  0.00  0.00     0.003 A 
ENDROOT
TORSDOF 0
ENDMDL
