MODEL 1
REMARK minimizedAffinity 13.0061789
REMARK minimizedRMSD -1
REMARK  0 active torsions:
REMARK  status: ('A' for Active; 'I' for Inactive)
ROOT
ATOM      1  C4' PXY d   1       2.282  -5.375  -5.999  0.00  0.00     0.077 C 
ATOM      2  C1' PXY d   1       0.806   0.044  -4.629  0.00  0.00     0.077 C 
ATOM      3  C1  PXY d   1       1.180  -1.380  -4.989  0.00  0.00    -0.082 A 
ATOM      4  C2  PXY d   1       2.365  -1.854  -4.639  0.00  0.00     0.003 A 
ATOM      5  C3  PXY d   1       2.732  -3.129  -4.984  0.00  0.00     0.003 A 
ATOM      6  C4  PXY d   1       1.857  -3.946  -5.649  0.00  0.00    -0.082 A 
ATOM      7  C5  PXY d   1       0.642  -3.474  -6.000  0.00  0.00     0.003 A 
ATOM      8  C6  PXY d   1       0.305  -2.163  -5.676  0.00  0.00     0.003 A 
ENDROOT
TORSDOF 0
ENDMDL
