MODEL 1
REMARK minimizedAffinity 16.7015934
REMARK minimizedRMSD -1
REMARK  0 active torsions:
REMARK  status: ('A' for Active; 'I' for Inactive)
ROOT
ATOM      1  C4' PXY d   1       3.519   0.375  -4.464  0.00  0.00     0.077 C 
ATOM      2  C1' PXY d   1      -0.374  -3.614  -5.999  0.00  0.00     0.077 C 
ATOM      3  C1  PXY d   1       0.638  -2.558  -5.599  0.00  0.00    -0.082 A 
ATOM      4  C2  PXY d   1       1.931  -2.829  -5.676  0.00  0.00     0.003 A 
ATOM      5  C3  PXY d   1       2.859  -1.898  -5.288  0.00  0.00     0.003 A 
ATOM      6  C4  PXY d   1       2.461  -0.657  -4.866  0.00  0.00    -0.082 A 
ATOM      7  C5  PXY d   1       1.145  -0.369  -4.795  0.00  0.00     0.003 A 
ATOM      8  C6  PXY d   1       0.217  -1.343  -5.155  0.00  0.00     0.003 A 
ENDROOT
TORSDOF 0
ENDMDL
