MODEL 1
REMARK minimizedAffinity 7.04101419
REMARK minimizedRMSD -1
REMARK  0 active torsions:
REMARK  status: ('A' for Active; 'I' for Inactive)
ROOT
ATOM      1  C4' PXY d   1       4.878   1.127   4.770  0.00  0.00     0.077 C 
ATOM      2  C1' PXY d   1       4.324   5.999   1.708  0.00  0.00     0.077 C 
ATOM      3  C1  PXY d   1       4.461   4.715   2.503  0.00  0.00    -0.082 A 
ATOM      4  C2  PXY d   1       4.842   4.767   3.769  0.00  0.00     0.003 A 
ATOM      5  C3  PXY d   1       5.001   3.614   4.493  0.00  0.00     0.003 A 
ATOM      6  C4  PXY d   1       4.717   2.398   3.931  0.00  0.00    -0.082 A 
ATOM      7  C5  PXY d   1       4.318   2.337   2.643  0.00  0.00     0.003 A 
ATOM      8  C6  PXY d   1       4.202   3.517   1.913  0.00  0.00     0.003 A 
ENDROOT
TORSDOF 0
ENDMDL
