MODEL 1
REMARK minimizedAffinity 9.93873978
REMARK minimizedRMSD -1
REMARK  0 active torsions:
REMARK  status: ('A' for Active; 'I' for Inactive)
ROOT
ATOM      1  C4' PXY d   1      -2.263  -4.908  -5.285  0.00  0.00     0.077 C 
ATOM      2  C1' PXY d   1       0.679   0.050  -4.870  0.00  0.00     0.077 C 
ATOM      3  C1  PXY d   1      -0.096  -1.249  -4.966  0.00  0.00    -0.082 A 
ATOM      4  C2  PXY d   1       0.242  -2.146  -5.878  0.00  0.00     0.003 A 
ATOM      5  C3  PXY d   1      -0.469  -3.312  -6.000  0.00  0.00     0.003 A 
ATOM      6  C4  PXY d   1      -1.502  -3.586  -5.145  0.00  0.00    -0.082 A 
ATOM      7  C5  PXY d   1      -1.846  -2.681  -4.205  0.00  0.00     0.003 A 
ATOM      8  C6  PXY d   1      -1.139  -1.485  -4.125  0.00  0.00     0.003 A 
ENDROOT
TORSDOF 0
ENDMDL
