MODEL 1
REMARK minimizedAffinity 6.61451387
REMARK minimizedRMSD -1
REMARK  0 active torsions:
REMARK  status: ('A' for Active; 'I' for Inactive)
ROOT
ATOM      1  C4' PXY d   1       2.114  -2.288   5.030  0.00  0.00     0.077 C 
ATOM      2  C1' PXY d   1      -0.872   1.752   2.170  0.00  0.00     0.077 C 
ATOM      3  C1  PXY d   1      -0.081   0.702   2.924  0.00  0.00    -0.082 A 
ATOM      4  C2  PXY d   1      -0.180  -0.570   2.572  0.00  0.00     0.003 A 
ATOM      5  C3  PXY d   1       0.504  -1.536   3.263  0.00  0.00     0.003 A 
ATOM      6  C4  PXY d   1       1.340  -1.192   4.291  0.00  0.00    -0.082 A 
ATOM      7  C5  PXY d   1       1.455   0.104   4.650  0.00  0.00     0.003 A 
ATOM      8  C6  PXY d   1       0.720   1.066   3.962  0.00  0.00     0.003 A 
ENDROOT
TORSDOF 0
ENDMDL
