MODEL 1
REMARK minimizedAffinity 15.6540585
REMARK minimizedRMSD -1
REMARK  0 active torsions:
REMARK  status: ('A' for Active; 'I' for Inactive)
ROOT
ATOM      1  C4' PXY d   1      -2.278  -4.581  -5.739  0.00  0.00     0.077 C 
ATOM      2  C1' PXY d   1       0.697  -0.030  -3.777  0.00  0.00     0.077 C 
ATOM      3  C1  PXY d   1      -0.085  -1.227  -4.279  0.00  0.00    -0.082 A 
ATOM      4  C2  PXY d   1       0.114  -1.668  -5.511  0.00  0.00     0.003 A 
ATOM      5  C3  PXY d   1      -0.608  -2.730  -5.992  0.00  0.00     0.003 A 
ATOM      6  C4  PXY d   1      -1.504  -3.381  -5.187  0.00  0.00    -0.082 A 
ATOM      7  C5  PXY d   1      -1.704  -2.944  -3.925  0.00  0.00     0.003 A 
ATOM      8  C6  PXY d   1      -0.992  -1.838  -3.470  0.00  0.00     0.003 A 
ENDROOT
TORSDOF 0
ENDMDL
