MODEL 1
REMARK minimizedAffinity 15.1855621
REMARK minimizedRMSD -1
REMARK  0 active torsions:
REMARK  status: ('A' for Active; 'I' for Inactive)
ROOT
ATOM      1  C4' PXY d   1       2.721   0.355   3.930  0.00  0.00     0.077 C 
ATOM      2  C1' PXY d   1      -2.253  -2.049   2.228  0.00  0.00     0.077 C 
ATOM      3  C1  PXY d   1      -0.946  -1.429   2.682  0.00  0.00    -0.082 A 
ATOM      4  C2  PXY d   1      -0.783  -0.118   2.605  0.00  0.00     0.003 A 
ATOM      5  C3  PXY d   1       0.404   0.456   2.981  0.00  0.00     0.003 A 
ATOM      6  C4  PXY d   1       1.415  -0.313   3.492  0.00  0.00    -0.082 A 
ATOM      7  C5  PXY d   1       1.252  -1.650   3.584  0.00  0.00     0.003 A 
ATOM      8  C6  PXY d   1       0.055  -2.218   3.158  0.00  0.00     0.003 A 
ENDROOT
TORSDOF 0
ENDMDL
