MODEL 1
REMARK minimizedAffinity -0.542976439
REMARK minimizedRMSD -1
REMARK  1 active torsions:
REMARK  status: ('A' for Active; 'I' for Inactive)
REMARK    1  A    between atoms: N_2  and  C1_3 
ROOT
ATOM      1  C1  UNL d   1      -1.292   0.598  -1.327  0.00  0.00     0.143 A 
ATOM      2  C2  UNL d   1      -0.135   0.966  -2.022  0.00  0.00    -0.057 A 
ATOM      3  C3  UNL d   1       1.083   1.153  -1.358  0.00  0.00     0.033 A 
ATOM      4  C4  UNL d   1       1.159   1.003   0.023  0.00  0.00    -0.042 A 
ATOM      5  C5  UNL d   1       0.016   0.662   0.738  0.00  0.00     0.033 A 
ATOM      6  C6  UNL d   1      -1.196   0.470   0.068  0.00  0.00    -0.057 A 
ENDROOT
BRANCH   1   7
ATOM      7  N   UNL d   1      -2.554   0.493  -1.917  0.00  0.00    -0.732 N 
ATOM      8  C   UNL d   1      -2.688   0.134  -3.313  0.00  0.00     0.284 C 
ATOM      9  H3  UNL d   1      -3.233   0.044  -1.306  0.00  0.00     0.395 HD
ENDBRANCH   1   7
TORSDOF 1
ENDMDL
