MODEL 1
REMARK minimizedAffinity -2.86455679
REMARK minimizedRMSD -1
REMARK  1 active torsions:
REMARK  status: ('A' for Active; 'I' for Inactive)
REMARK    1  A    between atoms: N_2  and  C1_3 
ROOT
ATOM      1  C1  UNL d   1      -0.094   0.194   0.386  0.00  0.00     0.143 A 
ATOM      2  C2  UNL d   1       0.951   1.120   0.295  0.00  0.00    -0.057 A 
ATOM      3  C3  UNL d   1       2.192   0.875   0.895  0.00  0.00     0.033 A 
ATOM      4  C4  UNL d   1       2.402  -0.291   1.624  0.00  0.00    -0.042 A 
ATOM      5  C5  UNL d   1       1.369  -1.214   1.749  0.00  0.00     0.033 A 
ATOM      6  C6  UNL d   1       0.134  -0.967   1.141  0.00  0.00    -0.057 A 
ENDROOT
BRANCH   1   7
ATOM      7  N   UNL d   1      -1.381   0.423  -0.105  0.00  0.00    -0.732 N 
ATOM      8  C   UNL d   1      -1.700   0.155  -1.491  0.00  0.00     0.284 C 
ATOM      9  H3  UNL d   1      -2.104   0.136   0.551  0.00  0.00     0.395 HD
ENDBRANCH   1   7
TORSDOF 1
ENDMDL
