MODEL 1
REMARK minimizedAffinity -4.32331944
REMARK minimizedRMSD -1
REMARK  1 active torsions:
REMARK  status: ('A' for Active; 'I' for Inactive)
REMARK    1  A    between atoms: N_2  and  C1_3 
ROOT
ATOM      1  C1  UNL d   1       0.286   0.118  -0.145  0.00  0.00     0.143 A 
ATOM      2  C2  UNL d   1       0.850  -0.866  -0.964  0.00  0.00    -0.057 A 
ATOM      3  C3  UNL d   1       2.199  -1.224  -0.846  0.00  0.00     0.033 A 
ATOM      4  C4  UNL d   1       3.017  -0.581   0.078  0.00  0.00    -0.042 A 
ATOM      5  C5  UNL d   1       2.484   0.418   0.885  0.00  0.00     0.033 A 
ATOM      6  C6  UNL d   1       1.135   0.766   0.767  0.00  0.00    -0.057 A 
ENDROOT
BRANCH   1   7
ATOM      7  N   UNL d   1      -1.023   0.587  -0.281  0.00  0.00    -0.732 N 
ATOM      8  C   UNL d   1      -1.723   0.462  -1.541  0.00  0.00     0.284 C 
ATOM      9  H3  UNL d   1      -1.595   0.382   0.535  0.00  0.00     0.395 HD
ENDBRANCH   1   7
TORSDOF 1
ENDMDL
