MODEL 1
REMARK minimizedAffinity -4.62246561
REMARK minimizedRMSD -1
REMARK  1 active torsions:
REMARK  status: ('A' for Active; 'I' for Inactive)
REMARK    1  A    between atoms: N_2  and  C1_3 
ROOT
ATOM      1  C1  UNL d   1      -0.453   0.493   0.008  0.00  0.00     0.143 A 
ATOM      2  C2  UNL d   1      -0.238  -0.771   0.568  0.00  0.00    -0.057 A 
ATOM      3  C3  UNL d   1       1.011  -1.131   1.090  0.00  0.00     0.033 A 
ATOM      4  C4  UNL d   1       2.078  -0.241   1.035  0.00  0.00    -0.042 A 
ATOM      5  C5  UNL d   1       1.894   1.012   0.461  0.00  0.00     0.033 A 
ATOM      6  C6  UNL d   1       0.643   1.369  -0.053  0.00  0.00    -0.057 A 
ENDROOT
BRANCH   1   7
ATOM      7  N   UNL d   1      -1.642   0.875  -0.616  0.00  0.00    -0.732 N 
ATOM      8  C   UNL d   1      -2.125   0.165  -1.781  0.00  0.00     0.284 C 
ATOM      9  H3  UNL d   1      -2.370   1.121   0.052  0.00  0.00     0.395 HD
ENDBRANCH   1   7
TORSDOF 1
ENDMDL
