MODEL 1
REMARK minimizedAffinity -0.872247875
REMARK minimizedRMSD -1
REMARK  1 active torsions:
REMARK  status: ('A' for Active; 'I' for Inactive)
REMARK    1  A    between atoms: N_2  and  C1_3 
ROOT
ATOM      1  C1  UNL d   1      -0.213   0.990   0.099  0.00  0.00     0.143 A 
ATOM      2  C2  UNL d   1       0.259   1.386   1.355  0.00  0.00    -0.057 A 
ATOM      3  C3  UNL d   1       1.627   1.379   1.653  0.00  0.00     0.033 A 
ATOM      4  C4  UNL d   1       2.549   0.946   0.705  0.00  0.00    -0.042 A 
ATOM      5  C5  UNL d   1       2.101   0.524  -0.541  0.00  0.00     0.033 A 
ATOM      6  C6  UNL d   1       0.734   0.540  -0.835  0.00  0.00    -0.057 A 
ENDROOT
BRANCH   1   7
ATOM      7  N   UNL d   1      -1.567   0.881  -0.224  0.00  0.00    -0.732 N 
ATOM      8  C   UNL d   1      -1.983   0.669  -1.594  0.00  0.00     0.284 C 
ATOM      9  H3  UNL d   1      -2.087   0.333   0.458  0.00  0.00     0.395 HD
ENDBRANCH   1   7
TORSDOF 1
ENDMDL
