MODEL 1
REMARK minimizedAffinity 2.39830732
REMARK minimizedRMSD -1
REMARK  1 active torsions:
REMARK  status: ('A' for Active; 'I' for Inactive)
REMARK    1  A    between atoms: C1_2  and  C2_3 
ROOT
ATOM      1  C2  UNL d   1       0.534   0.209   1.815  0.00  0.00    -0.077 A 
ATOM      2  C3  UNL d   1       0.319   1.567   2.087  0.00  0.00     0.002 A 
ATOM      3  C4  UNL d   1      -0.821   2.212   1.604  0.00  0.00     0.002 A 
ATOM      4  C5  UNL d   1      -1.757   1.507   0.851  0.00  0.00    -0.004 A 
ATOM      5  C6  UNL d   1      -1.551   0.156   0.573  0.00  0.00     0.002 A 
ATOM      6  C7  UNL d   1      -0.411  -0.490   1.054  0.00  0.00     0.002 A 
ENDROOT
BRANCH   1   7
ATOM      7  C1  UNL d   1       1.739  -0.501   2.376  0.00  0.00     0.055 C 
ATOM      8  C   UNL d   1       1.556  -0.819   3.853  0.00  0.00     0.019 C 
ENDBRANCH   1   7
TORSDOF 1
ENDMDL
