MODEL 1
REMARK minimizedAffinity -1.70261192
REMARK minimizedRMSD -1
REMARK  1 active torsions:
REMARK  status: ('A' for Active; 'I' for Inactive)
REMARK    1  A    between atoms: C1_2  and  C2_3 
ROOT
ATOM      1  C2  UNL d   1      -3.620   1.383   3.999  0.00  0.00    -0.077 A 
ATOM      2  C3  UNL d   1      -3.164   2.221   5.026  0.00  0.00     0.002 A 
ATOM      3  C4  UNL d   1      -4.051   2.700   5.992  0.00  0.00     0.002 A 
ATOM      4  C5  UNL d   1      -5.396   2.344   5.943  0.00  0.00    -0.004 A 
ATOM      5  C6  UNL d   1      -5.860   1.512   4.924  0.00  0.00     0.002 A 
ATOM      6  C7  UNL d   1      -4.975   1.033   3.957  0.00  0.00     0.002 A 
ENDROOT
BRANCH   1   7
ATOM      7  C1  UNL d   1      -2.656   0.825   2.984  0.00  0.00     0.055 C 
ATOM      8  C   UNL d   1      -1.486   1.771   2.754  0.00  0.00     0.019 C 
ENDBRANCH   1   7
TORSDOF 1
ENDMDL
