MODEL 1
REMARK minimizedAffinity -2.11462903
REMARK minimizedRMSD -1
REMARK  1 active torsions:
REMARK  status: ('A' for Active; 'I' for Inactive)
REMARK    1  A    between atoms: C1_2  and  C2_3 
ROOT
ATOM      1  C2  UNL d   1      -1.079   1.774   2.010  0.00  0.00    -0.077 A 
ATOM      2  C3  UNL d   1      -0.588   0.465   1.913  0.00  0.00     0.002 A 
ATOM      3  C4  UNL d   1      -1.272  -0.592   2.516  0.00  0.00     0.002 A 
ATOM      4  C5  UNL d   1      -2.452  -0.352   3.217  0.00  0.00    -0.004 A 
ATOM      5  C6  UNL d   1      -2.947   0.947   3.321  0.00  0.00     0.002 A 
ATOM      6  C7  UNL d   1      -2.265   2.006   2.720  0.00  0.00     0.002 A 
ENDROOT
BRANCH   1   7
ATOM      7  C1  UNL d   1      -0.370   2.909   1.319  0.00  0.00     0.055 C 
ATOM      8  C   UNL d   1       0.438   2.413   0.128  0.00  0.00     0.019 C 
ENDBRANCH   1   7
TORSDOF 1
ENDMDL
