MODEL 1
REMARK minimizedAffinity -3.91286659
REMARK minimizedRMSD -1
REMARK  1 active torsions:
REMARK  status: ('A' for Active; 'I' for Inactive)
REMARK    1  A    between atoms: C1_2  and  C2_3 
ROOT
ATOM      1  C2  UNL d   1      -1.137   1.409   2.101  0.00  0.00    -0.077 A 
ATOM      2  C3  UNL d   1      -1.596   0.111   1.837  0.00  0.00     0.002 A 
ATOM      3  C4  UNL d   1      -0.724  -0.859   1.339  0.00  0.00     0.002 A 
ATOM      4  C5  UNL d   1       0.612  -0.543   1.106  0.00  0.00    -0.004 A 
ATOM      5  C6  UNL d   1       1.078   0.746   1.363  0.00  0.00     0.002 A 
ATOM      6  C7  UNL d   1       0.208   1.717   1.860  0.00  0.00     0.002 A 
ENDROOT
BRANCH   1   7
ATOM      7  C1  UNL d   1      -2.065   2.443   2.685  0.00  0.00     0.055 C 
ATOM      8  C   UNL d   1      -3.258   1.793   3.369  0.00  0.00     0.019 C 
ENDBRANCH   1   7
TORSDOF 1
ENDMDL
