MODEL 1
REMARK minimizedAffinity -2.82138205
REMARK minimizedRMSD -1
REMARK  1 active torsions:
REMARK  status: ('A' for Active; 'I' for Inactive)
REMARK    1  A    between atoms: C1_2  and  C2_3 
ROOT
ATOM      1  C2  UNL d   1      -1.494   1.475   2.198  0.00  0.00    -0.077 A 
ATOM      2  C3  UNL d   1      -1.676   0.132   2.559  0.00  0.00     0.002 A 
ATOM      3  C4  UNL d   1      -0.738  -0.832   2.185  0.00  0.00     0.002 A 
ATOM      4  C5  UNL d   1       0.388  -0.465   1.452  0.00  0.00    -0.004 A 
ATOM      5  C6  UNL d   1       0.577   0.868   1.087  0.00  0.00     0.002 A 
ATOM      6  C7  UNL d   1      -0.359   1.833   1.459  0.00  0.00     0.002 A 
ENDROOT
BRANCH   1   7
ATOM      7  C1  UNL d   1      -2.478   2.525   2.643  0.00  0.00     0.055 C 
ATOM      8  C   UNL d   1      -3.472   1.962   3.649  0.00  0.00     0.019 C 
ENDBRANCH   1   7
TORSDOF 1
ENDMDL
