MODEL 1
REMARK minimizedAffinity 0.66616416
REMARK minimizedRMSD -1
REMARK  1 active torsions:
REMARK  status: ('A' for Active; 'I' for Inactive)
REMARK    1  A    between atoms: C1_2  and  C2_3 
ROOT
ATOM      1  C2  UNL d   1      -1.990  -1.460   2.718  0.00  0.00    -0.077 A 
ATOM      2  C3  UNL d   1      -3.376  -1.291   2.846  0.00  0.00     0.002 A 
ATOM      3  C4  UNL d   1      -4.123  -2.165   3.638  0.00  0.00     0.002 A 
ATOM      4  C5  UNL d   1      -3.494  -3.211   4.310  0.00  0.00    -0.004 A 
ATOM      5  C6  UNL d   1      -2.116  -3.388   4.187  0.00  0.00     0.002 A 
ATOM      6  C7  UNL d   1      -1.368  -2.516   3.395  0.00  0.00     0.002 A 
ENDROOT
BRANCH   1   7
ATOM      7  C1  UNL d   1      -1.175  -0.489   1.904  0.00  0.00     0.055 C 
ATOM      8  C   UNL d   1      -1.266   0.921   2.470  0.00  0.00     0.019 C 
ENDBRANCH   1   7
TORSDOF 1
ENDMDL
