MODEL 1
REMARK minimizedAffinity 0.289954126
REMARK minimizedRMSD -1
REMARK  1 active torsions:
REMARK  status: ('A' for Active; 'I' for Inactive)
REMARK    1  A    between atoms: C1_2  and  C2_3 
ROOT
ATOM      1  C2  UNL d   1      -2.990  -3.883  -2.014  0.00  0.00    -0.077 A 
ATOM      2  C3  UNL d   1      -3.362  -3.272  -0.809  0.00  0.00     0.002 A 
ATOM      3  C4  UNL d   1      -3.529  -1.887  -0.741  0.00  0.00     0.002 A 
ATOM      4  C5  UNL d   1      -3.332  -1.104  -1.876  0.00  0.00    -0.004 A 
ATOM      5  C6  UNL d   1      -2.960  -1.702  -3.080  0.00  0.00     0.002 A 
ATOM      6  C7  UNL d   1      -2.791  -3.086  -3.149  0.00  0.00     0.002 A 
ENDROOT
BRANCH   1   7
ATOM      7  C1  UNL d   1      -2.857  -5.381  -2.101  0.00  0.00     0.055 C 
ATOM      8  C   UNL d   1      -2.653  -6.000  -0.726  0.00  0.00     0.019 C 
ENDBRANCH   1   7
TORSDOF 1
ENDMDL
