MODEL 1
REMARK minimizedAffinity -5.70388031
REMARK minimizedRMSD -1
REMARK  0 active torsions:
REMARK  status: ('A' for Active; 'I' for Inactive)
ROOT
ATOM      1  C1  DEN d   1      -1.441   0.484   2.438  0.00  0.00     0.130 A 
ATOM      2  C2  DEN d   1      -2.278   0.639   1.252  0.00  0.00    -0.031 A 
ATOM      3  C3  DEN d   1      -1.485   0.227   0.076  0.00  0.00     0.027 A 
ATOM      4  C4  DEN d   1       0.944  -0.635  -0.021  0.00  0.00     0.027 A 
ATOM      5  C5  DEN d   1       2.063  -0.926   0.728  0.00  0.00    -0.003 A 
ATOM      6  C6  DEN d   1       2.103  -0.737   2.084  0.00  0.00     0.001 A 
ATOM      7  C7  DEN d   1       0.988  -0.286   2.740  0.00  0.00     0.017 A 
ATOM      8  C8  DEN d   1      -0.141   0.017   1.990  0.00  0.00    -0.094 A 
ATOM      9  C9  DEN d   1      -0.166  -0.192   0.622  0.00  0.00    -0.072 A 
ENDROOT
TORSDOF 0
ENDMDL
