MODEL 1
REMARK minimizedAffinity -6.86948681
REMARK minimizedRMSD -1
REMARK  0 active torsions:
REMARK  status: ('A' for Active; 'I' for Inactive)
ROOT
ATOM      1  C1  DEN d   1       0.656  -0.708  -0.302  0.00  0.00     0.130 A 
ATOM      2  C2  DEN d   1      -0.581  -0.392  -1.011  0.00  0.00    -0.031 A 
ATOM      3  C3  DEN d   1      -1.475   0.318  -0.075  0.00  0.00     0.027 A 
ATOM      4  C4  DEN d   1      -1.065   0.960   2.390  0.00  0.00     0.027 A 
ATOM      5  C5  DEN d   1      -0.167   0.894   3.432  0.00  0.00    -0.003 A 
ATOM      6  C6  DEN d   1       1.044   0.264   3.315  0.00  0.00     0.001 A 
ATOM      7  C7  DEN d   1       1.409  -0.285   2.114  0.00  0.00     0.017 A 
ATOM      8  C8  DEN d   1       0.507  -0.229   1.060  0.00  0.00    -0.094 A 
ATOM      9  C9  DEN d   1      -0.708   0.423   1.196  0.00  0.00    -0.072 A 
ENDROOT
TORSDOF 0
ENDMDL
