MODEL 1
REMARK minimizedAffinity -6.76054049
REMARK minimizedRMSD -1
REMARK  0 active torsions:
REMARK  status: ('A' for Active; 'I' for Inactive)
ROOT
ATOM      1  C1  DEN d   1      -0.462  -0.172   0.072  0.00  0.00     0.130 A 
ATOM      2  C2  DEN d   1       0.751  -0.840  -0.392  0.00  0.00    -0.031 A 
ATOM      3  C3  DEN d   1       1.754  -0.770   0.690  0.00  0.00     0.027 A 
ATOM      4  C4  DEN d   1       1.546   0.298   3.028  0.00  0.00     0.027 A 
ATOM      5  C5  DEN d   1       0.710   0.993   3.874  0.00  0.00    -0.003 A 
ATOM      6  C6  DEN d   1      -0.551   1.376   3.503  0.00  0.00     0.001 A 
ATOM      7  C7  DEN d   1      -1.031   1.026   2.269  0.00  0.00     0.017 A 
ATOM      8  C8  DEN d   1      -0.193   0.331   1.407  0.00  0.00    -0.094 A 
ATOM      9  C9  DEN d   1       1.075  -0.058   1.806  0.00  0.00    -0.072 A 
ENDROOT
TORSDOF 0
ENDMDL
