MODEL 1
REMARK minimizedAffinity -4.20270491
REMARK minimizedRMSD -1
REMARK  0 active torsions:
REMARK  status: ('A' for Active; 'I' for Inactive)
ROOT
ATOM      1  C1  DEN d   1       1.277  -0.065  -0.268  0.00  0.00     0.130 A 
ATOM      2  C2  DEN d   1       0.493  -1.102  -0.932  0.00  0.00    -0.031 A 
ATOM      3  C3  DEN d   1      -0.887  -1.036  -0.409  0.00  0.00     0.027 A 
ATOM      4  C4  DEN d   1      -1.879   0.566   1.352  0.00  0.00     0.027 A 
ATOM      5  C5  DEN d   1      -1.598   1.609   2.205  0.00  0.00    -0.003 A 
ATOM      6  C6  DEN d   1      -0.340   2.141   2.319  0.00  0.00     0.001 A 
ATOM      7  C7  DEN d   1       0.673   1.661   1.532  0.00  0.00     0.017 A 
ATOM      8  C8  DEN d   1       0.398   0.604   0.674  0.00  0.00    -0.094 A 
ATOM      9  C9  DEN d   1      -0.882   0.088   0.565  0.00  0.00    -0.072 A 
ENDROOT
TORSDOF 0
ENDMDL
