MODEL 1
REMARK minimizedAffinity -1.96208048
REMARK minimizedRMSD -1
REMARK  0 active torsions:
REMARK  status: ('A' for Active; 'I' for Inactive)
ROOT
ATOM      1  C1  DEN d   1      -1.741   0.964  -1.275  0.00  0.00     0.130 A 
ATOM      2  C2  DEN d   1      -1.702   0.143  -0.067  0.00  0.00    -0.031 A 
ATOM      3  C3  DEN d   1      -0.474  -0.676  -0.111  0.00  0.00     0.027 A 
ATOM      4  C4  DEN d   1       1.363  -0.750  -1.920  0.00  0.00     0.027 A 
ATOM      5  C5  DEN d   1       1.762  -0.241  -3.136  0.00  0.00    -0.003 A 
ATOM      6  C6  DEN d   1       1.011   0.672  -3.828  0.00  0.00     0.001 A 
ATOM      7  C7  DEN d   1      -0.158   1.139  -3.286  0.00  0.00     0.017 A 
ATOM      8  C8  DEN d   1      -0.570   0.625  -2.064  0.00  0.00    -0.094 A 
ATOM      9  C9  DEN d   1       0.209  -0.288  -1.375  0.00  0.00    -0.072 A 
ENDROOT
TORSDOF 0
ENDMDL
