MODEL 1
REMARK minimizedAffinity -4.38140678
REMARK minimizedRMSD -1
REMARK  0 active torsions:
REMARK  status: ('A' for Active; 'I' for Inactive)
ROOT
ATOM      1  C1  DEN d   1       0.900   1.127   2.334  0.00  0.00     0.130 A 
ATOM      2  C2  DEN d   1      -0.409   1.395   2.923  0.00  0.00    -0.031 A 
ATOM      3  C3  DEN d   1      -1.440   1.000   1.943  0.00  0.00     0.027 A 
ATOM      4  C4  DEN d   1      -1.139  -0.003  -0.414  0.00  0.00     0.027 A 
ATOM      5  C5  DEN d   1      -0.215  -0.401  -1.355  0.00  0.00    -0.003 A 
ATOM      6  C6  DEN d   1       1.134  -0.288  -1.147  0.00  0.00     0.001 A 
ATOM      7  C7  DEN d   1       1.599   0.195   0.047  0.00  0.00     0.017 A 
ATOM      8  C8  DEN d   1       0.673   0.606   0.998  0.00  0.00    -0.094 A 
ATOM      9  C9  DEN d   1      -0.686   0.472   0.774  0.00  0.00    -0.072 A 
ENDROOT
TORSDOF 0
ENDMDL
