MODEL 1
REMARK minimizedAffinity -5.90710783
REMARK minimizedRMSD -1
REMARK  0 active torsions:
REMARK  status: ('A' for Active; 'I' for Inactive)
ROOT
ATOM      1  C1  DEN d   1       2.087  -0.376   1.561  0.00  0.00     0.130 A 
ATOM      2  C2  DEN d   1       2.238  -1.417   0.549  0.00  0.00    -0.031 A 
ATOM      3  C3  DEN d   1       0.946  -1.564  -0.151  0.00  0.00     0.027 A 
ATOM      4  C4  DEN d   1      -1.260  -0.283   0.228  0.00  0.00     0.027 A 
ATOM      5  C5  DEN d   1      -1.878   0.688   0.985  0.00  0.00    -0.003 A 
ATOM      6  C6  DEN d   1      -1.234   1.343   2.001  0.00  0.00     0.001 A 
ATOM      7  C7  DEN d   1       0.083   1.067   2.258  0.00  0.00     0.017 A 
ATOM      8  C8  DEN d   1       0.711   0.084   1.504  0.00  0.00    -0.094 A 
ATOM      9  C9  DEN d   1       0.046  -0.558   0.474  0.00  0.00    -0.072 A 
ENDROOT
TORSDOF 0
ENDMDL
