MODEL 1
REMARK minimizedAffinity -4.42064476
REMARK minimizedRMSD -1
REMARK  0 active torsions:
REMARK  status: ('A' for Active; 'I' for Inactive)
ROOT
ATOM      1  C2' OXE d   1       0.377  -0.717  -0.834  0.00  0.00     0.078 C 
ATOM      2  C1' OXE d   1       0.847  -0.649   1.933  0.00  0.00     0.078 C 
ATOM      3  C1  OXE d   1       0.100   0.507   1.317  0.00  0.00    -0.078 A 
ATOM      4  C2  OXE d   1      -0.085   0.488  -0.044  0.00  0.00    -0.078 A 
ATOM      5  C3  OXE d   1      -0.815   1.504  -0.655  0.00  0.00     0.003 A 
ATOM      6  C4  OXE d   1      -1.230   2.620   0.081  0.00  0.00    -0.002 A 
ATOM      7  C5  OXE d   1      -1.018   2.678   1.462  0.00  0.00    -0.002 A 
ATOM      8  C6  OXE d   1      -0.393   1.613   2.101  0.00  0.00     0.003 A 
ENDROOT
TORSDOF 0
ENDMDL
