MODEL 1
REMARK minimizedAffinity -2.94434738
REMARK minimizedRMSD -1
REMARK  0 active torsions:
REMARK  status: ('A' for Active; 'I' for Inactive)
ROOT
ATOM      1  C2' OXE d   1      -0.719   3.768   0.421  0.00  0.00     0.078 C 
ATOM      2  C1' OXE d   1      -0.186   2.044  -1.730  0.00  0.00     0.078 C 
ATOM      3  C1  OXE d   1      -0.158   1.462  -0.338  0.00  0.00    -0.078 A 
ATOM      4  C2  OXE d   1      -0.374   2.323   0.711  0.00  0.00    -0.078 A 
ATOM      5  C3  OXE d   1      -0.414   1.828   2.011  0.00  0.00     0.003 A 
ATOM      6  C4  OXE d   1      -0.085   0.492   2.272  0.00  0.00    -0.002 A 
ATOM      7  C5  OXE d   1       0.178  -0.392   1.220  0.00  0.00    -0.002 A 
ATOM      8  C6  OXE d   1       0.103   0.066  -0.090  0.00  0.00     0.003 A 
ENDROOT
TORSDOF 0
ENDMDL
