MODEL 1
REMARK minimizedAffinity -3.63118458
REMARK minimizedRMSD -1
REMARK  0 active torsions:
REMARK  status: ('A' for Active; 'I' for Inactive)
ROOT
ATOM      1  C2' OXE d   1       0.444   0.075   0.047  0.00  0.00     0.078 C 
ATOM      2  C1' OXE d   1       1.526  -0.373  -2.504  0.00  0.00     0.078 C 
ATOM      3  C1  OXE d   1       0.588  -1.414  -1.945  0.00  0.00    -0.078 A 
ATOM      4  C2  OXE d   1       0.099  -1.209  -0.677  0.00  0.00    -0.078 A 
ATOM      5  C3  OXE d   1      -0.813  -2.110  -0.136  0.00  0.00     0.003 A 
ATOM      6  C4  OXE d   1      -1.118  -3.300  -0.808  0.00  0.00    -0.002 A 
ATOM      7  C5  OXE d   1      -0.600  -3.547  -2.084  0.00  0.00    -0.002 A 
ATOM      8  C6  OXE d   1       0.218  -2.596  -2.683  0.00  0.00     0.003 A 
ENDROOT
TORSDOF 0
ENDMDL
