MODEL 1
REMARK minimizedAffinity 10.5611391
REMARK minimizedRMSD -1
REMARK  0 active torsions:
REMARK  status: ('A' for Active; 'I' for Inactive)
ROOT
ATOM      1  C2' OXE d   1       0.053  -1.239   1.036  0.00  0.00     0.078 C 
ATOM      2  C1' OXE d   1      -0.132   0.770  -0.916  0.00  0.00     0.078 C 
ATOM      3  C1  OXE d   1       0.199   1.188   0.495  0.00  0.00    -0.078 A 
ATOM      4  C2  OXE d   1       0.242   0.203   1.453  0.00  0.00    -0.078 A 
ATOM      5  C3  OXE d   1       0.597   0.527   2.759  0.00  0.00     0.003 A 
ATOM      6  C4  OXE d   1       0.760   1.865   3.138  0.00  0.00    -0.002 A 
ATOM      7  C5  OXE d   1       0.681   2.887   2.187  0.00  0.00    -0.002 A 
ATOM      8  C6  OXE d   1       0.444   2.563   0.855  0.00  0.00     0.003 A 
ENDROOT
TORSDOF 0
ENDMDL
