MODEL 1
REMARK minimizedAffinity 1.78176355
REMARK minimizedRMSD -1
REMARK  0 active torsions:
REMARK  status: ('A' for Active; 'I' for Inactive)
ROOT
ATOM      1  C4' PXY d   1      -2.732  -2.662  -4.430  0.00  0.00     0.077 C 
ATOM      2  C1' PXY d   1      -0.796  -0.756   0.673  0.00  0.00     0.077 C 
ATOM      3  C1  PXY d   1      -1.303  -1.268  -0.661  0.00  0.00    -0.082 A 
ATOM      4  C2  PXY d   1      -1.158  -0.524  -1.746  0.00  0.00     0.003 A 
ATOM      5  C3  PXY d   1      -1.639  -0.957  -2.954  0.00  0.00     0.003 A 
ATOM      6  C4  PXY d   1      -2.227  -2.189  -3.064  0.00  0.00    -0.082 A 
ATOM      7  C5  PXY d   1      -2.369  -2.959  -1.964  0.00  0.00     0.003 A 
ATOM      8  C6  PXY d   1      -1.911  -2.483  -0.739  0.00  0.00     0.003 A 
ENDROOT
TORSDOF 0
ENDMDL
