MODEL 1
REMARK minimizedAffinity -3.75446391
REMARK minimizedRMSD -1
REMARK  0 active torsions:
REMARK  status: ('A' for Active; 'I' for Inactive)
ROOT
ATOM      1  C4' PXY d   1      -5.657   6.000   6.000  0.00  0.00     0.077 C 
ATOM      2  C1' PXY d   1      -4.085   1.839   2.308  0.00  0.00     0.077 C 
ATOM      3  C1  PXY d   1      -4.493   2.939   3.268  0.00  0.00    -0.082 A 
ATOM      4  C2  PXY d   1      -4.575   2.681   4.563  0.00  0.00     0.003 A 
ATOM      5  C3  PXY d   1      -4.973   3.655   5.441  0.00  0.00     0.003 A 
ATOM      6  C4  PXY d   1      -5.240   4.922   4.995  0.00  0.00    -0.082 A 
ATOM      7  C5  PXY d   1      -5.149   5.197   3.677  0.00  0.00     0.003 A 
ATOM      8  C6  PXY d   1      -4.782   4.183   2.797  0.00  0.00     0.003 A 
ENDROOT
TORSDOF 0
ENDMDL
