MODEL 1
REMARK minimizedAffinity 3.31786466
REMARK minimizedRMSD -1
REMARK  0 active torsions:
REMARK  status: ('A' for Active; 'I' for Inactive)
ROOT
ATOM      1  C4' PXY d   1       3.648   3.783  -0.775  0.00  0.00     0.077 C 
ATOM      2  C1' PXY d   1       0.831   2.223   4.026  0.00  0.00     0.077 C 
ATOM      3  C1  PXY d   1       1.569   2.620   2.762  0.00  0.00    -0.082 A 
ATOM      4  C2  PXY d   1       2.419   3.634   2.792  0.00  0.00     0.003 A 
ATOM      5  C3  PXY d   1       3.070   4.026   1.651  0.00  0.00     0.003 A 
ATOM      6  C4  PXY d   1       2.889   3.341   0.479  0.00  0.00    -0.082 A 
ATOM      7  C5  PXY d   1       2.031   2.300   0.444  0.00  0.00     0.003 A 
ATOM      8  C6  PXY d   1       1.349   1.943   1.603  0.00  0.00     0.003 A 
ENDROOT
TORSDOF 0
ENDMDL
