MODEL 1
REMARK minimizedAffinity 0.924172223
REMARK minimizedRMSD -1
REMARK  0 active torsions:
REMARK  status: ('A' for Active; 'I' for Inactive)
ROOT
ATOM      1  C4' PXY d   1      -5.269   4.180  -0.828  0.00  0.00     0.077 C 
ATOM      2  C1' PXY d   1      -4.814   5.998   4.641  0.00  0.00     0.077 C 
ATOM      3  C1  PXY d   1      -4.939   5.510   3.211  0.00  0.00    -0.082 A 
ATOM      4  C2  PXY d   1      -4.126   5.989   2.283  0.00  0.00     0.003 A 
ATOM      5  C3  PXY d   1      -4.246   5.583   0.979  0.00  0.00     0.003 A 
ATOM      6  C4  PXY d   1      -5.173   4.636   0.631  0.00  0.00    -0.082 A 
ATOM      7  C5  PXY d   1      -5.999   4.135   1.574  0.00  0.00     0.003 A 
ATOM      8  C6  PXY d   1      -5.888   4.591   2.884  0.00  0.00     0.003 A 
ENDROOT
TORSDOF 0
ENDMDL
