MODEL 1
REMARK minimizedAffinity 0.655015051
REMARK minimizedRMSD -1
REMARK  0 active torsions:
REMARK  status: ('A' for Active; 'I' for Inactive)
ROOT
ATOM      1  C4' PXY d   1      -3.187  -3.575  -2.641  0.00  0.00     0.077 C 
ATOM      2  C1' PXY d   1      -0.047   1.145  -1.509  0.00  0.00     0.077 C 
ATOM      3  C1  PXY d   1      -0.878  -0.086  -1.814  0.00  0.00    -0.082 A 
ATOM      4  C2  PXY d   1      -0.948  -1.065  -0.926  0.00  0.00     0.003 A 
ATOM      5  C3  PXY d   1      -1.669  -2.199  -1.200  0.00  0.00     0.003 A 
ATOM      6  C4  PXY d   1      -2.368  -2.310  -2.372  0.00  0.00    -0.082 A 
ATOM      7  C5  PXY d   1      -2.310  -1.312  -3.278  0.00  0.00     0.003 A 
ATOM      8  C6  PXY d   1      -1.539  -0.186  -2.999  0.00  0.00     0.003 A 
ENDROOT
TORSDOF 0
ENDMDL
