MODEL 1
REMARK minimizedAffinity 0.987786829
REMARK minimizedRMSD -1
REMARK  0 active torsions:
REMARK  status: ('A' for Active; 'I' for Inactive)
ROOT
ATOM      1  C4' PXY d   1       2.054  -0.174  -5.318  0.00  0.00     0.077 C 
ATOM      2  C1' PXY d   1       0.001   0.299   0.065  0.00  0.00     0.077 C 
ATOM      3  C1  PXY d   1       0.551   0.177  -1.342  0.00  0.00    -0.082 A 
ATOM      4  C2  PXY d   1      -0.243   0.399  -2.376  0.00  0.00     0.003 A 
ATOM      5  C3  PXY d   1       0.230   0.262  -3.656  0.00  0.00     0.003 A 
ATOM      6  C4  PXY d   1       1.544  -0.054  -3.879  0.00  0.00    -0.082 A 
ATOM      7  C5  PXY d   1       2.363  -0.272  -2.829  0.00  0.00     0.003 A 
ATOM      8  C6  PXY d   1       1.853  -0.168  -1.538  0.00  0.00     0.003 A 
ENDROOT
TORSDOF 0
ENDMDL
