MODEL 1
REMARK minimizedAffinity 1.28761256
REMARK minimizedRMSD -1
REMARK  0 active torsions:
REMARK  status: ('A' for Active; 'I' for Inactive)
ROOT
ATOM      1  C4' PXY d   1       3.266  -0.333  -1.544  0.00  0.00     0.077 C 
ATOM      2  C1' PXY d   1      -2.277  -0.133   0.084  0.00  0.00     0.077 C 
ATOM      3  C1  PXY d   1      -0.819  -0.184  -0.330  0.00  0.00    -0.082 A 
ATOM      4  C2  PXY d   1      -0.480   0.138  -1.568  0.00  0.00     0.003 A 
ATOM      5  C3  PXY d   1       0.830   0.067  -1.968  0.00  0.00     0.003 A 
ATOM      6  C4  PXY d   1       1.808  -0.287  -1.079  0.00  0.00    -0.082 A 
ATOM      7  C5  PXY d   1       1.471  -0.607   0.189  0.00  0.00     0.003 A 
ATOM      8  C6  PXY d   1       0.131  -0.568   0.564  0.00  0.00     0.003 A 
ENDROOT
TORSDOF 0
ENDMDL
