MODEL 1
REMARK minimizedAffinity 6.96432638
REMARK minimizedRMSD -1
REMARK  0 active torsions:
REMARK  status: ('A' for Active; 'I' for Inactive)
ROOT
ATOM      1  C4' PXY d   1      -4.632   5.805   4.484  0.00  0.00     0.077 C 
ATOM      2  C1' PXY d   1      -4.947   5.620  -1.285  0.00  0.00     0.077 C 
ATOM      3  C1  PXY d   1      -4.875   5.676   0.228  0.00  0.00    -0.082 A 
ATOM      4  C2  PXY d   1      -3.717   5.476   0.836  0.00  0.00     0.003 A 
ATOM      5  C3  PXY d   1      -3.640   5.492   2.205  0.00  0.00     0.003 A 
ATOM      6  C4  PXY d   1      -4.750   5.767   2.958  0.00  0.00    -0.082 A 
ATOM      7  C5  PXY d   1      -5.933   5.982   2.345  0.00  0.00     0.003 A 
ATOM      8  C6  PXY d   1      -5.998   5.922   0.956  0.00  0.00     0.003 A 
ENDROOT
TORSDOF 0
ENDMDL
