MODEL 1
REMARK minimizedAffinity 5.91913986
REMARK minimizedRMSD -1
REMARK  0 active torsions:
REMARK  status: ('A' for Active; 'I' for Inactive)
ROOT
ATOM      1  C4' PXY d   1       1.121  -0.380  -0.300  0.00  0.00     0.077 C 
ATOM      2  C1' PXY d   1       2.014   0.005  -5.999  0.00  0.00     0.077 C 
ATOM      3  C1  PXY d   1       1.789  -0.105  -4.503  0.00  0.00    -0.082 A 
ATOM      4  C2  PXY d   1       0.628   0.266  -3.987  0.00  0.00     0.003 A 
ATOM      5  C3  PXY d   1       0.419   0.203  -2.634  0.00  0.00     0.003 A 
ATOM      6  C4  PXY d   1       1.389  -0.295  -1.805  0.00  0.00    -0.082 A 
ATOM      7  C5  PXY d   1       2.572  -0.686  -2.326  0.00  0.00     0.003 A 
ATOM      8  C6  PXY d   1       2.779  -0.575  -3.698  0.00  0.00     0.003 A 
ENDROOT
TORSDOF 0
ENDMDL
