MODEL 1
REMARK minimizedAffinity 2.84331012
REMARK minimizedRMSD -1
REMARK  0 active torsions:
REMARK  status: ('A' for Active; 'I' for Inactive)
ROOT
ATOM      1  C4' PXY d   1      -4.685   5.979   4.998  0.00  0.00     0.077 C 
ATOM      2  C1' PXY d   1      -4.992   5.723  -0.769  0.00  0.00     0.077 C 
ATOM      3  C1  PXY d   1      -4.899   5.786   0.743  0.00  0.00    -0.082 A 
ATOM      4  C2  PXY d   1      -6.000   5.690   1.470  0.00  0.00     0.003 A 
ATOM      5  C3  PXY d   1      -5.938   5.777   2.837  0.00  0.00     0.003 A 
ATOM      6  C4  PXY d   1      -4.730   5.911   3.469  0.00  0.00    -0.082 A 
ATOM      7  C5  PXY d   1      -3.601   5.999   2.734  0.00  0.00     0.003 A 
ATOM      8  C6  PXY d   1      -3.690   5.950   1.346  0.00  0.00     0.003 A 
ENDROOT
TORSDOF 0
ENDMDL
