MODEL 1
REMARK minimizedAffinity -3.23337913
REMARK minimizedRMSD -1
REMARK  0 active torsions:
REMARK  status: ('A' for Active; 'I' for Inactive)
ROOT
ATOM      1  C4' PXY d   1      -4.806   5.728   5.999  0.00  0.00     0.077 C 
ATOM      2  C1' PXY d   1      -4.918   5.891   0.222  0.00  0.00     0.077 C 
ATOM      3  C1  PXY d   1      -4.878   5.841   1.737  0.00  0.00    -0.082 A 
ATOM      4  C2  PXY d   1      -6.000   5.972   2.426  0.00  0.00     0.003 A 
ATOM      5  C3  PXY d   1      -5.977   5.962   3.797  0.00  0.00     0.003 A 
ATOM      6  C4  PXY d   1      -4.801   5.763   4.469  0.00  0.00    -0.082 A 
ATOM      7  C5  PXY d   1      -3.653   5.618   3.773  0.00  0.00     0.003 A 
ATOM      8  C6  PXY d   1      -3.692   5.672   2.383  0.00  0.00     0.003 A 
ENDROOT
TORSDOF 0
ENDMDL
