MODEL 1
REMARK minimizedAffinity -1.99484706
REMARK minimizedRMSD -1
REMARK  0 active torsions:
REMARK  status: ('A' for Active; 'I' for Inactive)
ROOT
ATOM      1  C4' PXY d   1      -4.716   5.934   0.205  0.00  0.00     0.077 C 
ATOM      2  C1' PXY d   1      -4.915   5.377   5.955  0.00  0.00     0.077 C 
ATOM      3  C1  PXY d   1      -4.876   5.521   4.447  0.00  0.00    -0.082 A 
ATOM      4  C2  PXY d   1      -3.742   5.309   3.799  0.00  0.00     0.003 A 
ATOM      5  C3  PXY d   1      -3.681   5.466   2.438  0.00  0.00     0.003 A 
ATOM      6  C4  PXY d   1      -4.805   5.791   1.727  0.00  0.00    -0.082 A 
ATOM      7  C5  PXY d   1      -5.968   5.999   2.379  0.00  0.00     0.003 A 
ATOM      8  C6  PXY d   1      -5.999   5.875   3.765  0.00  0.00     0.003 A 
ENDROOT
TORSDOF 0
ENDMDL
