MODEL 1
REMARK minimizedAffinity -1.76722229
REMARK minimizedRMSD -1
REMARK  0 active torsions:
REMARK  status: ('A' for Active; 'I' for Inactive)
ROOT
ATOM      1  C4' PXY d   1      -4.802   5.575   0.231  0.00  0.00     0.077 C 
ATOM      2  C1' PXY d   1      -4.821   5.940   6.000  0.00  0.00     0.077 C 
ATOM      3  C1  PXY d   1      -4.827   5.837   4.487  0.00  0.00    -0.082 A 
ATOM      4  C2  PXY d   1      -3.695   5.980   3.818  0.00  0.00     0.003 A 
ATOM      5  C3  PXY d   1      -3.688   5.922   2.448  0.00  0.00     0.003 A 
ATOM      6  C4  PXY d   1      -4.842   5.662   1.759  0.00  0.00    -0.082 A 
ATOM      7  C5  PXY d   1      -6.000   5.504   2.436  0.00  0.00     0.003 A 
ATOM      8  C6  PXY d   1      -5.993   5.608   3.824  0.00  0.00     0.003 A 
ENDROOT
TORSDOF 0
ENDMDL
