MODEL 1
REMARK minimizedAffinity -5.88572407
REMARK minimizedRMSD -1
REMARK  0 active torsions:
REMARK  status: ('A' for Active; 'I' for Inactive)
ROOT
ATOM      1  C4' PXY d   1      -1.369  -1.207  -0.666  0.00  0.00     0.077 C 
ATOM      2  C1' PXY d   1      -5.816  -4.497   1.012  0.00  0.00     0.077 C 
ATOM      3  C1  PXY d   1      -4.643  -3.645   0.570  0.00  0.00    -0.082 A 
ATOM      4  C2  PXY d   1      -4.525  -2.407   1.023  0.00  0.00     0.003 A 
ATOM      5  C3  PXY d   1      -3.488  -1.612   0.608  0.00  0.00     0.003 A 
ATOM      6  C4  PXY d   1      -2.532  -2.107  -0.238  0.00  0.00    -0.082 A 
ATOM      7  C5  PXY d   1      -2.638  -3.372  -0.696  0.00  0.00     0.003 A 
ATOM      8  C6  PXY d   1      -3.721  -4.149  -0.295  0.00  0.00     0.003 A 
ENDROOT
TORSDOF 0
ENDMDL
