MODEL 1
REMARK minimizedAffinity -4.49058199
REMARK minimizedRMSD -1
REMARK  0 active torsions:
REMARK  status: ('A' for Active; 'I' for Inactive)
ROOT
ATOM      1  C4' PXY d   1      -1.843  -1.744  -1.154  0.00  0.00     0.077 C 
ATOM      2  C1' PXY d   1      -5.351  -5.890   0.826  0.00  0.00     0.077 C 
ATOM      3  C1  PXY d   1      -4.441  -4.794   0.306  0.00  0.00    -0.082 A 
ATOM      4  C2  PXY d   1      -3.316  -5.117  -0.312  0.00  0.00     0.003 A 
ATOM      5  C3  PXY d   1      -2.466  -4.138  -0.760  0.00  0.00     0.003 A 
ATOM      6  C4  PXY d   1      -2.796  -2.817  -0.621  0.00  0.00    -0.082 A 
ATOM      7  C5  PXY d   1      -3.947  -2.480  -0.000  0.00  0.00     0.003 A 
ATOM      8  C6  PXY d   1      -4.776  -3.488   0.484  0.00  0.00     0.003 A 
ENDROOT
TORSDOF 0
ENDMDL
