MODEL 1
REMARK minimizedAffinity 6.49500942
REMARK minimizedRMSD -1
REMARK  0 active torsions:
REMARK  status: ('A' for Active; 'I' for Inactive)
ROOT
ATOM      1  C4' PXY d   1      -2.989   2.324   5.311  0.00  0.00     0.077 C 
ATOM      2  C1' PXY d   1      -3.003  -3.351   4.213  0.00  0.00     0.077 C 
ATOM      3  C1  PXY d   1      -2.992  -1.861   4.490  0.00  0.00    -0.082 A 
ATOM      4  C2  PXY d   1      -3.114  -1.426   5.734  0.00  0.00     0.003 A 
ATOM      5  C3  PXY d   1      -3.139  -0.081   5.999  0.00  0.00     0.003 A 
ATOM      6  C4  PXY d   1      -2.985   0.828   4.986  0.00  0.00    -0.082 A 
ATOM      7  C5  PXY d   1      -2.849   0.392   3.716  0.00  0.00     0.003 A 
ATOM      8  C6  PXY d   1      -2.867  -0.977   3.463  0.00  0.00     0.003 A 
ENDROOT
TORSDOF 0
ENDMDL
