MODEL 1
REMARK minimizedAffinity 0.662965059
REMARK minimizedRMSD -1
REMARK  0 active torsions:
REMARK  status: ('A' for Active; 'I' for Inactive)
ROOT
ATOM      1  C4' PXY d   1      -5.963   5.574  -0.768  0.00  0.00     0.077 C 
ATOM      2  C1' PXY d   1      -3.710   5.247   4.546  0.00  0.00     0.077 C 
ATOM      3  C1  PXY d   1      -4.289   5.331   3.147  0.00  0.00    -0.082 A 
ATOM      4  C2  PXY d   1      -5.447   5.942   2.954  0.00  0.00     0.003 A 
ATOM      5  C3  PXY d   1      -6.000   6.000   1.701  0.00  0.00     0.003 A 
ATOM      6  C4  PXY d   1      -5.336   5.473   0.626  0.00  0.00    -0.082 A 
ATOM      7  C5  PXY d   1      -4.150   4.857   0.813  0.00  0.00     0.003 A 
ATOM      8  C6  PXY d   1      -3.625   4.773   2.099  0.00  0.00     0.003 A 
ENDROOT
TORSDOF 0
ENDMDL
