MODEL 1
REMARK minimizedAffinity 10.9378109
REMARK minimizedRMSD -1
REMARK  0 active torsions:
REMARK  status: ('A' for Active; 'I' for Inactive)
ROOT
ATOM      1  C4' PXY d   1      -0.830  -0.768  -0.314  0.00  0.00     0.077 C 
ATOM      2  C1' PXY d   1      -2.819  -3.159  -5.186  0.00  0.00     0.077 C 
ATOM      3  C1  PXY d   1      -2.307  -2.538  -3.902  0.00  0.00    -0.082 A 
ATOM      4  C2  PXY d   1      -1.636  -1.398  -3.948  0.00  0.00     0.003 A 
ATOM      5  C3  PXY d   1      -1.138  -0.840  -2.799  0.00  0.00     0.003 A 
ATOM      6  C4  PXY d   1      -1.374  -1.426  -1.585  0.00  0.00    -0.082 A 
ATOM      7  C5  PXY d   1      -2.067  -2.583  -1.528  0.00  0.00     0.003 A 
ATOM      8  C6  PXY d   1      -2.528  -3.156  -2.710  0.00  0.00     0.003 A 
ENDROOT
TORSDOF 0
ENDMDL
