MODEL 1
REMARK minimizedAffinity 1.92194533
REMARK minimizedRMSD -1
REMARK  0 active torsions:
REMARK  status: ('A' for Active; 'I' for Inactive)
ROOT
ATOM      1  C4' PXY d   1       1.876  -1.126   6.000  0.00  0.00     0.077 C 
ATOM      2  C1' PXY d   1       2.464   3.341   2.378  0.00  0.00     0.077 C 
ATOM      3  C1  PXY d   1       2.307   2.178   3.338  0.00  0.00    -0.082 A 
ATOM      4  C2  PXY d   1       2.901   1.026   3.072  0.00  0.00     0.003 A 
ATOM      5  C3  PXY d   1       2.744  -0.046   3.913  0.00  0.00     0.003 A 
ATOM      6  C4  PXY d   1       2.014   0.078   5.064  0.00  0.00    -0.082 A 
ATOM      7  C5  PXY d   1       1.414   1.254   5.348  0.00  0.00     0.003 A 
ATOM      8  C6  PXY d   1       1.552   2.317   4.461  0.00  0.00     0.003 A 
ENDROOT
TORSDOF 0
ENDMDL
