MODEL 1
REMARK minimizedAffinity -5.29061556
REMARK minimizedRMSD -1
REMARK  0 active torsions:
REMARK  status: ('A' for Active; 'I' for Inactive)
ROOT
ATOM      1  C   UNL d   1       0.413  -1.132  -0.732  0.00  0.00     0.078 C 
ATOM      2  C1  UNL d   1      -0.352  -0.165   0.121  0.00  0.00    -0.077 A 
ATOM      3  C2  UNL d   1      -0.788  -0.523   1.403  0.00  0.00    -0.001 A 
ATOM      4  C3  UNL d   1      -1.507   0.384   2.183  0.00  0.00     0.003 A 
ATOM      5  C4  UNL d   1      -1.798   1.655   1.689  0.00  0.00    -0.005 A 
ATOM      6  C5  UNL d   1      -1.370   2.019   0.414  0.00  0.00     0.003 A 
ATOM      7  C6  UNL d   1      -0.650   1.113  -0.367  0.00  0.00    -0.001 A 
ENDROOT
TORSDOF 0
ENDMDL
