MODEL 1
REMARK minimizedAffinity -5.33226395
REMARK minimizedRMSD -1
REMARK  0 active torsions:
REMARK  status: ('A' for Active; 'I' for Inactive)
ROOT
ATOM      1  C   UNL d   1      -0.793  -1.130   1.869  0.00  0.00     0.078 C 
ATOM      2  C1  UNL d   1      -0.833   0.230   1.238  0.00  0.00    -0.077 A 
ATOM      3  C2  UNL d   1      -0.213   0.472   0.006  0.00  0.00    -0.001 A 
ATOM      4  C3  UNL d   1      -0.250   1.745  -0.564  0.00  0.00     0.003 A 
ATOM      5  C4  UNL d   1      -0.905   2.786   0.090  0.00  0.00    -0.005 A 
ATOM      6  C5  UNL d   1      -1.524   2.556   1.317  0.00  0.00     0.003 A 
ATOM      7  C6  UNL d   1      -1.488   1.283   1.889  0.00  0.00    -0.001 A 
ENDROOT
TORSDOF 0
ENDMDL
