MODEL 1
REMARK minimizedAffinity -2.14820647
REMARK minimizedRMSD -1
REMARK  0 active torsions:
REMARK  status: ('A' for Active; 'I' for Inactive)
ROOT
ATOM      1  C   UNL d   1      -1.699   1.403   1.905  0.00  0.00     0.078 C 
ATOM      2  C1  UNL d   1      -0.705   0.575   1.147  0.00  0.00    -0.077 A 
ATOM      3  C2  UNL d   1      -0.199   1.004  -0.086  0.00  0.00    -0.001 A 
ATOM      4  C3  UNL d   1       0.718   0.218  -0.786  0.00  0.00     0.003 A 
ATOM      5  C4  UNL d   1       1.137  -1.003  -0.260  0.00  0.00    -0.005 A 
ATOM      6  C5  UNL d   1       0.638  -1.439   0.965  0.00  0.00     0.003 A 
ATOM      7  C6  UNL d   1      -0.280  -0.655   1.666  0.00  0.00    -0.001 A 
ENDROOT
TORSDOF 0
ENDMDL
