MODEL 1
REMARK minimizedAffinity -4.86064291
REMARK minimizedRMSD -1
REMARK  0 active torsions:
REMARK  status: ('A' for Active; 'I' for Inactive)
ROOT
ATOM      1  C   UNL d   1       1.153  -0.399  -0.443  0.00  0.00     0.078 C 
ATOM      2  C1  UNL d   1      -0.033   0.327   0.118  0.00  0.00    -0.077 A 
ATOM      3  C2  UNL d   1      -0.727   1.273  -0.646  0.00  0.00    -0.001 A 
ATOM      4  C3  UNL d   1      -1.823   1.948  -0.107  0.00  0.00     0.003 A 
ATOM      5  C4  UNL d   1      -2.235   1.685   1.197  0.00  0.00    -0.005 A 
ATOM      6  C5  UNL d   1      -1.550   0.746   1.966  0.00  0.00     0.003 A 
ATOM      7  C6  UNL d   1      -0.453   0.070   1.429  0.00  0.00    -0.001 A 
ENDROOT
TORSDOF 0
ENDMDL
