MODEL 1
REMARK minimizedAffinity -5.28855848
REMARK minimizedRMSD -1
REMARK  0 active torsions:
REMARK  status: ('A' for Active; 'I' for Inactive)
ROOT
ATOM      1  C   UNL d   1       0.946  -0.918  -0.347  0.00  0.00     0.078 C 
ATOM      2  C1  UNL d   1      -0.090  -0.020   0.260  0.00  0.00    -0.077 A 
ATOM      3  C2  UNL d   1      -0.810  -0.414   1.395  0.00  0.00    -0.001 A 
ATOM      4  C3  UNL d   1      -1.779   0.428   1.943  0.00  0.00     0.003 A 
ATOM      5  C4  UNL d   1      -2.038   1.668   1.363  0.00  0.00    -0.005 A 
ATOM      6  C5  UNL d   1      -1.329   2.067   0.232  0.00  0.00     0.003 A 
ATOM      7  C6  UNL d   1      -0.359   1.227  -0.318  0.00  0.00    -0.001 A 
ENDROOT
TORSDOF 0
ENDMDL
