MODEL 1
REMARK minimizedAffinity -2.98650837
REMARK minimizedRMSD -1
REMARK  0 active torsions:
REMARK  status: ('A' for Active; 'I' for Inactive)
ROOT
ATOM      1  C   UNL d   1       1.303  -2.499  -1.273  0.00  0.00     0.078 C 
ATOM      2  C1  UNL d   1       0.649  -1.248  -0.767  0.00  0.00    -0.077 A 
ATOM      3  C2  UNL d   1       0.904  -0.008  -1.365  0.00  0.00    -0.001 A 
ATOM      4  C3  UNL d   1       0.296   1.149  -0.877  0.00  0.00     0.003 A 
ATOM      5  C4  UNL d   1      -0.571   1.079   0.211  0.00  0.00    -0.005 A 
ATOM      6  C5  UNL d   1      -0.829  -0.151   0.815  0.00  0.00     0.003 A 
ATOM      7  C6  UNL d   1      -0.222  -1.309   0.328  0.00  0.00    -0.001 A 
ENDROOT
TORSDOF 0
ENDMDL
