MODEL 1
REMARK minimizedAffinity -4.66489458
REMARK minimizedRMSD -1
REMARK  0 active torsions:
REMARK  status: ('A' for Active; 'I' for Inactive)
ROOT
ATOM      1  C   UNL d   1      -2.075   2.373   1.304  0.00  0.00     0.078 C 
ATOM      2  C1  UNL d   1      -1.140   1.276   0.888  0.00  0.00    -0.077 A 
ATOM      3  C2  UNL d   1      -0.719   1.153  -0.441  0.00  0.00    -0.001 A 
ATOM      4  C3  UNL d   1       0.144   0.121  -0.816  0.00  0.00     0.003 A 
ATOM      5  C4  UNL d   1       0.591  -0.796   0.133  0.00  0.00    -0.005 A 
ATOM      6  C5  UNL d   1       0.175  -0.683   1.458  0.00  0.00     0.003 A 
ATOM      7  C6  UNL d   1      -0.687   0.348   1.835  0.00  0.00    -0.001 A 
ENDROOT
TORSDOF 0
ENDMDL
