MODEL 1
REMARK minimizedAffinity -3.32626128
REMARK minimizedRMSD -1
REMARK  0 active torsions:
REMARK  status: ('A' for Active; 'I' for Inactive)
ROOT
ATOM      1  C   UNL d   1      -2.405   1.721   1.011  0.00  0.00     0.078 C 
ATOM      2  C1  UNL d   1      -1.215   0.911   0.590  0.00  0.00    -0.077 A 
ATOM      3  C2  UNL d   1      -0.629  -0.016   1.460  0.00  0.00    -0.001 A 
ATOM      4  C3  UNL d   1       0.484  -0.756   1.058  0.00  0.00     0.003 A 
ATOM      5  C4  UNL d   1       1.022  -0.575  -0.215  0.00  0.00    -0.005 A 
ATOM      6  C5  UNL d   1       0.447   0.348  -1.087  0.00  0.00     0.003 A 
ATOM      7  C6  UNL d   1      -0.666   1.088  -0.686  0.00  0.00    -0.001 A 
ENDROOT
TORSDOF 0
ENDMDL
