MODEL 1
REMARK minimizedAffinity -4.45380688
REMARK minimizedRMSD -1
REMARK  0 active torsions:
REMARK  status: ('A' for Active; 'I' for Inactive)
ROOT
ATOM      1  C   UNL d   1      -1.743   1.657   1.783  0.00  0.00     0.078 C 
ATOM      2  C1  UNL d   1      -0.854   1.058   0.735  0.00  0.00    -0.077 A 
ATOM      3  C2  UNL d   1      -0.409  -0.266   0.837  0.00  0.00    -0.001 A 
ATOM      4  C3  UNL d   1       0.426  -0.808  -0.141  0.00  0.00     0.003 A 
ATOM      5  C4  UNL d   1       0.825  -0.033  -1.228  0.00  0.00    -0.005 A 
ATOM      6  C5  UNL d   1       0.390   1.286  -1.338  0.00  0.00     0.003 A 
ATOM      7  C6  UNL d   1      -0.446   1.830  -0.360  0.00  0.00    -0.001 A 
ENDROOT
TORSDOF 0
ENDMDL
