MODEL 1
REMARK minimizedAffinity -6.00143766
REMARK minimizedRMSD -1
REMARK  0 active torsions:
REMARK  status: ('A' for Active; 'I' for Inactive)
ROOT
ATOM      1  C   UNL d   1      -0.085  -0.957   1.288  0.00  0.00     0.078 C 
ATOM      2  C1  UNL d   1      -0.482   0.415   0.833  0.00  0.00    -0.077 A 
ATOM      3  C2  UNL d   1      -0.158   0.871  -0.451  0.00  0.00    -0.001 A 
ATOM      4  C3  UNL d   1      -0.525   2.154  -0.858  0.00  0.00     0.003 A 
ATOM      5  C4  UNL d   1      -1.218   2.993   0.013  0.00  0.00    -0.005 A 
ATOM      6  C5  UNL d   1      -1.544   2.549   1.293  0.00  0.00     0.003 A 
ATOM      7  C6  UNL d   1      -1.177   1.266   1.702  0.00  0.00    -0.001 A 
ENDROOT
TORSDOF 0
ENDMDL
