MODEL 1
REMARK minimizedAffinity -3.73752761
REMARK minimizedRMSD -1
REMARK  0 active torsions:
REMARK  status: ('A' for Active; 'I' for Inactive)
ROOT
ATOM      1  C   UNL d   1      -3.029   1.559  -0.241  0.00  0.00     0.078 C 
ATOM      2  C1  UNL d   1      -1.747   1.044   0.344  0.00  0.00    -0.077 A 
ATOM      3  C2  UNL d   1      -0.823   0.348  -0.444  0.00  0.00    -0.001 A 
ATOM      4  C3  UNL d   1       0.361  -0.134   0.116  0.00  0.00     0.003 A 
ATOM      5  C4  UNL d   1       0.631   0.074   1.467  0.00  0.00    -0.005 A 
ATOM      6  C5  UNL d   1      -0.284   0.764   2.260  0.00  0.00     0.003 A 
ATOM      7  C6  UNL d   1      -1.468   1.247   1.702  0.00  0.00    -0.001 A 
ENDROOT
TORSDOF 0
ENDMDL
