MODEL 1
REMARK minimizedAffinity -5.76001024
REMARK minimizedRMSD -1
REMARK  0 active torsions:
REMARK  status: ('A' for Active; 'I' for Inactive)
ROOT
ATOM      1  C   UNL d   1       0.796  -0.487  -0.382  0.00  0.00     0.078 C 
ATOM      2  C1  UNL d   1       0.130   0.775   0.080  0.00  0.00    -0.077 A 
ATOM      3  C2  UNL d   1       0.360   1.992  -0.572  0.00  0.00    -0.001 A 
ATOM      4  C3  UNL d   1      -0.259   3.161  -0.126  0.00  0.00     0.003 A 
ATOM      5  C4  UNL d   1      -1.112   3.123   0.976  0.00  0.00    -0.005 A 
ATOM      6  C5  UNL d   1      -1.346   1.917   1.633  0.00  0.00     0.003 A 
ATOM      7  C6  UNL d   1      -0.727   0.748   1.187  0.00  0.00    -0.001 A 
ENDROOT
TORSDOF 0
ENDMDL
