MODEL 1
REMARK minimizedAffinity -5.93113327
REMARK minimizedRMSD -1
REMARK  0 active torsions:
REMARK  status: ('A' for Active; 'I' for Inactive)
ROOT
ATOM      1  C   UNL d   1       0.701  -0.373  -0.749  0.00  0.00     0.078 C 
ATOM      2  C1  UNL d   1      -0.058   0.805  -0.215  0.00  0.00    -0.077 A 
ATOM      3  C2  UNL d   1      -0.921   0.671   0.880  0.00  0.00    -0.001 A 
ATOM      4  C3  UNL d   1      -1.628   1.774   1.360  0.00  0.00     0.003 A 
ATOM      5  C4  UNL d   1      -1.482   3.019   0.752  0.00  0.00    -0.005 A 
ATOM      6  C5  UNL d   1      -0.627   3.162  -0.340  0.00  0.00     0.003 A 
ATOM      7  C6  UNL d   1       0.081   2.060  -0.822  0.00  0.00    -0.001 A 
ENDROOT
TORSDOF 0
ENDMDL
