MODEL 1
REMARK minimizedAffinity -4.36223936
REMARK minimizedRMSD -1
REMARK  0 active torsions:
REMARK  status: ('A' for Active; 'I' for Inactive)
ROOT
ATOM      1  C   UNL d   1       1.227  -0.014  -0.401  0.00  0.00     0.078 C 
ATOM      2  C1  UNL d   1      -0.028   0.325   0.346  0.00  0.00    -0.077 A 
ATOM      3  C2  UNL d   1      -0.394  -0.381   1.499  0.00  0.00    -0.001 A 
ATOM      4  C3  UNL d   1      -1.571  -0.061   2.179  0.00  0.00     0.003 A 
ATOM      5  C4  UNL d   1      -2.392   0.964   1.712  0.00  0.00    -0.005 A 
ATOM      6  C5  UNL d   1      -2.037   1.670   0.565  0.00  0.00     0.003 A 
ATOM      7  C6  UNL d   1      -0.861   1.352  -0.116  0.00  0.00    -0.001 A 
ENDROOT
TORSDOF 0
ENDMDL
