MODEL 1
REMARK minimizedAffinity -5.01408386
REMARK minimizedRMSD -1
REMARK  0 active torsions:
REMARK  status: ('A' for Active; 'I' for Inactive)
ROOT
ATOM      1  C   UNL d   1      -2.037   2.015   1.430  0.00  0.00     0.078 C 
ATOM      2  C1  UNL d   1      -0.970   1.076   0.950  0.00  0.00    -0.077 A 
ATOM      3  C2  UNL d   1      -0.404   1.218  -0.322  0.00  0.00    -0.001 A 
ATOM      4  C3  UNL d   1       0.581   0.332  -0.760  0.00  0.00     0.003 A 
ATOM      5  C4  UNL d   1       1.008  -0.704   0.069  0.00  0.00    -0.005 A 
ATOM      6  C5  UNL d   1       0.449  -0.855   1.336  0.00  0.00     0.003 A 
ATOM      7  C6  UNL d   1      -0.537   0.031   1.775  0.00  0.00    -0.001 A 
ENDROOT
TORSDOF 0
ENDMDL
