MODEL 1
REMARK minimizedAffinity -4.09397364
REMARK minimizedRMSD -1
REMARK  0 active torsions:
REMARK  status: ('A' for Active; 'I' for Inactive)
ROOT
ATOM      1  C   UNL d   1       0.646  -0.922  -0.757  0.00  0.00     0.078 C 
ATOM      2  C1  UNL d   1       0.034  -0.005   0.260  0.00  0.00    -0.077 A 
ATOM      3  C2  UNL d   1       0.114  -0.291   1.629  0.00  0.00    -0.001 A 
ATOM      4  C3  UNL d   1      -0.469   0.566   2.564  0.00  0.00     0.003 A 
ATOM      5  C4  UNL d   1      -1.137   1.714   2.140  0.00  0.00    -0.005 A 
ATOM      6  C5  UNL d   1      -1.223   2.005   0.781  0.00  0.00     0.003 A 
ATOM      7  C6  UNL d   1      -0.641   1.149  -0.156  0.00  0.00    -0.001 A 
ENDROOT
TORSDOF 0
ENDMDL
