MODEL 1
REMARK minimizedAffinity -4.97056103
REMARK minimizedRMSD -1
REMARK  0 active torsions:
REMARK  status: ('A' for Active; 'I' for Inactive)
ROOT
ATOM      1  C   UNL d   1      -2.202   2.811   1.411  0.00  0.00     0.078 C 
ATOM      2  C1  UNL d   1      -1.344   1.723   0.837  0.00  0.00    -0.077 A 
ATOM      3  C2  UNL d   1      -1.017   1.705  -0.524  0.00  0.00    -0.001 A 
ATOM      4  C3  UNL d   1      -0.226   0.681  -1.047  0.00  0.00     0.003 A 
ATOM      5  C4  UNL d   1       0.245  -0.333  -0.215  0.00  0.00    -0.005 A 
ATOM      6  C5  UNL d   1      -0.078  -0.325   1.140  0.00  0.00     0.003 A 
ATOM      7  C6  UNL d   1      -0.869   0.698   1.665  0.00  0.00    -0.001 A 
ENDROOT
TORSDOF 0
ENDMDL
