MODEL 1
REMARK minimizedAffinity -5.76660824
REMARK minimizedRMSD -1
REMARK  0 active torsions:
REMARK  status: ('A' for Active; 'I' for Inactive)
ROOT
ATOM      1  C   UNL d   1      -0.515   3.494  -0.774  0.00  0.00     0.078 C 
ATOM      2  C1  UNL d   1      -0.612   2.237   0.038  0.00  0.00    -0.077 A 
ATOM      3  C2  UNL d   1      -1.384   2.191   1.205  0.00  0.00    -0.001 A 
ATOM      4  C3  UNL d   1      -1.458   1.017   1.956  0.00  0.00     0.003 A 
ATOM      5  C4  UNL d   1      -0.761  -0.120   1.549  0.00  0.00    -0.005 A 
ATOM      6  C5  UNL d   1       0.011  -0.082   0.390  0.00  0.00     0.003 A 
ATOM      7  C6  UNL d   1       0.086   1.091  -0.362  0.00  0.00    -0.001 A 
ENDROOT
TORSDOF 0
ENDMDL
