MODEL 1
REMARK minimizedAffinity -2.87815261
REMARK minimizedRMSD -1
REMARK  1 active torsions:
REMARK  status: ('A' for Active; 'I' for Inactive)
REMARK    1  A    between atoms: N_2  and  C1_3 
ROOT
ATOM      1  C1  UNL d   1       0.008   1.008   2.289  0.00  0.00     0.143 A 
ATOM      2  C2  UNL d   1      -0.829   0.208   1.504  0.00  0.00    -0.057 A 
ATOM      3  C3  UNL d   1      -0.594   0.036   0.135  0.00  0.00     0.033 A 
ATOM      4  C4  UNL d   1       0.470   0.688  -0.482  0.00  0.00    -0.042 A 
ATOM      5  C5  UNL d   1       1.300   1.508   0.274  0.00  0.00     0.033 A 
ATOM      6  C6  UNL d   1       1.064   1.670   1.643  0.00  0.00    -0.057 A 
ENDROOT
BRANCH   1   7
ATOM      7  N   UNL d   1      -0.231   1.296   3.635  0.00  0.00    -0.732 N 
ATOM      8  C   UNL d   1       0.595   0.714   4.672  0.00  0.00     0.284 C 
ATOM      9  H3  UNL d   1      -0.460   2.276   3.788  0.00  0.00     0.395 HD
ENDBRANCH   1   7
TORSDOF 1
ENDMDL
