MODEL 1
REMARK minimizedAffinity -5.25506783
REMARK minimizedRMSD -1
REMARK  1 active torsions:
REMARK  status: ('A' for Active; 'I' for Inactive)
REMARK    1  A    between atoms: N_2  and  C1_3 
ROOT
ATOM      1  C1  UNL d   1       1.536   0.412  -0.155  0.00  0.00     0.143 A 
ATOM      2  C2  UNL d   1       0.450   0.968   0.529  0.00  0.00    -0.057 A 
ATOM      3  C3  UNL d   1       0.590   2.137   1.287  0.00  0.00     0.033 A 
ATOM      4  C4  UNL d   1       1.830   2.757   1.397  0.00  0.00    -0.042 A 
ATOM      5  C5  UNL d   1       2.930   2.208   0.746  0.00  0.00     0.033 A 
ATOM      6  C6  UNL d   1       2.782   1.044  -0.015  0.00  0.00    -0.057 A 
ENDROOT
BRANCH   1   7
ATOM      7  N   UNL d   1       1.483  -0.802  -0.844  0.00  0.00    -0.732 N 
ATOM      8  C   UNL d   1       0.252  -1.560  -0.908  0.00  0.00     0.284 C 
ATOM      9  H3  UNL d   1       2.001  -0.775  -1.720  0.00  0.00     0.395 HD
ENDBRANCH   1   7
TORSDOF 1
ENDMDL
