MODEL 1
REMARK minimizedAffinity -1.79037666
REMARK minimizedRMSD -1
REMARK  1 active torsions:
REMARK  status: ('A' for Active; 'I' for Inactive)
REMARK    1  A    between atoms: N_2  and  C1_3 
ROOT
ATOM      1  C1  UNL d   1      -1.133  -0.874  -1.652  0.00  0.00     0.143 A 
ATOM      2  C2  UNL d   1      -1.223  -0.591  -3.019  0.00  0.00    -0.057 A 
ATOM      3  C3  UNL d   1      -2.292  -1.063  -3.790  0.00  0.00     0.033 A 
ATOM      4  C4  UNL d   1      -3.278  -1.855  -3.210  0.00  0.00    -0.042 A 
ATOM      5  C5  UNL d   1      -3.196  -2.170  -1.859  0.00  0.00     0.033 A 
ATOM      6  C6  UNL d   1      -2.130  -1.689  -1.093  0.00  0.00    -0.057 A 
ENDROOT
BRANCH   1   7
ATOM      7  N   UNL d   1      -0.044  -0.515  -0.853  0.00  0.00    -0.732 N 
ATOM      8  C   UNL d   1      -0.245  -0.070   0.510  0.00  0.00     0.284 C 
ATOM      9  H3  UNL d   1       0.748  -1.141  -0.974  0.00  0.00     0.395 HD
ENDBRANCH   1   7
TORSDOF 1
ENDMDL
