MODEL 1
REMARK minimizedAffinity -3.87504196
REMARK minimizedRMSD -1
REMARK  1 active torsions:
REMARK  status: ('A' for Active; 'I' for Inactive)
REMARK    1  A    between atoms: N_2  and  C1_3 
ROOT
ATOM      1  C1  UNL d   1      -0.481  -0.453  -0.985  0.00  0.00     0.143 A 
ATOM      2  C2  UNL d   1       0.094   0.813  -0.833  0.00  0.00    -0.057 A 
ATOM      3  C3  UNL d   1       0.290   1.375   0.434  0.00  0.00     0.033 A 
ATOM      4  C4  UNL d   1      -0.115   0.689   1.575  0.00  0.00    -0.042 A 
ATOM      5  C5  UNL d   1      -0.711  -0.560   1.447  0.00  0.00     0.033 A 
ATOM      6  C6  UNL d   1      -0.897  -1.118   0.179  0.00  0.00    -0.057 A 
ENDROOT
BRANCH   1   7
ATOM      7  N   UNL d   1      -0.791  -1.024  -2.222  0.00  0.00    -0.732 N 
ATOM      8  C   UNL d   1      -2.149  -1.418  -2.532  0.00  0.00     0.284 C 
ATOM      9  H3  UNL d   1      -0.304  -0.571  -2.992  0.00  0.00     0.395 HD
ENDBRANCH   1   7
TORSDOF 1
ENDMDL
