MODEL 1
REMARK minimizedAffinity -2.71367717
REMARK minimizedRMSD -1
REMARK  1 active torsions:
REMARK  status: ('A' for Active; 'I' for Inactive)
REMARK    1  A    between atoms: N_2  and  C1_3 
ROOT
ATOM      1  C1  UNL d   1       0.260   0.148   0.182  0.00  0.00     0.143 A 
ATOM      2  C2  UNL d   1      -0.195   0.374   1.485  0.00  0.00    -0.057 A 
ATOM      3  C3  UNL d   1       0.004   1.606   2.120  0.00  0.00     0.033 A 
ATOM      4  C4  UNL d   1       0.689   2.627   1.470  0.00  0.00    -0.042 A 
ATOM      5  C5  UNL d   1       1.172   2.416   0.183  0.00  0.00     0.033 A 
ATOM      6  C6  UNL d   1       0.965   1.186  -0.447  0.00  0.00    -0.057 A 
ENDROOT
BRANCH   1   7
ATOM      7  N   UNL d   1       0.180  -1.087  -0.467  0.00  0.00    -0.732 N 
ATOM      8  C   UNL d   1      -0.915  -1.378  -1.366  0.00  0.00     0.284 C 
ATOM      9  H3  UNL d   1       1.086  -1.412  -0.796  0.00  0.00     0.395 HD
ENDBRANCH   1   7
TORSDOF 1
ENDMDL
