MODEL 1
REMARK minimizedAffinity -1.83050179
REMARK minimizedRMSD -1
REMARK  1 active torsions:
REMARK  status: ('A' for Active; 'I' for Inactive)
REMARK    1  A    between atoms: N_2  and  C1_3 
ROOT
ATOM      1  C1  UNL d   1      -0.442  -0.698  -0.176  0.00  0.00     0.143 A 
ATOM      2  C2  UNL d   1      -0.783   0.021   0.975  0.00  0.00    -0.057 A 
ATOM      3  C3  UNL d   1       0.104   0.943   1.544  0.00  0.00     0.033 A 
ATOM      4  C4  UNL d   1       1.363   1.141   0.987  0.00  0.00    -0.042 A 
ATOM      5  C5  UNL d   1       1.733   0.419  -0.142  0.00  0.00     0.033 A 
ATOM      6  C6  UNL d   1       0.840  -0.495  -0.710  0.00  0.00    -0.057 A 
ENDROOT
BRANCH   1   7
ATOM      7  N   UNL d   1      -1.241  -1.699  -0.733  0.00  0.00    -0.732 N 
ATOM      8  C   UNL d   1      -1.806  -1.542  -2.055  0.00  0.00     0.284 C 
ATOM      9  H3  UNL d   1      -0.883  -2.632  -0.542  0.00  0.00     0.395 HD
ENDBRANCH   1   7
TORSDOF 1
ENDMDL
