MODEL 1
REMARK minimizedAffinity -1.95699501
REMARK minimizedRMSD -1
REMARK  1 active torsions:
REMARK  status: ('A' for Active; 'I' for Inactive)
REMARK    1  A    between atoms: N_2  and  C1_3 
ROOT
ATOM      1  C1  UNL d   1      -4.066  -2.350  -2.055  0.00  0.00     0.143 A 
ATOM      2  C2  UNL d   1      -3.936  -1.609  -3.234  0.00  0.00    -0.057 A 
ATOM      3  C3  UNL d   1      -2.696  -1.101  -3.640  0.00  0.00     0.033 A 
ATOM      4  C4  UNL d   1      -1.565  -1.301  -2.855  0.00  0.00    -0.042 A 
ATOM      5  C5  UNL d   1      -1.675  -2.013  -1.666  0.00  0.00     0.033 A 
ATOM      6  C6  UNL d   1      -2.915  -2.524  -1.270  0.00  0.00    -0.057 A 
ENDROOT
BRANCH   1   7
ATOM      7  N   UNL d   1      -5.289  -2.797  -1.548  0.00  0.00    -0.732 N 
ATOM      8  C   UNL d   1      -5.335  -3.858  -0.565  0.00  0.00     0.284 C 
ATOM      9  H3  UNL d   1      -5.937  -2.033  -1.367  0.00  0.00     0.395 HD
ENDBRANCH   1   7
TORSDOF 1
ENDMDL
