MODEL 1
REMARK minimizedAffinity -2.8818717
REMARK minimizedRMSD -1
REMARK  1 active torsions:
REMARK  status: ('A' for Active; 'I' for Inactive)
REMARK    1  A    between atoms: N_2  and  C1_3 
ROOT
ATOM      1  C1  UNL d   1       0.096  -0.730  -0.713  0.00  0.00     0.143 A 
ATOM      2  C2  UNL d   1       1.386  -1.081  -1.125  0.00  0.00    -0.057 A 
ATOM      3  C3  UNL d   1       2.488  -0.266  -0.838  0.00  0.00     0.033 A 
ATOM      4  C4  UNL d   1       2.313   0.934  -0.157  0.00  0.00    -0.042 A 
ATOM      5  C5  UNL d   1       1.037   1.316   0.240  0.00  0.00     0.033 A 
ATOM      6  C6  UNL d   1      -0.058   0.494  -0.044  0.00  0.00    -0.057 A 
ENDROOT
BRANCH   1   7
ATOM      7  N   UNL d   1      -1.052  -1.449  -1.053  0.00  0.00    -0.732 N 
ATOM      8  C   UNL d   1      -1.703  -1.238  -2.328  0.00  0.00     0.284 C 
ATOM      9  H3  UNL d   1      -0.997  -2.425  -0.771  0.00  0.00     0.395 HD
ENDBRANCH   1   7
TORSDOF 1
ENDMDL
