MODEL 1
REMARK minimizedAffinity -3.91779637
REMARK minimizedRMSD -1
REMARK  1 active torsions:
REMARK  status: ('A' for Active; 'I' for Inactive)
REMARK    1  A    between atoms: N_2  and  C1_3 
ROOT
ATOM      1  C1  UNL d   1      -4.020  -3.270  -2.264  0.00  0.00     0.143 A 
ATOM      2  C2  UNL d   1      -3.967  -2.306  -3.276  0.00  0.00    -0.057 A 
ATOM      3  C3  UNL d   1      -2.846  -1.484  -3.439  0.00  0.00     0.033 A 
ATOM      4  C4  UNL d   1      -1.765  -1.592  -2.571  0.00  0.00    -0.042 A 
ATOM      5  C5  UNL d   1      -1.805  -2.526  -1.541  0.00  0.00     0.033 A 
ATOM      6  C6  UNL d   1      -2.925  -3.349  -1.388  0.00  0.00    -0.057 A 
ENDROOT
BRANCH   1   7
ATOM      7  N   UNL d   1      -5.146  -4.049  -1.989  0.00  0.00    -0.732 N 
ATOM      8  C   UNL d   1      -5.307  -4.683  -0.698  0.00  0.00     0.284 C 
ATOM      9  H3  UNL d   1      -6.001  -3.641  -2.361  0.00  0.00     0.395 HD
ENDBRANCH   1   7
TORSDOF 1
ENDMDL
