MODEL 1
REMARK minimizedAffinity -4.02532911
REMARK minimizedRMSD -1
REMARK  1 active torsions:
REMARK  status: ('A' for Active; 'I' for Inactive)
REMARK    1  A    between atoms: N_2  and  C1_3 
ROOT
ATOM      1  C1  UNL d   1      -0.308  -0.430  -0.035  0.00  0.00     0.143 A 
ATOM      2  C2  UNL d   1      -0.786   0.545   0.848  0.00  0.00    -0.057 A 
ATOM      3  C3  UNL d   1       0.087   1.419   1.506  0.00  0.00     0.033 A 
ATOM      4  C4  UNL d   1       1.461   1.314   1.315  0.00  0.00    -0.042 A 
ATOM      5  C5  UNL d   1       1.960   0.336   0.462  0.00  0.00     0.033 A 
ATOM      6  C6  UNL d   1       1.083  -0.529  -0.198  0.00  0.00    -0.057 A 
ENDROOT
BRANCH   1   7
ATOM      7  N   UNL d   1      -1.118  -1.392  -0.643  0.00  0.00    -0.732 N 
ATOM      8  C   UNL d   1      -1.515  -1.252  -2.028  0.00  0.00     0.284 C 
ATOM      9  H3  UNL d   1      -0.860  -2.340  -0.379  0.00  0.00     0.395 HD
ENDBRANCH   1   7
TORSDOF 1
ENDMDL
