MODEL 1
REMARK minimizedAffinity -2.53221917
REMARK minimizedRMSD -1
REMARK  0 active torsions:
REMARK  status: ('A' for Active; 'I' for Inactive)
ROOT
ATOM      1  C1  BNZ d   1       1.243  -0.734   0.063  0.00  0.00     0.000 A 
ATOM      2  C2  BNZ d   1       1.120  -2.095  -0.021  0.00  0.00     0.000 A 
ATOM      3  C3  BNZ d   1      -0.087  -2.703   0.188  0.00  0.00     0.000 A 
ATOM      4  C4  BNZ d   1      -1.158  -1.953   0.520  0.00  0.00     0.000 A 
ATOM      5  C5  BNZ d   1      -1.047  -0.581   0.618  0.00  0.00     0.000 A 
ATOM      6  C6  BNZ d   1       0.160   0.031   0.368  0.00  0.00     0.000 A 
ENDROOT
TORSDOF 0
ENDMDL
