MODEL 1
REMARK minimizedAffinity -4.03823233
REMARK minimizedRMSD -1
REMARK  0 active torsions:
REMARK  status: ('A' for Active; 'I' for Inactive)
ROOT
ATOM      1  C1  BNZ d   1       0.964  -2.355  -0.810  0.00  0.00     0.000 A 
ATOM      2  C2  BNZ d   1       0.963  -0.991  -0.688  0.00  0.00     0.000 A 
ATOM      3  C3  BNZ d   1       0.239  -0.376   0.294  0.00  0.00     0.000 A 
ATOM      4  C4  BNZ d   1      -0.515  -1.123   1.128  0.00  0.00     0.000 A 
ATOM      5  C5  BNZ d   1      -0.532  -2.498   1.011  0.00  0.00     0.000 A 
ATOM      6  C6  BNZ d   1       0.229  -3.116   0.046  0.00  0.00     0.000 A 
ENDROOT
TORSDOF 0
ENDMDL
