MODEL 1
REMARK minimizedAffinity -3.19296479
REMARK minimizedRMSD -1
REMARK  0 active torsions:
REMARK  status: ('A' for Active; 'I' for Inactive)
ROOT
ATOM      1  C1  BNZ d   1       0.030  -2.511   0.777  0.00  0.00     0.000 A 
ATOM      2  C2  BNZ d   1       0.958  -1.584   0.382  0.00  0.00     0.000 A 
ATOM      3  C3  BNZ d   1       0.622  -0.264   0.265  0.00  0.00     0.000 A 
ATOM      4  C4  BNZ d   1      -0.648   0.121   0.504  0.00  0.00     0.000 A 
ATOM      5  C5  BNZ d   1      -1.597  -0.802   0.895  0.00  0.00     0.000 A 
ATOM      6  C6  BNZ d   1      -1.246  -2.124   1.049  0.00  0.00     0.000 A 
ENDROOT
TORSDOF 0
ENDMDL
