MODEL 1
REMARK minimizedAffinity -4.69527674
REMARK minimizedRMSD -1
REMARK  0 active torsions:
REMARK  status: ('A' for Active; 'I' for Inactive)
ROOT
ATOM      1  C1  BNZ d   1      -1.212  -0.485   1.018  0.00  0.00     0.000 A 
ATOM      2  C2  BNZ d   1      -1.188  -1.843   0.840  0.00  0.00     0.000 A 
ATOM      3  C3  BNZ d   1      -0.082  -2.462   0.329  0.00  0.00     0.000 A 
ATOM      4  C4  BNZ d   1       0.982  -1.720  -0.040  0.00  0.00     0.000 A 
ATOM      5  C5  BNZ d   1       0.970  -0.349   0.125  0.00  0.00     0.000 A 
ATOM      6  C6  BNZ d   1      -0.131   0.266   0.675  0.00  0.00     0.000 A 
ENDROOT
TORSDOF 0
ENDMDL
