MODEL 1
REMARK minimizedAffinity -2.59585834
REMARK minimizedRMSD -1
REMARK  0 active torsions:
REMARK  status: ('A' for Active; 'I' for Inactive)
ROOT
ATOM      1  C1  BNZ d   1      -0.219   0.773   0.551  0.00  0.00     0.000 A 
ATOM      2  C2  BNZ d   1      -0.357  -0.483   1.080  0.00  0.00     0.000 A 
ATOM      3  C3  BNZ d   1       0.138  -1.576   0.425  0.00  0.00     0.000 A 
ATOM      4  C4  BNZ d   1       0.733  -1.418  -0.775  0.00  0.00     0.000 A 
ATOM      5  C5  BNZ d   1       0.871  -0.159  -1.326  0.00  0.00     0.000 A 
ATOM      6  C6  BNZ d   1       0.407   0.943  -0.646  0.00  0.00     0.000 A 
ENDROOT
TORSDOF 0
ENDMDL
