MODEL 1
REMARK minimizedAffinity -3.81696963
REMARK minimizedRMSD -1
REMARK  0 active torsions:
REMARK  status: ('A' for Active; 'I' for Inactive)
ROOT
ATOM      1  C1  BNZ d   1      -1.252  -2.138   0.584  0.00  0.00     0.000 A 
ATOM      2  C2  BNZ d   1      -0.166  -2.954   0.411  0.00  0.00     0.000 A 
ATOM      3  C3  BNZ d   1       1.067  -2.431   0.141  0.00  0.00     0.000 A 
ATOM      4  C4  BNZ d   1       1.206  -1.096   0.004  0.00  0.00     0.000 A 
ATOM      5  C5  BNZ d   1       0.119  -0.260   0.166  0.00  0.00     0.000 A 
ATOM      6  C6  BNZ d   1      -1.113  -0.788   0.477  0.00  0.00     0.000 A 
ENDROOT
TORSDOF 0
ENDMDL
