MODEL 1
REMARK minimizedAffinity -4.30600834
REMARK minimizedRMSD -1
REMARK  0 active torsions:
REMARK  status: ('A' for Active; 'I' for Inactive)
ROOT
ATOM      1  C1  BNZ d   1      -0.806   0.773  -0.019  0.00  0.00     0.000 A 
ATOM      2  C2  BNZ d   1      -0.549   0.884  -1.359  0.00  0.00     0.000 A 
ATOM      3  C3  BNZ d   1      -0.008  -0.159  -2.057  0.00  0.00     0.000 A 
ATOM      4  C4  BNZ d   1       0.312  -1.297  -1.407  0.00  0.00     0.000 A 
ATOM      5  C5  BNZ d   1       0.067  -1.421  -0.054  0.00  0.00     0.000 A 
ATOM      6  C6  BNZ d   1      -0.513  -0.383   0.637  0.00  0.00     0.000 A 
ENDROOT
TORSDOF 0
ENDMDL
