MODEL 1
REMARK minimizedAffinity -2.62851787
REMARK minimizedRMSD -1
REMARK  0 active torsions:
REMARK  status: ('A' for Active; 'I' for Inactive)
ROOT
ATOM      1  C1  BNZ d   1       0.261   3.355   0.537  0.00  0.00     0.000 A 
ATOM      2  C2  BNZ d   1       1.349   4.172   0.689  0.00  0.00     0.000 A 
ATOM      3  C3  BNZ d   1       2.477   3.982  -0.059  0.00  0.00     0.000 A 
ATOM      4  C4  BNZ d   1       2.531   2.952  -0.927  0.00  0.00     0.000 A 
ATOM      5  C5  BNZ d   1       1.446   2.113  -1.085  0.00  0.00     0.000 A 
ATOM      6  C6  BNZ d   1       0.298   2.331  -0.359  0.00  0.00     0.000 A 
ENDROOT
TORSDOF 0
ENDMDL
