MODEL 1
REMARK minimizedAffinity -4.2055335
REMARK minimizedRMSD -1
REMARK  0 active torsions:
REMARK  status: ('A' for Active; 'I' for Inactive)
ROOT
ATOM      1  C1  BNZ d   1       0.346  -0.312  -0.280  0.00  0.00     0.000 A 
ATOM      2  C2  BNZ d   1       0.571  -1.660  -0.199  0.00  0.00     0.000 A 
ATOM      3  C3  BNZ d   1      -0.240  -2.461   0.554  0.00  0.00     0.000 A 
ATOM      4  C4  BNZ d   1      -1.250  -1.909   1.257  0.00  0.00     0.000 A 
ATOM      5  C5  BNZ d   1      -1.484  -0.550   1.193  0.00  0.00     0.000 A 
ATOM      6  C6  BNZ d   1      -0.689   0.248   0.403  0.00  0.00     0.000 A 
ENDROOT
TORSDOF 0
ENDMDL
