MODEL 1
REMARK minimizedAffinity -0.110360175
REMARK minimizedRMSD -1
REMARK  0 active torsions:
REMARK  status: ('A' for Active; 'I' for Inactive)
ROOT
ATOM      1  C1  BNZ d   1       0.493   0.050  -2.067  0.00  0.00     0.000 A 
ATOM      2  C2  BNZ d   1       0.128  -1.096  -1.412  0.00  0.00     0.000 A 
ATOM      3  C3  BNZ d   1      -0.367  -1.048  -0.139  0.00  0.00     0.000 A 
ATOM      4  C4  BNZ d   1      -0.460   0.140   0.492  0.00  0.00     0.000 A 
ATOM      5  C5  BNZ d   1      -0.087   1.304  -0.151  0.00  0.00     0.000 A 
ATOM      6  C6  BNZ d   1       0.374   1.255  -1.447  0.00  0.00     0.000 A 
ENDROOT
TORSDOF 0
ENDMDL
