MODEL 1
REMARK minimizedAffinity -5.03565693
REMARK minimizedRMSD -1
REMARK  0 active torsions:
REMARK  status: ('A' for Active; 'I' for Inactive)
ROOT
ATOM      1  C1  BNZ d   1       0.407  -3.137   0.185  0.00  0.00     0.000 A 
ATOM      2  C2  BNZ d   1       0.498  -3.874  -0.966  0.00  0.00     0.000 A 
ATOM      3  C3  BNZ d   1       0.296  -3.294  -2.187  0.00  0.00     0.000 A 
ATOM      4  C4  BNZ d   1      -0.036  -1.989  -2.253  0.00  0.00     0.000 A 
ATOM      5  C5  BNZ d   1      -0.141  -1.234  -1.102  0.00  0.00     0.000 A 
ATOM      6  C6  BNZ d   1       0.101  -1.813   0.123  0.00  0.00     0.000 A 
ENDROOT
TORSDOF 0
ENDMDL
