MODEL 1
REMARK minimizedAffinity -4.77603292
REMARK minimizedRMSD -1
REMARK  0 active torsions:
REMARK  status: ('A' for Active; 'I' for Inactive)
ROOT
ATOM      1  C1  BNZ d   1      -0.789  -0.812   0.958  0.00  0.00     0.000 A 
ATOM      2  C2  BNZ d   1      -0.282  -0.065  -0.071  0.00  0.00     0.000 A 
ATOM      3  C3  BNZ d   1       0.396  -0.658  -1.099  0.00  0.00     0.000 A 
ATOM      4  C4  BNZ d   1       0.600  -1.991  -1.077  0.00  0.00     0.000 A 
ATOM      5  C5  BNZ d   1       0.102  -2.757  -0.042  0.00  0.00     0.000 A 
ATOM      6  C6  BNZ d   1      -0.613  -2.162   0.972  0.00  0.00     0.000 A 
ENDROOT
TORSDOF 0
ENDMDL
