MODEL 1
REMARK minimizedAffinity -2.76655626
REMARK minimizedRMSD -1
REMARK  0 active torsions:
REMARK  status: ('A' for Active; 'I' for Inactive)
ROOT
ATOM      1  C1  BNZ d   1       1.257  -0.836  -0.108  0.00  0.00     0.000 A 
ATOM      2  C2  BNZ d   1       1.352  -2.197   0.004  0.00  0.00     0.000 A 
ATOM      3  C3  BNZ d   1       0.262  -2.949   0.343  0.00  0.00     0.000 A 
ATOM      4  C4  BNZ d   1      -0.909  -2.337   0.609  0.00  0.00     0.000 A 
ATOM      5  C5  BNZ d   1      -1.018  -0.964   0.510  0.00  0.00     0.000 A 
ATOM      6  C6  BNZ d   1       0.071  -0.214   0.130  0.00  0.00     0.000 A 
ENDROOT
TORSDOF 0
ENDMDL
