MODEL 1
REMARK minimizedAffinity -4.88061571
REMARK minimizedRMSD -1
REMARK  0 active torsions:
REMARK  status: ('A' for Active; 'I' for Inactive)
ROOT
ATOM      1  C1  BNZ d   1       0.137   0.312  -0.455  0.00  0.00     0.000 A 
ATOM      2  C2  BNZ d   1       0.436  -1.024  -0.496  0.00  0.00     0.000 A 
ATOM      3  C3  BNZ d   1      -0.110  -1.892   0.408  0.00  0.00     0.000 A 
ATOM      4  C4  BNZ d   1      -0.921  -1.418   1.375  0.00  0.00     0.000 A 
ATOM      5  C5  BNZ d   1      -1.224  -0.072   1.436  0.00  0.00     0.000 A 
ATOM      6  C6  BNZ d   1      -0.704   0.793   0.501  0.00  0.00     0.000 A 
ENDROOT
TORSDOF 0
ENDMDL
