MODEL 1
REMARK minimizedAffinity -4.41911316
REMARK minimizedRMSD -1
REMARK  0 active torsions:
REMARK  status: ('A' for Active; 'I' for Inactive)
ROOT
ATOM      1  C1  BNZ d   1       0.636  -1.791  -0.402  0.00  0.00     0.000 A 
ATOM      2  C2  BNZ d   1       0.534  -0.482  -0.012  0.00  0.00     0.000 A 
ATOM      3  C3  BNZ d   1      -0.379  -0.103   0.933  0.00  0.00     0.000 A 
ATOM      4  C4  BNZ d   1      -1.214  -1.025   1.455  0.00  0.00     0.000 A 
ATOM      5  C5  BNZ d   1      -1.129  -2.346   1.065  0.00  0.00     0.000 A 
ATOM      6  C6  BNZ d   1      -0.183  -2.731   0.142  0.00  0.00     0.000 A 
ENDROOT
TORSDOF 0
ENDMDL
