MODEL 1
REMARK minimizedAffinity 3.42713118
REMARK minimizedRMSD -1
REMARK  0 active torsions:
REMARK  status: ('A' for Active; 'I' for Inactive)
ROOT
ATOM      1  C1  DEN d   1      -3.894   3.406  -3.909  0.00  0.00     0.130 A 
ATOM      2  C2  DEN d   1      -4.500   3.629  -5.219  0.00  0.00    -0.031 A 
ATOM      3  C3  DEN d   1      -4.748   2.312  -5.838  0.00  0.00     0.027 A 
ATOM      4  C4  DEN d   1      -4.257  -0.040  -4.899  0.00  0.00     0.027 A 
ATOM      5  C5  DEN d   1      -3.735  -0.736  -3.831  0.00  0.00    -0.003 A 
ATOM      6  C6  DEN d   1      -3.203  -0.105  -2.738  0.00  0.00     0.001 A 
ATOM      7  C7  DEN d   1      -3.222   1.263  -2.668  0.00  0.00     0.017 A 
ATOM      8  C8  DEN d   1      -3.739   1.972  -3.745  0.00  0.00    -0.094 A 
ATOM      9  C9  DEN d   1      -4.284   1.315  -4.835  0.00  0.00    -0.072 A 
ENDROOT
TORSDOF 0
ENDMDL
