MODEL 1
REMARK minimizedAffinity 10.3626347
REMARK minimizedRMSD -1
REMARK  0 active torsions:
REMARK  status: ('A' for Active; 'I' for Inactive)
ROOT
ATOM      1  C1  DEN d   1      -0.725   0.828   1.525  0.00  0.00     0.130 A 
ATOM      2  C2  DEN d   1      -0.885   0.979   0.081  0.00  0.00    -0.031 A 
ATOM      3  C3  DEN d   1       0.224   0.261  -0.578  0.00  0.00     0.027 A 
ATOM      4  C4  DEN d   1       2.159  -1.068   0.489  0.00  0.00     0.027 A 
ATOM      5  C5  DEN d   1       2.724  -1.468   1.681  0.00  0.00    -0.003 A 
ATOM      6  C6  DEN d   1       2.201  -1.105   2.894  0.00  0.00     0.001 A 
ATOM      7  C7  DEN d   1       1.055  -0.356   2.943  0.00  0.00     0.017 A 
ATOM      8  C8  DEN d   1       0.485   0.057   1.746  0.00  0.00    -0.094 A 
ATOM      9  C9  DEN d   1       1.021  -0.331   0.530  0.00  0.00    -0.072 A 
ENDROOT
TORSDOF 0
ENDMDL
