MODEL 1
REMARK minimizedAffinity 5.05789137
REMARK minimizedRMSD -1
REMARK  0 active torsions:
REMARK  status: ('A' for Active; 'I' for Inactive)
ROOT
ATOM      1  C1  DEN d   1       1.580  -0.654   1.924  0.00  0.00     0.130 A 
ATOM      2  C2  DEN d   1       1.439   0.339   2.986  0.00  0.00    -0.031 A 
ATOM      3  C3  DEN d   1       0.747   1.515   2.423  0.00  0.00     0.027 A 
ATOM      4  C4  DEN d   1      -0.121   1.893   0.024  0.00  0.00     0.027 A 
ATOM      5  C5  DEN d   1      -0.222   1.339  -1.234  0.00  0.00    -0.003 A 
ATOM      6  C6  DEN d   1       0.297   0.107  -1.533  0.00  0.00     0.001 A 
ATOM      7  C7  DEN d   1       0.901  -0.632  -0.550  0.00  0.00     0.017 A 
ATOM      8  C8  DEN d   1       1.013  -0.078   0.718  0.00  0.00    -0.094 A 
ATOM      9  C9  DEN d   1       0.471   1.164   1.004  0.00  0.00    -0.072 A 
ENDROOT
TORSDOF 0
ENDMDL
