MODEL 1
REMARK minimizedAffinity 5.58391857
REMARK minimizedRMSD -1
REMARK  0 active torsions:
REMARK  status: ('A' for Active; 'I' for Inactive)
ROOT
ATOM      1  C1  DEN d   1      -0.638   1.532   0.654  0.00  0.00     0.130 A 
ATOM      2  C2  DEN d   1      -0.457   1.387  -0.787  0.00  0.00    -0.031 A 
ATOM      3  C3  DEN d   1       0.628   0.412  -1.015  0.00  0.00     0.027 A 
ATOM      4  C4  DEN d   1       2.033  -0.886   0.715  0.00  0.00     0.027 A 
ATOM      5  C5  DEN d   1       2.252  -1.086   2.060  0.00  0.00    -0.003 A 
ATOM      6  C6  DEN d   1       1.552  -0.408   3.023  0.00  0.00     0.001 A 
ATOM      7  C7  DEN d   1       0.567   0.470   2.654  0.00  0.00     0.017 A 
ATOM      8  C8  DEN d   1       0.346   0.683   1.300  0.00  0.00    -0.094 A 
ATOM      9  C9  DEN d   1       1.056  -0.021   0.342  0.00  0.00    -0.072 A 
ENDROOT
TORSDOF 0
ENDMDL
