MODEL 1
REMARK minimizedAffinity 3.84764385
REMARK minimizedRMSD -1
REMARK  0 active torsions:
REMARK  status: ('A' for Active; 'I' for Inactive)
ROOT
ATOM      1  C1  DEN d   1       2.576  -0.704   0.305  0.00  0.00     0.130 A 
ATOM      2  C2  DEN d   1       3.047  -1.024   1.650  0.00  0.00    -0.031 A 
ATOM      3  C3  DEN d   1       2.201  -0.293   2.615  0.00  0.00     0.027 A 
ATOM      4  C4  DEN d   1       0.217   1.291   2.160  0.00  0.00     0.027 A 
ATOM      5  C5  DEN d   1      -0.547   1.879   1.177  0.00  0.00    -0.003 A 
ATOM      6  C6  DEN d   1      -0.304   1.676  -0.156  0.00  0.00     0.001 A 
ATOM      7  C7  DEN d   1       0.701   0.828  -0.541  0.00  0.00     0.017 A 
ATOM      8  C8  DEN d   1       1.480   0.237   0.445  0.00  0.00    -0.094 A 
ATOM      9  C9  DEN d   1       1.210   0.445   1.787  0.00  0.00    -0.072 A 
ENDROOT
TORSDOF 0
ENDMDL
