MODEL 1
REMARK minimizedAffinity 12.0614109
REMARK minimizedRMSD -1
REMARK  0 active torsions:
REMARK  status: ('A' for Active; 'I' for Inactive)
ROOT
ATOM      1  C1  DEN d   1      -5.952  -2.998   2.180  0.00  0.00     0.130 A 
ATOM      2  C2  DEN d   1      -5.887  -2.976   3.638  0.00  0.00    -0.031 A 
ATOM      3  C3  DEN d   1      -5.874  -1.565   4.074  0.00  0.00     0.027 A 
ATOM      4  C4  DEN d   1      -5.950   0.576   2.638  0.00  0.00     0.027 A 
ATOM      5  C5  DEN d   1      -5.998   1.063   1.350  0.00  0.00    -0.003 A 
ATOM      6  C6  DEN d   1      -5.999   0.238   0.257  0.00  0.00     0.001 A 
ATOM      7  C7  DEN d   1      -5.998  -1.120   0.432  0.00  0.00     0.017 A 
ATOM      8  C8  DEN d   1      -5.942  -1.619   1.727  0.00  0.00    -0.094 A 
ATOM      9  C9  DEN d   1      -5.954  -0.769   2.820  0.00  0.00    -0.072 A 
ENDROOT
TORSDOF 0
ENDMDL
