MODEL 1
REMARK minimizedAffinity 3.62491584
REMARK minimizedRMSD -1
REMARK  0 active torsions:
REMARK  status: ('A' for Active; 'I' for Inactive)
ROOT
ATOM      1  C1  DEN d   1       0.467   1.287  -1.185  0.00  0.00     0.130 A 
ATOM      2  C2  DEN d   1      -0.658   0.811  -1.985  0.00  0.00    -0.031 A 
ATOM      3  C3  DEN d   1      -1.263  -0.339  -1.284  0.00  0.00     0.027 A 
ATOM      4  C4  DEN d   1      -0.576  -1.419   0.955  0.00  0.00     0.027 A 
ATOM      5  C5  DEN d   1       0.326  -1.369   1.995  0.00  0.00    -0.003 A 
ATOM      6  C6  DEN d   1       1.350  -0.460   2.031  0.00  0.00     0.001 A 
ATOM      7  C7  DEN d   1       1.470   0.467   1.030  0.00  0.00     0.017 A 
ATOM      8  C8  DEN d   1       0.569   0.418  -0.026  0.00  0.00    -0.094 A 
ATOM      9  C9  DEN d   1      -0.466  -0.501  -0.039  0.00  0.00    -0.072 A 
ENDROOT
TORSDOF 0
ENDMDL
