MODEL 1
REMARK minimizedAffinity -2.99971676
REMARK minimizedRMSD -1
REMARK  0 active torsions:
REMARK  status: ('A' for Active; 'I' for Inactive)
ROOT
ATOM      1  C1  DEN d   1      -0.319   2.263  -0.699  0.00  0.00     0.130 A 
ATOM      2  C2  DEN d   1      -0.379   1.443  -1.906  0.00  0.00    -0.031 A 
ATOM      3  C3  DEN d   1       0.121   0.095  -1.568  0.00  0.00     0.027 A 
ATOM      4  C4  DEN d   1       0.974  -0.798   0.696  0.00  0.00     0.027 A 
ATOM      5  C5  DEN d   1       1.224  -0.470   2.010  0.00  0.00    -0.003 A 
ATOM      6  C6  DEN d   1       1.011   0.791   2.501  0.00  0.00     0.001 A 
ATOM      7  C7  DEN d   1       0.491   1.759   1.683  0.00  0.00     0.017 A 
ATOM      8  C8  DEN d   1       0.244   1.438   0.355  0.00  0.00    -0.094 A 
ATOM      9  C9  DEN d   1       0.454   0.154  -0.119  0.00  0.00    -0.072 A 
ENDROOT
TORSDOF 0
ENDMDL
