MODEL 1
REMARK minimizedAffinity 2.3362639
REMARK minimizedRMSD -1
REMARK  0 active torsions:
REMARK  status: ('A' for Active; 'I' for Inactive)
ROOT
ATOM      1  C1  DEN d   1       1.848  -0.829   0.563  0.00  0.00     0.130 A 
ATOM      2  C2  DEN d   1       1.986  -0.862   2.017  0.00  0.00    -0.031 A 
ATOM      3  C3  DEN d   1       1.062   0.140   2.585  0.00  0.00     0.027 A 
ATOM      4  C4  DEN d   1      -0.563   1.727   1.363  0.00  0.00     0.027 A 
ATOM      5  C5  DEN d   1      -1.024   2.128   0.129  0.00  0.00    -0.003 A 
ATOM      6  C6  DEN d   1      -0.540   1.600  -1.039  0.00  0.00     0.001 A 
ATOM      7  C7  DEN d   1       0.403   0.608  -0.995  0.00  0.00     0.017 A 
ATOM      8  C8  DEN d   1       0.879   0.203   0.245  0.00  0.00    -0.094 A 
ATOM      9  C9  DEN d   1       0.368   0.741   1.415  0.00  0.00    -0.072 A 
ENDROOT
TORSDOF 0
ENDMDL
