MODEL 1
REMARK minimizedAffinity -5.78434849
REMARK minimizedRMSD -1
REMARK  1 active torsions:
REMARK  status: ('A' for Active; 'I' for Inactive)
REMARK    1  A    between atoms: C1_2  and  C2_3 
ROOT
ATOM      1  C2  UNL d   1       0.263  -0.334   0.512  0.00  0.00    -0.077 A 
ATOM      2  C3  UNL d   1      -0.417  -1.030   1.521  0.00  0.00     0.002 A 
ATOM      3  C4  UNL d   1       0.069  -2.253   1.986  0.00  0.00     0.002 A 
ATOM      4  C5  UNL d   1       1.240  -2.788   1.452  0.00  0.00    -0.004 A 
ATOM      5  C6  UNL d   1       1.923  -2.104   0.448  0.00  0.00     0.002 A 
ATOM      6  C7  UNL d   1       1.437  -0.882  -0.020  0.00  0.00     0.002 A 
ENDROOT
BRANCH   1   7
ATOM      7  C1  UNL d   1      -0.233   1.009   0.043  0.00  0.00     0.055 C 
ATOM      8  C   UNL d   1      -1.257   1.589   1.008  0.00  0.00     0.019 C 
ENDBRANCH   1   7
TORSDOF 1
ENDMDL
