MODEL 1
REMARK minimizedAffinity -4.85186243
REMARK minimizedRMSD -1
REMARK  1 active torsions:
REMARK  status: ('A' for Active; 'I' for Inactive)
REMARK    1  A    between atoms: C1_2  and  C2_3 
ROOT
ATOM      1  C2  UNL d   1       0.141   0.419   0.018  0.00  0.00    -0.077 A 
ATOM      2  C3  UNL d   1       1.258  -0.073  -0.672  0.00  0.00     0.002 A 
ATOM      3  C4  UNL d   1       1.923  -1.214  -0.219  0.00  0.00     0.002 A 
ATOM      4  C5  UNL d   1       1.476  -1.874   0.924  0.00  0.00    -0.004 A 
ATOM      5  C6  UNL d   1       0.368  -1.392   1.619  0.00  0.00     0.002 A 
ATOM      6  C7  UNL d   1      -0.297  -0.251   1.167  0.00  0.00     0.002 A 
ENDROOT
BRANCH   1   7
ATOM      7  C1  UNL d   1      -0.607   1.620  -0.498  0.00  0.00     0.055 C 
ATOM      8  C   UNL d   1      -1.663   1.219  -1.518  0.00  0.00     0.019 C 
ENDBRANCH   1   7
TORSDOF 1
ENDMDL
