MODEL 1
REMARK minimizedAffinity -4.69996881
REMARK minimizedRMSD -1
REMARK  1 active torsions:
REMARK  status: ('A' for Active; 'I' for Inactive)
REMARK    1  A    between atoms: C1_2  and  C2_3 
ROOT
ATOM      1  C2  UNL d   1       0.369  -1.052   0.760  0.00  0.00    -0.077 A 
ATOM      2  C3  UNL d   1       1.365  -0.552  -0.089  0.00  0.00     0.002 A 
ATOM      3  C4  UNL d   1       1.145   0.613  -0.827  0.00  0.00     0.002 A 
ATOM      4  C5  UNL d   1      -0.068   1.289  -0.719  0.00  0.00    -0.004 A 
ATOM      5  C6  UNL d   1      -1.066   0.798   0.121  0.00  0.00     0.002 A 
ATOM      6  C7  UNL d   1      -0.849  -0.367   0.859  0.00  0.00     0.002 A 
ENDROOT
BRANCH   1   7
ATOM      7  C1  UNL d   1       0.622  -2.281   1.594  0.00  0.00     0.055 C 
ATOM      8  C   UNL d   1       1.926  -2.959   1.199  0.00  0.00     0.019 C 
ENDBRANCH   1   7
TORSDOF 1
ENDMDL
