MODEL 1
REMARK minimizedAffinity -5.42666864
REMARK minimizedRMSD -1
REMARK  1 active torsions:
REMARK  status: ('A' for Active; 'I' for Inactive)
REMARK    1  A    between atoms: C1_2  and  C2_3 
ROOT
ATOM      1  C2  UNL d   1      -0.673   2.640  -3.640  0.00  0.00    -0.077 A 
ATOM      2  C3  UNL d   1      -0.175   2.580  -2.331  0.00  0.00     0.002 A 
ATOM      3  C4  UNL d   1      -0.816   1.801  -1.366  0.00  0.00     0.002 A 
ATOM      4  C5  UNL d   1      -1.956   1.073  -1.700  0.00  0.00    -0.004 A 
ATOM      5  C6  UNL d   1      -2.461   1.128  -2.999  0.00  0.00     0.002 A 
ATOM      6  C7  UNL d   1      -1.822   1.907  -3.965  0.00  0.00     0.002 A 
ENDROOT
BRANCH   1   7
ATOM      7  C1  UNL d   1       0.045   3.440  -4.695  0.00  0.00     0.055 C 
ATOM      8  C   UNL d   1       0.957   4.486  -4.071  0.00  0.00     0.019 C 
ENDBRANCH   1   7
TORSDOF 1
ENDMDL
