MODEL 1
REMARK minimizedAffinity -5.94216061
REMARK minimizedRMSD -1
REMARK  1 active torsions:
REMARK  status: ('A' for Active; 'I' for Inactive)
REMARK    1  A    between atoms: C1_2  and  C2_3 
ROOT
ATOM      1  C2  UNL d   1      -0.729   3.009  -3.928  0.00  0.00    -0.077 A 
ATOM      2  C3  UNL d   1      -1.905   2.417  -4.411  0.00  0.00     0.002 A 
ATOM      3  C4  UNL d   1      -2.775   1.761  -3.537  0.00  0.00     0.002 A 
ATOM      4  C5  UNL d   1      -2.481   1.696  -2.177  0.00  0.00    -0.004 A 
ATOM      5  C6  UNL d   1      -1.313   2.280  -1.688  0.00  0.00     0.002 A 
ATOM      6  C7  UNL d   1      -0.441   2.934  -2.560  0.00  0.00     0.002 A 
ENDROOT
BRANCH   1   7
ATOM      7  C1  UNL d   1       0.186   3.759  -4.861  0.00  0.00     0.055 C 
ATOM      8  C   UNL d   1       0.475   5.161  -4.345  0.00  0.00     0.019 C 
ENDBRANCH   1   7
TORSDOF 1
ENDMDL
