MODEL 1
REMARK minimizedAffinity -3.50504446
REMARK minimizedRMSD -1
REMARK  1 active torsions:
REMARK  status: ('A' for Active; 'I' for Inactive)
REMARK    1  A    between atoms: C1_2  and  C2_3 
ROOT
ATOM      1  C2  UNL d   1      -1.092   3.118  -3.517  0.00  0.00    -0.077 A 
ATOM      2  C3  UNL d   1      -2.433   2.731  -3.655  0.00  0.00     0.002 A 
ATOM      3  C4  UNL d   1      -3.032   1.906  -2.700  0.00  0.00     0.002 A 
ATOM      4  C5  UNL d   1      -2.299   1.466  -1.600  0.00  0.00    -0.004 A 
ATOM      5  C6  UNL d   1      -0.965   1.843  -1.455  0.00  0.00     0.002 A 
ATOM      6  C7  UNL d   1      -0.364   2.666  -2.409  0.00  0.00     0.002 A 
ENDROOT
BRANCH   1   7
ATOM      7  C1  UNL d   1      -0.459   4.047  -4.520  0.00  0.00     0.055 C 
ATOM      8  C   UNL d   1       0.135   5.272  -3.841  0.00  0.00     0.019 C 
ENDBRANCH   1   7
TORSDOF 1
ENDMDL
