MODEL 1
REMARK minimizedAffinity -5.81370497
REMARK minimizedRMSD -1
REMARK  1 active torsions:
REMARK  status: ('A' for Active; 'I' for Inactive)
REMARK    1  A    between atoms: C1_2  and  C2_3 
ROOT
ATOM      1  C2  UNL d   1      -1.319   2.437  -3.118  0.00  0.00    -0.077 A 
ATOM      2  C3  UNL d   1      -0.645   3.458  -2.433  0.00  0.00     0.002 A 
ATOM      3  C4  UNL d   1       0.140   4.378  -3.131  0.00  0.00     0.002 A 
ATOM      4  C5  UNL d   1       0.255   4.289  -4.516  0.00  0.00    -0.004 A 
ATOM      5  C6  UNL d   1      -0.410   3.276  -5.207  0.00  0.00     0.002 A 
ATOM      6  C7  UNL d   1      -1.194   2.355  -4.511  0.00  0.00     0.002 A 
ENDROOT
BRANCH   1   7
ATOM      7  C1  UNL d   1      -2.205   1.474  -2.373  0.00  0.00     0.055 C 
ATOM      8  C   UNL d   1      -2.943   2.166  -1.236  0.00  0.00     0.019 C 
ENDBRANCH   1   7
TORSDOF 1
ENDMDL
