MODEL 1
REMARK minimizedAffinity -5.17035675
REMARK minimizedRMSD -1
REMARK  1 active torsions:
REMARK  status: ('A' for Active; 'I' for Inactive)
REMARK    1  A    between atoms: C1_2  and  C2_3 
ROOT
ATOM      1  C2  UNL d   1      -0.739   2.521  -3.805  0.00  0.00    -0.077 A 
ATOM      2  C3  UNL d   1      -1.874   1.917  -4.366  0.00  0.00     0.002 A 
ATOM      3  C4  UNL d   1      -2.767   1.208  -3.561  0.00  0.00     0.002 A 
ATOM      4  C5  UNL d   1      -2.538   1.100  -2.191  0.00  0.00    -0.004 A 
ATOM      5  C6  UNL d   1      -1.412   1.695  -1.624  0.00  0.00     0.002 A 
ATOM      6  C7  UNL d   1      -0.517   2.403  -2.427  0.00  0.00     0.002 A 
ENDROOT
BRANCH   1   7
ATOM      7  C1  UNL d   1       0.199   3.327  -4.664  0.00  0.00     0.055 C 
ATOM      8  C   UNL d   1       0.887   4.420  -3.858  0.00  0.00     0.019 C 
ENDBRANCH   1   7
TORSDOF 1
ENDMDL
