MODEL 1
REMARK minimizedAffinity -3.87938905
REMARK minimizedRMSD -1
REMARK  1 active torsions:
REMARK  status: ('A' for Active; 'I' for Inactive)
REMARK    1  A    between atoms: C1_2  and  C2_3 
ROOT
ATOM      1  C2  UNL d   1      -1.225   1.098  -1.290  0.00  0.00    -0.077 A 
ATOM      2  C3  UNL d   1      -2.509   0.735  -1.722  0.00  0.00     0.002 A 
ATOM      3  C4  UNL d   1      -2.956   1.100  -2.993  0.00  0.00     0.002 A 
ATOM      4  C5  UNL d   1      -2.125   1.825  -3.844  0.00  0.00    -0.004 A 
ATOM      5  C6  UNL d   1      -0.848   2.192  -3.424  0.00  0.00     0.002 A 
ATOM      6  C7  UNL d   1      -0.399   1.830  -2.153  0.00  0.00     0.002 A 
ENDROOT
BRANCH   1   7
ATOM      7  C1  UNL d   1      -0.723   0.664   0.062  0.00  0.00     0.055 C 
ATOM      8  C   UNL d   1       0.646   0.007  -0.041  0.00  0.00     0.019 C 
ENDBRANCH   1   7
TORSDOF 1
ENDMDL
