MODEL 1
REMARK minimizedAffinity -3.34650445
REMARK minimizedRMSD -1
REMARK  1 active torsions:
REMARK  status: ('A' for Active; 'I' for Inactive)
REMARK    1  A    between atoms: C1_2  and  C2_3 
ROOT
ATOM      1  C2  UNL d   1       0.707  -0.221  -0.117  0.00  0.00    -0.077 A 
ATOM      2  C3  UNL d   1       0.078  -0.461  -1.347  0.00  0.00     0.002 A 
ATOM      3  C4  UNL d   1      -0.860   0.444  -1.849  0.00  0.00     0.002 A 
ATOM      4  C5  UNL d   1      -1.174   1.595  -1.130  0.00  0.00    -0.004 A 
ATOM      5  C6  UNL d   1      -0.555   1.842   0.095  0.00  0.00     0.002 A 
ATOM      6  C7  UNL d   1       0.381   0.938   0.599  0.00  0.00     0.002 A 
ENDROOT
BRANCH   1   7
ATOM      7  C1  UNL d   1       1.754  -1.170   0.402  0.00  0.00     0.055 C 
ATOM      8  C   UNL d   1       1.444  -1.613   1.825  0.00  0.00     0.019 C 
ENDBRANCH   1   7
TORSDOF 1
ENDMDL
