MODEL 1
REMARK minimizedAffinity 3.37159038
REMARK minimizedRMSD -1
REMARK  0 active torsions:
REMARK  status: ('A' for Active; 'I' for Inactive)
ROOT
ATOM      1  C   UNL d   1       0.689  -1.363   0.533  0.00  0.00     0.077 C 
ATOM      2  C1  UNL d   1       0.895  -1.089  -0.927  0.00  0.00    -0.074 A 
ATOM      3  C2  UNL d   1       1.041  -2.137  -1.842  0.00  0.00    -0.005 A 
ATOM      4  C3  UNL d   1       1.222  -1.867  -3.198  0.00  0.00     0.006 A 
ATOM      5  C4  UNL d   1       1.259  -0.548  -3.653  0.00  0.00    -0.005 A 
ATOM      6  C5  UNL d   1       1.114   0.513  -2.753  0.00  0.00    -0.074 A 
ATOM      7  C6  UNL d   1       1.142   1.936  -3.226  0.00  0.00     0.077 C 
ATOM      8  C7  UNL d   1       0.925   0.233  -1.393  0.00  0.00    -0.001 A 
ENDROOT
TORSDOF 0
ENDMDL
