MODEL 1
REMARK minimizedAffinity 0.225280747
REMARK minimizedRMSD -1
REMARK  0 active torsions:
REMARK  status: ('A' for Active; 'I' for Inactive)
ROOT
ATOM      1  C   UNL d   1       3.124  -2.373   1.001  0.00  0.00     0.077 C 
ATOM      2  C1  UNL d   1       1.957  -1.802   0.253  0.00  0.00    -0.074 A 
ATOM      3  C2  UNL d   1       2.141  -0.823  -0.729  0.00  0.00    -0.005 A 
ATOM      4  C3  UNL d   1       1.047  -0.309  -1.424  0.00  0.00     0.006 A 
ATOM      5  C4  UNL d   1      -0.241  -0.767  -1.144  0.00  0.00    -0.005 A 
ATOM      6  C5  UNL d   1      -0.445  -1.746  -0.167  0.00  0.00    -0.074 A 
ATOM      7  C6  UNL d   1      -1.822  -2.257   0.139  0.00  0.00     0.077 C 
ATOM      8  C7  UNL d   1       0.660  -2.263   0.522  0.00  0.00    -0.001 A 
ENDROOT
TORSDOF 0
ENDMDL
