MODEL 1
REMARK minimizedAffinity 4.74410439
REMARK minimizedRMSD -1
REMARK  0 active torsions:
REMARK  status: ('A' for Active; 'I' for Inactive)
ROOT
ATOM      1  C   UNL d   1       0.229   0.853  -3.669  0.00  0.00     0.077 C 
ATOM      2  C1  UNL d   1       0.487   0.092  -2.403  0.00  0.00    -0.074 A 
ATOM      3  C2  UNL d   1       1.694   0.235  -1.711  0.00  0.00    -0.005 A 
ATOM      4  C3  UNL d   1       1.916  -0.473  -0.530  0.00  0.00     0.006 A 
ATOM      5  C4  UNL d   1       0.935  -1.328  -0.028  0.00  0.00    -0.005 A 
ATOM      6  C5  UNL d   1      -0.279  -1.483  -0.705  0.00  0.00    -0.074 A 
ATOM      7  C6  UNL d   1      -1.348  -2.391  -0.174  0.00  0.00     0.077 C 
ATOM      8  C7  UNL d   1      -0.497  -0.764  -1.888  0.00  0.00    -0.001 A 
ENDROOT
TORSDOF 0
ENDMDL
