MODEL 1
REMARK minimizedAffinity -3.6304915
REMARK minimizedRMSD -1
REMARK  0 active torsions:
REMARK  status: ('A' for Active; 'I' for Inactive)
ROOT
ATOM      1  C   UNL d   1      -5.985  -0.754   2.204  0.00  0.00     0.077 C 
ATOM      2  C1  UNL d   1      -4.854  -0.135   2.971  0.00  0.00    -0.074 A 
ATOM      3  C2  UNL d   1      -4.870   1.223   3.306  0.00  0.00    -0.005 A 
ATOM      4  C3  UNL d   1      -3.816   1.782   4.028  0.00  0.00     0.006 A 
ATOM      5  C4  UNL d   1      -2.737   0.990   4.422  0.00  0.00    -0.005 A 
ATOM      6  C5  UNL d   1      -2.704  -0.370   4.098  0.00  0.00    -0.074 A 
ATOM      7  C6  UNL d   1      -1.556  -1.237   4.522  0.00  0.00     0.077 C 
ATOM      8  C7  UNL d   1      -3.770  -0.926   3.378  0.00  0.00    -0.001 A 
ENDROOT
TORSDOF 0
ENDMDL
