MODEL 1
REMARK minimizedAffinity 0.345246255
REMARK minimizedRMSD -1
REMARK  0 active torsions:
REMARK  status: ('A' for Active; 'I' for Inactive)
ROOT
ATOM      1  C   UNL d   1      -1.967  -1.602  -1.431  0.00  0.00     0.077 C 
ATOM      2  C1  UNL d   1      -0.594  -1.487  -0.837  0.00  0.00    -0.074 A 
ATOM      3  C2  UNL d   1      -0.251  -2.191   0.321  0.00  0.00    -0.005 A 
ATOM      4  C3  UNL d   1       1.032  -2.082   0.857  0.00  0.00     0.006 A 
ATOM      5  C4  UNL d   1       1.984  -1.269   0.240  0.00  0.00    -0.005 A 
ATOM      6  C5  UNL d   1       1.659  -0.558  -0.919  0.00  0.00    -0.074 A 
ATOM      7  C6  UNL d   1       2.673   0.313  -1.600  0.00  0.00     0.077 C 
ATOM      8  C7  UNL d   1       0.370  -0.678  -1.455  0.00  0.00    -0.001 A 
ENDROOT
TORSDOF 0
ENDMDL
