MODEL 1
REMARK minimizedAffinity 5.76547575
REMARK minimizedRMSD -1
REMARK  0 active torsions:
REMARK  status: ('A' for Active; 'I' for Inactive)
ROOT
ATOM      1  C   UNL d   1       1.150   1.379  -2.598  0.00  0.00     0.077 C 
ATOM      2  C1  UNL d   1       2.097   1.656  -3.727  0.00  0.00    -0.074 A 
ATOM      3  C2  UNL d   1       1.630   2.134  -4.956  0.00  0.00    -0.005 A 
ATOM      4  C3  UNL d   1       2.523   2.397  -5.994  0.00  0.00     0.006 A 
ATOM      5  C4  UNL d   1       3.891   2.185  -5.815  0.00  0.00    -0.005 A 
ATOM      6  C5  UNL d   1       4.377   1.709  -4.593  0.00  0.00    -0.074 A 
ATOM      7  C6  UNL d   1       5.844   1.485  -4.380  0.00  0.00     0.077 C 
ATOM      8  C7  UNL d   1       3.473   1.454  -3.552  0.00  0.00    -0.001 A 
ENDROOT
TORSDOF 0
ENDMDL
