MODEL 1
REMARK minimizedAffinity 0.57462877
REMARK minimizedRMSD -1
REMARK  0 active torsions:
REMARK  status: ('A' for Active; 'I' for Inactive)
ROOT
ATOM      1  C   UNL d   1       2.089   1.509  -5.257  0.00  0.00     0.077 C 
ATOM      2  C1  UNL d   1       1.557   1.351  -3.864  0.00  0.00    -0.074 A 
ATOM      3  C2  UNL d   1       0.947   2.421  -3.202  0.00  0.00    -0.005 A 
ATOM      4  C3  UNL d   1       0.449   2.257  -1.910  0.00  0.00     0.006 A 
ATOM      5  C4  UNL d   1       0.556   1.023  -1.267  0.00  0.00    -0.005 A 
ATOM      6  C5  UNL d   1       1.163  -0.058  -1.913  0.00  0.00    -0.074 A 
ATOM      7  C6  UNL d   1       1.278  -1.394  -1.240  0.00  0.00     0.077 C 
ATOM      8  C7  UNL d   1       1.655   0.113  -3.214  0.00  0.00    -0.001 A 
ENDROOT
TORSDOF 0
ENDMDL
