MODEL 1
REMARK minimizedAffinity 1.43942499
REMARK minimizedRMSD -1
REMARK  0 active torsions:
REMARK  status: ('A' for Active; 'I' for Inactive)
ROOT
ATOM      1  C   UNL d   1       0.744   1.757  -2.783  0.00  0.00     0.077 C 
ATOM      2  C1  UNL d   1       0.734   0.432  -2.081  0.00  0.00    -0.074 A 
ATOM      3  C2  UNL d   1       0.943   0.349  -0.700  0.00  0.00    -0.005 A 
ATOM      4  C3  UNL d   1       0.922  -0.890  -0.059  0.00  0.00     0.006 A 
ATOM      5  C4  UNL d   1       0.693  -2.056  -0.791  0.00  0.00    -0.005 A 
ATOM      6  C5  UNL d   1       0.482  -1.992  -2.172  0.00  0.00    -0.074 A 
ATOM      7  C6  UNL d   1       0.225  -3.234  -2.972  0.00  0.00     0.077 C 
ATOM      8  C7  UNL d   1       0.497  -0.743  -2.808  0.00  0.00    -0.001 A 
ENDROOT
TORSDOF 0
ENDMDL
