MODEL 1
REMARK minimizedAffinity 10.7366209
REMARK minimizedRMSD -1
REMARK  0 active torsions:
REMARK  status: ('A' for Active; 'I' for Inactive)
ROOT
ATOM      1  C   UNL d   1       1.038   0.681  -4.159  0.00  0.00     0.077 C 
ATOM      2  C1  UNL d   1       2.372   1.108  -4.696  0.00  0.00    -0.074 A 
ATOM      3  C2  UNL d   1       2.490   2.236  -5.515  0.00  0.00    -0.005 A 
ATOM      4  C3  UNL d   1       3.739   2.626  -5.999  0.00  0.00     0.006 A 
ATOM      5  C4  UNL d   1       4.880   1.893  -5.670  0.00  0.00    -0.005 A 
ATOM      6  C5  UNL d   1       4.782   0.763  -4.853  0.00  0.00    -0.074 A 
ATOM      7  C6  UNL d   1       6.000  -0.030  -4.482  0.00  0.00     0.077 C 
ATOM      8  C7  UNL d   1       3.525   0.381  -4.364  0.00  0.00    -0.001 A 
ENDROOT
TORSDOF 0
ENDMDL
