MODEL 1
REMARK minimizedAffinity 10.3014793
REMARK minimizedRMSD -1
REMARK  0 active torsions:
REMARK  status: ('A' for Active; 'I' for Inactive)
ROOT
ATOM      1  C   UNL d   1       1.043   2.513  -3.605  0.00  0.00     0.077 C 
ATOM      2  C1  UNL d   1       1.058   1.091  -3.127  0.00  0.00    -0.074 A 
ATOM      3  C2  UNL d   1       1.350   0.041  -4.003  0.00  0.00    -0.005 A 
ATOM      4  C3  UNL d   1       1.369  -1.275  -3.541  0.00  0.00     0.006 A 
ATOM      5  C4  UNL d   1       1.098  -1.554  -2.201  0.00  0.00    -0.005 A 
ATOM      6  C5  UNL d   1       0.805  -0.517  -1.310  0.00  0.00    -0.074 A 
ATOM      7  C6  UNL d   1       0.520  -0.798   0.135  0.00  0.00     0.077 C 
ATOM      8  C7  UNL d   1       0.794   0.804  -1.780  0.00  0.00    -0.001 A 
ENDROOT
TORSDOF 0
ENDMDL
