MODEL 1
REMARK minimizedAffinity 2.36228919
REMARK minimizedRMSD -1
REMARK  0 active torsions:
REMARK  status: ('A' for Active; 'I' for Inactive)
ROOT
ATOM      1  C   UNL d   1       1.583  -2.546  -3.638  0.00  0.00     0.077 C 
ATOM      2  C1  UNL d   1       1.282  -1.447  -2.664  0.00  0.00    -0.074 A 
ATOM      3  C2  UNL d   1       1.036  -1.728  -1.316  0.00  0.00    -0.005 A 
ATOM      4  C3  UNL d   1       0.766  -0.694  -0.419  0.00  0.00     0.006 A 
ATOM      5  C4  UNL d   1       0.739   0.629  -0.861  0.00  0.00    -0.005 A 
ATOM      6  C5  UNL d   1       0.983   0.930  -2.205  0.00  0.00    -0.074 A 
ATOM      7  C6  UNL d   1       0.968   2.348  -2.693  0.00  0.00     0.077 C 
ATOM      8  C7  UNL d   1       1.261  -0.114  -3.098  0.00  0.00    -0.001 A 
ENDROOT
TORSDOF 0
ENDMDL
