MODEL 1
REMARK minimizedAffinity 1.40065241
REMARK minimizedRMSD -1
REMARK  0 active torsions:
REMARK  status: ('A' for Active; 'I' for Inactive)
ROOT
ATOM      1  C   UNL d   1       0.405   1.469  -0.676  0.00  0.00     0.077 C 
ATOM      2  C1  UNL d   1       0.815   0.669  -1.876  0.00  0.00    -0.074 A 
ATOM      3  C2  UNL d   1       1.136   1.297  -3.083  0.00  0.00    -0.005 A 
ATOM      4  C3  UNL d   1       1.525   0.540  -4.188  0.00  0.00     0.006 A 
ATOM      5  C4  UNL d   1       1.596  -0.851  -4.097  0.00  0.00    -0.005 A 
ATOM      6  C5  UNL d   1       1.279  -1.496  -2.898  0.00  0.00    -0.074 A 
ATOM      7  C6  UNL d   1       1.360  -2.990  -2.780  0.00  0.00     0.077 C 
ATOM      8  C7  UNL d   1       0.896  -0.728  -1.790  0.00  0.00    -0.001 A 
ENDROOT
TORSDOF 0
ENDMDL
