MODEL 1
REMARK minimizedAffinity 14.3703442
REMARK minimizedRMSD -1
REMARK  0 active torsions:
REMARK  status: ('A' for Active; 'I' for Inactive)
ROOT
ATOM      1  C   UNL d   1       2.259  -6.000   3.367  0.00  0.00     0.077 C 
ATOM      2  C1  UNL d   1       1.140  -5.377   2.587  0.00  0.00    -0.074 A 
ATOM      3  C2  UNL d   1      -0.109  -6.000   2.498  0.00  0.00    -0.005 A 
ATOM      4  C3  UNL d   1      -1.143  -5.403   1.776  0.00  0.00     0.006 A 
ATOM      5  C4  UNL d   1      -0.939  -4.180   1.137  0.00  0.00    -0.005 A 
ATOM      6  C5  UNL d   1       0.303  -3.541   1.216  0.00  0.00    -0.074 A 
ATOM      7  C6  UNL d   1       0.536  -2.221   0.543  0.00  0.00     0.077 C 
ATOM      8  C7  UNL d   1       1.335  -4.143   1.949  0.00  0.00    -0.001 A 
ENDROOT
TORSDOF 0
ENDMDL
