MODEL 1
REMARK minimizedAffinity -5.0483551
REMARK minimizedRMSD -1
REMARK  0 active torsions:
REMARK  status: ('A' for Active; 'I' for Inactive)
ROOT
ATOM      1  C   UNL d   1       1.946   2.814   1.284  0.00  0.00     0.077 C 
ATOM      2  C1  UNL d   1       1.036   1.689   0.886  0.00  0.00    -0.074 A 
ATOM      3  C2  UNL d   1       1.323   0.892  -0.226  0.00  0.00    -0.005 A 
ATOM      4  C3  UNL d   1       0.473  -0.156  -0.578  0.00  0.00     0.006 A 
ATOM      5  C4  UNL d   1      -0.671  -0.417   0.177  0.00  0.00    -0.005 A 
ATOM      6  C5  UNL d   1      -0.974   0.370   1.293  0.00  0.00    -0.074 A 
ATOM      7  C6  UNL d   1      -2.195   0.097   2.121  0.00  0.00     0.077 C 
ATOM      8  C7  UNL d   1      -0.111   1.417   1.645  0.00  0.00    -0.001 A 
ENDROOT
TORSDOF 0
ENDMDL
