MODEL 1
REMARK minimizedAffinity -3.67806458
REMARK minimizedRMSD -1
REMARK  0 active torsions:
REMARK  status: ('A' for Active; 'I' for Inactive)
ROOT
ATOM      1  C   UNL d   1      -1.583   1.232   1.055  0.00  0.00     0.077 C 
ATOM      2  C1  UNL d   1      -0.109   1.507   1.104  0.00  0.00    -0.074 A 
ATOM      3  C2  UNL d   1       0.407   2.513   1.927  0.00  0.00    -0.005 A 
ATOM      4  C3  UNL d   1       1.781   2.751   1.970  0.00  0.00     0.006 A 
ATOM      5  C4  UNL d   1       2.651   1.987   1.191  0.00  0.00    -0.005 A 
ATOM      6  C5  UNL d   1       2.153   0.976   0.363  0.00  0.00    -0.074 A 
ATOM      7  C6  UNL d   1       3.075   0.139  -0.473  0.00  0.00     0.077 C 
ATOM      8  C7  UNL d   1       0.772   0.738   0.331  0.00  0.00    -0.001 A 
ENDROOT
TORSDOF 0
ENDMDL
