MODEL 1
REMARK minimizedAffinity -5.69611406
REMARK minimizedRMSD -1
REMARK  0 active torsions:
REMARK  status: ('A' for Active; 'I' for Inactive)
ROOT
ATOM      1  C   UNL d   1      -0.305  -1.052   0.294  0.00  0.00     0.077 C 
ATOM      2  C1  UNL d   1       0.534   0.178   0.473  0.00  0.00    -0.074 A 
ATOM      3  C2  UNL d   1       0.124   1.211   1.322  0.00  0.00    -0.005 A 
ATOM      4  C3  UNL d   1       0.919   2.345   1.486  0.00  0.00     0.006 A 
ATOM      5  C4  UNL d   1       2.132   2.457   0.804  0.00  0.00    -0.005 A 
ATOM      6  C5  UNL d   1       2.559   1.434  -0.049  0.00  0.00    -0.074 A 
ATOM      7  C6  UNL d   1       3.863   1.534  -0.782  0.00  0.00     0.077 C 
ATOM      8  C7  UNL d   1       1.757   0.295  -0.203  0.00  0.00    -0.001 A 
ENDROOT
TORSDOF 0
ENDMDL
