MODEL 1
REMARK minimizedAffinity -1.7947613
REMARK minimizedRMSD -1
REMARK  0 active torsions:
REMARK  status: ('A' for Active; 'I' for Inactive)
ROOT
ATOM      1  C   UNL d   1      -0.307   0.989   0.428  0.00  0.00     0.077 C 
ATOM      2  C1  UNL d   1      -0.721  -0.146  -0.461  0.00  0.00    -0.074 A 
ATOM      3  C2  UNL d   1      -0.093  -1.392  -0.375  0.00  0.00    -0.005 A 
ATOM      4  C3  UNL d   1      -0.496  -2.441  -1.202  0.00  0.00     0.006 A 
ATOM      5  C4  UNL d   1      -1.529  -2.254  -2.121  0.00  0.00    -0.005 A 
ATOM      6  C5  UNL d   1      -2.169  -1.015  -2.221  0.00  0.00    -0.074 A 
ATOM      7  C6  UNL d   1      -3.288  -0.800  -3.196  0.00  0.00     0.077 C 
ATOM      8  C7  UNL d   1      -1.763   0.032  -1.381  0.00  0.00    -0.001 A 
ENDROOT
TORSDOF 0
ENDMDL
