MODEL 1
REMARK minimizedAffinity -5.75218821
REMARK minimizedRMSD -1
REMARK  0 active torsions:
REMARK  status: ('A' for Active; 'I' for Inactive)
ROOT
ATOM      1  C   UNL d   1      -0.941  -0.976  -0.445  0.00  0.00     0.077 C 
ATOM      2  C1  UNL d   1      -0.107   0.101   0.183  0.00  0.00    -0.074 A 
ATOM      3  C2  UNL d   1      -0.677   1.036   1.054  0.00  0.00    -0.005 A 
ATOM      4  C3  UNL d   1       0.113   2.026   1.637  0.00  0.00     0.006 A 
ATOM      5  C4  UNL d   1       1.478   2.093   1.356  0.00  0.00    -0.005 A 
ATOM      6  C5  UNL d   1       2.065   1.166   0.488  0.00  0.00    -0.074 A 
ATOM      7  C6  UNL d   1       3.533   1.217   0.183  0.00  0.00     0.077 C 
ATOM      8  C7  UNL d   1       1.266   0.170  -0.088  0.00  0.00    -0.001 A 
ENDROOT
TORSDOF 0
ENDMDL
