MODEL 1
REMARK minimizedAffinity -3.91057634
REMARK minimizedRMSD -1
REMARK  0 active torsions:
REMARK  status: ('A' for Active; 'I' for Inactive)
ROOT
ATOM      1  C   UNL d   1      -0.366  -0.501  -0.244  0.00  0.00     0.077 C 
ATOM      2  C1  UNL d   1       0.868   0.308   0.023  0.00  0.00    -0.074 A 
ATOM      3  C2  UNL d   1       2.092  -0.033  -0.563  0.00  0.00    -0.005 A 
ATOM      4  C3  UNL d   1       3.229   0.735  -0.312  0.00  0.00     0.006 A 
ATOM      5  C4  UNL d   1       3.155   1.849   0.525  0.00  0.00    -0.005 A 
ATOM      6  C5  UNL d   1       1.940   2.206   1.118  0.00  0.00    -0.074 A 
ATOM      7  C6  UNL d   1       1.841   3.406   2.013  0.00  0.00     0.077 C 
ATOM      8  C7  UNL d   1       0.800   1.433   0.856  0.00  0.00    -0.001 A 
ENDROOT
TORSDOF 0
ENDMDL
