MODEL 1
REMARK minimizedAffinity -3.98185182
REMARK minimizedRMSD -1
REMARK  0 active torsions:
REMARK  status: ('A' for Active; 'I' for Inactive)
ROOT
ATOM      1  C   UNL d   1       1.910   2.791   1.121  0.00  0.00     0.077 C 
ATOM      2  C1  UNL d   1       0.853   1.731   1.206  0.00  0.00    -0.074 A 
ATOM      3  C2  UNL d   1       0.435   1.230   2.443  0.00  0.00    -0.005 A 
ATOM      4  C3  UNL d   1      -0.556   0.250   2.506  0.00  0.00     0.006 A 
ATOM      5  C4  UNL d   1      -1.138  -0.237   1.336  0.00  0.00    -0.005 A 
ATOM      6  C5  UNL d   1      -0.734   0.252   0.090  0.00  0.00    -0.074 A 
ATOM      7  C6  UNL d   1      -1.356  -0.254  -1.178  0.00  0.00     0.077 C 
ATOM      8  C7  UNL d   1       0.258   1.241   0.034  0.00  0.00    -0.001 A 
ENDROOT
TORSDOF 0
ENDMDL
