MODEL 1
REMARK minimizedAffinity -2.42440248
REMARK minimizedRMSD -1
REMARK  0 active torsions:
REMARK  status: ('A' for Active; 'I' for Inactive)
ROOT
ATOM      1  C   UNL d   1      -1.082  -0.868  -0.261  0.00  0.00     0.077 C 
ATOM      2  C1  UNL d   1      -0.196   0.220   0.268  0.00  0.00    -0.074 A 
ATOM      3  C2  UNL d   1      -0.714   1.246   1.064  0.00  0.00    -0.005 A 
ATOM      4  C3  UNL d   1       0.125   2.245   1.558  0.00  0.00     0.006 A 
ATOM      5  C4  UNL d   1       1.488   2.228   1.261  0.00  0.00    -0.005 A 
ATOM      6  C5  UNL d   1       2.025   1.209   0.468  0.00  0.00    -0.074 A 
ATOM      7  C6  UNL d   1       3.490   1.170   0.148  0.00  0.00     0.077 C 
ATOM      8  C7  UNL d   1       1.177   0.205  -0.019  0.00  0.00    -0.001 A 
ENDROOT
TORSDOF 0
ENDMDL
