MODEL 1
REMARK minimizedAffinity -4.29802322
REMARK minimizedRMSD -1
REMARK  0 active torsions:
REMARK  status: ('A' for Active; 'I' for Inactive)
ROOT
ATOM      1  C   UNL d   1      -0.580  -0.731  -0.062  0.00  0.00     0.077 C 
ATOM      2  C1  UNL d   1       0.326   0.359   0.429  0.00  0.00    -0.074 A 
ATOM      3  C2  UNL d   1      -0.172   1.417   1.195  0.00  0.00    -0.005 A 
ATOM      4  C3  UNL d   1       0.685   2.419   1.652  0.00  0.00     0.006 A 
ATOM      5  C4  UNL d   1       2.046   2.372   1.348  0.00  0.00    -0.005 A 
ATOM      6  C5  UNL d   1       2.562   1.320   0.584  0.00  0.00    -0.074 A 
ATOM      7  C6  UNL d   1       4.024   1.249   0.257  0.00  0.00     0.077 C 
ATOM      8  C7  UNL d   1       1.696   0.314   0.134  0.00  0.00    -0.001 A 
ENDROOT
TORSDOF 0
ENDMDL
