MODEL 1
REMARK minimizedAffinity -4.80416536
REMARK minimizedRMSD -1
REMARK  0 active torsions:
REMARK  status: ('A' for Active; 'I' for Inactive)
ROOT
ATOM      1  C   UNL d   1       3.191   1.828  -0.068  0.00  0.00     0.077 C 
ATOM      2  C1  UNL d   1       1.838   1.383   0.401  0.00  0.00    -0.074 A 
ATOM      3  C2  UNL d   1       1.294   1.870   1.594  0.00  0.00    -0.005 A 
ATOM      4  C3  UNL d   1       0.031   1.454   2.013  0.00  0.00     0.006 A 
ATOM      5  C4  UNL d   1      -0.701   0.548   1.245  0.00  0.00    -0.005 A 
ATOM      6  C5  UNL d   1      -0.174   0.050   0.048  0.00  0.00    -0.074 A 
ATOM      7  C6  UNL d   1      -0.952  -0.916  -0.795  0.00  0.00     0.077 C 
ATOM      8  C7  UNL d   1       1.093   0.479  -0.369  0.00  0.00    -0.001 A 
ENDROOT
TORSDOF 0
ENDMDL
