MODEL 1
REMARK minimizedAffinity -4.15684843
REMARK minimizedRMSD -1
REMARK  0 active torsions:
REMARK  status: ('A' for Active; 'I' for Inactive)
ROOT
ATOM      1  C   UNL d   1       1.719   2.829   0.609  0.00  0.00     0.077 C 
ATOM      2  C1  UNL d   1       0.721   1.756   0.927  0.00  0.00    -0.074 A 
ATOM      3  C2  UNL d   1       0.063   1.728   2.161  0.00  0.00    -0.005 A 
ATOM      4  C3  UNL d   1      -0.870   0.729   2.438  0.00  0.00     0.006 A 
ATOM      5  C4  UNL d   1      -1.154  -0.251   1.486  0.00  0.00    -0.005 A 
ATOM      6  C5  UNL d   1      -0.507  -0.239   0.246  0.00  0.00    -0.074 A 
ATOM      7  C6  UNL d   1      -0.808  -1.278  -0.792  0.00  0.00     0.077 C 
ATOM      8  C7  UNL d   1       0.424   0.773  -0.028  0.00  0.00    -0.001 A 
ENDROOT
TORSDOF 0
ENDMDL
