MODEL 1
REMARK minimizedAffinity -6.39363432
REMARK minimizedRMSD -1
REMARK  0 active torsions:
REMARK  status: ('A' for Active; 'I' for Inactive)
ROOT
ATOM      1  C   UNL d   1      -0.560  -1.181  -0.604  0.00  0.00     0.077 C 
ATOM      2  C1  UNL d   1      -0.042   0.027   0.119  0.00  0.00    -0.074 A 
ATOM      3  C2  UNL d   1      -0.879   0.784   0.945  0.00  0.00    -0.005 A 
ATOM      4  C3  UNL d   1      -0.380   1.899   1.619  0.00  0.00     0.006 A 
ATOM      5  C4  UNL d   1       0.958   2.267   1.473  0.00  0.00    -0.005 A 
ATOM      6  C5  UNL d   1       1.810   1.522   0.652  0.00  0.00    -0.074 A 
ATOM      7  C6  UNL d   1       3.253   1.898   0.492  0.00  0.00     0.077 C 
ATOM      8  C7  UNL d   1       1.303   0.399  -0.016  0.00  0.00    -0.001 A 
ENDROOT
TORSDOF 0
ENDMDL
