MODEL 1
REMARK minimizedAffinity -4.82223749
REMARK minimizedRMSD -1
REMARK  0 active torsions:
REMARK  status: ('A' for Active; 'I' for Inactive)
ROOT
ATOM      1  C   UNL d   1       2.416   2.262   0.993  0.00  0.00     0.077 C 
ATOM      2  C1  UNL d   1       1.134   1.483   0.972  0.00  0.00    -0.074 A 
ATOM      3  C2  UNL d   1       0.097   1.782   1.861  0.00  0.00    -0.005 A 
ATOM      4  C3  UNL d   1      -1.093   1.055   1.823  0.00  0.00     0.006 A 
ATOM      5  C4  UNL d   1      -1.258   0.024   0.897  0.00  0.00    -0.005 A 
ATOM      6  C5  UNL d   1      -0.232  -0.288  -0.000  0.00  0.00    -0.074 A 
ATOM      7  C6  UNL d   1      -0.396  -1.387  -1.008  0.00  0.00     0.077 C 
ATOM      8  C7  UNL d   1       0.958   0.451   0.039  0.00  0.00    -0.001 A 
ENDROOT
TORSDOF 0
ENDMDL
