MODEL 1
REMARK minimizedAffinity -5.93777943
REMARK minimizedRMSD -1
REMARK  0 active torsions:
REMARK  status: ('A' for Active; 'I' for Inactive)
ROOT
ATOM      1  C   UNL d   1      -0.682  -1.603  -0.611  0.00  0.00     0.077 C 
ATOM      2  C1  UNL d   1      -0.189  -0.383   0.109  0.00  0.00    -0.074 A 
ATOM      3  C2  UNL d   1      -1.043   0.363   0.927  0.00  0.00    -0.005 A 
ATOM      4  C3  UNL d   1      -0.567   1.490   1.598  0.00  0.00     0.006 A 
ATOM      5  C4  UNL d   1       0.765   1.881   1.457  0.00  0.00    -0.005 A 
ATOM      6  C5  UNL d   1       1.634   1.147   0.644  0.00  0.00    -0.074 A 
ATOM      7  C6  UNL d   1       3.071   1.548   0.490  0.00  0.00     0.077 C 
ATOM      8  C7  UNL d   1       1.150   0.012  -0.021  0.00  0.00    -0.001 A 
ENDROOT
TORSDOF 0
ENDMDL
