MODEL 1
REMARK minimizedAffinity -4.86725998
REMARK minimizedRMSD -1
REMARK  0 active torsions:
REMARK  status: ('A' for Active; 'I' for Inactive)
ROOT
ATOM      1  C   UNL d   1      -0.713  -0.961  -0.429  0.00  0.00     0.077 C 
ATOM      2  C1  UNL d   1       0.250   0.122  -0.041  0.00  0.00    -0.074 A 
ATOM      3  C2  UNL d   1      -0.147   1.171   0.794  0.00  0.00    -0.005 A 
ATOM      4  C3  UNL d   1       0.763   2.166   1.154  0.00  0.00     0.006 A 
ATOM      5  C4  UNL d   1       2.075   2.121   0.683  0.00  0.00    -0.005 A 
ATOM      6  C5  UNL d   1       2.490   1.079  -0.152  0.00  0.00    -0.074 A 
ATOM      7  C6  UNL d   1       3.901   1.011  -0.659  0.00  0.00     0.077 C 
ATOM      8  C7  UNL d   1       1.573   0.080  -0.504  0.00  0.00    -0.001 A 
ENDROOT
TORSDOF 0
ENDMDL
