MODEL 1
REMARK minimizedAffinity -1.62045288
REMARK minimizedRMSD -1
REMARK  0 active torsions:
REMARK  status: ('A' for Active; 'I' for Inactive)
ROOT
ATOM      1  C   UNL d   1       3.097   0.736   4.200  0.00  0.00     0.077 C 
ATOM      2  C1  UNL d   1       2.264   1.380   3.132  0.00  0.00    -0.074 A 
ATOM      3  C2  UNL d   1       2.480   2.710   2.757  0.00  0.00    -0.005 A 
ATOM      4  C3  UNL d   1       1.704   3.293   1.755  0.00  0.00     0.006 A 
ATOM      5  C4  UNL d   1       0.706   2.553   1.119  0.00  0.00    -0.005 A 
ATOM      6  C5  UNL d   1       0.476   1.222   1.480  0.00  0.00    -0.074 A 
ATOM      7  C6  UNL d   1      -0.586   0.410   0.801  0.00  0.00     0.077 C 
ATOM      8  C7  UNL d   1       1.265   0.641   2.483  0.00  0.00    -0.001 A 
ENDROOT
TORSDOF 0
ENDMDL
