MODEL 1
REMARK minimizedAffinity -5.63819647
REMARK minimizedRMSD -1
REMARK  0 active torsions:
REMARK  status: ('A' for Active; 'I' for Inactive)
ROOT
ATOM      1  C   UNL d   1      -0.963  -0.937  -0.703  0.00  0.00     0.077 C 
ATOM      2  C1  UNL d   1      -0.138   0.131  -0.049  0.00  0.00    -0.074 A 
ATOM      3  C2  UNL d   1      -0.714   1.032   0.853  0.00  0.00    -0.005 A 
ATOM      4  C3  UNL d   1       0.068   2.015   1.460  0.00  0.00     0.006 A 
ATOM      5  C4  UNL d   1       1.430   2.107   1.173  0.00  0.00    -0.005 A 
ATOM      6  C5  UNL d   1       2.023   1.214   0.275  0.00  0.00    -0.074 A 
ATOM      7  C6  UNL d   1       3.488   1.292  -0.038  0.00  0.00     0.077 C 
ATOM      8  C7  UNL d   1       1.233   0.225  -0.327  0.00  0.00    -0.001 A 
ENDROOT
TORSDOF 0
ENDMDL
