MODEL 1
REMARK minimizedAffinity 5.95566273
REMARK minimizedRMSD -1
REMARK  0 active torsions:
REMARK  status: ('A' for Active; 'I' for Inactive)
ROOT
ATOM      1  N1  IND d   1       2.848  -4.179  -1.355  0.00  0.00    -0.196 N 
ATOM      2  C2  IND d   1       1.894  -4.190  -0.376  0.00  0.00     0.054 A 
ATOM      3  C3  IND d   1       0.658  -4.195  -0.924  0.00  0.00    -0.031 A 
ATOM      4  C4  IND d   1      -0.032  -4.288  -3.402  0.00  0.00     0.051 A 
ATOM      5  C5  IND d   1       0.486  -4.256  -4.667  0.00  0.00    -0.031 A 
ATOM      6  C6  IND d   1       1.845  -4.198  -4.896  0.00  0.00     0.015 A 
ATOM      7  C7  IND d   1       2.742  -4.182  -3.866  0.00  0.00    -0.016 A 
ATOM      8  C8  IND d   1       2.219  -4.207  -2.580  0.00  0.00    -0.047 A 
ATOM      9  C9  IND d   1       0.839  -4.223  -2.341  0.00  0.00    -0.096 A 
ATOM     10  HN1 IND d   1       3.698  -4.158  -1.227  0.00  0.00     0.298 HD
ENDROOT
TORSDOF 0
ENDMDL
