MODEL 1
REMARK minimizedAffinity 5.09919214
REMARK minimizedRMSD -1
REMARK  0 active torsions:
REMARK  status: ('A' for Active; 'I' for Inactive)
ROOT
ATOM      1  N1  IND d   1      -5.337  -5.856  -4.923  0.00  0.00    -0.196 N 
ATOM      2  C2  IND d   1      -5.972  -4.909  -5.678  0.00  0.00     0.054 A 
ATOM      3  C3  IND d   1      -5.157  -3.852  -5.890  0.00  0.00    -0.031 A 
ATOM      4  C4  IND d   1      -2.707  -3.506  -5.177  0.00  0.00     0.051 A 
ATOM      5  C5  IND d   1      -1.709  -4.078  -4.440  0.00  0.00    -0.031 A 
ATOM      6  C6  IND d   1      -1.871  -5.298  -3.816  0.00  0.00     0.015 A 
ATOM      7  C7  IND d   1      -3.039  -6.000  -3.916  0.00  0.00    -0.016 A 
ATOM      8  C8  IND d   1      -4.058  -5.419  -4.658  0.00  0.00    -0.047 A 
ATOM      9  C9  IND d   1      -3.914  -4.161  -5.258  0.00  0.00    -0.096 A 
ATOM     10  HN1 IND d   1      -5.678  -6.599  -4.659  0.00  0.00     0.298 HD
ENDROOT
TORSDOF 0
ENDMDL
