MODEL 1
REMARK minimizedAffinity 16.9841976
REMARK minimizedRMSD -1
REMARK  0 active torsions:
REMARK  status: ('A' for Active; 'I' for Inactive)
ROOT
ATOM      1  N1  IND d   1       3.136   3.395   0.963  0.00  0.00    -0.196 N 
ATOM      2  C2  IND d   1       2.220   2.387   1.078  0.00  0.00     0.054 A 
ATOM      3  C3  IND d   1       1.426   2.346  -0.015  0.00  0.00    -0.031 A 
ATOM      4  C4  IND d   1       1.517   3.771  -2.157  0.00  0.00     0.051 A 
ATOM      5  C5  IND d   1       2.158   4.844  -2.711  0.00  0.00    -0.031 A 
ATOM      6  C6  IND d   1       3.180   5.499  -2.056  0.00  0.00     0.015 A 
ATOM      7  C7  IND d   1       3.609   5.098  -0.823  0.00  0.00    -0.016 A 
ATOM      8  C8  IND d   1       2.956   4.014  -0.254  0.00  0.00    -0.047 A 
ATOM      9  C9  IND d   1       1.889   3.371  -0.895  0.00  0.00    -0.096 A 
ATOM     10  HN1 IND d   1       3.725   3.607   1.552  0.00  0.00     0.298 HD
ENDROOT
TORSDOF 0
ENDMDL
