MODEL 1
REMARK minimizedAffinity 19.054636
REMARK minimizedRMSD -1
REMARK  0 active torsions:
REMARK  status: ('A' for Active; 'I' for Inactive)
ROOT
ATOM      1  N1  IND d   1       0.381  -1.959   5.186  0.00  0.00    -0.196 N 
ATOM      2  C2  IND d   1       1.307  -2.947   4.998  0.00  0.00     0.054 A 
ATOM      3  C3  IND d   1       2.198  -2.582   4.048  0.00  0.00    -0.031 A 
ATOM      4  C4  IND d   1       2.385  -0.370   2.745  0.00  0.00     0.051 A 
ATOM      5  C5  IND d   1       1.744   0.821   2.546  0.00  0.00    -0.031 A 
ATOM      6  C6  IND d   1       0.595   1.154   3.233  0.00  0.00     0.015 A 
ATOM      7  C7  IND d   1       0.047   0.309   4.157  0.00  0.00    -0.016 A 
ATOM      8  C8  IND d   1       0.691  -0.904   4.356  0.00  0.00    -0.047 A 
ATOM      9  C9  IND d   1       1.834  -1.265   3.631  0.00  0.00    -0.096 A 
ATOM     10  HN1 IND d   1      -0.284  -1.991   5.730  0.00  0.00     0.298 HD
ENDROOT
TORSDOF 0
ENDMDL
