MODEL 1
REMARK minimizedAffinity 13.3509769
REMARK minimizedRMSD -1
REMARK  0 active torsions:
REMARK  status: ('A' for Active; 'I' for Inactive)
ROOT
ATOM      1  N1  IND d   1       1.202  -0.794   5.937  0.00  0.00    -0.196 N 
ATOM      2  C2  IND d   1       0.080  -1.574   5.896  0.00  0.00     0.054 A 
ATOM      3  C3  IND d   1       0.417  -2.883   5.866  0.00  0.00    -0.031 A 
ATOM      4  C4  IND d   1       2.746  -3.974   5.979  0.00  0.00     0.051 A 
ATOM      5  C5  IND d   1       4.079  -3.671   5.988  0.00  0.00    -0.031 A 
ATOM      6  C6  IND d   1       4.529  -2.367   5.983  0.00  0.00     0.015 A 
ATOM      7  C7  IND d   1       3.660  -1.313   5.980  0.00  0.00    -0.016 A 
ATOM      8  C8  IND d   1       2.307  -1.617   5.964  0.00  0.00    -0.047 A 
ATOM      9  C9  IND d   1       1.843  -2.938   5.926  0.00  0.00    -0.096 A 
ATOM     10  HN1 IND d   1       1.215   0.065   5.944  0.00  0.00     0.298 HD
ENDROOT
TORSDOF 0
ENDMDL
