MODEL 1
REMARK minimizedAffinity 19.1722145
REMARK minimizedRMSD -1
REMARK  0 active torsions:
REMARK  status: ('A' for Active; 'I' for Inactive)
ROOT
ATOM      1  N1  IND d   1      -4.887   1.135  -4.787  0.00  0.00    -0.196 N 
ATOM      2  C2  IND d   1      -4.068   0.909  -5.859  0.00  0.00     0.054 A 
ATOM      3  C3  IND d   1      -3.122   1.872  -5.939  0.00  0.00    -0.031 A 
ATOM      4  C4  IND d   1      -2.667   3.853  -4.360  0.00  0.00     0.051 A 
ATOM      5  C5  IND d   1      -3.171   4.494  -3.262  0.00  0.00    -0.031 A 
ATOM      6  C6  IND d   1      -4.293   4.036  -2.602  0.00  0.00     0.015 A 
ATOM      7  C7  IND d   1      -4.950   2.910  -3.010  0.00  0.00    -0.016 A 
ATOM      8  C8  IND d   1      -4.446   2.261  -4.128  0.00  0.00    -0.047 A 
ATOM      9  C9  IND d   1      -3.332   2.744  -4.828  0.00  0.00    -0.096 A 
ATOM     10  HN1 IND d   1      -5.563   0.654  -4.563  0.00  0.00     0.298 HD
ENDROOT
TORSDOF 0
ENDMDL
