MODEL 1
REMARK minimizedAffinity 15.9559746
REMARK minimizedRMSD -1
REMARK  0 active torsions:
REMARK  status: ('A' for Active; 'I' for Inactive)
ROOT
ATOM      1  N1  IND d   1       2.656   3.981  -0.603  0.00  0.00    -0.196 N 
ATOM      2  C2  IND d   1       2.420   4.724  -1.725  0.00  0.00     0.054 A 
ATOM      3  C3  IND d   1       1.134   4.587  -2.118  0.00  0.00    -0.031 A 
ATOM      4  C4  IND d   1      -0.784   3.276  -1.010  0.00  0.00     0.051 A 
ATOM      5  C5  IND d   1      -1.046   2.411   0.016  0.00  0.00    -0.031 A 
ATOM      6  C6  IND d   1      -0.068   2.020   0.908  0.00  0.00     0.015 A 
ATOM      7  C7  IND d   1       1.212   2.490   0.813  0.00  0.00    -0.016 A 
ATOM      8  C8  IND d   1       1.483   3.363  -0.232  0.00  0.00    -0.047 A 
ATOM      9  C9  IND d   1       0.505   3.730  -1.165  0.00  0.00    -0.096 A 
ATOM     10  HN1 IND d   1       3.411   3.912  -0.196  0.00  0.00     0.298 HD
ENDROOT
TORSDOF 0
ENDMDL
