MODEL 1
REMARK minimizedAffinity 25.8490162
REMARK minimizedRMSD -1
REMARK  0 active torsions:
REMARK  status: ('A' for Active; 'I' for Inactive)
ROOT
ATOM      1  N1  IND d   1      -0.034  -0.720   5.479  0.00  0.00    -0.196 N 
ATOM      2  C2  IND d   1      -0.518  -1.888   6.000  0.00  0.00     0.054 A 
ATOM      3  C3  IND d   1      -1.564  -2.332   5.267  0.00  0.00    -0.031 A 
ATOM      4  C4  IND d   1      -2.584  -1.356   3.114  0.00  0.00     0.051 A 
ATOM      5  C5  IND d   1      -2.504  -0.279   2.276  0.00  0.00    -0.031 A 
ATOM      6  C6  IND d   1      -1.576   0.725   2.465  0.00  0.00     0.015 A 
ATOM      7  C7  IND d   1      -0.682   0.683   3.497  0.00  0.00    -0.016 A 
ATOM      8  C8  IND d   1      -0.765  -0.405   4.354  0.00  0.00    -0.047 A 
ATOM      9  C9  IND d   1      -1.733  -1.405   4.192  0.00  0.00    -0.096 A 
ATOM     10  HN1 IND d   1       0.617  -0.259   5.800  0.00  0.00     0.298 HD
ENDROOT
TORSDOF 0
ENDMDL
