MODEL 1
REMARK minimizedAffinity 14.5748272
REMARK minimizedRMSD -1
REMARK  0 active torsions:
REMARK  status: ('A' for Active; 'I' for Inactive)
ROOT
ATOM      1  N1  IND d   1      -5.266   1.175  -5.384  0.00  0.00    -0.196 N 
ATOM      2  C2  IND d   1      -4.153   0.624  -5.956  0.00  0.00     0.054 A 
ATOM      3  C3  IND d   1      -3.055   1.347  -5.642  0.00  0.00    -0.031 A 
ATOM      4  C4  IND d   1      -2.837   3.412  -4.121  0.00  0.00     0.051 A 
ATOM      5  C5  IND d   1      -3.583   4.304  -3.402  0.00  0.00    -0.031 A 
ATOM      6  C6  IND d   1      -4.955   4.195  -3.303  0.00  0.00     0.015 A 
ATOM      7  C7  IND d   1      -5.634   3.178  -3.912  0.00  0.00    -0.016 A 
ATOM      8  C8  IND d   1      -4.881   2.275  -4.649  0.00  0.00    -0.047 A 
ATOM      9  C9  IND d   1      -3.494   2.405  -4.788  0.00  0.00    -0.096 A 
ATOM     10  HN1 IND d   1      -6.070   0.884  -5.469  0.00  0.00     0.298 HD
ENDROOT
TORSDOF 0
ENDMDL
