MODEL 1
REMARK minimizedAffinity 20.9065056
REMARK minimizedRMSD -1
REMARK  0 active torsions:
REMARK  status: ('A' for Active; 'I' for Inactive)
ROOT
ATOM      1  N1  IND d   1      -3.000   2.983  -5.111  0.00  0.00    -0.196 N 
ATOM      2  C2  IND d   1      -3.982   2.250  -5.717  0.00  0.00     0.054 A 
ATOM      3  C3  IND d   1      -5.179   2.498  -5.138  0.00  0.00    -0.031 A 
ATOM      4  C4  IND d   1      -5.773   4.145  -3.251  0.00  0.00     0.051 A 
ATOM      5  C5  IND d   1      -5.206   5.009  -2.357  0.00  0.00    -0.031 A 
ATOM      6  C6  IND d   1      -3.847   5.250  -2.338  0.00  0.00     0.015 A 
ATOM      7  C7  IND d   1      -3.003   4.640  -3.222  0.00  0.00    -0.016 A 
ATOM      8  C8  IND d   1      -3.574   3.756  -4.126  0.00  0.00    -0.047 A 
ATOM      9  C9  IND d   1      -4.947   3.476  -4.123  0.00  0.00    -0.096 A 
ATOM     10  HN1 IND d   1      -2.164   2.964  -5.312  0.00  0.00     0.298 HD
ENDROOT
TORSDOF 0
ENDMDL
