MODEL 1
REMARK minimizedAffinity -5.06515217
REMARK minimizedRMSD -1
REMARK  1 active torsions:
REMARK  status: ('A' for Active; 'I' for Inactive)
REMARK    1  A    between atoms: C1_2  and  C2_3 
ROOT
ATOM      1  C2  UNL d   1      -0.014  -0.080   0.354  0.00  0.00    -0.076 A 
ATOM      2  C3  UNL d   1      -1.037  -0.974   0.715  0.00  0.00     0.004 A 
ATOM      3  C4  UNL d   1      -1.305  -1.255   2.054  0.00  0.00    -0.003 A 
ATOM      4  C5  UNL d   1      -0.555  -0.645   3.053  0.00  0.00     0.000 A 
ATOM      5  C6  UNL d   1       0.451   0.258   2.714  0.00  0.00     0.000 A 
ATOM      6  C7  UNL d   1       0.724   0.564   1.370  0.00  0.00    -0.073 A 
ATOM      7  C8  UNL d   1       1.825   1.541   1.061  0.00  0.00     0.078 C 
ENDROOT
BRANCH   1   8
ATOM      8  C1  UNL d   1       0.249   0.165  -1.115  0.00  0.00     0.053 C 
ATOM      9  C   UNL d   1       0.289  -1.124  -1.922  0.00  0.00     0.018 C 
ENDBRANCH   1   8
TORSDOF 1
ENDMDL
