MODEL 1
REMARK minimizedAffinity -4.51819563
REMARK minimizedRMSD -1
REMARK  1 active torsions:
REMARK  status: ('A' for Active; 'I' for Inactive)
REMARK    1  A    between atoms: C1_2  and  C2_3 
ROOT
ATOM      1  C2  UNL d   1       0.730   0.662   0.994  0.00  0.00    -0.076 A 
ATOM      2  C3  UNL d   1       0.470   1.011   2.331  0.00  0.00     0.004 A 
ATOM      3  C4  UNL d   1      -0.383   0.241   3.120  0.00  0.00    -0.003 A 
ATOM      4  C5  UNL d   1      -0.989  -0.891   2.586  0.00  0.00     0.000 A 
ATOM      5  C6  UNL d   1      -0.728  -1.262   1.267  0.00  0.00     0.000 A 
ATOM      6  C7  UNL d   1       0.141  -0.506   0.463  0.00  0.00    -0.073 A 
ATOM      7  C8  UNL d   1       0.381  -0.948  -0.955  0.00  0.00     0.078 C 
ENDROOT
BRANCH   1   8
ATOM      8  C1  UNL d   1       1.641   1.550   0.178  0.00  0.00     0.053 C 
ATOM      9  C   UNL d   1       2.714   2.218   1.024  0.00  0.00     0.018 C 
ENDBRANCH   1   8
TORSDOF 1
ENDMDL
