MODEL 1
REMARK minimizedAffinity -3.88362145
REMARK minimizedRMSD -1
REMARK  1 active torsions:
REMARK  status: ('A' for Active; 'I' for Inactive)
REMARK    1  A    between atoms: C1_2  and  C2_3 
ROOT
ATOM      1  C2  UNL d   1       0.020   0.003   1.490  0.00  0.00    -0.076 A 
ATOM      2  C3  UNL d   1      -1.086  -0.477   0.767  0.00  0.00     0.004 A 
ATOM      3  C4  UNL d   1      -1.070  -0.519  -0.626  0.00  0.00    -0.003 A 
ATOM      4  C5  UNL d   1       0.054  -0.083  -1.319  0.00  0.00     0.000 A 
ATOM      5  C6  UNL d   1       1.168   0.379  -0.618  0.00  0.00     0.000 A 
ATOM      6  C7  UNL d   1       1.173   0.413   0.787  0.00  0.00    -0.073 A 
ATOM      7  C8  UNL d   1       2.399   0.926   1.492  0.00  0.00     0.078 C 
ENDROOT
BRANCH   1   8
ATOM      8  C1  UNL d   1      -0.066   0.050   2.999  0.00  0.00     0.053 C 
ATOM      9  C   UNL d   1      -1.354  -0.561   3.528  0.00  0.00     0.018 C 
ENDBRANCH   1   8
TORSDOF 1
ENDMDL
