MODEL 1
REMARK minimizedAffinity -4.12204456
REMARK minimizedRMSD -1
REMARK  1 active torsions:
REMARK  status: ('A' for Active; 'I' for Inactive)
REMARK    1  A    between atoms: C1_2  and  C2_3 
ROOT
ATOM      1  C2  UNL d   1       0.786  -0.190  -2.743  0.00  0.00    -0.076 A 
ATOM      2  C3  UNL d   1       1.882   0.649  -3.011  0.00  0.00     0.004 A 
ATOM      3  C4  UNL d   1       2.954   0.205  -3.784  0.00  0.00    -0.003 A 
ATOM      4  C5  UNL d   1       2.947  -1.086  -4.301  0.00  0.00     0.000 A 
ATOM      5  C6  UNL d   1       1.860  -1.926  -4.060  0.00  0.00     0.000 A 
ATOM      6  C7  UNL d   1       0.764  -1.488  -3.297  0.00  0.00    -0.073 A 
ATOM      7  C8  UNL d   1      -0.378  -2.438  -3.062  0.00  0.00     0.078 C 
ENDROOT
BRANCH   1   8
ATOM      8  C1  UNL d   1      -0.335   0.338  -1.876  0.00  0.00     0.053 C 
ATOM      9  C   UNL d   1      -0.124   0.031  -0.401  0.00  0.00     0.018 C 
ENDBRANCH   1   8
TORSDOF 1
ENDMDL
