MODEL 1
REMARK minimizedAffinity -5.09794092
REMARK minimizedRMSD -1
REMARK  1 active torsions:
REMARK  status: ('A' for Active; 'I' for Inactive)
REMARK    1  A    between atoms: C1_2  and  C2_3 
ROOT
ATOM      1  C2  UNL d   1       0.376   0.053  -0.086  0.00  0.00    -0.076 A 
ATOM      2  C3  UNL d   1      -0.978  -0.303   0.034  0.00  0.00     0.004 A 
ATOM      3  C4  UNL d   1      -1.596  -0.363   1.282  0.00  0.00    -0.003 A 
ATOM      4  C5  UNL d   1      -0.871  -0.066   2.430  0.00  0.00     0.000 A 
ATOM      5  C6  UNL d   1       0.469   0.307   2.329  0.00  0.00     0.000 A 
ATOM      6  C7  UNL d   1       1.103   0.388   1.077  0.00  0.00    -0.073 A 
ATOM      7  C8  UNL d   1       2.552   0.789   1.026  0.00  0.00     0.078 C 
ENDROOT
BRANCH   1   8
ATOM      8  C1  UNL d   1       1.000   0.075  -1.463  0.00  0.00     0.053 C 
ATOM      9  C   UNL d   1      -0.037   0.163  -2.571  0.00  0.00     0.018 C 
ENDBRANCH   1   8
TORSDOF 1
ENDMDL
