MODEL 1
REMARK minimizedAffinity -5.45929241
REMARK minimizedRMSD -1
REMARK  1 active torsions:
REMARK  status: ('A' for Active; 'I' for Inactive)
REMARK    1  A    between atoms: C1_2  and  C2_3 
ROOT
ATOM      1  C2  UNL d   1       0.197   0.036   0.743  0.00  0.00    -0.076 A 
ATOM      2  C3  UNL d   1      -0.918  -0.576   1.341  0.00  0.00     0.004 A 
ATOM      3  C4  UNL d   1      -1.093  -0.555   2.723  0.00  0.00    -0.003 A 
ATOM      4  C5  UNL d   1      -0.155   0.080   3.531  0.00  0.00     0.000 A 
ATOM      5  C6  UNL d   1       0.948   0.708   2.953  0.00  0.00     0.000 A 
ATOM      6  C7  UNL d   1       1.130   0.709   1.560  0.00  0.00    -0.073 A 
ATOM      7  C8  UNL d   1       2.342   1.397   0.991  0.00  0.00     0.078 C 
ENDROOT
BRANCH   1   8
ATOM      8  C1  UNL d   1       0.348  -0.043  -0.760  0.00  0.00     0.053 C 
ATOM      9  C   UNL d   1      -0.414   1.058  -1.480  0.00  0.00     0.018 C 
ENDBRANCH   1   8
TORSDOF 1
ENDMDL
