MODEL 1
REMARK minimizedAffinity -5.2374444
REMARK minimizedRMSD -1
REMARK  1 active torsions:
REMARK  status: ('A' for Active; 'I' for Inactive)
REMARK    1  A    between atoms: C1_2  and  C2_3 
ROOT
ATOM      1  C2  UNL d   1       0.036   0.200  -0.069  0.00  0.00    -0.076 A 
ATOM      2  C3  UNL d   1       1.291   0.101   0.557  0.00  0.00     0.004 A 
ATOM      3  C4  UNL d   1       1.397  -0.266   1.897  0.00  0.00    -0.003 A 
ATOM      4  C5  UNL d   1       0.250  -0.541   2.634  0.00  0.00     0.000 A 
ATOM      5  C6  UNL d   1      -1.002  -0.465   2.024  0.00  0.00     0.000 A 
ATOM      6  C7  UNL d   1      -1.126  -0.112   0.669  0.00  0.00    -0.073 A 
ATOM      7  C8  UNL d   1      -2.501  -0.039   0.065  0.00  0.00     0.078 C 
ENDROOT
BRANCH   1   8
ATOM      8  C1  UNL d   1      -0.019   0.630  -1.518  0.00  0.00     0.053 C 
ATOM      9  C   UNL d   1       0.771  -0.296  -2.430  0.00  0.00     0.018 C 
ENDBRANCH   1   8
TORSDOF 1
ENDMDL
