MODEL 1
REMARK minimizedAffinity -4.49921989
REMARK minimizedRMSD -1
REMARK  1 active torsions:
REMARK  status: ('A' for Active; 'I' for Inactive)
REMARK    1  A    between atoms: C1_2  and  C2_3 
ROOT
ATOM      1  C2  UNL d   1       0.128   0.221  -0.003  0.00  0.00    -0.076 A 
ATOM      2  C3  UNL d   1       1.443   0.230   0.495  0.00  0.00     0.004 A 
ATOM      3  C4  UNL d   1       1.696   0.066   1.855  0.00  0.00    -0.003 A 
ATOM      4  C5  UNL d   1       0.639  -0.110   2.741  0.00  0.00     0.000 A 
ATOM      5  C6  UNL d   1      -0.671  -0.139   2.263  0.00  0.00     0.000 A 
ATOM      6  C7  UNL d   1      -0.943   0.008   0.892  0.00  0.00    -0.073 A 
ATOM      7  C8  UNL d   1      -2.375  -0.026   0.432  0.00  0.00     0.078 C 
ENDROOT
BRANCH   1   8
ATOM      8  C1  UNL d   1      -0.087   0.430  -1.485  0.00  0.00     0.053 C 
ATOM      9  C   UNL d   1       0.801  -0.464  -2.335  0.00  0.00     0.018 C 
ENDBRANCH   1   8
TORSDOF 1
ENDMDL
