MODEL 1
REMARK minimizedAffinity -5.6979599
REMARK minimizedRMSD -1
REMARK  1 active torsions:
REMARK  status: ('A' for Active; 'I' for Inactive)
REMARK    1  A    between atoms: C1_2  and  C2_3 
ROOT
ATOM      1  C2  UNL d   1       0.216   0.057   0.240  0.00  0.00    -0.076 A 
ATOM      2  C3  UNL d   1      -1.013  -0.570   0.510  0.00  0.00     0.004 A 
ATOM      3  C4  UNL d   1      -1.373  -0.911   1.813  0.00  0.00    -0.003 A 
ATOM      4  C5  UNL d   1      -0.511  -0.629   2.867  0.00  0.00     0.000 A 
ATOM      5  C6  UNL d   1       0.704   0.009   2.619  0.00  0.00     0.000 A 
ATOM      6  C7  UNL d   1       1.075   0.374   1.314  0.00  0.00    -0.073 A 
ATOM      7  C8  UNL d   1       2.400   1.055   1.104  0.00  0.00     0.078 C 
ENDROOT
BRANCH   1   8
ATOM      8  C1  UNL d   1       0.565   0.379  -1.196  0.00  0.00     0.053 C 
ATOM      9  C   UNL d   1      -0.580   1.051  -1.937  0.00  0.00     0.018 C 
ENDBRANCH   1   8
TORSDOF 1
ENDMDL
