MODEL 1
REMARK minimizedAffinity -3.39665937
REMARK minimizedRMSD -1
REMARK  1 active torsions:
REMARK  status: ('A' for Active; 'I' for Inactive)
REMARK    1  A    between atoms: C1_2  and  C2_3 
ROOT
ATOM      1  C2  UNL d   1      -0.022   0.108   0.512  0.00  0.00    -0.076 A 
ATOM      2  C3  UNL d   1       1.247  -0.028   1.102  0.00  0.00     0.004 A 
ATOM      3  C4  UNL d   1       1.381  -0.303   2.461  0.00  0.00    -0.003 A 
ATOM      4  C5  UNL d   1       0.248  -0.448   3.254  0.00  0.00     0.000 A 
ATOM      5  C6  UNL d   1      -1.019  -0.334   2.683  0.00  0.00     0.000 A 
ATOM      6  C7  UNL d   1      -1.172  -0.073   1.310  0.00  0.00    -0.073 A 
ATOM      7  C8  UNL d   1      -2.562   0.046   0.749  0.00  0.00     0.078 C 
ENDROOT
BRANCH   1   8
ATOM      8  C1  UNL d   1      -0.105   0.434  -0.962  0.00  0.00     0.053 C 
ATOM      9  C   UNL d   1       0.637  -0.575  -1.824  0.00  0.00     0.018 C 
ENDBRANCH   1   8
TORSDOF 1
ENDMDL
