MODEL 1
REMARK minimizedAffinity -6.37697792
REMARK minimizedRMSD -1
REMARK  1 active torsions:
REMARK  status: ('A' for Active; 'I' for Inactive)
REMARK    1  A    between atoms: C1_2  and  C2_3 
ROOT
ATOM      1  C2  UNL d   1      -0.157   0.085   0.691  0.00  0.00    -0.076 A 
ATOM      2  C3  UNL d   1      -1.525   0.045   1.013  0.00  0.00     0.004 A 
ATOM      3  C4  UNL d   1      -1.948  -0.003   2.341  0.00  0.00    -0.003 A 
ATOM      4  C5  UNL d   1      -1.011  -0.011   3.367  0.00  0.00     0.000 A 
ATOM      5  C6  UNL d   1       0.350   0.046   3.067  0.00  0.00     0.000 A 
ATOM      6  C7  UNL d   1       0.793   0.111   1.735  0.00  0.00    -0.073 A 
ATOM      7  C8  UNL d   1       2.272   0.165   1.468  0.00  0.00     0.078 C 
ENDROOT
BRANCH   1   8
ATOM      8  C1  UNL d   1       0.243   0.109  -0.766  0.00  0.00     0.053 C 
ATOM      9  C   UNL d   1      -0.243   1.359  -1.484  0.00  0.00     0.018 C 
ENDBRANCH   1   8
TORSDOF 1
ENDMDL
