MODEL 1
REMARK minimizedAffinity 6.98017931
REMARK minimizedRMSD -1
REMARK  0 active torsions:
REMARK  status: ('A' for Active; 'I' for Inactive)
ROOT
ATOM      1  C   UNL d   1       0.700   2.247   0.883  0.00  0.00     0.020 A 
ATOM      2  C1  UNL d   1       0.885   2.739  -0.409  0.00  0.00     0.020 A 
ATOM      3  C2  UNL d   1       2.124   2.598  -1.038  0.00  0.00     0.034 A 
ATOM      4  C3  UNL d   1       3.182   1.965  -0.376  0.00  0.00     0.017 A 
ATOM      5  C4  UNL d   1       2.996   1.473   0.920  0.00  0.00     0.017 A 
ATOM      6  C5  UNL d   1       1.753   1.616   1.546  0.00  0.00     0.034 A 
ATOM      7 Cl   UNL d   1       4.254   0.680   1.801  0.00  0.00    -0.070 Cl
ATOM      8 Cl1  UNL d   1       4.687   1.826  -1.215  0.00  0.00    -0.070 Cl
ENDROOT
TORSDOF 0
ENDMDL
