MODEL 1
REMARK minimizedAffinity 20.9047794
REMARK minimizedRMSD -1
REMARK  0 active torsions:
REMARK  status: ('A' for Active; 'I' for Inactive)
ROOT
ATOM      1  C   UNL d   1      -0.551  -1.836   0.639  0.00  0.00     0.020 A 
ATOM      2  C1  UNL d   1      -1.778  -2.284   1.126  0.00  0.00     0.020 A 
ATOM      3  C2  UNL d   1      -2.443  -3.332   0.486  0.00  0.00     0.034 A 
ATOM      4  C3  UNL d   1      -1.880  -3.937  -0.644  0.00  0.00     0.017 A 
ATOM      5  C4  UNL d   1      -0.648  -3.487  -1.131  0.00  0.00     0.017 A 
ATOM      6  C5  UNL d   1       0.013  -2.437  -0.487  0.00  0.00     0.034 A 
ATOM      7 Cl   UNL d   1       0.110  -4.183  -2.520  0.00  0.00    -0.070 Cl
ATOM      8 Cl1  UNL d   1      -2.756  -5.229  -1.384  0.00  0.00    -0.070 Cl
ENDROOT
TORSDOF 0
ENDMDL
