MODEL 1
REMARK minimizedAffinity 11.4774141
REMARK minimizedRMSD -1
REMARK  0 active torsions:
REMARK  status: ('A' for Active; 'I' for Inactive)
ROOT
ATOM      1  C   UNL d   1       0.683   2.379   0.343  0.00  0.00     0.020 A 
ATOM      2  C1  UNL d   1       0.365   2.172   1.685  0.00  0.00     0.020 A 
ATOM      3  C2  UNL d   1       1.383   2.037   2.631  0.00  0.00     0.034 A 
ATOM      4  C3  UNL d   1       2.724   2.109   2.237  0.00  0.00     0.017 A 
ATOM      5  C4  UNL d   1       3.042   2.317   0.890  0.00  0.00     0.017 A 
ATOM      6  C5  UNL d   1       2.019   2.451  -0.053  0.00  0.00     0.034 A 
ATOM      7 Cl   UNL d   1       4.674   2.417   0.328  0.00  0.00    -0.070 Cl
ATOM      8 Cl1  UNL d   1       3.932   1.934   3.460  0.00  0.00    -0.070 Cl
ENDROOT
TORSDOF 0
ENDMDL
