MODEL 1
REMARK minimizedAffinity 7.29586744
REMARK minimizedRMSD -1
REMARK  0 active torsions:
REMARK  status: ('A' for Active; 'I' for Inactive)
ROOT
ATOM      1  C   UNL d   1       4.513   1.670   3.644  0.00  0.00     0.020 A 
ATOM      2  C1  UNL d   1       5.805   1.848   3.151  0.00  0.00     0.020 A 
ATOM      3  C2  UNL d   1       6.000   2.197   1.813  0.00  0.00     0.034 A 
ATOM      4  C3  UNL d   1       4.901   2.367   0.963  0.00  0.00     0.017 A 
ATOM      5  C4  UNL d   1       3.604   2.187   1.458  0.00  0.00     0.017 A 
ATOM      6  C5  UNL d   1       3.415   1.839   2.799  0.00  0.00     0.034 A 
ATOM      7 Cl   UNL d   1       2.200   2.380   0.470  0.00  0.00    -0.070 Cl
ATOM      8 Cl1  UNL d   1       5.216   2.798  -0.681  0.00  0.00    -0.070 Cl
ENDROOT
TORSDOF 0
ENDMDL
