MODEL 1
REMARK minimizedAffinity 8.54423141
REMARK minimizedRMSD -1
REMARK  0 active torsions:
REMARK  status: ('A' for Active; 'I' for Inactive)
ROOT
ATOM      1  C   UNL d   1       2.914   1.941   2.035  0.00  0.00     0.020 A 
ATOM      2  C1  UNL d   1       2.775   2.396   0.725  0.00  0.00     0.020 A 
ATOM      3  C2  UNL d   1       1.525   2.804   0.256  0.00  0.00     0.034 A 
ATOM      4  C3  UNL d   1       0.408   2.758   1.098  0.00  0.00     0.017 A 
ATOM      5  C4  UNL d   1       0.548   2.301   2.413  0.00  0.00     0.017 A 
ATOM      6  C5  UNL d   1       1.802   1.893   2.877  0.00  0.00     0.034 A 
ATOM      7 Cl   UNL d   1      -0.784   2.215   3.511  0.00  0.00    -0.070 Cl
ATOM      8 Cl1  UNL d   1      -1.108   3.278   0.451  0.00  0.00    -0.070 Cl
ENDROOT
TORSDOF 0
ENDMDL
