MODEL 1
REMARK minimizedAffinity 6.75256205
REMARK minimizedRMSD -1
REMARK  0 active torsions:
REMARK  status: ('A' for Active; 'I' for Inactive)
ROOT
ATOM      1  C   UNL d   1       2.191   1.931   2.272  0.00  0.00     0.020 A 
ATOM      2  C1  UNL d   1       2.040   1.908   0.886  0.00  0.00     0.020 A 
ATOM      3  C2  UNL d   1       0.783   2.121   0.316  0.00  0.00     0.034 A 
ATOM      4  C3  UNL d   1      -0.329   2.358   1.133  0.00  0.00     0.017 A 
ATOM      5  C4  UNL d   1      -0.176   2.380   2.524  0.00  0.00     0.017 A 
ATOM      6  C5  UNL d   1       1.085   2.167   3.089  0.00  0.00     0.034 A 
ATOM      7 Cl   UNL d   1      -1.501   2.667   3.597  0.00  0.00    -0.070 Cl
ATOM      8 Cl1  UNL d   1      -1.853   2.613   0.361  0.00  0.00    -0.070 Cl
ENDROOT
TORSDOF 0
ENDMDL
