MODEL 1
REMARK minimizedAffinity 8.96594143
REMARK minimizedRMSD -1
REMARK  0 active torsions:
REMARK  status: ('A' for Active; 'I' for Inactive)
ROOT
ATOM      1  C   UNL d   1       2.544   0.888   1.299  0.00  0.00     0.020 A 
ATOM      2  C1  UNL d   1       2.520   2.236   0.944  0.00  0.00     0.020 A 
ATOM      3  C2  UNL d   1       1.307   2.856   0.639  0.00  0.00     0.034 A 
ATOM      4  C3  UNL d   1       0.112   2.128   0.689  0.00  0.00     0.017 A 
ATOM      5  C4  UNL d   1       0.137   0.775   1.045  0.00  0.00     0.017 A 
ATOM      6  C5  UNL d   1       1.355   0.159   1.350  0.00  0.00     0.034 A 
ATOM      7 Cl   UNL d   1      -1.295  -0.188   1.128  0.00  0.00    -0.070 Cl
ATOM      8 Cl1  UNL d   1      -1.352   2.959   0.299  0.00  0.00    -0.070 Cl
ENDROOT
TORSDOF 0
ENDMDL
