MODEL 1
REMARK minimizedAffinity 4.60852194
REMARK minimizedRMSD -1
REMARK  0 active torsions:
REMARK  status: ('A' for Active; 'I' for Inactive)
ROOT
ATOM      1  C   UNL d   1       2.850   1.997   1.200  0.00  0.00     0.020 A 
ATOM      2  C1  UNL d   1       3.006   2.562  -0.065  0.00  0.00     0.020 A 
ATOM      3  C2  UNL d   1       1.899   3.082  -0.739  0.00  0.00     0.034 A 
ATOM      4  C3  UNL d   1       0.631   3.039  -0.148  0.00  0.00     0.017 A 
ATOM      5  C4  UNL d   1       0.476   2.471   1.122  0.00  0.00     0.017 A 
ATOM      6  C5  UNL d   1       1.588   1.952   1.792  0.00  0.00     0.034 A 
ATOM      7 Cl   UNL d   1      -1.057   2.381   1.916  0.00  0.00    -0.070 Cl
ATOM      8 Cl1  UNL d   1      -0.693   3.701  -1.038  0.00  0.00    -0.070 Cl
ENDROOT
TORSDOF 0
ENDMDL
