MODEL 1
REMARK minimizedAffinity 4.58169937
REMARK minimizedRMSD -1
REMARK  0 active torsions:
REMARK  status: ('A' for Active; 'I' for Inactive)
ROOT
ATOM      1  C   UNL d   1       2.310   1.864   3.653  0.00  0.00     0.020 A 
ATOM      2  C1  UNL d   1       3.216   1.511   2.653  0.00  0.00     0.020 A 
ATOM      3  C2  UNL d   1       2.796   1.443   1.323  0.00  0.00     0.034 A 
ATOM      4  C3  UNL d   1       1.467   1.729   0.989  0.00  0.00     0.017 A 
ATOM      5  C4  UNL d   1       0.559   2.083   1.993  0.00  0.00     0.017 A 
ATOM      6  C5  UNL d   1       0.984   2.150   3.323  0.00  0.00     0.034 A 
ATOM      7 Cl   UNL d   1      -1.096   2.450   1.657  0.00  0.00    -0.070 Cl
ATOM      8 Cl1  UNL d   1       1.018   1.626  -0.677  0.00  0.00    -0.070 Cl
ENDROOT
TORSDOF 0
ENDMDL
