MODEL 1
REMARK minimizedAffinity 16.2001534
REMARK minimizedRMSD -1
REMARK  0 active torsions:
REMARK  status: ('A' for Active; 'I' for Inactive)
ROOT
ATOM      1  C   UNL d   1       3.000   1.305   1.409  0.00  0.00     0.020 A 
ATOM      2  C1  UNL d   1       3.840   2.324   0.962  0.00  0.00     0.020 A 
ATOM      3  C2  UNL d   1       3.301   3.547   0.558  0.00  0.00     0.034 A 
ATOM      4  C3  UNL d   1       1.917   3.755   0.601  0.00  0.00     0.017 A 
ATOM      5  C4  UNL d   1       1.075   2.731   1.050  0.00  0.00     0.017 A 
ATOM      6  C5  UNL d   1       1.620   1.509   1.453  0.00  0.00     0.034 A 
ATOM      7 Cl   UNL d   1      -0.642   2.913   1.130  0.00  0.00    -0.070 Cl
ATOM      8 Cl1  UNL d   1       1.319   5.292   0.087  0.00  0.00    -0.070 Cl
ENDROOT
TORSDOF 0
ENDMDL
