MODEL 1
REMARK minimizedAffinity 4.07854414
REMARK minimizedRMSD -1
REMARK  0 active torsions:
REMARK  status: ('A' for Active; 'I' for Inactive)
ROOT
ATOM      1  C   UNL d   1       4.887   4.500   2.183  0.00  0.00     0.020 A 
ATOM      2  C1  UNL d   1       6.000   4.125   1.432  0.00  0.00     0.020 A 
ATOM      3  C2  UNL d   1       5.857   3.224   0.374  0.00  0.00     0.034 A 
ATOM      4  C3  UNL d   1       4.598   2.696   0.066  0.00  0.00     0.017 A 
ATOM      5  C4  UNL d   1       3.482   3.073   0.821  0.00  0.00     0.017 A 
ATOM      6  C5  UNL d   1       3.631   3.975   1.878  0.00  0.00     0.034 A 
ATOM      7 Cl   UNL d   1       1.897   2.463   0.500  0.00  0.00    -0.070 Cl
ATOM      8 Cl1  UNL d   1       4.494   1.587  -1.256  0.00  0.00    -0.070 Cl
ENDROOT
TORSDOF 0
ENDMDL
