MODEL 1
REMARK minimizedAffinity 4.37317514
REMARK minimizedRMSD -1
REMARK  0 active torsions:
REMARK  status: ('A' for Active; 'I' for Inactive)
ROOT
ATOM      1  C   UNL d   1       5.887   5.604   5.677  0.00  0.00     0.020 A 
ATOM      2  C1  UNL d   1       5.246   6.000   4.503  0.00  0.00     0.020 A 
ATOM      3  C2  UNL d   1       4.693   5.040   3.652  0.00  0.00     0.034 A 
ATOM      4  C3  UNL d   1       4.781   3.681   3.973  0.00  0.00     0.017 A 
ATOM      5  C4  UNL d   1       5.425   3.285   5.151  0.00  0.00     0.017 A 
ATOM      6  C5  UNL d   1       5.976   4.250   5.999  0.00  0.00     0.034 A 
ATOM      7 Cl   UNL d   1       5.573   1.626   5.614  0.00  0.00    -0.070 Cl
ATOM      8 Cl1  UNL d   1       4.075   2.549   2.874  0.00  0.00    -0.070 Cl
ENDROOT
TORSDOF 0
ENDMDL
