MODEL 1
REMARK minimizedAffinity 11.9071579
REMARK minimizedRMSD -1
REMARK  0 active torsions:
REMARK  status: ('A' for Active; 'I' for Inactive)
ROOT
ATOM      1  C   UNL d   1       1.461   1.106   1.638  0.00  0.00     0.020 A 
ATOM      2  C1  UNL d   1       2.818   1.272   1.361  0.00  0.00     0.020 A 
ATOM      3  C2  UNL d   1       3.730   1.428   2.407  0.00  0.00     0.034 A 
ATOM      4  C3  UNL d   1       3.286   1.420   3.735  0.00  0.00     0.017 A 
ATOM      5  C4  UNL d   1       1.925   1.254   4.012  0.00  0.00     0.017 A 
ATOM      6  C5  UNL d   1       1.016   1.098   2.961  0.00  0.00     0.034 A 
ATOM      7 Cl   UNL d   1       1.302   1.233   5.624  0.00  0.00    -0.070 Cl
ATOM      8 Cl1  UNL d   1       4.470   1.619   4.978  0.00  0.00    -0.070 Cl
ENDROOT
TORSDOF 0
ENDMDL
