MODEL 1
REMARK minimizedAffinity 7.77730751
REMARK minimizedRMSD -1
REMARK  0 active torsions:
REMARK  status: ('A' for Active; 'I' for Inactive)
ROOT
ATOM      1  C   UNL d   1       1.693   0.860   1.451  0.00  0.00     0.020 A 
ATOM      2  C1  UNL d   1       2.086   0.934   0.115  0.00  0.00     0.020 A 
ATOM      3  C2  UNL d   1       3.414   1.219  -0.207  0.00  0.00     0.034 A 
ATOM      4  C3  UNL d   1       4.355   1.431   0.808  0.00  0.00     0.017 A 
ATOM      5  C4  UNL d   1       3.959   1.357   2.149  0.00  0.00     0.017 A 
ATOM      6  C5  UNL d   1       2.627   1.071   2.465  0.00  0.00     0.034 A 
ATOM      7 Cl   UNL d   1       5.062   1.606   3.456  0.00  0.00    -0.070 Cl
ATOM      8 Cl1  UNL d   1       5.980   1.779   0.337  0.00  0.00    -0.070 Cl
ENDROOT
TORSDOF 0
ENDMDL
