MODEL 1
REMARK minimizedAffinity -2.45459414
REMARK minimizedRMSD -1
REMARK  0 active torsions:
REMARK  status: ('A' for Active; 'I' for Inactive)
ROOT
ATOM      1  C   UNL d   1       0.364   2.803  -6.000  0.00  0.00     0.020 A 
ATOM      2  C1  UNL d   1      -0.212   1.856  -5.155  0.00  0.00     0.020 A 
ATOM      3  C2  UNL d   1       0.474   1.427  -4.017  0.00  0.00     0.034 A 
ATOM      4  C3  UNL d   1       1.740   1.945  -3.720  0.00  0.00     0.017 A 
ATOM      5  C4  UNL d   1       2.317   2.896  -4.569  0.00  0.00     0.017 A 
ATOM      6  C5  UNL d   1       1.626   3.322  -5.707  0.00  0.00     0.034 A 
ATOM      7 Cl   UNL d   1       3.876   3.581  -4.269  0.00  0.00    -0.070 Cl
ATOM      8 Cl1  UNL d   1       2.531   1.369  -2.296  0.00  0.00    -0.070 Cl
ENDROOT
TORSDOF 0
ENDMDL
