MODEL 1
REMARK minimizedAffinity 8.02026558
REMARK minimizedRMSD -1
REMARK  0 active torsions:
REMARK  status: ('A' for Active; 'I' for Inactive)
ROOT
ATOM      1  C   UNL d   1       1.624   1.979   0.498  0.00  0.00     0.020 A 
ATOM      2  C1  UNL d   1       1.946   2.119   1.847  0.00  0.00     0.020 A 
ATOM      3  C2  UNL d   1       0.968   2.514   2.761  0.00  0.00     0.034 A 
ATOM      4  C3  UNL d   1      -0.338   2.771   2.327  0.00  0.00     0.017 A 
ATOM      5  C4  UNL d   1      -0.660   2.631   0.973  0.00  0.00     0.017 A 
ATOM      6  C5  UNL d   1       0.324   2.234   0.062  0.00  0.00     0.034 A 
ATOM      7 Cl   UNL d   1      -2.249   2.930   0.362  0.00  0.00    -0.070 Cl
ATOM      8 Cl1  UNL d   1      -1.498   3.256   3.513  0.00  0.00    -0.070 Cl
ENDROOT
TORSDOF 0
ENDMDL
