MODEL 1
REMARK minimizedAffinity 2.99467444
REMARK minimizedRMSD -1
REMARK  0 active torsions:
REMARK  status: ('A' for Active; 'I' for Inactive)
ROOT
ATOM      1  C   UNL d   1       5.265   5.999   0.845  0.00  0.00     0.020 A 
ATOM      2  C1  UNL d   1       4.319   5.733   1.834  0.00  0.00     0.020 A 
ATOM      3  C2  UNL d   1       3.545   4.573   1.764  0.00  0.00     0.034 A 
ATOM      4  C3  UNL d   1       3.715   3.675   0.704  0.00  0.00     0.017 A 
ATOM      5  C4  UNL d   1       4.665   3.943  -0.288  0.00  0.00     0.017 A 
ATOM      6  C5  UNL d   1       5.438   5.106  -0.213  0.00  0.00     0.034 A 
ATOM      7 Cl   UNL d   1       4.933   2.883  -1.626  0.00  0.00    -0.070 Cl
ATOM      8 Cl1  UNL d   1       2.723   2.260   0.682  0.00  0.00    -0.070 Cl
ENDROOT
TORSDOF 0
ENDMDL
