MODEL 1
REMARK minimizedAffinity 6.02926064
REMARK minimizedRMSD -1
REMARK  0 active torsions:
REMARK  status: ('A' for Active; 'I' for Inactive)
ROOT
ATOM      1  C   UNL d   1      -5.365   4.350  -6.000  0.00  0.00     0.020 A 
ATOM      2  C1  UNL d   1      -4.732   5.592  -5.999  0.00  0.00     0.020 A 
ATOM      3  C2  UNL d   1      -3.384   5.688  -5.646  0.00  0.00     0.034 A 
ATOM      4  C3  UNL d   1      -2.666   4.541  -5.291  0.00  0.00     0.017 A 
ATOM      5  C4  UNL d   1      -3.303   3.294  -5.293  0.00  0.00     0.017 A 
ATOM      6  C5  UNL d   1      -4.652   3.204  -5.647  0.00  0.00     0.034 A 
ATOM      7 Cl   UNL d   1      -2.482   1.834  -4.868  0.00  0.00    -0.070 Cl
ATOM      8 Cl1  UNL d   1      -1.002   4.733  -4.866  0.00  0.00    -0.070 Cl
ENDROOT
TORSDOF 0
ENDMDL
