MODEL 1
REMARK minimizedAffinity 10.8142939
REMARK minimizedRMSD -1
REMARK  0 active torsions:
REMARK  status: ('A' for Active; 'I' for Inactive)
ROOT
ATOM      1  C   UNL d   1      -0.738   2.265   3.304  0.00  0.00     0.020 A 
ATOM      2  C1  UNL d   1      -1.704   2.683   2.389  0.00  0.00     0.020 A 
ATOM      3  C2  UNL d   1      -1.408   2.711   1.025  0.00  0.00     0.034 A 
ATOM      4  C3  UNL d   1      -0.143   2.320   0.571  0.00  0.00     0.017 A 
ATOM      5  C4  UNL d   1       0.826   1.900   1.490  0.00  0.00     0.017 A 
ATOM      6  C5  UNL d   1       0.524   1.874   2.855  0.00  0.00     0.034 A 
ATOM      7 Cl   UNL d   1       2.409   1.403   1.006  0.00  0.00    -0.070 Cl
ATOM      8 Cl1  UNL d   1       0.154   2.379  -1.130  0.00  0.00    -0.070 Cl
ENDROOT
TORSDOF 0
ENDMDL
