MODEL 1
REMARK minimizedAffinity 9.7437706
REMARK minimizedRMSD -1
REMARK  0 active torsions:
REMARK  status: ('A' for Active; 'I' for Inactive)
ROOT
ATOM      1  C   UNL d   1      -1.758  -4.177  -1.188  0.00  0.00     0.020 A 
ATOM      2  C1  UNL d   1      -2.283  -5.457  -1.020  0.00  0.00     0.020 A 
ATOM      3  C2  UNL d   1      -2.473  -5.970   0.265  0.00  0.00     0.034 A 
ATOM      4  C3  UNL d   1      -2.138  -5.203   1.386  0.00  0.00     0.017 A 
ATOM      5  C4  UNL d   1      -1.611  -3.917   1.216  0.00  0.00     0.017 A 
ATOM      6  C5  UNL d   1      -1.423  -3.408  -0.072  0.00  0.00     0.034 A 
ATOM      7 Cl   UNL d   1      -1.174  -2.911   2.552  0.00  0.00    -0.070 Cl
ATOM      8 Cl1  UNL d   1      -2.401  -5.900   2.945  0.00  0.00    -0.070 Cl
ENDROOT
TORSDOF 0
ENDMDL
