MODEL 1
REMARK minimizedAffinity -3.50185704
REMARK minimizedRMSD -1
REMARK  1 active torsions:
REMARK  status: ('A' for Active; 'I' for Inactive)
REMARK    1  A    between atoms: C1_2  and  C2_3 
ROOT
ATOM      1  C2  UNL d   1       0.314   1.724   0.578  0.00  0.00    -0.081 A 
ATOM      2  C3  UNL d   1      -0.042   1.245   1.845  0.00  0.00     0.006 A 
ATOM      3  C4  UNL d   1      -0.521  -0.057   2.001  0.00  0.00     0.002 A 
ATOM      4  C5  UNL d   1      -0.645  -0.905   0.895  0.00  0.00    -0.080 A 
ATOM      5  C6  UNL d   1      -1.130  -2.316   1.053  0.00  0.00     0.076 C 
ATOM      6  C7  UNL d   1      -0.306  -0.422  -0.373  0.00  0.00     0.002 A 
ATOM      7  C8  UNL d   1       0.173   0.881  -0.530  0.00  0.00     0.006 A 
ENDROOT
BRANCH   1   8
ATOM      8  C1  UNL d   1       0.893   3.106   0.416  0.00  0.00     0.054 C 
ATOM      9  C   UNL d   1       2.360   3.049   0.013  0.00  0.00     0.018 C 
ENDBRANCH   1   8
TORSDOF 1
ENDMDL
