MODEL 1
REMARK minimizedAffinity -5.49041986
REMARK minimizedRMSD -1
REMARK  1 active torsions:
REMARK  status: ('A' for Active; 'I' for Inactive)
REMARK    1  A    between atoms: C1_2  and  C2_3 
ROOT
ATOM      1  C2  UNL d   1       0.167   1.427   0.023  0.00  0.00    -0.081 A 
ATOM      2  C3  UNL d   1      -0.586   1.019   1.131  0.00  0.00     0.006 A 
ATOM      3  C4  UNL d   1      -0.810  -0.338   1.374  0.00  0.00     0.002 A 
ATOM      4  C5  UNL d   1      -0.280  -1.309   0.518  0.00  0.00    -0.080 A 
ATOM      5  C6  UNL d   1      -0.488  -2.770   0.784  0.00  0.00     0.076 C 
ATOM      6  C7  UNL d   1       0.457  -0.901  -0.599  0.00  0.00     0.002 A 
ATOM      7  C8  UNL d   1       0.681   0.456  -0.843  0.00  0.00     0.006 A 
ENDROOT
BRANCH   1   8
ATOM      8  C1  UNL d   1       0.465   2.887  -0.205  0.00  0.00     0.054 C 
ATOM      9  C   UNL d   1       1.964   3.150  -0.216  0.00  0.00     0.018 C 
ENDBRANCH   1   8
TORSDOF 1
ENDMDL
