MODEL 1
REMARK minimizedAffinity -3.57347059
REMARK minimizedRMSD -1
REMARK  1 active torsions:
REMARK  status: ('A' for Active; 'I' for Inactive)
REMARK    1  A    between atoms: C1_2  and  C2_3 
ROOT
ATOM      1  C2  UNL d   1       0.600   1.444   1.142  0.00  0.00    -0.081 A 
ATOM      2  C3  UNL d   1       0.406   0.555   2.207  0.00  0.00     0.006 A 
ATOM      3  C4  UNL d   1      -0.478  -0.518   2.082  0.00  0.00     0.002 A 
ATOM      4  C5  UNL d   1      -1.177  -0.727   0.888  0.00  0.00    -0.080 A 
ATOM      5  C6  UNL d   1      -2.107  -1.893   0.730  0.00  0.00     0.076 C 
ATOM      6  C7  UNL d   1      -0.997   0.171  -0.170  0.00  0.00     0.002 A 
ATOM      7  C8  UNL d   1      -0.113   1.245  -0.045  0.00  0.00     0.006 A 
ENDROOT
BRANCH   1   8
ATOM      8  C1  UNL d   1       1.602   2.565   1.251  0.00  0.00     0.054 C 
ATOM      9  C   UNL d   1       1.936   3.144  -0.116  0.00  0.00     0.018 C 
ENDBRANCH   1   8
TORSDOF 1
ENDMDL
