MODEL 1
REMARK minimizedAffinity -3.02413583
REMARK minimizedRMSD -1
REMARK  1 active torsions:
REMARK  status: ('A' for Active; 'I' for Inactive)
REMARK    1  A    between atoms: C1_2  and  C2_3 
ROOT
ATOM      1  C2  UNL d   1      -0.274  -2.106  -1.002  0.00  0.00    -0.081 A 
ATOM      2  C3  UNL d   1      -0.977  -2.755   0.020  0.00  0.00     0.006 A 
ATOM      3  C4  UNL d   1      -1.340  -2.065   1.179  0.00  0.00     0.002 A 
ATOM      4  C5  UNL d   1      -1.013  -0.713   1.332  0.00  0.00    -0.080 A 
ATOM      5  C6  UNL d   1      -1.423   0.047   2.558  0.00  0.00     0.076 C 
ATOM      6  C7  UNL d   1      -0.296  -0.069   0.318  0.00  0.00     0.002 A 
ATOM      7  C8  UNL d   1       0.068  -0.759  -0.840  0.00  0.00     0.006 A 
ENDROOT
BRANCH   1   8
ATOM      8  C1  UNL d   1       0.063  -2.830  -2.280  0.00  0.00     0.054 C 
ATOM      9  C   UNL d   1       0.392  -1.853  -3.400  0.00  0.00     0.018 C 
ENDBRANCH   1   8
TORSDOF 1
ENDMDL
