MODEL 1
REMARK minimizedAffinity 0.681916475
REMARK minimizedRMSD -1
REMARK  1 active torsions:
REMARK  status: ('A' for Active; 'I' for Inactive)
REMARK    1  A    between atoms: C1_2  and  C2_3 
ROOT
ATOM      1  C2  UNL d   1       0.013   1.570   0.177  0.00  0.00    -0.081 A 
ATOM      2  C3  UNL d   1      -0.700   0.598   0.891  0.00  0.00     0.006 A 
ATOM      3  C4  UNL d   1      -0.850  -0.691   0.376  0.00  0.00     0.002 A 
ATOM      4  C5  UNL d   1      -0.284  -1.034  -0.857  0.00  0.00    -0.080 A 
ATOM      5  C6  UNL d   1      -0.412  -2.423  -1.407  0.00  0.00     0.076 C 
ATOM      6  C7  UNL d   1       0.413  -0.058  -1.579  0.00  0.00     0.002 A 
ATOM      7  C8  UNL d   1       0.563   1.231  -1.065  0.00  0.00     0.006 A 
ENDROOT
BRANCH   1   8
ATOM      8  C1  UNL d   1       0.232   2.942   0.759  0.00  0.00     0.054 C 
ATOM      9  C   UNL d   1       1.715   3.252   0.904  0.00  0.00     0.018 C 
ENDBRANCH   1   8
TORSDOF 1
ENDMDL
