MODEL 1
REMARK minimizedAffinity 0.0494437627
REMARK minimizedRMSD -1
REMARK  1 active torsions:
REMARK  status: ('A' for Active; 'I' for Inactive)
REMARK    1  A    between atoms: C1_2  and  C2_3 
ROOT
ATOM      1  C2  UNL d   1      -0.563  -2.177  -0.876  0.00  0.00    -0.081 A 
ATOM      2  C3  UNL d   1       0.191  -1.236  -1.589  0.00  0.00     0.006 A 
ATOM      3  C4  UNL d   1       0.556  -0.025  -0.996  0.00  0.00     0.002 A 
ATOM      4  C5  UNL d   1       0.181   0.262   0.321  0.00  0.00    -0.080 A 
ATOM      5  C6  UNL d   1       0.592   1.545   0.980  0.00  0.00     0.076 C 
ATOM      6  C7  UNL d   1      -0.587  -0.670   1.027  0.00  0.00     0.002 A 
ATOM      7  C8  UNL d   1      -0.954  -1.881   0.434  0.00  0.00     0.006 A 
ENDROOT
BRANCH   1   8
ATOM      8  C1  UNL d   1      -0.904  -3.510  -1.491  0.00  0.00     0.054 C 
ATOM      9  C   UNL d   1      -0.849  -3.450  -3.011  0.00  0.00     0.018 C 
ENDBRANCH   1   8
TORSDOF 1
ENDMDL
