MODEL 1
REMARK minimizedAffinity -2.43493462
REMARK minimizedRMSD -1
REMARK  1 active torsions:
REMARK  status: ('A' for Active; 'I' for Inactive)
REMARK    1  A    between atoms: C1_2  and  C2_3 
ROOT
ATOM      1  C2  UNL d   1      -0.758  -1.356   0.351  0.00  0.00    -0.081 A 
ATOM      2  C3  UNL d   1      -0.969  -0.303   1.251  0.00  0.00     0.006 A 
ATOM      3  C4  UNL d   1      -0.426   0.959   1.003  0.00  0.00     0.002 A 
ATOM      4  C5  UNL d   1       0.329   1.193  -0.151  0.00  0.00    -0.080 A 
ATOM      5  C6  UNL d   1       0.892   2.552  -0.445  0.00  0.00     0.076 C 
ATOM      6  C7  UNL d   1       0.554   0.137  -1.041  0.00  0.00     0.002 A 
ATOM      7  C8  UNL d   1       0.012  -1.126  -0.793  0.00  0.00     0.006 A 
ENDROOT
BRANCH   1   8
ATOM      8  C1  UNL d   1      -1.396  -2.702   0.584  0.00  0.00     0.054 C 
ATOM      9  C   UNL d   1      -2.872  -2.686   0.212  0.00  0.00     0.018 C 
ENDBRANCH   1   8
TORSDOF 1
ENDMDL
