MODEL 1
REMARK minimizedAffinity -1.56946874
REMARK minimizedRMSD -1
REMARK  1 active torsions:
REMARK  status: ('A' for Active; 'I' for Inactive)
REMARK    1  A    between atoms: C1_2  and  C2_3 
ROOT
ATOM      1  C2  UNL d   1      -0.346  -1.456  -1.306  0.00  0.00    -0.081 A 
ATOM      2  C3  UNL d   1      -0.883  -2.390  -0.412  0.00  0.00     0.006 A 
ATOM      3  C4  UNL d   1      -1.263  -2.002   0.875  0.00  0.00     0.002 A 
ATOM      4  C5  UNL d   1      -1.119  -0.673   1.286  0.00  0.00    -0.080 A 
ATOM      5  C6  UNL d   1      -1.551  -0.236   2.655  0.00  0.00     0.076 C 
ATOM      6  C7  UNL d   1      -0.566   0.257   0.399  0.00  0.00     0.002 A 
ATOM      7  C8  UNL d   1      -0.185  -0.131  -0.887  0.00  0.00     0.006 A 
ENDROOT
BRANCH   1   8
ATOM      8  C1  UNL d   1       0.005  -1.858  -2.716  0.00  0.00     0.054 C 
ATOM      9  C   UNL d   1      -0.751  -3.110  -3.139  0.00  0.00     0.018 C 
ENDBRANCH   1   8
TORSDOF 1
ENDMDL
