MODEL 1
REMARK minimizedAffinity -1.95956576
REMARK minimizedRMSD -1
REMARK  1 active torsions:
REMARK  status: ('A' for Active; 'I' for Inactive)
REMARK    1  A    between atoms: C1_2  and  C2_3 
ROOT
ATOM      1  C2  UNL d   1      -0.387  -2.315  -1.274  0.00  0.00    -0.081 A 
ATOM      2  C3  UNL d   1      -0.198  -0.929  -1.199  0.00  0.00     0.006 A 
ATOM      3  C4  UNL d   1      -0.196  -0.281   0.038  0.00  0.00     0.002 A 
ATOM      4  C5  UNL d   1      -0.376  -1.006   1.220  0.00  0.00    -0.080 A 
ATOM      5  C6  UNL d   1      -0.346  -0.327   2.557  0.00  0.00     0.076 C 
ATOM      6  C7  UNL d   1      -0.582  -2.388   1.144  0.00  0.00     0.002 A 
ATOM      7  C8  UNL d   1      -0.585  -3.037  -0.093  0.00  0.00     0.006 A 
ENDROOT
BRANCH   1   8
ATOM      8  C1  UNL d   1      -0.325  -3.026  -2.602  0.00  0.00     0.054 C 
ATOM      9  C   UNL d   1       0.368  -2.173  -3.655  0.00  0.00     0.018 C 
ENDBRANCH   1   8
TORSDOF 1
ENDMDL
