MODEL 1
REMARK minimizedAffinity -4.26176977
REMARK minimizedRMSD -1
REMARK  1 active torsions:
REMARK  status: ('A' for Active; 'I' for Inactive)
REMARK    1  A    between atoms: C1_2  and  C2_3 
ROOT
ATOM      1  C2  UNL d   1      -0.555  -1.275  -1.012  0.00  0.00    -0.081 A 
ATOM      2  C3  UNL d   1      -0.377   0.040  -0.565  0.00  0.00     0.006 A 
ATOM      3  C4  UNL d   1      -0.581   0.365   0.779  0.00  0.00     0.002 A 
ATOM      4  C5  UNL d   1      -0.958  -0.620   1.698  0.00  0.00    -0.080 A 
ATOM      5  C6  UNL d   1      -1.151  -0.290   3.148  0.00  0.00     0.076 C 
ATOM      6  C7  UNL d   1      -1.154  -1.930   1.247  0.00  0.00     0.002 A 
ATOM      7  C8  UNL d   1      -0.951  -2.255  -0.096  0.00  0.00     0.006 A 
ENDROOT
BRANCH   1   8
ATOM      8  C1  UNL d   1      -0.273  -1.641  -2.447  0.00  0.00     0.054 C 
ATOM      9  C   UNL d   1      -0.913  -2.972  -2.814  0.00  0.00     0.018 C 
ENDBRANCH   1   8
TORSDOF 1
ENDMDL
