MODEL 1
REMARK minimizedAffinity 7.20787621
REMARK minimizedRMSD -1
REMARK  1 active torsions:
REMARK  status: ('A' for Active; 'I' for Inactive)
REMARK    1  A    between atoms: C1_2  and  C2_3 
ROOT
ATOM      1  C2  UNL d   1      -0.272  -0.614   2.081  0.00  0.00    -0.076 A 
ATOM      2  C3  UNL d   1       0.054   0.419   2.977  0.00  0.00     0.004 A 
ATOM      3  C4  UNL d   1      -0.936   1.234   3.523  0.00  0.00    -0.003 A 
ATOM      4  C5  UNL d   1      -2.268   1.030   3.182  0.00  0.00     0.000 A 
ATOM      5  C6  UNL d   1      -2.612  -0.001   2.308  0.00  0.00     0.000 A 
ATOM      6  C7  UNL d   1      -1.628  -0.842   1.762  0.00  0.00    -0.073 A 
ATOM      7  C8  UNL d   1      -2.054  -1.935   0.819  0.00  0.00     0.078 C 
ENDROOT
BRANCH   1   8
ATOM      8  C1  UNL d   1       0.846  -1.449   1.500  0.00  0.00     0.053 C 
ATOM      9  C   UNL d   1       1.273  -0.972   0.120  0.00  0.00     0.018 C 
ENDBRANCH   1   8
TORSDOF 1
ENDMDL
