MODEL 1
REMARK minimizedAffinity 4.19223785
REMARK minimizedRMSD -1
REMARK  1 active torsions:
REMARK  status: ('A' for Active; 'I' for Inactive)
REMARK    1  A    between atoms: C1_2  and  C2_3 
ROOT
ATOM      1  C2  UNL d   1       1.712  -1.131  -0.067  0.00  0.00    -0.076 A 
ATOM      2  C3  UNL d   1       0.515  -0.582  -0.560  0.00  0.00     0.004 A 
ATOM      3  C4  UNL d   1       0.520   0.285  -1.652  0.00  0.00    -0.003 A 
ATOM      4  C5  UNL d   1       1.721   0.615  -2.269  0.00  0.00     0.000 A 
ATOM      5  C6  UNL d   1       2.915   0.066  -1.805  0.00  0.00     0.000 A 
ATOM      6  C7  UNL d   1       2.927  -0.822  -0.715  0.00  0.00    -0.073 A 
ATOM      7  C8  UNL d   1       4.244  -1.380  -0.252  0.00  0.00     0.078 C 
ENDROOT
BRANCH   1   8
ATOM      8  C1  UNL d   1       1.648  -2.043   1.137  0.00  0.00     0.053 C 
ATOM      9  C   UNL d   1       0.863  -1.434   2.289  0.00  0.00     0.018 C 
ENDBRANCH   1   8
TORSDOF 1
ENDMDL
