MODEL 1
REMARK minimizedAffinity 0.32772705
REMARK minimizedRMSD -1
REMARK  1 active torsions:
REMARK  status: ('A' for Active; 'I' for Inactive)
REMARK    1  A    between atoms: C1_2  and  C2_3 
ROOT
ATOM      1  C2  UNL d   1      -0.373  -0.849   2.683  0.00  0.00    -0.076 A 
ATOM      2  C3  UNL d   1      -0.222   0.101   3.708  0.00  0.00     0.004 A 
ATOM      3  C4  UNL d   1      -1.217   1.042   3.967  0.00  0.00    -0.003 A 
ATOM      4  C5  UNL d   1      -2.380   1.049   3.205  0.00  0.00     0.000 A 
ATOM      5  C6  UNL d   1      -2.555   0.103   2.196  0.00  0.00     0.000 A 
ATOM      6  C7  UNL d   1      -1.569  -0.863   1.932  0.00  0.00    -0.073 A 
ATOM      7  C8  UNL d   1      -1.807  -1.855   0.827  0.00  0.00     0.078 C 
ENDROOT
BRANCH   1   8
ATOM      8  C1  UNL d   1       0.751  -1.827   2.430  0.00  0.00     0.053 C 
ATOM      9  C   UNL d   1       1.623  -1.421   1.252  0.00  0.00     0.018 C 
ENDBRANCH   1   8
TORSDOF 1
ENDMDL
