MODEL 1
REMARK minimizedAffinity 5.69174099
REMARK minimizedRMSD -1
REMARK  1 active torsions:
REMARK  status: ('A' for Active; 'I' for Inactive)
REMARK    1  A    between atoms: C1_2  and  C2_3 
ROOT
ATOM      1  C2  UNL d   1       1.337  -1.025   0.800  0.00  0.00    -0.076 A 
ATOM      2  C3  UNL d   1       2.174  -0.476  -0.188  0.00  0.00     0.004 A 
ATOM      3  C4  UNL d   1       1.774  -0.430  -1.522  0.00  0.00    -0.003 A 
ATOM      4  C5  UNL d   1       0.531  -0.931  -1.891  0.00  0.00     0.000 A 
ATOM      5  C6  UNL d   1      -0.319  -1.463  -0.923  0.00  0.00     0.000 A 
ATOM      6  C7  UNL d   1       0.061  -1.502   0.430  0.00  0.00    -0.073 A 
ATOM      7  C8  UNL d   1      -0.893  -2.093   1.432  0.00  0.00     0.078 C 
ENDROOT
BRANCH   1   8
ATOM      8  C1  UNL d   1       1.835  -1.073   2.226  0.00  0.00     0.053 C 
ATOM      9  C   UNL d   1       1.233   0.025   3.091  0.00  0.00     0.018 C 
ENDBRANCH   1   8
TORSDOF 1
ENDMDL
