MODEL 1
REMARK minimizedAffinity 9.2906971
REMARK minimizedRMSD -1
REMARK  1 active torsions:
REMARK  status: ('A' for Active; 'I' for Inactive)
REMARK    1  A    between atoms: C1_2  and  C2_3 
ROOT
ATOM      1  C2  UNL d   1       1.718  -1.023   0.067  0.00  0.00    -0.076 A 
ATOM      2  C3  UNL d   1       0.796  -0.645   1.058  0.00  0.00     0.004 A 
ATOM      3  C4  UNL d   1       0.749  -1.307   2.284  0.00  0.00    -0.003 A 
ATOM      4  C5  UNL d   1       1.623  -2.357   2.538  0.00  0.00     0.000 A 
ATOM      5  C6  UNL d   1       2.557  -2.734   1.573  0.00  0.00     0.000 A 
ATOM      6  C7  UNL d   1       2.629  -2.067   0.339  0.00  0.00    -0.073 A 
ATOM      7  C8  UNL d   1       3.651  -2.519  -0.668  0.00  0.00     0.078 C 
ENDROOT
BRANCH   1   8
ATOM      8  C1  UNL d   1       1.705  -0.287  -1.254  0.00  0.00     0.053 C 
ATOM      9  C   UNL d   1       2.136   1.165  -1.115  0.00  0.00     0.018 C 
ENDBRANCH   1   8
TORSDOF 1
ENDMDL
