MODEL 1
REMARK minimizedAffinity 5.10180998
REMARK minimizedRMSD -1
REMARK  1 active torsions:
REMARK  status: ('A' for Active; 'I' for Inactive)
REMARK    1  A    between atoms: C1_2  and  C2_3 
ROOT
ATOM      1  C2  UNL d   1       0.729  -1.372   1.478  0.00  0.00    -0.076 A 
ATOM      2  C3  UNL d   1       0.869  -1.319   2.876  0.00  0.00     0.004 A 
ATOM      3  C4  UNL d   1      -0.070  -0.659   3.667  0.00  0.00    -0.003 A 
ATOM      4  C5  UNL d   1      -1.166  -0.042   3.073  0.00  0.00     0.000 A 
ATOM      5  C6  UNL d   1      -1.330  -0.100   1.689  0.00  0.00     0.000 A 
ATOM      6  C7  UNL d   1      -0.401  -0.775   0.879  0.00  0.00    -0.073 A 
ATOM      7  C8  UNL d   1      -0.625  -0.801  -0.608  0.00  0.00     0.078 C 
ENDROOT
BRANCH   1   8
ATOM      8  C1  UNL d   1       1.793  -2.079   0.670  0.00  0.00     0.053 C 
ATOM      9  C   UNL d   1       2.385  -1.192  -0.415  0.00  0.00     0.018 C 
ENDBRANCH   1   8
TORSDOF 1
ENDMDL
