MODEL 1
REMARK minimizedAffinity 5.63470411
REMARK minimizedRMSD -1
REMARK  1 active torsions:
REMARK  status: ('A' for Active; 'I' for Inactive)
REMARK    1  A    between atoms: C1_2  and  C2_3 
ROOT
ATOM      1  C2  UNL d   1       1.903  -0.132  -0.353  0.00  0.00    -0.076 A 
ATOM      2  C3  UNL d   1       1.574  -1.082  -1.335  0.00  0.00     0.004 A 
ATOM      3  C4  UNL d   1       1.393  -0.706  -2.665  0.00  0.00    -0.003 A 
ATOM      4  C5  UNL d   1       1.540   0.627  -3.035  0.00  0.00     0.000 A 
ATOM      5  C6  UNL d   1       1.885   1.580  -2.077  0.00  0.00     0.000 A 
ATOM      6  C7  UNL d   1       2.086   1.215  -0.735  0.00  0.00    -0.073 A 
ATOM      7  C8  UNL d   1       2.450   2.285   0.258  0.00  0.00     0.078 C 
ENDROOT
BRANCH   1   8
ATOM      8  C1  UNL d   1       2.060  -0.594   1.078  0.00  0.00     0.053 C 
ATOM      9  C   UNL d   1       1.169  -1.782   1.408  0.00  0.00     0.018 C 
ENDBRANCH   1   8
TORSDOF 1
ENDMDL
