MODEL 1
REMARK minimizedAffinity -0.188029051
REMARK minimizedRMSD -1
REMARK  2 active torsions:
REMARK  status: ('A' for Active; 'I' for Inactive)
REMARK    1  A    between atoms: C2'_3  and  C1'_4 
REMARK    2  A    between atoms: C1'_4  and  C1_5 
ROOT
ATOM      1  C1  I4B d   1      -1.829   0.186  -0.821  0.00  0.00    -0.075 A 
ATOM      2  C2  I4B d   1      -3.100   0.538  -0.440  0.00  0.00     0.003 A 
ATOM      3  C3  I4B d   1      -4.134   0.627  -1.404  0.00  0.00     0.002 A 
ATOM      4  C4  I4B d   1      -3.844   0.405  -2.735  0.00  0.00    -0.004 A 
ATOM      5  C5  I4B d   1      -2.560   0.025  -3.116  0.00  0.00     0.002 A 
ATOM      6  C6  I4B d   1      -1.549  -0.097  -2.152  0.00  0.00     0.003 A 
ENDROOT
BRANCH   1   7
ATOM      7  C1' I4B d   1      -0.754   0.134   0.217  0.00  0.00     0.060 C 
BRANCH   7   8
ATOM      8  C2' I4B d   1       0.378   1.032  -0.237  0.00  0.00    -0.013 C 
ATOM      9  C4' I4B d   1      -0.036   2.480  -0.222  0.00  0.00     0.013 C 
ATOM     10  C3' I4B d   1       1.550   0.795   0.668  0.00  0.00     0.013 C 
ENDBRANCH   7   8
ENDBRANCH   1   7
TORSDOF 2
ENDMDL
