MODEL 1
REMARK minimizedAffinity -3.57898116
REMARK minimizedRMSD -1
REMARK  2 active torsions:
REMARK  status: ('A' for Active; 'I' for Inactive)
REMARK    1  A    between atoms: C2'_3  and  C1'_4 
REMARK    2  A    between atoms: C1'_4  and  C1_5 
ROOT
ATOM      1  C1  I4B d   1      -2.042  -0.029  -0.983  0.00  0.00    -0.075 A 
ATOM      2  C2  I4B d   1      -2.770   1.065  -1.379  0.00  0.00     0.003 A 
ATOM      3  C3  I4B d   1      -3.213   1.179  -2.719  0.00  0.00     0.002 A 
ATOM      4  C4  I4B d   1      -2.864   0.208  -3.635  0.00  0.00    -0.004 A 
ATOM      5  C5  I4B d   1      -2.144  -0.911  -3.226  0.00  0.00     0.002 A 
ATOM      6  C6  I4B d   1      -1.741  -1.037  -1.889  0.00  0.00     0.003 A 
ENDROOT
BRANCH   1   7
ATOM      7  C1' I4B d   1      -1.562  -0.101   0.433  0.00  0.00     0.060 C 
BRANCH   7   8
ATOM      8  C2' I4B d   1      -0.072  -0.373   0.407  0.00  0.00    -0.013 C 
ATOM      9  C4' I4B d   1       0.716   0.883   0.674  0.00  0.00     0.013 C 
ATOM     10  C3' I4B d   1       0.225  -1.426   1.433  0.00  0.00     0.013 C 
ENDBRANCH   7   8
ENDBRANCH   1   7
TORSDOF 2
ENDMDL
