MODEL 1
REMARK minimizedAffinity -5.86135817
REMARK minimizedRMSD -1
REMARK  2 active torsions:
REMARK  status: ('A' for Active; 'I' for Inactive)
REMARK    1  A    between atoms: C2'_3  and  C1'_4 
REMARK    2  A    between atoms: C1'_4  and  C1_5 
ROOT
ATOM      1  C1  I4B d   1       0.376  -1.448   0.892  0.00  0.00    -0.075 A 
ATOM      2  C2  I4B d   1       1.450  -0.778   0.362  0.00  0.00     0.003 A 
ATOM      3  C3  I4B d   1       2.757  -1.034   0.842  0.00  0.00     0.002 A 
ATOM      4  C4  I4B d   1       2.937  -1.925   1.881  0.00  0.00    -0.004 A 
ATOM      5  C5  I4B d   1       1.850  -2.620   2.402  0.00  0.00     0.002 A 
ATOM      6  C6  I4B d   1       0.562  -2.389   1.896  0.00  0.00     0.003 A 
ENDROOT
BRANCH   1   7
ATOM      7  C1' I4B d   1      -0.995  -1.129   0.384  0.00  0.00     0.060 C 
BRANCH   7   8
ATOM      8  C2' I4B d   1      -0.879  -0.793  -1.089  0.00  0.00    -0.013 C 
ATOM      9  C4' I4B d   1      -1.898  -1.548  -1.902  0.00  0.00     0.013 C 
ATOM     10  C3' I4B d   1      -1.057   0.688  -1.241  0.00  0.00     0.013 C 
ENDBRANCH   7   8
ENDBRANCH   1   7
TORSDOF 2
ENDMDL
