MODEL 1
REMARK minimizedAffinity -2.30154061
REMARK minimizedRMSD -1
REMARK  2 active torsions:
REMARK  status: ('A' for Active; 'I' for Inactive)
REMARK    1  A    between atoms: C2'_3  and  C1'_4 
REMARK    2  A    between atoms: C1'_4  and  C1_5 
ROOT
ATOM      1  C1  I4B d   1      -0.103  -0.271   0.542  0.00  0.00    -0.075 A 
ATOM      2  C2  I4B d   1       0.755   0.753   0.224  0.00  0.00     0.003 A 
ATOM      3  C3  I4B d   1       2.082   0.750   0.717  0.00  0.00     0.002 A 
ATOM      4  C4  I4B d   1       2.492  -0.263   1.560  0.00  0.00    -0.004 A 
ATOM      5  C5  I4B d   1       1.628  -1.312   1.862  0.00  0.00     0.002 A 
ATOM      6  C6  I4B d   1       0.326  -1.323   1.340  0.00  0.00     0.003 A 
ENDROOT
BRANCH   1   7
ATOM      7  C1' I4B d   1      -1.508  -0.219   0.031  0.00  0.00     0.060 C 
BRANCH   7   8
ATOM      8  C2' I4B d   1      -1.462  -0.375  -1.476  0.00  0.00    -0.013 C 
ATOM      9  C4' I4B d   1      -1.499  -1.827  -1.875  0.00  0.00     0.013 C 
ATOM     10  C3' I4B d   1      -2.625   0.375  -2.054  0.00  0.00     0.013 C 
ENDBRANCH   7   8
ENDBRANCH   1   7
TORSDOF 2
ENDMDL
