MODEL 1
REMARK minimizedAffinity -5.60093927
REMARK minimizedRMSD -1
REMARK  1 active torsions:
REMARK  status: ('A' for Active; 'I' for Inactive)
REMARK    1  A    between atoms: C1_2  and  C2_3 
ROOT
ATOM      1  C2  UNL d   1       0.061   0.083   0.113  0.00  0.00    -0.077 A 
ATOM      2  C3  UNL d   1      -0.791   0.807  -0.732  0.00  0.00     0.002 A 
ATOM      3  C4  UNL d   1      -1.724   1.699  -0.198  0.00  0.00     0.002 A 
ATOM      4  C5  UNL d   1      -1.809   1.878   1.181  0.00  0.00    -0.004 A 
ATOM      5  C6  UNL d   1      -0.967   1.161   2.030  0.00  0.00     0.002 A 
ATOM      6  C7  UNL d   1      -0.035   0.268   1.498  0.00  0.00     0.002 A 
ENDROOT
BRANCH   1   7
ATOM      7  C1  UNL d   1       1.101  -0.843  -0.462  0.00  0.00     0.055 C 
ATOM      8  C   UNL d   1       0.460  -1.965  -1.266  0.00  0.00     0.019 C 
ENDBRANCH   1   7
TORSDOF 1
ENDMDL
