MODEL 1
REMARK minimizedAffinity -3.84021544
REMARK minimizedRMSD -1
REMARK  1 active torsions:
REMARK  status: ('A' for Active; 'I' for Inactive)
REMARK    1  A    between atoms: C1_2  and  C2_3 
ROOT
ATOM      1  C2  UNL d   1       0.621  -1.634  -1.046  0.00  0.00    -0.077 A 
ATOM      2  C3  UNL d   1       0.330  -1.443  -2.404  0.00  0.00     0.002 A 
ATOM      3  C4  UNL d   1       0.055  -2.536  -3.228  0.00  0.00     0.002 A 
ATOM      4  C5  UNL d   1       0.065  -3.827  -2.703  0.00  0.00    -0.004 A 
ATOM      5  C6  UNL d   1       0.355  -4.027  -1.354  0.00  0.00     0.002 A 
ATOM      6  C7  UNL d   1       0.631  -2.936  -0.529  0.00  0.00     0.002 A 
ENDROOT
BRANCH   1   7
ATOM      7  C1  UNL d   1       0.869  -0.453  -0.144  0.00  0.00     0.055 C 
ATOM      8  C   UNL d   1      -0.381  -0.086   0.643  0.00  0.00     0.019 C 
ENDBRANCH   1   7
TORSDOF 1
ENDMDL
