MODEL 1
REMARK minimizedAffinity -4.16656733
REMARK minimizedRMSD -1
REMARK  1 active torsions:
REMARK  status: ('A' for Active; 'I' for Inactive)
REMARK    1  A    between atoms: C1_2  and  C2_3 
ROOT
ATOM      1  C2  UNL d   1       1.327  -3.132  -1.184  0.00  0.00    -0.077 A 
ATOM      2  C3  UNL d   1       1.366  -1.928  -0.467  0.00  0.00     0.002 A 
ATOM      3  C4  UNL d   1       0.834  -0.760  -1.019  0.00  0.00     0.002 A 
ATOM      4  C5  UNL d   1       0.256  -0.787  -2.286  0.00  0.00    -0.004 A 
ATOM      5  C6  UNL d   1       0.214  -1.980  -3.007  0.00  0.00     0.002 A 
ATOM      6  C7  UNL d   1       0.747  -3.147  -2.458  0.00  0.00     0.002 A 
ENDROOT
BRANCH   1   7
ATOM      7  C1  UNL d   1       1.857  -4.402  -0.571  0.00  0.00     0.055 C 
ATOM      8  C   UNL d   1       0.801  -5.499  -0.571  0.00  0.00     0.019 C 
ENDBRANCH   1   7
TORSDOF 1
ENDMDL
