MODEL 1
REMARK minimizedAffinity -5.47032499
REMARK minimizedRMSD -1
REMARK  1 active torsions:
REMARK  status: ('A' for Active; 'I' for Inactive)
REMARK    1  A    between atoms: C1_2  and  C2_3 
ROOT
ATOM      1  C2  UNL d   1       1.397  -3.831  -0.351  0.00  0.00    -0.077 A 
ATOM      2  C3  UNL d   1       0.364  -4.720  -0.679  0.00  0.00     0.002 A 
ATOM      3  C4  UNL d   1      -0.529  -4.417  -1.709  0.00  0.00     0.002 A 
ATOM      4  C5  UNL d   1      -0.396  -3.227  -2.421  0.00  0.00    -0.004 A 
ATOM      5  C6  UNL d   1       0.627  -2.335  -2.101  0.00  0.00     0.002 A 
ATOM      6  C7  UNL d   1       1.520  -2.636  -1.072  0.00  0.00     0.002 A 
ENDROOT
BRANCH   1   7
ATOM      7  C1  UNL d   1       2.391  -4.178   0.726  0.00  0.00     0.055 C 
ATOM      8  C   UNL d   1       2.353  -5.664   1.055  0.00  0.00     0.019 C 
ENDBRANCH   1   7
TORSDOF 1
ENDMDL
