MODEL 1
REMARK minimizedAffinity -2.86521435
REMARK minimizedRMSD -1
REMARK  1 active torsions:
REMARK  status: ('A' for Active; 'I' for Inactive)
REMARK    1  A    between atoms: C1_2  and  C2_3 
ROOT
ATOM      1  C2  UNL d   1       0.849  -4.323  -0.945  0.00  0.00    -0.077 A 
ATOM      2  C3  UNL d   1       1.156  -3.111  -0.311  0.00  0.00     0.002 A 
ATOM      3  C4  UNL d   1       0.789  -1.897  -0.894  0.00  0.00     0.002 A 
ATOM      4  C5  UNL d   1       0.111  -1.883  -2.111  0.00  0.00    -0.004 A 
ATOM      5  C6  UNL d   1      -0.196  -3.083  -2.751  0.00  0.00     0.002 A 
ATOM      6  C7  UNL d   1       0.170  -4.298  -2.170  0.00  0.00     0.002 A 
ENDROOT
BRANCH   1   7
ATOM      7  C1  UNL d   1       1.200  -5.636  -0.294  0.00  0.00     0.055 C 
ATOM      8  C   UNL d   1       2.351  -5.476   0.689  0.00  0.00     0.019 C 
ENDBRANCH   1   7
TORSDOF 1
ENDMDL
