MODEL 1
REMARK minimizedAffinity -3.63201833
REMARK minimizedRMSD -1
REMARK  1 active torsions:
REMARK  status: ('A' for Active; 'I' for Inactive)
REMARK    1  A    between atoms: C1_2  and  C2_3 
ROOT
ATOM      1  C2  UNL d   1      -0.562   0.304   0.309  0.00  0.00    -0.077 A 
ATOM      2  C3  UNL d   1      -1.616   1.095  -0.168  0.00  0.00     0.002 A 
ATOM      3  C4  UNL d   1      -2.243   2.018   0.672  0.00  0.00     0.002 A 
ATOM      4  C5  UNL d   1      -1.819   2.161   1.991  0.00  0.00    -0.004 A 
ATOM      5  C6  UNL d   1      -0.772   1.378   2.476  0.00  0.00     0.002 A 
ATOM      6  C7  UNL d   1      -0.146   0.454   1.638  0.00  0.00     0.002 A 
ENDROOT
BRANCH   1   7
ATOM      7  C1  UNL d   1       0.147  -0.656  -0.610  0.00  0.00     0.055 C 
ATOM      8  C   UNL d   1       1.654  -0.444  -0.576  0.00  0.00     0.019 C 
ENDBRANCH   1   7
TORSDOF 1
ENDMDL
