MODEL 1
REMARK minimizedAffinity 1.68321776
REMARK minimizedRMSD -1
REMARK  1 active torsions:
REMARK  status: ('A' for Active; 'I' for Inactive)
REMARK    1  A    between atoms: C1_2  and  C2_3 
ROOT
ATOM      1  C2  UNL d   1      -0.507   1.222   1.359  0.00  0.00    -0.077 A 
ATOM      2  C3  UNL d   1       0.153   1.794   0.262  0.00  0.00     0.002 A 
ATOM      3  C4  UNL d   1       0.753   0.983  -0.703  0.00  0.00     0.002 A 
ATOM      4  C5  UNL d   1       0.696  -0.404  -0.583  0.00  0.00    -0.004 A 
ATOM      5  C6  UNL d   1       0.043  -0.983   0.504  0.00  0.00     0.002 A 
ATOM      6  C7  UNL d   1      -0.556  -0.174   1.471  0.00  0.00     0.002 A 
ENDROOT
BRANCH   1   7
ATOM      7  C1  UNL d   1      -1.198   2.094   2.375  0.00  0.00     0.055 C 
ATOM      8  C   UNL d   1      -0.208   3.007   3.084  0.00  0.00     0.019 C 
ENDBRANCH   1   7
TORSDOF 1
ENDMDL
