MODEL 1
REMARK minimizedAffinity -1.17903674
REMARK minimizedRMSD -1
REMARK  1 active torsions:
REMARK  status: ('A' for Active; 'I' for Inactive)
REMARK    1  A    between atoms: C1_2  and  C2_3 
ROOT
ATOM      1  C2  UNL d   1       0.421   1.364   0.492  0.00  0.00    -0.077 A 
ATOM      2  C3  UNL d   1       0.197  -0.017   0.580  0.00  0.00     0.002 A 
ATOM      3  C4  UNL d   1      -0.386  -0.567   1.723  0.00  0.00     0.002 A 
ATOM      4  C5  UNL d   1      -0.753   0.258   2.785  0.00  0.00    -0.004 A 
ATOM      5  C6  UNL d   1      -0.533   1.632   2.708  0.00  0.00     0.002 A 
ATOM      6  C7  UNL d   1       0.051   2.183   1.566  0.00  0.00     0.002 A 
ENDROOT
BRANCH   1   7
ATOM      7  C1  UNL d   1       1.004   1.965  -0.760  0.00  0.00     0.055 C 
ATOM      8  C   UNL d   1       0.162   1.624  -1.982  0.00  0.00     0.019 C 
ENDBRANCH   1   7
TORSDOF 1
ENDMDL
