MODEL 1
REMARK minimizedAffinity 0.317851812
REMARK minimizedRMSD -1
REMARK  1 active torsions:
REMARK  status: ('A' for Active; 'I' for Inactive)
REMARK    1  A    between atoms: C1_2  and  C2_3 
ROOT
ATOM      1  C2  UNL d   1       0.251   0.060  -2.506  0.00  0.00    -0.077 A 
ATOM      2  C3  UNL d   1      -0.708   0.804  -3.207  0.00  0.00     0.002 A 
ATOM      3  C4  UNL d   1      -1.137   0.391  -4.471  0.00  0.00     0.002 A 
ATOM      4  C5  UNL d   1      -0.614  -0.767  -5.041  0.00  0.00    -0.004 A 
ATOM      5  C6  UNL d   1       0.342  -1.513  -4.353  0.00  0.00     0.002 A 
ATOM      6  C7  UNL d   1       0.772  -1.101  -3.091  0.00  0.00     0.002 A 
ENDROOT
BRANCH   1   7
ATOM      7  C1  UNL d   1       0.679   0.476  -1.123  0.00  0.00     0.055 C 
ATOM      8  C   UNL d   1      -0.521   0.661  -0.205  0.00  0.00     0.019 C 
ENDBRANCH   1   7
TORSDOF 1
ENDMDL
