MODEL 1
REMARK minimizedAffinity -1.75216937
REMARK minimizedRMSD -1
REMARK  1 active torsions:
REMARK  status: ('A' for Active; 'I' for Inactive)
REMARK    1  A    between atoms: C1_2  and  C2_3 
ROOT
ATOM      1  C2  UNL d   1      -1.376   1.137   0.129  0.00  0.00    -0.077 A 
ATOM      2  C3  UNL d   1      -2.471   1.885   0.582  0.00  0.00     0.002 A 
ATOM      3  C4  UNL d   1      -2.553   2.278   1.920  0.00  0.00     0.002 A 
ATOM      4  C5  UNL d   1      -1.541   1.930   2.813  0.00  0.00    -0.004 A 
ATOM      5  C6  UNL d   1      -0.449   1.185   2.371  0.00  0.00     0.002 A 
ATOM      6  C7  UNL d   1      -0.366   0.791   1.035  0.00  0.00     0.002 A 
ENDROOT
BRANCH   1   7
ATOM      7  C1  UNL d   1      -1.261   0.755  -1.324  0.00  0.00     0.055 C 
ATOM      8  C   UNL d   1      -0.594   1.857  -2.135  0.00  0.00     0.019 C 
ENDBRANCH   1   7
TORSDOF 1
ENDMDL
