MODEL 1
REMARK minimizedAffinity -2.33578324
REMARK minimizedRMSD -1
REMARK  1 active torsions:
REMARK  status: ('A' for Active; 'I' for Inactive)
REMARK    1  A    between atoms: C1_2  and  C2_3 
ROOT
ATOM      1  C2  UNL d   1      -1.109   1.434  -0.008  0.00  0.00    -0.077 A 
ATOM      2  C3  UNL d   1      -1.329   2.190   1.152  0.00  0.00     0.002 A 
ATOM      3  C4  UNL d   1      -0.926   1.706   2.398  0.00  0.00     0.002 A 
ATOM      4  C5  UNL d   1      -0.296   0.467   2.495  0.00  0.00    -0.004 A 
ATOM      5  C6  UNL d   1      -0.074  -0.294   1.347  0.00  0.00     0.002 A 
ATOM      6  C7  UNL d   1      -0.478   0.188   0.101  0.00  0.00     0.002 A 
ENDROOT
BRANCH   1   7
ATOM      7  C1  UNL d   1      -1.499   1.976  -1.359  0.00  0.00     0.055 C 
ATOM      8  C   UNL d   1      -0.783   1.236  -2.480  0.00  0.00     0.019 C 
ENDBRANCH   1   7
TORSDOF 1
ENDMDL
