MODEL 1
REMARK minimizedAffinity -4.533916
REMARK minimizedRMSD -1
REMARK  1 active torsions:
REMARK  status: ('A' for Active; 'I' for Inactive)
REMARK    1  A    between atoms: C1_2  and  C2_3 
ROOT
ATOM      1  C2  UNL d   1      -0.933   1.318   0.016  0.00  0.00    -0.077 A 
ATOM      2  C3  UNL d   1      -0.186   0.413   0.784  0.00  0.00     0.002 A 
ATOM      3  C4  UNL d   1       0.844  -0.326   0.200  0.00  0.00     0.002 A 
ATOM      4  C5  UNL d   1       1.140  -0.165  -1.152  0.00  0.00    -0.004 A 
ATOM      5  C6  UNL d   1       0.402   0.731  -1.925  0.00  0.00     0.002 A 
ATOM      6  C7  UNL d   1      -0.630   1.470  -1.343  0.00  0.00     0.002 A 
ENDROOT
BRANCH   1   7
ATOM      7  C1  UNL d   1      -2.012   2.152   0.655  0.00  0.00     0.055 C 
ATOM      8  C   UNL d   1      -1.639   2.545   2.077  0.00  0.00     0.019 C 
ENDBRANCH   1   7
TORSDOF 1
ENDMDL
