MODEL 1
REMARK minimizedAffinity -2.13498116
REMARK minimizedRMSD -1
REMARK  0 active torsions:
REMARK  status: ('A' for Active; 'I' for Inactive)
ROOT
ATOM      1  C1  DEN d   1       0.661  -1.119   0.892  0.00  0.00     0.130 A 
ATOM      2  C2  DEN d   1       1.088  -1.226  -0.500  0.00  0.00    -0.031 A 
ATOM      3  C3  DEN d   1       0.465  -0.121  -1.256  0.00  0.00     0.027 A 
ATOM      4  C4  DEN d   1      -1.110   1.738  -0.408  0.00  0.00     0.027 A 
ATOM      5  C5  DEN d   1      -1.766   2.236   0.696  0.00  0.00    -0.003 A 
ATOM      6  C6  DEN d   1      -1.688   1.636   1.925  0.00  0.00     0.001 A 
ATOM      7  C7  DEN d   1      -0.900   0.528   2.090  0.00  0.00     0.017 A 
ATOM      8  C8  DEN d   1      -0.240   0.015   0.980  0.00  0.00    -0.094 A 
ATOM      9  C9  DEN d   1      -0.323   0.644  -0.251  0.00  0.00    -0.072 A 
ENDROOT
TORSDOF 0
ENDMDL
