MODEL 1
REMARK minimizedAffinity -3.88003469
REMARK minimizedRMSD -1
REMARK  0 active torsions:
REMARK  status: ('A' for Active; 'I' for Inactive)
ROOT
ATOM      1  C1  DEN d   1       0.698  -0.394   1.213  0.00  0.00     0.130 A 
ATOM      2  C2  DEN d   1       1.076  -0.778  -0.144  0.00  0.00    -0.031 A 
ATOM      3  C3  DEN d   1       0.179  -0.076  -1.084  0.00  0.00     0.027 A 
ATOM      4  C4  DEN d   1      -1.746   1.563  -0.572  0.00  0.00     0.027 A 
ATOM      5  C5  DEN d   1      -2.451   2.187   0.433  0.00  0.00    -0.003 A 
ATOM      6  C6  DEN d   1      -2.180   1.971   1.758  0.00  0.00     0.001 A 
ATOM      7  C7  DEN d   1      -1.149   1.142   2.114  0.00  0.00     0.017 A 
ATOM      8  C8  DEN d   1      -0.438   0.503   1.106  0.00  0.00    -0.094 A 
ATOM      9  C9  DEN d   1      -0.719   0.745  -0.228  0.00  0.00    -0.072 A 
ENDROOT
TORSDOF 0
ENDMDL
