MODEL 1
REMARK minimizedAffinity -1.24227023
REMARK minimizedRMSD -1
REMARK  0 active torsions:
REMARK  status: ('A' for Active; 'I' for Inactive)
ROOT
ATOM      1  C1  DEN d   1      -0.872   1.445  -1.525  0.00  0.00     0.130 A 
ATOM      2  C2  DEN d   1       0.275   0.577  -1.779  0.00  0.00    -0.031 A 
ATOM      3  C3  DEN d   1       0.738   0.043  -0.482  0.00  0.00     0.027 A 
ATOM      4  C4  DEN d   1      -0.208   0.469   1.879  0.00  0.00     0.027 A 
ATOM      5  C5  DEN d   1      -1.169   1.143   2.599  0.00  0.00    -0.003 A 
ATOM      6  C6  DEN d   1      -2.070   1.985   2.002  0.00  0.00     0.001 A 
ATOM      7  C7  DEN d   1      -2.057   2.140   0.641  0.00  0.00     0.017 A 
ATOM      8  C8  DEN d   1      -1.086   1.469  -0.090  0.00  0.00    -0.094 A 
ATOM      9  C9  DEN d   1      -0.192   0.612   0.530  0.00  0.00    -0.072 A 
ENDROOT
TORSDOF 0
ENDMDL
