MODEL 1
REMARK minimizedAffinity -3.80956268
REMARK minimizedRMSD -1
REMARK  0 active torsions:
REMARK  status: ('A' for Active; 'I' for Inactive)
ROOT
ATOM      1  C1  DEN d   1      -0.670  -0.373   1.595  0.00  0.00     0.130 A 
ATOM      2  C2  DEN d   1      -1.133   0.895   2.151  0.00  0.00    -0.031 A 
ATOM      3  C3  DEN d   1      -0.654   1.981   1.273  0.00  0.00     0.027 A 
ATOM      4  C4  DEN d   1       0.749   1.822  -0.885  0.00  0.00     0.027 A 
ATOM      5  C5  DEN d   1       1.390   0.959  -1.747  0.00  0.00    -0.003 A 
ATOM      6  C6  DEN d   1       1.418  -0.394  -1.538  0.00  0.00     0.001 A 
ATOM      7  C7  DEN d   1       0.754  -0.929  -0.465  0.00  0.00     0.017 A 
ATOM      8  C8  DEN d   1       0.112  -0.065   0.412  0.00  0.00    -0.094 A 
ATOM      9  C9  DEN d   1       0.085   1.300   0.176  0.00  0.00    -0.072 A 
ENDROOT
TORSDOF 0
ENDMDL
