MODEL 1
REMARK minimizedAffinity -2.64771724
REMARK minimizedRMSD -1
REMARK  0 active torsions:
REMARK  status: ('A' for Active; 'I' for Inactive)
ROOT
ATOM      1  C1  DEN d   1       0.901  -0.928   0.788  0.00  0.00     0.130 A 
ATOM      2  C2  DEN d   1       1.239  -1.085  -0.624  0.00  0.00    -0.031 A 
ATOM      3  C3  DEN d   1       0.290  -0.275  -1.414  0.00  0.00     0.027 A 
ATOM      4  C4  DEN d   1      -1.658   1.202  -0.591  0.00  0.00     0.027 A 
ATOM      5  C5  DEN d   1      -2.342   1.641   0.521  0.00  0.00    -0.003 A 
ATOM      6  C6  DEN d   1      -2.017   1.231   1.787  0.00  0.00     0.001 A 
ATOM      7  C7  DEN d   1      -0.952   0.391   1.976  0.00  0.00     0.017 A 
ATOM      8  C8  DEN d   1      -0.262  -0.062   0.859  0.00  0.00    -0.094 A 
ATOM      9  C9  DEN d   1      -0.598   0.374  -0.412  0.00  0.00    -0.072 A 
ENDROOT
TORSDOF 0
ENDMDL
