MODEL 1
REMARK minimizedAffinity -3.33655071
REMARK minimizedRMSD -1
REMARK  0 active torsions:
REMARK  status: ('A' for Active; 'I' for Inactive)
ROOT
ATOM      1  C1  DEN d   1      -0.022  -0.847   2.143  0.00  0.00     0.130 A 
ATOM      2  C2  DEN d   1       0.280  -1.653   0.964  0.00  0.00    -0.031 A 
ATOM      3  C3  DEN d   1      -0.094  -0.871  -0.232  0.00  0.00     0.027 A 
ATOM      4  C4  DEN d   1      -1.101   1.499  -0.371  0.00  0.00     0.027 A 
ATOM      5  C5  DEN d   1      -1.546   2.575   0.366  0.00  0.00    -0.003 A 
ATOM      6  C6  DEN d   1      -1.545   2.572   1.736  0.00  0.00     0.001 A 
ATOM      7  C7  DEN d   1      -1.049   1.489   2.412  0.00  0.00     0.017 A 
ATOM      8  C8  DEN d   1      -0.606   0.398   1.676  0.00  0.00    -0.094 A 
ATOM      9  C9  DEN d   1      -0.603   0.424   0.292  0.00  0.00    -0.072 A 
ENDROOT
TORSDOF 0
ENDMDL
