MODEL 1
REMARK minimizedAffinity -4.19723034
REMARK minimizedRMSD -1
REMARK  0 active torsions:
REMARK  status: ('A' for Active; 'I' for Inactive)
ROOT
ATOM      1  C1  DEN d   1      -1.422   2.114   0.210  0.00  0.00     0.130 A 
ATOM      2  C2  DEN d   1      -2.030   2.160   1.537  0.00  0.00    -0.031 A 
ATOM      3  C3  DEN d   1      -1.611   0.951   2.274  0.00  0.00     0.027 A 
ATOM      4  C4  DEN d   1      -0.083  -0.976   1.495  0.00  0.00     0.027 A 
ATOM      5  C5  DEN d   1       0.661  -1.463   0.443  0.00  0.00    -0.003 A 
ATOM      6  C6  DEN d   1       0.735  -0.815  -0.761  0.00  0.00     0.001 A 
ATOM      7  C7  DEN d   1       0.089   0.381  -0.929  0.00  0.00     0.017 A 
ATOM      8  C8  DEN d   1      -0.669   0.875   0.124  0.00  0.00    -0.094 A 
ATOM      9  C9  DEN d   1      -0.722   0.211   1.338  0.00  0.00    -0.072 A 
ENDROOT
TORSDOF 0
ENDMDL
