MODEL 1
REMARK minimizedAffinity -3.35620213
REMARK minimizedRMSD -1
REMARK  0 active torsions:
REMARK  status: ('A' for Active; 'I' for Inactive)
ROOT
ATOM      1  C1  DEN d   1      -1.443   1.940   0.025  0.00  0.00     0.130 A 
ATOM      2  C2  DEN d   1      -1.940   1.893   1.397  0.00  0.00    -0.031 A 
ATOM      3  C3  DEN d   1      -1.264   0.778   2.090  0.00  0.00     0.027 A 
ATOM      4  C4  DEN d   1       0.498  -0.870   1.178  0.00  0.00     0.027 A 
ATOM      5  C5  DEN d   1       1.226  -1.233   0.067  0.00  0.00    -0.003 A 
ATOM      6  C6  DEN d   1       1.091  -0.591  -1.136  0.00  0.00     0.001 A 
ATOM      7  C7  DEN d   1       0.242   0.478  -1.244  0.00  0.00     0.017 A 
ATOM      8  C8  DEN d   1      -0.501   0.845  -0.129  0.00  0.00    -0.094 A 
ATOM      9  C9  DEN d   1      -0.342   0.191   1.081  0.00  0.00    -0.072 A 
ENDROOT
TORSDOF 0
ENDMDL
