MODEL 1
REMARK minimizedAffinity -2.31850624
REMARK minimizedRMSD -1
REMARK  0 active torsions:
REMARK  status: ('A' for Active; 'I' for Inactive)
ROOT
ATOM      1  C1  DEN d   1      -1.275   2.165   0.118  0.00  0.00     0.130 A 
ATOM      2  C2  DEN d   1      -1.673   2.430   1.498  0.00  0.00    -0.031 A 
ATOM      3  C3  DEN d   1      -1.285   1.265   2.317  0.00  0.00     0.027 A 
ATOM      4  C4  DEN d   1      -0.109  -0.912   1.588  0.00  0.00     0.027 A 
ATOM      5  C5  DEN d   1       0.415  -1.600   0.515  0.00  0.00    -0.003 A 
ATOM      6  C6  DEN d   1       0.382  -1.100  -0.759  0.00  0.00     0.001 A 
ATOM      7  C7  DEN d   1      -0.147   0.143  -0.987  0.00  0.00     0.017 A 
ATOM      8  C8  DEN d   1      -0.683   0.839   0.087  0.00  0.00    -0.094 A 
ATOM      9  C9  DEN d   1      -0.629   0.322   1.371  0.00  0.00    -0.072 A 
ENDROOT
TORSDOF 0
ENDMDL
