MODEL 1
REMARK minimizedAffinity -5.25038052
REMARK minimizedRMSD -1
REMARK  0 active torsions:
REMARK  status: ('A' for Active; 'I' for Inactive)
ROOT
ATOM      1  C1  DEN d   1      -1.157   2.425  -0.425  0.00  0.00     0.130 A 
ATOM      2  C2  DEN d   1      -2.036   2.694   0.710  0.00  0.00    -0.031 A 
ATOM      3  C3  DEN d   1      -1.909   1.573   1.662  0.00  0.00     0.027 A 
ATOM      4  C4  DEN d   1      -0.439  -0.540   1.494  0.00  0.00     0.027 A 
ATOM      5  C5  DEN d   1       0.469  -1.216   0.710  0.00  0.00    -0.003 A 
ATOM      6  C6  DEN d   1       0.870  -0.746  -0.513  0.00  0.00     0.001 A 
ATOM      7  C7  DEN d   1       0.396   0.456  -0.967  0.00  0.00     0.017 A 
ATOM      8  C8  DEN d   1      -0.526   1.139  -0.186  0.00  0.00    -0.094 A 
ATOM      9  C9  DEN d   1      -0.910   0.654   1.053  0.00  0.00    -0.072 A 
ENDROOT
TORSDOF 0
ENDMDL
