MODEL 1
REMARK minimizedAffinity -3.69236588
REMARK minimizedRMSD -1
REMARK  0 active torsions:
REMARK  status: ('A' for Active; 'I' for Inactive)
ROOT
ATOM      1  C1  DEN d   1      -1.400   2.519   0.145  0.00  0.00     0.130 A 
ATOM      2  C2  DEN d   1      -2.023   2.312   1.450  0.00  0.00    -0.031 A 
ATOM      3  C3  DEN d   1      -1.386   1.139   2.079  0.00  0.00     0.027 A 
ATOM      4  C4  DEN d   1       0.499  -0.368   1.168  0.00  0.00     0.027 A 
ATOM      5  C5  DEN d   1       1.338  -0.594   0.100  0.00  0.00    -0.003 A 
ATOM      6  C6  DEN d   1       1.300   0.175  -1.033  0.00  0.00     0.001 A 
ATOM      7  C7  DEN d   1       0.436   1.235  -1.106  0.00  0.00     0.017 A 
ATOM      8  C8  DEN d   1      -0.419   1.464  -0.036  0.00  0.00    -0.094 A 
ATOM      9  C9  DEN d   1      -0.357   0.683   1.106  0.00  0.00    -0.072 A 
ENDROOT
TORSDOF 0
ENDMDL
