MODEL 1
REMARK minimizedAffinity -5.83287239
REMARK minimizedRMSD -1
REMARK  0 active torsions:
REMARK  status: ('A' for Active; 'I' for Inactive)
ROOT
ATOM      1  C1  DEN d   1       0.121  -1.067  -0.980  0.00  0.00     0.130 A 
ATOM      2  C2  DEN d   1       1.120  -1.601  -0.058  0.00  0.00    -0.031 A 
ATOM      3  C3  DEN d   1       0.939  -0.935   1.247  0.00  0.00     0.027 A 
ATOM      4  C4  DEN d   1      -0.784   0.859   1.928  0.00  0.00     0.027 A 
ATOM      5  C5  DEN d   1      -1.831   1.636   1.484  0.00  0.00    -0.003 A 
ATOM      6  C6  DEN d   1      -2.275   1.592   0.188  0.00  0.00     0.001 A 
ATOM      7  C7  DEN d   1      -1.698   0.719  -0.697  0.00  0.00     0.017 A 
ATOM      8  C8  DEN d   1      -0.638  -0.062  -0.258  0.00  0.00    -0.094 A 
ATOM      9  C9  DEN d   1      -0.212  -0.011   1.059  0.00  0.00    -0.072 A 
ENDROOT
TORSDOF 0
ENDMDL
