MODEL 1
REMARK minimizedAffinity 7.77806091
REMARK minimizedRMSD -1
REMARK  1 active torsions:
REMARK  status: ('A' for Active; 'I' for Inactive)
REMARK    1  A    between atoms: C1_2  and  C2_3 
ROOT
ATOM      1  C2  UNL d   1       4.602   3.284  -2.049  0.00  0.00    -0.077 A 
ATOM      2  C3  UNL d   1       4.609   2.346  -1.006  0.00  0.00     0.002 A 
ATOM      3  C4  UNL d   1       5.307   2.608   0.174  0.00  0.00     0.002 A 
ATOM      4  C5  UNL d   1       5.999   3.807   0.325  0.00  0.00    -0.004 A 
ATOM      5  C6  UNL d   1       6.000   4.745  -0.707  0.00  0.00     0.002 A 
ATOM      6  C7  UNL d   1       5.304   4.485  -1.888  0.00  0.00     0.002 A 
ENDROOT
BRANCH   1   7
ATOM      7  C1  UNL d   1       3.809   3.025  -3.303  0.00  0.00     0.055 C 
ATOM      8  C   UNL d   1       2.313   3.033  -3.024  0.00  0.00     0.019 C 
ENDBRANCH   1   7
TORSDOF 1
ENDMDL
