MODEL 1
REMARK minimizedAffinity 12.4578562
REMARK minimizedRMSD -1
REMARK  1 active torsions:
REMARK  status: ('A' for Active; 'I' for Inactive)
REMARK    1  A    between atoms: C1_2  and  C2_3 
ROOT
ATOM      1  C2  UNL d   1       4.485   3.026  -1.824  0.00  0.00    -0.077 A 
ATOM      2  C3  UNL d   1       4.469   2.236  -0.666  0.00  0.00     0.002 A 
ATOM      3  C4  UNL d   1       5.200   2.620   0.461  0.00  0.00     0.002 A 
ATOM      4  C5  UNL d   1       5.947   3.796   0.441  0.00  0.00    -0.004 A 
ATOM      5  C6  UNL d   1       5.971   4.587  -0.707  0.00  0.00     0.002 A 
ATOM      6  C7  UNL d   1       5.242   4.204  -1.834  0.00  0.00     0.002 A 
ENDROOT
BRANCH   1   7
ATOM      7  C1  UNL d   1       3.658   2.639  -3.023  0.00  0.00     0.055 C 
ATOM      8  C   UNL d   1       2.171   2.660  -2.700  0.00  0.00     0.019 C 
ENDBRANCH   1   7
TORSDOF 1
ENDMDL
