MODEL 1
REMARK minimizedAffinity 13.0147352
REMARK minimizedRMSD -1
REMARK  1 active torsions:
REMARK  status: ('A' for Active; 'I' for Inactive)
REMARK    1  A    between atoms: C1_2  and  C2_3 
ROOT
ATOM      1  C2  UNL d   1       3.480   4.036  -2.726  0.00  0.00    -0.077 A 
ATOM      2  C3  UNL d   1       3.176   2.699  -3.018  0.00  0.00     0.002 A 
ATOM      3  C4  UNL d   1       1.847   2.280  -3.108  0.00  0.00     0.002 A 
ATOM      4  C5  UNL d   1       0.813   3.192  -2.913  0.00  0.00    -0.004 A 
ATOM      5  C6  UNL d   1       1.104   4.524  -2.620  0.00  0.00     0.002 A 
ATOM      6  C7  UNL d   1       2.432   4.944  -2.528  0.00  0.00     0.002 A 
ENDROOT
BRANCH   1   7
ATOM      7  C1  UNL d   1       4.912   4.500  -2.677  0.00  0.00     0.055 C 
ATOM      8  C   UNL d   1       5.168   5.379  -1.461  0.00  0.00     0.019 C 
ENDBRANCH   1   7
TORSDOF 1
ENDMDL
