MODEL 1
REMARK minimizedAffinity 6.56146479
REMARK minimizedRMSD -1
REMARK  1 active torsions:
REMARK  status: ('A' for Active; 'I' for Inactive)
REMARK    1  A    between atoms: C1_2  and  C2_3 
ROOT
ATOM      1  C2  UNL d   1      -3.002  -0.743   2.737  0.00  0.00    -0.077 A 
ATOM      2  C3  UNL d   1      -2.370   0.170   3.594  0.00  0.00     0.002 A 
ATOM      3  C4  UNL d   1      -3.028   0.645   4.730  0.00  0.00     0.002 A 
ATOM      4  C5  UNL d   1      -4.319   0.210   5.022  0.00  0.00    -0.004 A 
ATOM      5  C6  UNL d   1      -4.957  -0.696   4.176  0.00  0.00     0.002 A 
ATOM      6  C7  UNL d   1      -4.301  -1.171   3.039  0.00  0.00     0.002 A 
ENDROOT
BRANCH   1   7
ATOM      7  C1  UNL d   1      -2.275  -1.294   1.538  0.00  0.00     0.055 C 
ATOM      8  C   UNL d   1      -0.778  -1.392   1.795  0.00  0.00     0.019 C 
ENDBRANCH   1   7
TORSDOF 1
ENDMDL
