MODEL 1
REMARK minimizedAffinity 7.94243813
REMARK minimizedRMSD -1
REMARK  1 active torsions:
REMARK  status: ('A' for Active; 'I' for Inactive)
REMARK    1  A    between atoms: C1_2  and  C2_3 
ROOT
ATOM      1  C2  UNL d   1       4.650  -3.311  -0.565  0.00  0.00    -0.077 A 
ATOM      2  C3  UNL d   1       5.896  -3.855  -0.222  0.00  0.00     0.002 A 
ATOM      3  C4  UNL d   1       6.000  -5.194   0.162  0.00  0.00     0.002 A 
ATOM      4  C5  UNL d   1       4.864  -5.999   0.202  0.00  0.00    -0.004 A 
ATOM      5  C6  UNL d   1       3.620  -5.466  -0.135  0.00  0.00     0.002 A 
ATOM      6  C7  UNL d   1       3.514  -4.128  -0.517  0.00  0.00     0.002 A 
ENDROOT
BRANCH   1   7
ATOM      7  C1  UNL d   1       4.543  -1.880  -1.026  0.00  0.00     0.055 C 
ATOM      8  C   UNL d   1       3.784  -1.029  -0.018  0.00  0.00     0.019 C 
ENDBRANCH   1   7
TORSDOF 1
ENDMDL
