MODEL 1
REMARK minimizedAffinity 6.80576801
REMARK minimizedRMSD -1
REMARK  1 active torsions:
REMARK  status: ('A' for Active; 'I' for Inactive)
REMARK    1  A    between atoms: C1_2  and  C2_3 
ROOT
ATOM      1  C2  UNL d   1       4.832  -3.380  -1.032  0.00  0.00    -0.077 A 
ATOM      2  C3  UNL d   1       6.000  -3.931  -0.485  0.00  0.00     0.002 A 
ATOM      3  C4  UNL d   1       5.999  -5.234   0.015  0.00  0.00     0.002 A 
ATOM      4  C5  UNL d   1       4.836  -5.999  -0.030  0.00  0.00    -0.004 A 
ATOM      5  C6  UNL d   1       3.669  -5.460  -0.570  0.00  0.00     0.002 A 
ATOM      6  C7  UNL d   1       3.667  -4.157  -1.070  0.00  0.00     0.002 A 
ENDROOT
BRANCH   1   7
ATOM      7  C1  UNL d   1       4.844  -1.992  -1.617  0.00  0.00     0.055 C 
ATOM      8  C   UNL d   1       3.939  -1.053  -0.833  0.00  0.00     0.019 C 
ENDBRANCH   1   7
TORSDOF 1
ENDMDL
