MODEL 1
REMARK minimizedAffinity 13.4655275
REMARK minimizedRMSD -1
REMARK  1 active torsions:
REMARK  status: ('A' for Active; 'I' for Inactive)
REMARK    1  A    between atoms: C1_2  and  C2_3 
ROOT
ATOM      1  C2  UNL d   1       0.100   3.545  -2.957  0.00  0.00    -0.077 A 
ATOM      2  C3  UNL d   1       0.932   4.584  -2.518  0.00  0.00     0.002 A 
ATOM      3  C4  UNL d   1       2.202   4.304  -2.008  0.00  0.00     0.002 A 
ATOM      4  C5  UNL d   1       2.651   2.988  -1.936  0.00  0.00    -0.004 A 
ATOM      5  C6  UNL d   1       1.830   1.947  -2.368  0.00  0.00     0.002 A 
ATOM      6  C7  UNL d   1       0.560   2.224  -2.877  0.00  0.00     0.002 A 
ENDROOT
BRANCH   1   7
ATOM      7  C1  UNL d   1      -1.250   3.848  -3.553  0.00  0.00     0.055 C 
ATOM      8  C   UNL d   1      -1.131   4.252  -5.016  0.00  0.00     0.019 C 
ENDBRANCH   1   7
TORSDOF 1
ENDMDL
