MODEL 1
REMARK minimizedAffinity -1.41945219
REMARK minimizedRMSD -1
REMARK  1 active torsions:
REMARK  status: ('A' for Active; 'I' for Inactive)
REMARK    1  A    between atoms: C1_2  and  C2_3 
ROOT
ATOM      1  C2  UNL d   1       4.148  -5.383  -2.728  0.00  0.00    -0.077 A 
ATOM      2  C3  UNL d   1       5.309  -6.000  -2.241  0.00  0.00     0.002 A 
ATOM      3  C4  UNL d   1       5.993  -5.457  -1.152  0.00  0.00     0.002 A 
ATOM      4  C5  UNL d   1       5.523  -4.297  -0.539  0.00  0.00    -0.004 A 
ATOM      5  C6  UNL d   1       4.371  -3.674  -1.018  0.00  0.00     0.002 A 
ATOM      6  C7  UNL d   1       3.686  -4.215  -2.107  0.00  0.00     0.002 A 
ENDROOT
BRANCH   1   7
ATOM      7  C1  UNL d   1       3.381  -5.994  -3.871  0.00  0.00     0.055 C 
ATOM      8  C   UNL d   1       2.085  -5.240  -4.134  0.00  0.00     0.019 C 
ENDBRANCH   1   7
TORSDOF 1
ENDMDL
