MODEL 1
REMARK minimizedAffinity 18.7292099
REMARK minimizedRMSD -1
REMARK  1 active torsions:
REMARK  status: ('A' for Active; 'I' for Inactive)
REMARK    1  A    between atoms: C1_2  and  C2_3 
ROOT
ATOM      1  C2  UNL d   1      -1.388  -0.363   2.546  0.00  0.00    -0.077 A 
ATOM      2  C3  UNL d   1      -2.331  -1.133   1.849  0.00  0.00     0.002 A 
ATOM      3  C4  UNL d   1      -1.943  -2.308   1.202  0.00  0.00     0.002 A 
ATOM      4  C5  UNL d   1      -0.615  -2.725   1.248  0.00  0.00    -0.004 A 
ATOM      5  C6  UNL d   1       0.330  -1.966   1.937  0.00  0.00     0.002 A 
ATOM      6  C7  UNL d   1      -0.055  -0.791   2.584  0.00  0.00     0.002 A 
ENDROOT
BRANCH   1   7
ATOM      7  C1  UNL d   1      -1.813   0.878   3.286  0.00  0.00     0.055 C 
ATOM      8  C   UNL d   1      -1.636   0.714   4.789  0.00  0.00     0.019 C 
ENDBRANCH   1   7
TORSDOF 1
ENDMDL
