MODEL 1
REMARK minimizedAffinity 4.21854496
REMARK minimizedRMSD -1
REMARK  1 active torsions:
REMARK  status: ('A' for Active; 'I' for Inactive)
REMARK    1  A    between atoms: C1_2  and  C2_3 
ROOT
ATOM      1  C2  UNL d   1       3.254  -0.795  -0.129  0.00  0.00    -0.077 A 
ATOM      2  C3  UNL d   1       4.049  -1.337  -1.150  0.00  0.00     0.002 A 
ATOM      3  C4  UNL d   1       4.274  -2.713  -1.215  0.00  0.00     0.002 A 
ATOM      4  C5  UNL d   1       3.704  -3.559  -0.265  0.00  0.00    -0.004 A 
ATOM      5  C6  UNL d   1       2.914  -3.030   0.754  0.00  0.00     0.002 A 
ATOM      6  C7  UNL d   1       2.689  -1.655   0.822  0.00  0.00     0.002 A 
ENDROOT
BRANCH   1   7
ATOM      7  C1  UNL d   1       2.970   0.684  -0.086  0.00  0.00     0.055 C 
ATOM      8  C   UNL d   1       2.139   1.123  -1.282  0.00  0.00     0.019 C 
ENDBRANCH   1   7
TORSDOF 1
ENDMDL
