MODEL 1
REMARK minimizedAffinity 12.5735836
REMARK minimizedRMSD -1
REMARK  1 active torsions:
REMARK  status: ('A' for Active; 'I' for Inactive)
REMARK    1  A    between atoms: C1_2  and  C2_3 
ROOT
ATOM      1  C2  UNL d   1      -3.655   0.013   1.155  0.00  0.00    -0.077 A 
ATOM      2  C3  UNL d   1      -3.678   0.016  -0.246  0.00  0.00     0.002 A 
ATOM      3  C4  UNL d   1      -4.846   0.353  -0.933  0.00  0.00     0.002 A 
ATOM      4  C5  UNL d   1      -5.997   0.695  -0.227  0.00  0.00    -0.004 A 
ATOM      5  C6  UNL d   1      -5.985   0.693   1.167  0.00  0.00     0.002 A 
ATOM      6  C7  UNL d   1      -4.819   0.355   1.855  0.00  0.00     0.002 A 
ENDROOT
BRANCH   1   7
ATOM      7  C1  UNL d   1      -2.382  -0.303   1.897  0.00  0.00     0.055 C 
ATOM      8  C   UNL d   1      -2.304   0.461   3.211  0.00  0.00     0.019 C 
ENDBRANCH   1   7
TORSDOF 1
ENDMDL
