MODEL 1
REMARK minimizedAffinity -5.52085352
REMARK minimizedRMSD -1
REMARK  1 active torsions:
REMARK  status: ('A' for Active; 'I' for Inactive)
REMARK    1  A    between atoms: C1_2  and  C2_3 
ROOT
ATOM      1  C2  UNL d   1       0.027   0.298  -0.266  0.00  0.00    -0.077 A 
ATOM      2  C3  UNL d   1      -1.278  -0.184  -0.098  0.00  0.00     0.002 A 
ATOM      3  C4  UNL d   1      -1.500  -1.436   0.480  0.00  0.00     0.002 A 
ATOM      4  C5  UNL d   1      -0.422  -2.214   0.897  0.00  0.00    -0.004 A 
ATOM      5  C6  UNL d   1       0.880  -1.744   0.732  0.00  0.00     0.002 A 
ATOM      6  C7  UNL d   1       1.104  -0.494   0.154  0.00  0.00     0.002 A 
ENDROOT
BRANCH   1   7
ATOM      7  C1  UNL d   1       0.267   1.668  -0.843  0.00  0.00     0.055 C 
ATOM      8  C   UNL d   1       1.622   1.750  -1.531  0.00  0.00     0.019 C 
ENDBRANCH   1   7
TORSDOF 1
ENDMDL
