MODEL 1
REMARK minimizedAffinity -0.183962181
REMARK minimizedRMSD -1
REMARK  1 active torsions:
REMARK  status: ('A' for Active; 'I' for Inactive)
REMARK    1  A    between atoms: C1_2  and  C2_3 
ROOT
ATOM      1  C2  UNL d   1      -0.645   0.339   1.105  0.00  0.00    -0.077 A 
ATOM      2  C3  UNL d   1       0.401  -0.186   0.334  0.00  0.00     0.002 A 
ATOM      3  C4  UNL d   1       0.791  -1.518   0.486  0.00  0.00     0.002 A 
ATOM      4  C5  UNL d   1       0.138  -2.336   1.405  0.00  0.00    -0.004 A 
ATOM      5  C6  UNL d   1      -0.902  -1.823   2.178  0.00  0.00     0.002 A 
ATOM      6  C7  UNL d   1      -1.293  -0.491   2.028  0.00  0.00     0.002 A 
ENDROOT
BRANCH   1   7
ATOM      7  C1  UNL d   1      -1.100   1.762   0.907  0.00  0.00     0.055 C 
ATOM      8  C   UNL d   1      -2.563   1.933   1.287  0.00  0.00     0.019 C 
ENDBRANCH   1   7
TORSDOF 1
ENDMDL
