MODEL 1
REMARK minimizedAffinity 12.8311234
REMARK minimizedRMSD -1
REMARK  0 active torsions:
REMARK  status: ('A' for Active; 'I' for Inactive)
ROOT
ATOM      1  C1  DEN d   1       0.940   3.016   0.652  0.00  0.00     0.130 A 
ATOM      2  C2  DEN d   1      -0.095   4.044   0.735  0.00  0.00    -0.031 A 
ATOM      3  C3  DEN d   1      -1.317   3.513   0.099  0.00  0.00     0.027 A 
ATOM      4  C4  DEN d   1      -1.708   1.210  -0.995  0.00  0.00     0.027 A 
ATOM      5  C5  DEN d   1      -1.122   0.006  -1.316  0.00  0.00    -0.003 A 
ATOM      6  C6  DEN d   1       0.191  -0.265  -1.036  0.00  0.00     0.001 A 
ATOM      7  C7  DEN d   1       0.950   0.665  -0.376  0.00  0.00     0.017 A 
ATOM      8  C8  DEN d   1       0.368   1.885  -0.056  0.00  0.00    -0.094 A 
ATOM      9  C9  DEN d   1      -0.965   2.135  -0.337  0.00  0.00    -0.072 A 
ENDROOT
TORSDOF 0
ENDMDL
