MODEL 1
REMARK minimizedAffinity 15.5517607
REMARK minimizedRMSD -1
REMARK  0 active torsions:
REMARK  status: ('A' for Active; 'I' for Inactive)
ROOT
ATOM      1  C1  DEN d   1       1.261   2.428   1.260  0.00  0.00     0.130 A 
ATOM      2  C2  DEN d   1       0.329   3.235   0.477  0.00  0.00    -0.031 A 
ATOM      3  C3  DEN d   1      -1.023   3.047   1.040  0.00  0.00     0.027 A 
ATOM      4  C4  DEN d   1      -1.760   1.595   3.041  0.00  0.00     0.027 A 
ATOM      5  C5  DEN d   1      -1.327   0.720   4.013  0.00  0.00    -0.003 A 
ATOM      6  C6  DEN d   1      -0.018   0.329   4.113  0.00  0.00     0.001 A 
ATOM      7  C7  DEN d   1       0.914   0.850   3.254  0.00  0.00     0.017 A 
ATOM      8  C8  DEN d   1       0.484   1.728   2.267  0.00  0.00    -0.094 A 
ATOM      9  C9  DEN d   1      -0.842   2.120   2.190  0.00  0.00    -0.072 A 
ENDROOT
TORSDOF 0
ENDMDL
