MODEL 1
REMARK minimizedAffinity 2.96159744
REMARK minimizedRMSD -1
REMARK  0 active torsions:
REMARK  status: ('A' for Active; 'I' for Inactive)
ROOT
ATOM      1  C1  DEN d   1      -5.271   4.579  -2.077  0.00  0.00     0.130 A 
ATOM      2  C2  DEN d   1      -5.398   3.293  -1.397  0.00  0.00    -0.031 A 
ATOM      3  C3  DEN d   1      -5.710   2.268  -2.414  0.00  0.00     0.027 A 
ATOM      4  C4  DEN d   1      -6.000   2.545  -4.962  0.00  0.00     0.027 A 
ATOM      5  C5  DEN d   1      -5.996   3.450  -6.000  0.00  0.00    -0.003 A 
ATOM      6  C6  DEN d   1      -5.786   4.788  -5.801  0.00  0.00     0.001 A 
ATOM      7  C7  DEN d   1      -5.526   5.254  -4.539  0.00  0.00     0.017 A 
ATOM      8  C8  DEN d   1      -5.535   4.349  -3.486  0.00  0.00    -0.094 A 
ATOM      9  C9  DEN d   1      -5.737   2.998  -3.710  0.00  0.00    -0.072 A 
ENDROOT
TORSDOF 0
ENDMDL
