MODEL 1
REMARK minimizedAffinity 10.3251839
REMARK minimizedRMSD -1
REMARK  0 active torsions:
REMARK  status: ('A' for Active; 'I' for Inactive)
ROOT
ATOM      1  C1  DEN d   1       0.389   2.297   1.342  0.00  0.00     0.130 A 
ATOM      2  C2  DEN d   1      -0.310   2.318   2.624  0.00  0.00    -0.031 A 
ATOM      3  C3  DEN d   1      -1.036   3.600   2.726  0.00  0.00     0.027 A 
ATOM      4  C4  DEN d   1      -1.149   5.541   1.032  0.00  0.00     0.027 A 
ATOM      5  C5  DEN d   1      -0.710   5.987  -0.195  0.00  0.00    -0.003 A 
ATOM      6  C6  DEN d   1       0.146   5.255  -0.974  0.00  0.00     0.001 A 
ATOM      7  C7  DEN d   1       0.555   4.016  -0.555  0.00  0.00     0.017 A 
ATOM      8  C8  DEN d   1       0.123   3.563   0.684  0.00  0.00    -0.094 A 
ATOM      9  C9  DEN d   1      -0.753   4.313   1.452  0.00  0.00    -0.072 A 
ENDROOT
TORSDOF 0
ENDMDL
