MODEL 1
REMARK minimizedAffinity 14.305994
REMARK minimizedRMSD -1
REMARK  0 active torsions:
REMARK  status: ('A' for Active; 'I' for Inactive)
ROOT
ATOM      1  C1  DEN d   1       1.478   2.958   0.507  0.00  0.00     0.130 A 
ATOM      2  C2  DEN d   1       0.608   2.291   1.472  0.00  0.00    -0.031 A 
ATOM      3  C3  DEN d   1      -0.683   3.007   1.495  0.00  0.00     0.027 A 
ATOM      4  C4  DEN d   1      -1.418   5.070   0.133  0.00  0.00     0.027 A 
ATOM      5  C5  DEN d   1      -1.019   5.996  -0.807  0.00  0.00    -0.003 A 
ATOM      6  C6  DEN d   1       0.241   5.994  -1.344  0.00  0.00     0.001 A 
ATOM      7  C7  DEN d   1       1.133   5.020  -0.980  0.00  0.00     0.017 A 
ATOM      8  C8  DEN d   1       0.741   4.088  -0.028  0.00  0.00    -0.094 A 
ATOM      9  C9  DEN d   1      -0.541   4.100   0.495  0.00  0.00    -0.072 A 
ENDROOT
TORSDOF 0
ENDMDL
