MODEL 1
REMARK minimizedAffinity 6.20240116
REMARK minimizedRMSD -1
REMARK  0 active torsions:
REMARK  status: ('A' for Active; 'I' for Inactive)
ROOT
ATOM      1  C1  DEN d   1      -0.102   3.128   0.474  0.00  0.00     0.130 A 
ATOM      2  C2  DEN d   1      -0.022   3.923  -0.749  0.00  0.00    -0.031 A 
ATOM      3  C3  DEN d   1       1.065   4.908  -0.583  0.00  0.00     0.027 A 
ATOM      4  C4  DEN d   1       2.628   5.276   1.436  0.00  0.00     0.027 A 
ATOM      5  C5  DEN d   1       2.934   4.852   2.711  0.00  0.00    -0.003 A 
ATOM      6  C6  DEN d   1       2.233   3.856   3.337  0.00  0.00     0.001 A 
ATOM      7  C7  DEN d   1       1.220   3.218   2.672  0.00  0.00     0.017 A 
ATOM      8  C8  DEN d   1       0.900   3.644   1.390  0.00  0.00    -0.094 A 
ATOM      9  C9  DEN d   1       1.628   4.645   0.769  0.00  0.00    -0.072 A 
ENDROOT
TORSDOF 0
ENDMDL
