MODEL 1
REMARK minimizedAffinity 12.9810944
REMARK minimizedRMSD -1
REMARK  0 active torsions:
REMARK  status: ('A' for Active; 'I' for Inactive)
ROOT
ATOM      1  C1  DEN d   1       1.793   4.864  -0.158  0.00  0.00     0.130 A 
ATOM      2  C2  DEN d   1       0.580   4.911  -0.971  0.00  0.00    -0.031 A 
ATOM      3  C3  DEN d   1      -0.470   4.146  -0.269  0.00  0.00     0.027 A 
ATOM      4  C4  DEN d   1      -0.338   2.905   1.988  0.00  0.00     0.027 A 
ATOM      5  C5  DEN d   1       0.486   2.574   3.041  0.00  0.00    -0.003 A 
ATOM      6  C6  DEN d   1       1.802   2.950   3.084  0.00  0.00     0.001 A 
ATOM      7  C7  DEN d   1       2.321   3.720   2.077  0.00  0.00     0.017 A 
ATOM      8  C8  DEN d   1       1.498   4.052   1.009  0.00  0.00    -0.094 A 
ATOM      9  C9  DEN d   1       0.167   3.672   0.989  0.00  0.00    -0.072 A 
ENDROOT
TORSDOF 0
ENDMDL
