MODEL 1
REMARK minimizedAffinity 17.4046707
REMARK minimizedRMSD -1
REMARK  0 active torsions:
REMARK  status: ('A' for Active; 'I' for Inactive)
ROOT
ATOM      1  C1  DEN d   1       0.243  -1.086   4.707  0.00  0.00     0.130 A 
ATOM      2  C2  DEN d   1       1.463  -1.886   4.657  0.00  0.00    -0.031 A 
ATOM      3  C3  DEN d   1       2.422  -1.201   3.767  0.00  0.00     0.027 A 
ATOM      4  C4  DEN d   1       2.139   1.012   2.473  0.00  0.00     0.027 A 
ATOM      5  C5  DEN d   1       1.273   2.046   2.194  0.00  0.00    -0.003 A 
ATOM      6  C6  DEN d   1       0.002   2.091   2.701  0.00  0.00     0.001 A 
ATOM      7  C7  DEN d   1      -0.425   1.106   3.552  0.00  0.00     0.017 A 
ATOM      8  C8  DEN d   1       0.440   0.056   3.832  0.00  0.00    -0.094 A 
ATOM      9  C9  DEN d   1       1.726   0.035   3.319  0.00  0.00    -0.072 A 
ENDROOT
TORSDOF 0
ENDMDL
