MODEL 1
REMARK minimizedAffinity 15.9288445
REMARK minimizedRMSD -1
REMARK  0 active torsions:
REMARK  status: ('A' for Active; 'I' for Inactive)
ROOT
ATOM      1  C1  DEN d   1      -1.022   2.862   0.270  0.00  0.00     0.130 A 
ATOM      2  C2  DEN d   1       0.351   3.070   0.722  0.00  0.00    -0.031 A 
ATOM      3  C3  DEN d   1       1.148   1.894   0.317  0.00  0.00     0.027 A 
ATOM      4  C4  DEN d   1       0.395  -0.214  -0.964  0.00  0.00     0.027 A 
ATOM      5  C5  DEN d   1      -0.679  -0.848  -1.548  0.00  0.00    -0.003 A 
ATOM      6  C6  DEN d   1      -1.939  -0.311  -1.538  0.00  0.00     0.001 A 
ATOM      7  C7  DEN d   1      -2.148   0.919  -0.970  0.00  0.00     0.017 A 
ATOM      8  C8  DEN d   1      -1.072   1.561  -0.372  0.00  0.00    -0.094 A 
ATOM      9  C9  DEN d   1       0.197   1.007  -0.404  0.00  0.00    -0.072 A 
ENDROOT
TORSDOF 0
ENDMDL
