MODEL 1
REMARK minimizedAffinity 2.27775645
REMARK minimizedRMSD -1
REMARK  0 active torsions:
REMARK  status: ('A' for Active; 'I' for Inactive)
ROOT
ATOM      1  C2' OXE d   1       1.639  -2.293   1.555  0.00  0.00     0.078 C 
ATOM      2  C1' OXE d   1       1.293  -0.722  -0.746  0.00  0.00     0.078 C 
ATOM      3  C1  OXE d   1       0.205  -0.690   0.298  0.00  0.00    -0.078 A 
ATOM      4  C2  OXE d   1       0.361  -1.497   1.399  0.00  0.00    -0.078 A 
ATOM      5  C3  OXE d   1      -0.588  -1.465   2.417  0.00  0.00     0.003 A 
ATOM      6  C4  OXE d   1      -1.772  -0.734   2.260  0.00  0.00    -0.002 A 
ATOM      7  C5  OXE d   1      -1.968   0.065   1.129  0.00  0.00    -0.002 A 
ATOM      8  C6  OXE d   1      -0.973   0.131   0.160  0.00  0.00     0.003 A 
ENDROOT
TORSDOF 0
ENDMDL
