MODEL 1
REMARK minimizedAffinity -0.952128708
REMARK minimizedRMSD -1
REMARK  0 active torsions:
REMARK  status: ('A' for Active; 'I' for Inactive)
ROOT
ATOM      1  C2' OXE d   1      -2.157  -0.257   1.669  0.00  0.00     0.078 C 
ATOM      2  C1' OXE d   1      -1.383  -0.398  -1.026  0.00  0.00     0.078 C 
ATOM      3  C1  OXE d   1      -0.324  -0.628   0.023  0.00  0.00    -0.078 A 
ATOM      4  C2  OXE d   1      -0.701  -0.511   1.339  0.00  0.00    -0.078 A 
ATOM      5  C3  OXE d   1       0.224  -0.767   2.348  0.00  0.00     0.003 A 
ATOM      6  C4  OXE d   1       1.570  -0.991   2.034  0.00  0.00    -0.002 A 
ATOM      7  C5  OXE d   1       1.984  -1.075   0.701  0.00  0.00    -0.002 A 
ATOM      8  C6  OXE d   1       1.044  -0.938  -0.315  0.00  0.00     0.003 A 
ENDROOT
TORSDOF 0
ENDMDL
