MODEL 1
REMARK minimizedAffinity 2.56993008
REMARK minimizedRMSD -1
REMARK  0 active torsions:
REMARK  status: ('A' for Active; 'I' for Inactive)
ROOT
ATOM      1  C2' OXE d   1       4.298   4.970   3.296  0.00  0.00     0.078 C 
ATOM      2  C1' OXE d   1       4.223   5.722   6.000  0.00  0.00     0.078 C 
ATOM      3  C1  OXE d   1       2.919   5.684   5.244  0.00  0.00    -0.078 A 
ATOM      4  C2  OXE d   1       2.971   5.360   3.909  0.00  0.00    -0.078 A 
ATOM      5  C3  OXE d   1       1.790   5.257   3.179  0.00  0.00     0.003 A 
ATOM      6  C4  OXE d   1       0.568   5.629   3.751  0.00  0.00    -0.002 A 
ATOM      7  C5  OXE d   1       0.498   6.000   5.098  0.00  0.00    -0.002 A 
ATOM      8  C6  OXE d   1       1.655   5.991   5.868  0.00  0.00     0.003 A 
ENDROOT
TORSDOF 0
ENDMDL
