MODEL 1
REMARK minimizedAffinity -1.68216896
REMARK minimizedRMSD -1
REMARK  0 active torsions:
REMARK  status: ('A' for Active; 'I' for Inactive)
ROOT
ATOM      1  C2' OXE d   1       1.207   5.955   4.353  0.00  0.00     0.078 C 
ATOM      2  C1' OXE d   1       3.480   5.989   6.000  0.00  0.00     0.078 C 
ATOM      3  C1  OXE d   1       3.693   5.972   4.507  0.00  0.00    -0.078 A 
ATOM      4  C2  OXE d   1       2.576   5.909   3.709  0.00  0.00    -0.078 A 
ATOM      5  C3  OXE d   1       2.714   5.946   2.325  0.00  0.00     0.003 A 
ATOM      6  C4  OXE d   1       3.984   5.893   1.737  0.00  0.00    -0.002 A 
ATOM      7  C5  OXE d   1       5.135   5.917   2.532  0.00  0.00    -0.002 A 
ATOM      8  C6  OXE d   1       5.007   6.000   3.914  0.00  0.00     0.003 A 
ENDROOT
TORSDOF 0
ENDMDL
