MODEL 1
REMARK minimizedAffinity 4.15090561
REMARK minimizedRMSD -1
REMARK  0 active torsions:
REMARK  status: ('A' for Active; 'I' for Inactive)
ROOT
ATOM      1  C2' OXE d   1      -2.744   0.029   1.509  0.00  0.00     0.078 C 
ATOM      2  C1' OXE d   1      -0.390  -0.475   2.953  0.00  0.00     0.078 C 
ATOM      3  C1  OXE d   1      -0.320  -0.542   1.448  0.00  0.00    -0.078 A 
ATOM      4  C2  OXE d   1      -1.487  -0.340   0.751  0.00  0.00    -0.078 A 
ATOM      5  C3  OXE d   1      -1.466  -0.335  -0.641  0.00  0.00     0.003 A 
ATOM      6  C4  OXE d   1      -0.301  -0.687  -1.334  0.00  0.00    -0.002 A 
ATOM      7  C5  OXE d   1       0.889  -0.935  -0.642  0.00  0.00    -0.002 A 
ATOM      8  C6  OXE d   1       0.907  -0.825   0.744  0.00  0.00     0.003 A 
ENDROOT
TORSDOF 0
ENDMDL
