MODEL 1
REMARK minimizedAffinity 9.70406818
REMARK minimizedRMSD -1
REMARK  0 active torsions:
REMARK  status: ('A' for Active; 'I' for Inactive)
ROOT
ATOM      1  C2' OXE d   1       1.235  -0.875  -0.398  0.00  0.00     0.078 C 
ATOM      2  C1' OXE d   1       0.688  -0.112   2.247  0.00  0.00     0.078 C 
ATOM      3  C1  OXE d   1      -0.481  -0.298   1.313  0.00  0.00    -0.078 A 
ATOM      4  C2  OXE d   1      -0.202  -0.626   0.008  0.00  0.00    -0.078 A 
ATOM      5  C3  OXE d   1      -1.246  -0.864  -0.882  0.00  0.00     0.003 A 
ATOM      6  C4  OXE d   1      -2.571  -0.621  -0.501  0.00  0.00    -0.002 A 
ATOM      7  C5  OXE d   1      -2.875  -0.248   0.812  0.00  0.00    -0.002 A 
ATOM      8  C6  OXE d   1      -1.847  -0.124   1.741  0.00  0.00     0.003 A 
ENDROOT
TORSDOF 0
ENDMDL
