MODEL 1
REMARK minimizedAffinity 2.53819633
REMARK minimizedRMSD -1
REMARK  0 active torsions:
REMARK  status: ('A' for Active; 'I' for Inactive)
ROOT
ATOM      1  C2' OXE d   1       0.871  -0.484   2.820  0.00  0.00     0.078 C 
ATOM      2  C1' OXE d   1       1.994  -1.560   0.483  0.00  0.00     0.078 C 
ATOM      3  C1  OXE d   1       0.573  -1.060   0.414  0.00  0.00    -0.078 A 
ATOM      4  C2  OXE d   1       0.016  -0.578   1.574  0.00  0.00    -0.078 A 
ATOM      5  C3  OXE d   1      -1.274  -0.054   1.554  0.00  0.00     0.003 A 
ATOM      6  C4  OXE d   1      -2.061  -0.154   0.401  0.00  0.00    -0.002 A 
ATOM      7  C5  OXE d   1      -1.527  -0.678  -0.781  0.00  0.00    -0.002 A 
ATOM      8  C6  OXE d   1      -0.200  -1.095  -0.802  0.00  0.00     0.003 A 
ENDROOT
TORSDOF 0
ENDMDL
