MODEL 1
REMARK minimizedAffinity -0.196592256
REMARK minimizedRMSD -1
REMARK  0 active torsions:
REMARK  status: ('A' for Active; 'I' for Inactive)
ROOT
ATOM      1  C2' OXE d   1      -0.045  -1.597   2.738  0.00  0.00     0.078 C 
ATOM      2  C1' OXE d   1      -1.864  -0.275   1.058  0.00  0.00     0.078 C 
ATOM      3  C1  OXE d   1      -0.567  -0.751   0.454  0.00  0.00    -0.078 A 
ATOM      4  C2  OXE d   1       0.337  -1.355   1.294  0.00  0.00    -0.078 A 
ATOM      5  C3  OXE d   1       1.526  -1.861   0.777  0.00  0.00     0.003 A 
ATOM      6  C4  OXE d   1       1.877  -1.625  -0.558  0.00  0.00    -0.002 A 
ATOM      7  C5  OXE d   1       0.987  -0.976  -1.421  0.00  0.00    -0.002 A 
ATOM      8  C6  OXE d   1      -0.254  -0.571  -0.942  0.00  0.00     0.003 A 
ENDROOT
TORSDOF 0
ENDMDL
