MODEL 1
REMARK minimizedAffinity -1.20279956
REMARK minimizedRMSD -1
REMARK  0 active torsions:
REMARK  status: ('A' for Active; 'I' for Inactive)
ROOT
ATOM      1  C2' OXE d   1       0.734   5.883   4.322  0.00  0.00     0.078 C 
ATOM      2  C1' OXE d   1       2.985   5.860   5.999  0.00  0.00     0.078 C 
ATOM      3  C1  OXE d   1       3.218   5.925   4.510  0.00  0.00    -0.078 A 
ATOM      4  C2  OXE d   1       2.112   5.888   3.695  0.00  0.00    -0.078 A 
ATOM      5  C3  OXE d   1       2.268   6.000   2.317  0.00  0.00     0.003 A 
ATOM      6  C4  OXE d   1       3.546   5.994   1.745  0.00  0.00    -0.002 A 
ATOM      7  C5  OXE d   1       4.686   5.992   2.555  0.00  0.00    -0.002 A 
ATOM      8  C6  OXE d   1       4.539   6.000   3.938  0.00  0.00     0.003 A 
ENDROOT
TORSDOF 0
ENDMDL
