MODEL 1
REMARK minimizedAffinity -2.08282304
REMARK minimizedRMSD -1
REMARK  0 active torsions:
REMARK  status: ('A' for Active; 'I' for Inactive)
ROOT
ATOM      1  C2' OXE d   1       2.907   5.931   6.000  0.00  0.00     0.078 C 
ATOM      2  C1' OXE d   1       1.018   5.952   3.923  0.00  0.00     0.078 C 
ATOM      3  C1  OXE d   1       2.478   5.951   3.546  0.00  0.00    -0.078 A 
ATOM      4  C2  OXE d   1       3.395   5.988   4.568  0.00  0.00    -0.078 A 
ATOM      5  C3  OXE d   1       4.755   5.933   4.277  0.00  0.00     0.003 A 
ATOM      6  C4  OXE d   1       5.199   5.996   2.950  0.00  0.00    -0.002 A 
ATOM      7  C5  OXE d   1       4.281   6.000   1.894  0.00  0.00    -0.002 A 
ATOM      8  C6  OXE d   1       2.921   5.935   2.174  0.00  0.00     0.003 A 
ENDROOT
TORSDOF 0
ENDMDL
