MODEL 1
REMARK minimizedAffinity 2.90217495
REMARK minimizedRMSD -1
REMARK  0 active torsions:
REMARK  status: ('A' for Active; 'I' for Inactive)
ROOT
ATOM      1  C2' OXE d   1      -1.080  -1.494   3.613  0.00  0.00     0.078 C 
ATOM      2  C1' OXE d   1      -2.172   0.264   1.716  0.00  0.00     0.078 C 
ATOM      3  C1  OXE d   1      -0.900  -0.463   1.353  0.00  0.00    -0.078 A 
ATOM      4  C2  OXE d   1      -0.348  -1.285   2.305  0.00  0.00    -0.078 A 
ATOM      5  C3  OXE d   1       0.794  -2.021   2.002  0.00  0.00     0.003 A 
ATOM      6  C4  OXE d   1       1.471  -1.814   0.794  0.00  0.00    -0.002 A 
ATOM      7  C5  OXE d   1       0.947  -0.950  -0.174  0.00  0.00    -0.002 A 
ATOM      8  C6  OXE d   1      -0.258  -0.301   0.072  0.00  0.00     0.003 A 
ENDROOT
TORSDOF 0
ENDMDL
