MODEL 1
REMARK minimizedAffinity 1.8094362
REMARK minimizedRMSD -1
REMARK  0 active torsions:
REMARK  status: ('A' for Active; 'I' for Inactive)
ROOT
ATOM      1  C   UNL d   1       4.014   1.449   5.988  0.00  0.00     0.023 A 
ATOM      2  C1  UNL d   1       4.866   2.553   5.987  0.00  0.00     0.003 A 
ATOM      3  C2  UNL d   1       4.337   3.845   5.990  0.00  0.00     0.048 A 
ATOM      4  C3  UNL d   1       2.954   4.025   5.995  0.00  0.00     0.023 A 
ATOM      5  C4  UNL d   1       2.098   2.923   5.997  0.00  0.00     0.048 A 
ATOM      6  C5  UNL d   1       2.632   1.633   5.994  0.00  0.00     0.003 A 
ATOM      7  I   UNL d   1       2.163   5.948   6.000  0.00  0.00    -0.146 I 
ENDROOT
TORSDOF 0
ENDMDL
