MODEL 1
REMARK minimizedAffinity 2.3996017
REMARK minimizedRMSD -1
REMARK  0 active torsions:
REMARK  status: ('A' for Active; 'I' for Inactive)
ROOT
ATOM      1  C   UNL d   1       1.239  -1.468   4.393  0.00  0.00     0.023 A 
ATOM      2  C1  UNL d   1       0.363  -2.313   3.712  0.00  0.00     0.003 A 
ATOM      3  C2  UNL d   1       0.147  -3.614   4.171  0.00  0.00     0.048 A 
ATOM      4  C3  UNL d   1       0.811  -4.063   5.312  0.00  0.00     0.023 A 
ATOM      5  C4  UNL d   1       1.688  -3.221   5.997  0.00  0.00     0.048 A 
ATOM      6  C5  UNL d   1       1.901  -1.922   5.534  0.00  0.00     0.003 A 
ATOM      7  I   UNL d   1       0.491  -5.999   5.997  0.00  0.00    -0.146 I 
ENDROOT
TORSDOF 0
ENDMDL
