MODEL 1
REMARK minimizedAffinity 0.136081204
REMARK minimizedRMSD -1
REMARK  0 active torsions:
REMARK  status: ('A' for Active; 'I' for Inactive)
ROOT
ATOM      1  C   UNL d   1       5.248   2.293   5.354  0.00  0.00     0.023 A 
ATOM      2  C1  UNL d   1       5.385   3.655   5.085  0.00  0.00     0.003 A 
ATOM      3  C2  UNL d   1       4.301   4.517   5.270  0.00  0.00     0.048 A 
ATOM      4  C3  UNL d   1       3.085   4.010   5.724  0.00  0.00     0.023 A 
ATOM      5  C4  UNL d   1       2.944   2.648   5.996  0.00  0.00     0.048 A 
ATOM      6  C5  UNL d   1       4.029   1.790   5.809  0.00  0.00     0.003 A 
ATOM      7  I   UNL d   1       1.471   5.290   6.000  0.00  0.00    -0.146 I 
ENDROOT
TORSDOF 0
ENDMDL
