MODEL 1
REMARK minimizedAffinity 5.06392288
REMARK minimizedRMSD -1
REMARK  0 active torsions:
REMARK  status: ('A' for Active; 'I' for Inactive)
ROOT
ATOM      1  C   UNL d   1       1.037  -1.192   3.329  0.00  0.00     0.023 A 
ATOM      2  C1  UNL d   1       0.261  -1.050   4.479  0.00  0.00     0.003 A 
ATOM      3  C2  UNL d   1      -0.068  -2.171   5.243  0.00  0.00     0.048 A 
ATOM      4  C3  UNL d   1       0.382  -3.431   4.852  0.00  0.00     0.023 A 
ATOM      5  C4  UNL d   1       1.159  -3.578   3.702  0.00  0.00     0.048 A 
ATOM      6  C5  UNL d   1       1.485  -2.454   2.940  0.00  0.00     0.003 A 
ATOM      7  I   UNL d   1      -0.107  -5.102   5.988  0.00  0.00    -0.146 I 
ENDROOT
TORSDOF 0
ENDMDL
