MODEL 1
REMARK minimizedAffinity 1.49301517
REMARK minimizedRMSD -1
REMARK  0 active torsions:
REMARK  status: ('A' for Active; 'I' for Inactive)
ROOT
ATOM      1  C   UNL d   1       4.837   5.471   5.216  0.00  0.00     0.023 A 
ATOM      2  C1  UNL d   1       3.563   5.418   5.781  0.00  0.00     0.003 A 
ATOM      3  C2  UNL d   1       2.945   4.185   6.000  0.00  0.00     0.048 A 
ATOM      4  C3  UNL d   1       3.608   3.008   5.652  0.00  0.00     0.023 A 
ATOM      5  C4  UNL d   1       4.883   3.056   5.086  0.00  0.00     0.048 A 
ATOM      6  C5  UNL d   1       5.496   4.292   4.869  0.00  0.00     0.003 A 
ATOM      7  I   UNL d   1       2.691   1.171   5.976  0.00  0.00    -0.146 I 
ENDROOT
TORSDOF 0
ENDMDL
