MODEL 1
REMARK minimizedAffinity 12.2309465
REMARK minimizedRMSD -1
REMARK  0 active torsions:
REMARK  status: ('A' for Active; 'I' for Inactive)
ROOT
ATOM      1  C   UNL d   1       4.591   1.114   5.997  0.00  0.00     0.023 A 
ATOM      2  C1  UNL d   1       5.042   2.434   5.997  0.00  0.00     0.003 A 
ATOM      3  C2  UNL d   1       4.125   3.487   5.997  0.00  0.00     0.048 A 
ATOM      4  C3  UNL d   1       2.758   3.212   5.999  0.00  0.00     0.023 A 
ATOM      5  C4  UNL d   1       2.302   1.893   6.000  0.00  0.00     0.048 A 
ATOM      6  C5  UNL d   1       3.223   0.844   5.999  0.00  0.00     0.003 A 
ATOM      7  I   UNL d   1       1.391   4.778   5.999  0.00  0.00    -0.146 I 
ENDROOT
TORSDOF 0
ENDMDL
