MODEL 1
REMARK minimizedAffinity -2.87534666
REMARK minimizedRMSD -1
REMARK  0 active torsions:
REMARK  status: ('A' for Active; 'I' for Inactive)
ROOT
ATOM      1  C   UNL d   1       5.006   2.213   5.311  0.00  0.00     0.023 A 
ATOM      2  C1  UNL d   1       5.255   3.554   5.018  0.00  0.00     0.003 A 
ATOM      3  C2  UNL d   1       4.257   4.510   5.213  0.00  0.00     0.048 A 
ATOM      4  C3  UNL d   1       3.011   4.118   5.704  0.00  0.00     0.023 A 
ATOM      5  C4  UNL d   1       2.758   2.778   5.999  0.00  0.00     0.048 A 
ATOM      6  C5  UNL d   1       3.759   1.825   5.801  0.00  0.00     0.003 A 
ATOM      7  I   UNL d   1       1.523   5.540   5.996  0.00  0.00    -0.146 I 
ENDROOT
TORSDOF 0
ENDMDL
