MODEL 1
REMARK minimizedAffinity 10.7156439
REMARK minimizedRMSD -1
REMARK  0 active torsions:
REMARK  status: ('A' for Active; 'I' for Inactive)
ROOT
ATOM      1  C   UNL d   1       5.921   3.231   3.360  0.00  0.00     0.023 A 
ATOM      2  C1  UNL d   1       5.987   4.433   4.065  0.00  0.00     0.003 A 
ATOM      3  C2  UNL d   1       4.895   4.860   4.823  0.00  0.00     0.048 A 
ATOM      4  C3  UNL d   1       3.740   4.080   4.872  0.00  0.00     0.023 A 
ATOM      5  C4  UNL d   1       3.670   2.876   4.169  0.00  0.00     0.048 A 
ATOM      6  C5  UNL d   1       4.764   2.454   3.412  0.00  0.00     0.003 A 
ATOM      7  I   UNL d   1       2.113   4.714   6.000  0.00  0.00    -0.146 I 
ENDROOT
TORSDOF 0
ENDMDL
