MODEL 1
REMARK minimizedAffinity -1.72242212
REMARK minimizedRMSD -1
REMARK  0 active torsions:
REMARK  status: ('A' for Active; 'I' for Inactive)
ROOT
ATOM      1  C   UNL d   1       3.868   1.691   4.741  0.00  0.00     0.023 A 
ATOM      2  C1  UNL d   1       3.435   2.511   5.783  0.00  0.00     0.003 A 
ATOM      3  C2  UNL d   1       4.045   3.748   6.000  0.00  0.00     0.048 A 
ATOM      4  C3  UNL d   1       5.088   4.159   5.170  0.00  0.00     0.023 A 
ATOM      5  C4  UNL d   1       5.524   3.342   4.126  0.00  0.00     0.048 A 
ATOM      6  C5  UNL d   1       4.911   2.106   3.914  0.00  0.00     0.003 A 
ATOM      7  I   UNL d   1       5.998   6.000   5.490  0.00  0.00    -0.146 I 
ENDROOT
TORSDOF 0
ENDMDL
