MODEL 1
REMARK minimizedAffinity -0.841697395
REMARK minimizedRMSD -1
REMARK  0 active torsions:
REMARK  status: ('A' for Active; 'I' for Inactive)
ROOT
ATOM      1  C   UNL d   1       5.006   1.735   5.262  0.00  0.00     0.023 A 
ATOM      2  C1  UNL d   1       3.751   1.442   5.795  0.00  0.00     0.003 A 
ATOM      3  C2  UNL d   1       2.821   2.464   5.997  0.00  0.00     0.048 A 
ATOM      4  C3  UNL d   1       3.153   3.776   5.663  0.00  0.00     0.023 A 
ATOM      5  C4  UNL d   1       4.408   4.074   5.129  0.00  0.00     0.048 A 
ATOM      6  C5  UNL d   1       5.334   3.049   4.930  0.00  0.00     0.003 A 
ATOM      7  I   UNL d   1       1.771   5.299   5.963  0.00  0.00    -0.146 I 
ENDROOT
TORSDOF 0
ENDMDL
