MODEL 1
REMARK minimizedAffinity 5.3134923
REMARK minimizedRMSD -1
REMARK  0 active torsions:
REMARK  status: ('A' for Active; 'I' for Inactive)
ROOT
ATOM      1  C   UNL d   1       2.779   2.488   6.000  0.00  0.00     0.023 A 
ATOM      2  C1  UNL d   1       3.030   3.796   5.585  0.00  0.00     0.003 A 
ATOM      3  C2  UNL d   1       3.887   4.037   4.509  0.00  0.00     0.048 A 
ATOM      4  C3  UNL d   1       4.489   2.965   3.852  0.00  0.00     0.023 A 
ATOM      5  C4  UNL d   1       4.241   1.654   4.263  0.00  0.00     0.048 A 
ATOM      6  C5  UNL d   1       3.384   1.418   5.340  0.00  0.00     0.003 A 
ATOM      7  I   UNL d   1       5.765   3.320   2.250  0.00  0.00    -0.146 I 
ENDROOT
TORSDOF 0
ENDMDL
