MODEL 1
REMARK minimizedAffinity 3.69800258
REMARK minimizedRMSD -1
REMARK  1 active torsions:
REMARK  status: ('A' for Active; 'I' for Inactive)
REMARK    1  A    between atoms: C1_2  and  C2_3 
ROOT
ATOM      1  C2  UNL d   1      -1.479   0.774  -0.081  0.00  0.00    -0.076 A 
ATOM      2  C3  UNL d   1      -1.321  -0.596  -0.353  0.00  0.00     0.004 A 
ATOM      3  C4  UNL d   1      -1.043  -1.503   0.668  0.00  0.00    -0.003 A 
ATOM      4  C5  UNL d   1      -0.919  -1.054   1.978  0.00  0.00     0.000 A 
ATOM      5  C6  UNL d   1      -1.090   0.299   2.269  0.00  0.00     0.000 A 
ATOM      6  C7  UNL d   1      -1.387   1.224   1.254  0.00  0.00    -0.073 A 
ATOM      7  C8  UNL d   1      -1.556   2.672   1.623  0.00  0.00     0.078 C 
ENDROOT
BRANCH   1   8
ATOM      8  C1  UNL d   1      -1.753   1.715  -1.233  0.00  0.00     0.053 C 
ATOM      9  C   UNL d   1      -2.636   1.087  -2.300  0.00  0.00     0.018 C 
ENDBRANCH   1   8
TORSDOF 1
ENDMDL
