MODEL 1
REMARK minimizedAffinity -6.25199032
REMARK minimizedRMSD -1
REMARK  1 active torsions:
REMARK  status: ('A' for Active; 'I' for Inactive)
REMARK    1  A    between atoms: C1_2  and  C2_3 
ROOT
ATOM      1  C2  UNL d   1       0.984  -0.865   1.175  0.00  0.00    -0.076 A 
ATOM      2  C3  UNL d   1       0.590  -0.239   2.370  0.00  0.00     0.004 A 
ATOM      3  C4  UNL d   1       1.334  -0.390   3.539  0.00  0.00    -0.003 A 
ATOM      4  C5  UNL d   1       2.485  -1.169   3.532  0.00  0.00     0.000 A 
ATOM      5  C6  UNL d   1       2.901  -1.783   2.351  0.00  0.00     0.000 A 
ATOM      6  C7  UNL d   1       2.171  -1.628   1.160  0.00  0.00    -0.073 A 
ATOM      7  C8  UNL d   1       2.663  -2.318  -0.083  0.00  0.00     0.078 C 
ENDROOT
BRANCH   1   8
ATOM      8  C1  UNL d   1       0.123  -0.687  -0.054  0.00  0.00     0.053 C 
ATOM      9  C   UNL d   1      -1.321  -0.355   0.289  0.00  0.00     0.018 C 
ENDBRANCH   1   8
TORSDOF 1
ENDMDL
