MODEL 1
REMARK minimizedAffinity -3.74585032
REMARK minimizedRMSD -1
REMARK  1 active torsions:
REMARK  status: ('A' for Active; 'I' for Inactive)
REMARK    1  A    between atoms: C1_2  and  C2_3 
ROOT
ATOM      1  C2  UNL d   1      -0.353   1.051  -1.008  0.00  0.00    -0.076 A 
ATOM      2  C3  UNL d   1      -0.417   2.430  -0.741  0.00  0.00     0.004 A 
ATOM      3  C4  UNL d   1      -0.464   3.360  -1.778  0.00  0.00    -0.003 A 
ATOM      4  C5  UNL d   1      -0.449   2.926  -3.099  0.00  0.00     0.000 A 
ATOM      5  C6  UNL d   1      -0.403   1.562  -3.382  0.00  0.00     0.000 A 
ATOM      6  C7  UNL d   1      -0.372   0.610  -2.348  0.00  0.00    -0.073 A 
ATOM      7  C8  UNL d   1      -0.317  -0.849  -2.711  0.00  0.00     0.078 C 
ENDROOT
BRANCH   1   8
ATOM      8  C1  UNL d   1      -0.277   0.090   0.157  0.00  0.00     0.053 C 
ATOM      9  C   UNL d   1       1.127  -0.018   0.732  0.00  0.00     0.018 C 
ENDBRANCH   1   8
TORSDOF 1
ENDMDL
