MODEL 1
REMARK minimizedAffinity -5.12480354
REMARK minimizedRMSD -1
REMARK  1 active torsions:
REMARK  status: ('A' for Active; 'I' for Inactive)
REMARK    1  A    between atoms: C1_2  and  C2_3 
ROOT
ATOM      1  C2  UNL d   1       0.214   0.007   0.368  0.00  0.00    -0.076 A 
ATOM      2  C3  UNL d   1       1.544  -0.400   0.167  0.00  0.00     0.004 A 
ATOM      3  C4  UNL d   1       2.342  -0.799   1.238  0.00  0.00    -0.003 A 
ATOM      4  C5  UNL d   1       1.823  -0.798   2.527  0.00  0.00     0.000 A 
ATOM      5  C6  UNL d   1       0.499  -0.414   2.743  0.00  0.00     0.000 A 
ATOM      6  C7  UNL d   1      -0.324  -0.025   1.673  0.00  0.00    -0.073 A 
ATOM      7  C8  UNL d   1      -1.741   0.385   1.964  0.00  0.00     0.078 C 
ENDROOT
BRANCH   1   8
ATOM      8  C1  UNL d   1      -0.595   0.455  -0.828  0.00  0.00     0.053 C 
ATOM      9  C   UNL d   1      -0.276   1.883  -1.246  0.00  0.00     0.018 C 
ENDBRANCH   1   8
TORSDOF 1
ENDMDL
