MODEL 1
REMARK minimizedAffinity -4.48774719
REMARK minimizedRMSD -1
REMARK  1 active torsions:
REMARK  status: ('A' for Active; 'I' for Inactive)
REMARK    1  A    between atoms: C1_2  and  C2_3 
ROOT
ATOM      1  C2  UNL d   1       0.356  -0.751   0.217  0.00  0.00    -0.076 A 
ATOM      2  C3  UNL d   1      -0.256  -0.533   1.463  0.00  0.00     0.004 A 
ATOM      3  C4  UNL d   1       0.372  -0.914   2.648  0.00  0.00    -0.003 A 
ATOM      4  C5  UNL d   1       1.624  -1.519   2.605  0.00  0.00     0.000 A 
ATOM      5  C6  UNL d   1       2.253  -1.727   1.378  0.00  0.00     0.000 A 
ATOM      6  C7  UNL d   1       1.641  -1.334   0.176  0.00  0.00    -0.073 A 
ATOM      7  C8  UNL d   1       2.363  -1.588  -1.119  0.00  0.00     0.078 C 
ENDROOT
BRANCH   1   8
ATOM      8  C1  UNL d   1      -0.386  -0.341  -1.036  0.00  0.00     0.053 C 
ATOM      9  C   UNL d   1      -0.359   1.162  -1.263  0.00  0.00     0.018 C 
ENDBRANCH   1   8
TORSDOF 1
ENDMDL
