MODEL 1
REMARK minimizedAffinity 3.39579368
REMARK minimizedRMSD -1
REMARK  0 active torsions:
REMARK  status: ('A' for Active; 'I' for Inactive)
ROOT
ATOM      1  N1  IND d   1       5.791   3.850  -5.745  0.00  0.00    -0.196 N 
ATOM      2  C2  IND d   1       4.722   4.702  -5.726  0.00  0.00     0.054 A 
ATOM      3  C3  IND d   1       3.566   4.009  -5.821  0.00  0.00    -0.031 A 
ATOM      4  C4  IND d   1       3.187   1.465  -5.918  0.00  0.00     0.051 A 
ATOM      5  C5  IND d   1       3.859   0.278  -6.000  0.00  0.00    -0.031 A 
ATOM      6  C6  IND d   1       5.238   0.219  -5.998  0.00  0.00     0.015 A 
ATOM      7  C7  IND d   1       5.999   1.350  -5.903  0.00  0.00    -0.016 A 
ATOM      8  C8  IND d   1       5.319   2.558  -5.827  0.00  0.00    -0.047 A 
ATOM      9  C9  IND d   1       3.921   2.626  -5.871  0.00  0.00    -0.096 A 
ATOM     10  HN1 IND d   1       6.618   4.081  -5.713  0.00  0.00     0.298 HD
ENDROOT
TORSDOF 0
ENDMDL
