MODEL 1
REMARK minimizedAffinity -4.31613922
REMARK minimizedRMSD -1
REMARK  0 active torsions:
REMARK  status: ('A' for Active; 'I' for Inactive)
ROOT
ATOM      1  N1  IND d   1       6.000   0.304  -2.877  0.00  0.00    -0.196 N 
ATOM      2  C2  IND d   1       6.000  -0.765  -3.729  0.00  0.00     0.054 A 
ATOM      3  C3  IND d   1       5.742  -0.359  -4.993  0.00  0.00    -0.031 A 
ATOM      4  C4  IND d   1       5.390   2.022  -5.906  0.00  0.00     0.051 A 
ATOM      5  C5  IND d   1       5.264   3.322  -5.505  0.00  0.00    -0.031 A 
ATOM      6  C6  IND d   1       5.382   3.691  -4.180  0.00  0.00     0.015 A 
ATOM      7  C7  IND d   1       5.643   2.770  -3.205  0.00  0.00    -0.016 A 
ATOM      8  C8  IND d   1       5.764   1.448  -3.608  0.00  0.00    -0.047 A 
ATOM      9  C9  IND d   1       5.603   1.062  -4.945  0.00  0.00    -0.096 A 
ATOM     10  HN1 IND d   1       6.126   0.269  -2.027  0.00  0.00     0.298 HD
ENDROOT
TORSDOF 0
ENDMDL
