MODEL 1
REMARK minimizedAffinity 4.41068268
REMARK minimizedRMSD -1
REMARK  0 active torsions:
REMARK  status: ('A' for Active; 'I' for Inactive)
ROOT
ATOM      1  N1  IND d   1      -4.136   2.900  -0.115  0.00  0.00    -0.196 N 
ATOM      2  C2  IND d   1      -4.651   1.774   0.464  0.00  0.00     0.054 A 
ATOM      3  C3  IND d   1      -3.720   1.177   1.242  0.00  0.00    -0.031 A 
ATOM      4  C4  IND d   1      -1.320   1.929   1.789  0.00  0.00     0.051 A 
ATOM      5  C5  IND d   1      -0.388   2.876   1.468  0.00  0.00    -0.031 A 
ATOM      6  C6  IND d   1      -0.665   3.902   0.588  0.00  0.00     0.015 A 
ATOM      7  C7  IND d   1      -1.893   4.026   0.001  0.00  0.00    -0.016 A 
ATOM      8  C8  IND d   1      -2.839   3.062   0.319  0.00  0.00    -0.047 A 
ATOM      9  C9  IND d   1      -2.550   1.994   1.179  0.00  0.00    -0.096 A 
ATOM     10  HN1 IND d   1      -4.553   3.420  -0.659  0.00  0.00     0.298 HD
ENDROOT
TORSDOF 0
ENDMDL
