MODEL 1
REMARK minimizedAffinity -1.55325079
REMARK minimizedRMSD -1
REMARK  0 active torsions:
REMARK  status: ('A' for Active; 'I' for Inactive)
ROOT
ATOM      1  N1  IND d   1       5.121   3.437  -3.784  0.00  0.00    -0.196 N 
ATOM      2  C2  IND d   1       5.078   4.124  -4.966  0.00  0.00     0.054 A 
ATOM      3  C3  IND d   1       5.359   3.299  -6.000  0.00  0.00    -0.031 A 
ATOM      4  C4  IND d   1       5.819   0.766  -5.992  0.00  0.00     0.051 A 
ATOM      5  C5  IND d   1       5.999  -0.294  -5.148  0.00  0.00    -0.031 A 
ATOM      6  C6  IND d   1       5.891  -0.162  -3.779  0.00  0.00     0.015 A 
ATOM      7  C7  IND d   1       5.586   1.038  -3.201  0.00  0.00    -0.016 A 
ATOM      8  C8  IND d   1       5.409   2.118  -4.054  0.00  0.00    -0.047 A 
ATOM      9  C9  IND d   1       5.560   1.999  -5.442  0.00  0.00    -0.096 A 
ATOM     10  HN1 IND d   1       4.990   3.774  -3.004  0.00  0.00     0.298 HD
ENDROOT
TORSDOF 0
ENDMDL
