MODEL 1
REMARK minimizedAffinity 6.23323393
REMARK minimizedRMSD -1
REMARK  0 active torsions:
REMARK  status: ('A' for Active; 'I' for Inactive)
ROOT
ATOM      1  N1  IND d   1      -1.134   4.508  -3.163  0.00  0.00    -0.196 N 
ATOM      2  C2  IND d   1      -1.332   3.212  -2.777  0.00  0.00     0.054 A 
ATOM      3  C3  IND d   1      -2.366   2.671  -3.459  0.00  0.00    -0.031 A 
ATOM      4  C4  IND d   1      -3.809   3.697  -5.328  0.00  0.00     0.051 A 
ATOM      5  C5  IND d   1      -4.029   4.866  -5.999  0.00  0.00    -0.031 A 
ATOM      6  C6  IND d   1      -3.278   5.999  -5.757  0.00  0.00     0.015 A 
ATOM      7  C7  IND d   1      -2.267   6.000  -4.838  0.00  0.00    -0.016 A 
ATOM      8  C8  IND d   1      -2.046   4.816  -4.149  0.00  0.00    -0.047 A 
ATOM      9  C9  IND d   1      -2.832   3.676  -4.360  0.00  0.00    -0.096 A 
ATOM     10  HN1 IND d   1      -0.540   5.042  -2.844  0.00  0.00     0.298 HD
ENDROOT
TORSDOF 0
ENDMDL
