MODEL 1
REMARK minimizedAffinity 10.8967571
REMARK minimizedRMSD -1
REMARK  0 active torsions:
REMARK  status: ('A' for Active; 'I' for Inactive)
ROOT
ATOM      1  N1  IND d   1       0.128  -2.223  -1.869  0.00  0.00    -0.196 N 
ATOM      2  C2  IND d   1      -0.548  -3.343  -2.267  0.00  0.00     0.054 A 
ATOM      3  C3  IND d   1      -1.347  -3.788  -1.271  0.00  0.00    -0.031 A 
ATOM      4  C4  IND d   1      -1.777  -2.777   1.057  0.00  0.00     0.051 A 
ATOM      5  C5  IND d   1      -1.362  -1.776   1.890  0.00  0.00    -0.031 A 
ATOM      6  C6  IND d   1      -0.412  -0.853   1.504  0.00  0.00     0.015 A 
ATOM      7  C7  IND d   1       0.153  -0.890   0.260  0.00  0.00    -0.016 A 
ATOM      8  C8  IND d   1      -0.261  -1.909  -0.586  0.00  0.00    -0.047 A 
ATOM      9  C9  IND d   1      -1.193  -2.874  -0.184  0.00  0.00    -0.096 A 
ATOM     10  HN1 IND d   1       0.700  -1.789  -2.341  0.00  0.00     0.298 HD
ENDROOT
TORSDOF 0
ENDMDL
