MODEL 1
REMARK minimizedAffinity 5.86319685
REMARK minimizedRMSD -1
REMARK  0 active torsions:
REMARK  status: ('A' for Active; 'I' for Inactive)
ROOT
ATOM      1  N1  IND d   1      -0.050  -2.236  -2.029  0.00  0.00    -0.196 N 
ATOM      2  C2  IND d   1      -0.693  -3.371  -2.439  0.00  0.00     0.054 A 
ATOM      3  C3  IND d   1      -1.525  -3.816  -1.471  0.00  0.00    -0.031 A 
ATOM      4  C4  IND d   1      -2.064  -2.782   0.825  0.00  0.00     0.051 A 
ATOM      5  C5  IND d   1      -1.698  -1.764   1.660  0.00  0.00    -0.031 A 
ATOM      6  C6  IND d   1      -0.746  -0.832   1.301  0.00  0.00     0.015 A 
ATOM      7  C7  IND d   1      -0.131  -0.876   0.082  0.00  0.00    -0.016 A 
ATOM      8  C8  IND d   1      -0.495  -1.911  -0.767  0.00  0.00    -0.047 A 
ATOM      9  C9  IND d   1      -1.429  -2.885  -0.391  0.00  0.00    -0.096 A 
ATOM     10  HN1 IND d   1       0.535  -1.799  -2.484  0.00  0.00     0.298 HD
ENDROOT
TORSDOF 0
ENDMDL
