MODEL 1
REMARK minimizedAffinity 3.16147828
REMARK minimizedRMSD -1
REMARK  0 active torsions:
REMARK  status: ('A' for Active; 'I' for Inactive)
ROOT
ATOM      1  N1  IND d   1       0.744  -6.000  -5.261  0.00  0.00    -0.196 N 
ATOM      2  C2  IND d   1       1.968  -5.488  -4.930  0.00  0.00     0.054 A 
ATOM      3  C3  IND d   1       1.905  -4.853  -3.737  0.00  0.00    -0.031 A 
ATOM      4  C4  IND d   1      -0.077  -4.621  -2.111  0.00  0.00     0.051 A 
ATOM      5  C5  IND d   1      -1.411  -4.892  -1.993  0.00  0.00    -0.031 A 
ATOM      6  C6  IND d   1      -2.109  -5.562  -2.977  0.00  0.00     0.015 A 
ATOM      7  C7  IND d   1      -1.492  -5.998  -4.116  0.00  0.00    -0.016 A 
ATOM      8  C8  IND d   1      -0.139  -5.719  -4.242  0.00  0.00    -0.047 A 
ATOM      9  C9  IND d   1       0.565  -5.002  -3.266  0.00  0.00    -0.096 A 
ATOM     10  HN1 IND d   1       0.558  -6.426  -5.984  0.00  0.00     0.298 HD
ENDROOT
TORSDOF 0
ENDMDL
