MODEL 1
REMARK minimizedAffinity 18.2582207
REMARK minimizedRMSD -1
REMARK  0 active torsions:
REMARK  status: ('A' for Active; 'I' for Inactive)
ROOT
ATOM      1  N1  IND d   1      -2.204   0.581   1.999  0.00  0.00    -0.196 N 
ATOM      2  C2  IND d   1      -1.753  -0.709   1.976  0.00  0.00     0.054 A 
ATOM      3  C3  IND d   1      -0.459  -0.748   1.584  0.00  0.00    -0.031 A 
ATOM      4  C4  IND d   1       1.141   1.192   1.032  0.00  0.00     0.051 A 
ATOM      5  C5  IND d   1       1.175   2.550   0.878  0.00  0.00    -0.031 A 
ATOM      6  C6  IND d   1       0.063   3.337   1.097  0.00  0.00     0.015 A 
ATOM      7  C7  IND d   1      -1.127   2.794   1.491  0.00  0.00    -0.016 A 
ATOM      8  C8  IND d   1      -1.168   1.415   1.641  0.00  0.00    -0.047 A 
ATOM      9  C9  IND d   1      -0.054   0.607   1.379  0.00  0.00    -0.096 A 
ATOM     10  HN1 IND d   1      -3.002   0.830   2.203  0.00  0.00     0.298 HD
ENDROOT
TORSDOF 0
ENDMDL
