MODEL 1
REMARK minimizedAffinity 6.4584074
REMARK minimizedRMSD -1
REMARK  0 active torsions:
REMARK  status: ('A' for Active; 'I' for Inactive)
ROOT
ATOM      1  N1  IND d   1       0.608  -4.205  -4.807  0.00  0.00    -0.196 N 
ATOM      2  C2  IND d   1       1.957  -4.404  -4.911  0.00  0.00     0.054 A 
ATOM      3  C3  IND d   1       2.539  -4.330  -3.693  0.00  0.00    -0.031 A 
ATOM      4  C4  IND d   1       1.457  -3.994  -1.381  0.00  0.00     0.051 A 
ATOM      5  C5  IND d   1       0.257  -3.731  -0.781  0.00  0.00    -0.031 A 
ATOM      6  C6  IND d   1      -0.910  -3.612  -1.507  0.00  0.00     0.015 A 
ATOM      7  C7  IND d   1      -0.924  -3.764  -2.864  0.00  0.00    -0.016 A 
ATOM      8  C8  IND d   1       0.293  -4.025  -3.478  0.00  0.00    -0.047 A 
ATOM      9  C9  IND d   1       1.488  -4.104  -2.751  0.00  0.00    -0.096 A 
ATOM     10  HN1 IND d   1       0.051  -4.193  -5.461  0.00  0.00     0.298 HD
ENDROOT
TORSDOF 0
ENDMDL
