MODEL 1
REMARK minimizedAffinity 9.85425282
REMARK minimizedRMSD -1
REMARK  0 active torsions:
REMARK  status: ('A' for Active; 'I' for Inactive)
ROOT
ATOM      1  N1  IND d   1      -1.804  -4.306  -1.136  0.00  0.00    -0.196 N 
ATOM      2  C2  IND d   1      -1.130  -4.103  -2.308  0.00  0.00     0.054 A 
ATOM      3  C3  IND d   1      -0.419  -2.954  -2.249  0.00  0.00    -0.031 A 
ATOM      4  C4  IND d   1      -0.134  -1.307  -0.291  0.00  0.00     0.051 A 
ATOM      5  C5  IND d   1      -0.583  -1.049   0.974  0.00  0.00    -0.031 A 
ATOM      6  C6  IND d   1      -1.477  -1.882   1.614  0.00  0.00     0.015 A 
ATOM      7  C7  IND d   1      -1.950  -3.015   1.015  0.00  0.00    -0.016 A 
ATOM      8  C8  IND d   1      -1.502  -3.276  -0.273  0.00  0.00    -0.047 A 
ATOM      9  C9  IND d   1      -0.628  -2.412  -0.944  0.00  0.00    -0.096 A 
ATOM     10  HN1 IND d   1      -2.329  -4.966  -0.967  0.00  0.00     0.298 HD
ENDROOT
TORSDOF 0
ENDMDL
