MODEL 1
REMARK minimizedAffinity 15.4757643
REMARK minimizedRMSD -1
REMARK  0 active torsions:
REMARK  status: ('A' for Active; 'I' for Inactive)
ROOT
ATOM      1  N1  IND d   1      -1.106  -1.767   1.673  0.00  0.00    -0.196 N 
ATOM      2  C2  IND d   1      -1.867  -2.576   2.470  0.00  0.00     0.054 A 
ATOM      3  C3  IND d   1      -2.270  -3.668   1.783  0.00  0.00    -0.031 A 
ATOM      4  C4  IND d   1      -1.715  -4.382  -0.627  0.00  0.00     0.051 A 
ATOM      5  C5  IND d   1      -1.085  -3.950  -1.760  0.00  0.00    -0.031 A 
ATOM      6  C6  IND d   1      -0.414  -2.745  -1.807  0.00  0.00     0.015 A 
ATOM      7  C7  IND d   1      -0.338  -1.929  -0.714  0.00  0.00    -0.016 A 
ATOM      8  C8  IND d   1      -0.982  -2.361   0.437  0.00  0.00    -0.047 A 
ATOM      9  C9  IND d   1      -1.701  -3.563   0.477  0.00  0.00    -0.096 A 
ATOM     10  HN1 IND d   1      -0.762  -1.014   1.905  0.00  0.00     0.298 HD
ENDROOT
TORSDOF 0
ENDMDL
