MODEL 1
REMARK minimizedAffinity 12.8161964
REMARK minimizedRMSD -1
REMARK  0 active torsions:
REMARK  status: ('A' for Active; 'I' for Inactive)
ROOT
ATOM      1  N1  IND d   1      -1.210  -1.748   2.207  0.00  0.00    -0.196 N 
ATOM      2  C2  IND d   1      -2.220  -2.533   2.692  0.00  0.00     0.054 A 
ATOM      3  C3  IND d   1      -2.666  -3.371   1.730  0.00  0.00    -0.031 A 
ATOM      4  C4  IND d   1      -1.818  -3.697  -0.679  0.00  0.00     0.051 A 
ATOM      5  C5  IND d   1      -0.938  -3.184  -1.590  0.00  0.00    -0.031 A 
ATOM      6  C6  IND d   1      -0.084  -2.147  -1.274  0.00  0.00     0.015 A 
ATOM      7  C7  IND d   1      -0.071  -1.589  -0.027  0.00  0.00    -0.016 A 
ATOM      8  C8  IND d   1      -0.969  -2.103   0.898  0.00  0.00    -0.047 A 
ATOM      9  C9  IND d   1      -1.867  -3.127   0.571  0.00  0.00    -0.096 A 
ATOM     10  HN1 IND d   1      -0.796  -1.136   2.646  0.00  0.00     0.298 HD
ENDROOT
TORSDOF 0
ENDMDL
