MODEL 1
REMARK minimizedAffinity 8.35455513
REMARK minimizedRMSD -1
REMARK  0 active torsions:
REMARK  status: ('A' for Active; 'I' for Inactive)
ROOT
ATOM      1  N1  IND d   1       0.108   1.533   3.030  0.00  0.00    -0.196 N 
ATOM      2  C2  IND d   1      -0.825   1.467   4.028  0.00  0.00     0.054 A 
ATOM      3  C3  IND d   1      -1.947   2.130   3.667  0.00  0.00    -0.031 A 
ATOM      4  C4  IND d   1      -2.508   3.309   1.449  0.00  0.00     0.051 A 
ATOM      5  C5  IND d   1      -1.958   3.666   0.249  0.00  0.00    -0.031 A 
ATOM      6  C6  IND d   1      -0.667   3.320  -0.093  0.00  0.00     0.015 A 
ATOM      7  C7  IND d   1       0.123   2.592   0.752  0.00  0.00    -0.016 A 
ATOM      8  C8  IND d   1      -0.429   2.235   1.974  0.00  0.00    -0.047 A 
ATOM      9  C9  IND d   1      -1.725   2.619   2.343  0.00  0.00    -0.096 A 
ATOM     10  HN1 IND d   1       0.897   1.194   3.059  0.00  0.00     0.298 HD
ENDROOT
TORSDOF 0
ENDMDL
