MODEL 1
REMARK minimizedAffinity 8.35611629
REMARK minimizedRMSD -1
REMARK  0 active torsions:
REMARK  status: ('A' for Active; 'I' for Inactive)
ROOT
ATOM      1  N1  IND d   1      -4.060   3.071  -3.781  0.00  0.00    -0.196 N 
ATOM      2  C2  IND d   1      -3.112   3.846  -4.390  0.00  0.00     0.054 A 
ATOM      3  C3  IND d   1      -2.389   4.517  -3.466  0.00  0.00    -0.031 A 
ATOM      4  C4  IND d   1      -2.520   4.417  -0.897  0.00  0.00     0.051 A 
ATOM      5  C5  IND d   1      -3.252   3.879   0.124  0.00  0.00    -0.031 A 
ATOM      6  C6  IND d   1      -4.310   3.025  -0.109  0.00  0.00     0.015 A 
ATOM      7  C7  IND d   1      -4.671   2.666  -1.377  0.00  0.00    -0.016 A 
ATOM      8  C8  IND d   1      -3.934   3.216  -2.416  0.00  0.00    -0.047 A 
ATOM      9  C9  IND d   1      -2.886   4.117  -2.188  0.00  0.00    -0.096 A 
ATOM     10  HN1 IND d   1      -4.637   2.576  -4.182  0.00  0.00     0.298 HD
ENDROOT
TORSDOF 0
ENDMDL
