MODEL 1
REMARK minimizedAffinity -1.20557225
REMARK minimizedRMSD -1
REMARK  0 active torsions:
REMARK  status: ('A' for Active; 'I' for Inactive)
ROOT
ATOM      1  N1  IND d   1       3.768   4.732  -5.996  0.00  0.00    -0.196 N 
ATOM      2  C2  IND d   1       4.952   5.413  -5.932  0.00  0.00     0.054 A 
ATOM      3  C3  IND d   1       5.985   4.549  -5.814  0.00  0.00    -0.031 A 
ATOM      4  C4  IND d   1       5.973   1.975  -5.807  0.00  0.00     0.051 A 
ATOM      5  C5  IND d   1       5.127   0.901  -5.806  0.00  0.00    -0.031 A 
ATOM      6  C6  IND d   1       3.757   1.053  -5.872  0.00  0.00     0.015 A 
ATOM      7  C7  IND d   1       3.180   2.289  -5.954  0.00  0.00    -0.016 A 
ATOM      8  C8  IND d   1       4.036   3.381  -5.948  0.00  0.00    -0.047 A 
ATOM      9  C9  IND d   1       5.425   3.235  -5.839  0.00  0.00    -0.096 A 
ATOM     10  HN1 IND d   1       2.987   5.087  -6.056  0.00  0.00     0.298 HD
ENDROOT
TORSDOF 0
ENDMDL
