MODEL 1
REMARK minimizedAffinity 11.3987999
REMARK minimizedRMSD -1
REMARK  0 active torsions:
REMARK  status: ('A' for Active; 'I' for Inactive)
ROOT
ATOM      1  N1  IND d   1      -0.694  -2.026  -2.619  0.00  0.00    -0.196 N 
ATOM      2  C2  IND d   1      -0.974  -3.223  -2.020  0.00  0.00     0.054 A 
ATOM      3  C3  IND d   1      -0.766  -3.141  -0.686  0.00  0.00    -0.031 A 
ATOM      4  C4  IND d   1      -0.064  -1.115   0.739  0.00  0.00     0.051 A 
ATOM      5  C5  IND d   1       0.340   0.186   0.635  0.00  0.00    -0.031 A 
ATOM      6  C6  IND d   1       0.418   0.831  -0.582  0.00  0.00     0.015 A 
ATOM      7  C7  IND d   1       0.083   0.198  -1.746  0.00  0.00    -0.016 A 
ATOM      8  C8  IND d   1      -0.320  -1.126  -1.646  0.00  0.00    -0.047 A 
ATOM      9  C9  IND d   1      -0.361  -1.798  -0.417  0.00  0.00    -0.096 A 
ATOM     10  HN1 IND d   1      -0.744  -1.864  -3.462  0.00  0.00     0.298 HD
ENDROOT
TORSDOF 0
ENDMDL
