MODEL 1
REMARK minimizedAffinity -0.766052663
REMARK minimizedRMSD -1
REMARK  0 active torsions:
REMARK  status: ('A' for Active; 'I' for Inactive)
ROOT
ATOM      1  N1  IND d   1       5.986   4.471  -5.187  0.00  0.00    -0.196 N 
ATOM      2  C2  IND d   1       5.061   5.417  -5.533  0.00  0.00     0.054 A 
ATOM      3  C3  IND d   1       3.912   4.827  -5.931  0.00  0.00    -0.031 A 
ATOM      4  C4  IND d   1       3.293   2.329  -5.997  0.00  0.00     0.051 A 
ATOM      5  C5  IND d   1       3.822   1.083  -5.810  0.00  0.00    -0.031 A 
ATOM      6  C6  IND d   1       5.125   0.899  -5.394  0.00  0.00     0.015 A 
ATOM      7  C7  IND d   1       5.948   1.959  -5.139  0.00  0.00    -0.016 A 
ATOM      8  C8  IND d   1       5.416   3.226  -5.335  0.00  0.00    -0.047 A 
ATOM      9  C9  IND d   1       4.108   3.418  -5.797  0.00  0.00    -0.096 A 
ATOM     10  HN1 IND d   1       6.789   4.628  -4.922  0.00  0.00     0.298 HD
ENDROOT
TORSDOF 0
ENDMDL
