MODEL 1
REMARK minimizedAffinity -2.40370369
REMARK minimizedRMSD -1
REMARK  0 active torsions:
REMARK  status: ('A' for Active; 'I' for Inactive)
ROOT
ATOM      1  C   UNL d   1       0.635  -1.217  -1.403  0.00  0.00     0.023 A 
ATOM      2  C1  UNL d   1       0.597  -0.146  -2.296  0.00  0.00     0.003 A 
ATOM      3  C2  UNL d   1       0.552   1.164  -1.815  0.00  0.00     0.048 A 
ATOM      4  C3  UNL d   1       0.547   1.396  -0.440  0.00  0.00     0.023 A 
ATOM      5  C4  UNL d   1       0.587   0.328   0.457  0.00  0.00     0.048 A 
ATOM      6  C5  UNL d   1       0.630  -0.980  -0.029  0.00  0.00     0.003 A 
ATOM      7  I   UNL d   1       0.481   3.346   0.278  0.00  0.00    -0.146 I 
ENDROOT
TORSDOF 0
ENDMDL
