MODEL 1
REMARK minimizedAffinity -4.76612329
REMARK minimizedRMSD -1
REMARK  0 active torsions:
REMARK  status: ('A' for Active; 'I' for Inactive)
ROOT
ATOM      1  C   UNL d   1      -0.309  -2.971   0.384  0.00  0.00     0.023 A 
ATOM      2  C1  UNL d   1       0.697  -2.483  -0.450  0.00  0.00     0.003 A 
ATOM      3  C2  UNL d   1       0.807  -1.110  -0.683  0.00  0.00     0.048 A 
ATOM      4  C3  UNL d   1      -0.090  -0.232  -0.077  0.00  0.00     0.023 A 
ATOM      5  C4  UNL d   1      -1.098  -0.716   0.759  0.00  0.00     0.048 A 
ATOM      6  C5  UNL d   1      -1.205  -2.089   0.988  0.00  0.00     0.003 A 
ATOM      7  I   UNL d   1       0.072   1.811  -0.422  0.00  0.00    -0.146 I 
ENDROOT
TORSDOF 0
ENDMDL
