MODEL 1
REMARK minimizedAffinity -2.48678637
REMARK minimizedRMSD -1
REMARK  0 active torsions:
REMARK  status: ('A' for Active; 'I' for Inactive)
ROOT
ATOM      1  C   UNL d   1      -0.235  -0.217  -0.959  0.00  0.00     0.023 A 
ATOM      2  C1  UNL d   1       0.299  -0.158   0.328  0.00  0.00     0.003 A 
ATOM      3  C2  UNL d   1       0.846   1.035   0.805  0.00  0.00     0.048 A 
ATOM      4  C3  UNL d   1       0.854   2.166  -0.010  0.00  0.00     0.023 A 
ATOM      5  C4  UNL d   1       0.320   2.113  -1.299  0.00  0.00     0.048 A 
ATOM      6  C5  UNL d   1      -0.225   0.917  -1.771  0.00  0.00     0.003 A 
ATOM      7  I   UNL d   1       1.668   3.943   0.698  0.00  0.00    -0.146 I 
ENDROOT
TORSDOF 0
ENDMDL
