MODEL 1
REMARK minimizedAffinity -2.2819314
REMARK minimizedRMSD -1
REMARK  0 active torsions:
REMARK  status: ('A' for Active; 'I' for Inactive)
ROOT
ATOM      1  C   UNL d   1      -0.304  -2.884  -0.066  0.00  0.00     0.023 A 
ATOM      2  C1  UNL d   1      -0.985  -2.201   0.941  0.00  0.00     0.003 A 
ATOM      3  C2  UNL d   1      -0.779  -0.831   1.121  0.00  0.00     0.048 A 
ATOM      4  C3  UNL d   1       0.109  -0.151   0.288  0.00  0.00     0.023 A 
ATOM      5  C4  UNL d   1       0.792  -0.830  -0.722  0.00  0.00     0.048 A 
ATOM      6  C5  UNL d   1       0.583  -2.199  -0.897  0.00  0.00     0.003 A 
ATOM      7  I   UNL d   1       0.417   1.888   0.553  0.00  0.00    -0.146 I 
ENDROOT
TORSDOF 0
ENDMDL
