MODEL 1
REMARK minimizedAffinity -3.00302696
REMARK minimizedRMSD -1
REMARK  0 active torsions:
REMARK  status: ('A' for Active; 'I' for Inactive)
ROOT
ATOM      1  C   UNL d   1      -0.884  -1.629   1.581  0.00  0.00     0.023 A 
ATOM      2  C1  UNL d   1      -0.149  -2.493   0.771  0.00  0.00     0.003 A 
ATOM      3  C2  UNL d   1       0.425  -2.024  -0.413  0.00  0.00     0.048 A 
ATOM      4  C3  UNL d   1       0.260  -0.689  -0.779  0.00  0.00     0.023 A 
ATOM      5  C4  UNL d   1      -0.475   0.180   0.030  0.00  0.00     0.048 A 
ATOM      6  C5  UNL d   1      -1.047  -0.294   1.211  0.00  0.00     0.003 A 
ATOM      7  I   UNL d   1       1.113   0.012  -2.540  0.00  0.00    -0.146 I 
ENDROOT
TORSDOF 0
ENDMDL
