MODEL 1
REMARK minimizedAffinity -0.438500226
REMARK minimizedRMSD -1
REMARK  0 active torsions:
REMARK  status: ('A' for Active; 'I' for Inactive)
ROOT
ATOM      1  C   UNL d   1      -0.010  -2.031  -0.065  0.00  0.00     0.023 A 
ATOM      2  C1  UNL d   1       0.701  -1.233  -0.962  0.00  0.00     0.003 A 
ATOM      3  C2  UNL d   1       0.791   0.144  -0.754  0.00  0.00     0.048 A 
ATOM      4  C3  UNL d   1       0.169   0.718   0.354  0.00  0.00     0.023 A 
ATOM      5  C4  UNL d   1      -0.543  -0.076   1.255  0.00  0.00     0.048 A 
ATOM      6  C5  UNL d   1      -0.631  -1.453   1.042  0.00  0.00     0.003 A 
ATOM      7  I   UNL d   1       0.302   2.769   0.667  0.00  0.00    -0.146 I 
ENDROOT
TORSDOF 0
ENDMDL
