MODEL 1
REMARK minimizedAffinity -2.16166663
REMARK minimizedRMSD -1
REMARK  0 active torsions:
REMARK  status: ('A' for Active; 'I' for Inactive)
ROOT
ATOM      1  C   UNL d   1      -0.010  -1.527  -1.200  0.00  0.00     0.023 A 
ATOM      2  C1  UNL d   1       0.383  -0.419  -1.951  0.00  0.00     0.003 A 
ATOM      3  C2  UNL d   1       0.451   0.842  -1.355  0.00  0.00     0.048 A 
ATOM      4  C3  UNL d   1       0.126   0.987  -0.006  0.00  0.00     0.023 A 
ATOM      5  C4  UNL d   1      -0.267  -0.119   0.749  0.00  0.00     0.048 A 
ATOM      6  C5  UNL d   1      -0.334  -1.377   0.148  0.00  0.00     0.003 A 
ATOM      7  I   UNL d   1       0.227   2.863   0.884  0.00  0.00    -0.146 I 
ENDROOT
TORSDOF 0
ENDMDL
