MODEL 1
REMARK minimizedAffinity -2.9948566
REMARK minimizedRMSD -1
REMARK  0 active torsions:
REMARK  status: ('A' for Active; 'I' for Inactive)
ROOT
ATOM      1  C   UNL d   1      -0.418  -3.225  -0.094  0.00  0.00     0.023 A 
ATOM      2  C1  UNL d   1      -0.575  -2.474   1.071  0.00  0.00     0.003 A 
ATOM      3  C2  UNL d   1      -0.292  -1.107   1.066  0.00  0.00     0.048 A 
ATOM      4  C3  UNL d   1       0.148  -0.496  -0.108  0.00  0.00     0.023 A 
ATOM      5  C4  UNL d   1       0.305  -1.243  -1.277  0.00  0.00     0.048 A 
ATOM      6  C5  UNL d   1       0.022  -2.610  -1.266  0.00  0.00     0.003 A 
ATOM      7  I   UNL d   1       0.570   1.539  -0.118  0.00  0.00    -0.146 I 
ENDROOT
TORSDOF 0
ENDMDL
