MODEL 1
REMARK minimizedAffinity -4.17287207
REMARK minimizedRMSD -1
REMARK  0 active torsions:
REMARK  status: ('A' for Active; 'I' for Inactive)
ROOT
ATOM      1  C   UNL d   1       0.457  -3.337  -1.407  0.00  0.00     0.023 A 
ATOM      2  C1  UNL d   1       0.561  -2.307  -2.341  0.00  0.00     0.003 A 
ATOM      3  C2  UNL d   1       0.459  -0.977  -1.931  0.00  0.00     0.048 A 
ATOM      4  C3  UNL d   1       0.254  -0.683  -0.583  0.00  0.00     0.023 A 
ATOM      5  C4  UNL d   1       0.150  -1.710   0.356  0.00  0.00     0.048 A 
ATOM      6  C5  UNL d   1       0.252  -3.039  -0.059  0.00  0.00     0.003 A 
ATOM      7  I   UNL d   1       0.101   1.297   0.031  0.00  0.00    -0.146 I 
ENDROOT
TORSDOF 0
ENDMDL
