MODEL 1
REMARK minimizedAffinity -3.28421855
REMARK minimizedRMSD -1
REMARK  0 active torsions:
REMARK  status: ('A' for Active; 'I' for Inactive)
ROOT
ATOM      1  C   UNL d   1      -0.480  -2.986   0.757  0.00  0.00     0.023 A 
ATOM      2  C1  UNL d   1      -1.459  -2.012   0.954  0.00  0.00     0.003 A 
ATOM      3  C2  UNL d   1      -1.206  -0.685   0.599  0.00  0.00     0.048 A 
ATOM      4  C3  UNL d   1       0.027  -0.340   0.047  0.00  0.00     0.023 A 
ATOM      5  C4  UNL d   1       1.009  -1.312  -0.152  0.00  0.00     0.048 A 
ATOM      6  C5  UNL d   1       0.752  -2.637   0.205  0.00  0.00     0.003 A 
ATOM      7  I   UNL d   1       0.406   1.634  -0.482  0.00  0.00    -0.146 I 
ENDROOT
TORSDOF 0
ENDMDL
