MODEL 1
REMARK minimizedAffinity -2.14708304
REMARK minimizedRMSD -1
REMARK  1 active torsions:
REMARK  status: ('A' for Active; 'I' for Inactive)
REMARK    1  A    between atoms: C1_2  and  C2_3 
ROOT
ATOM      1  C2  UNL d   1       1.183   1.146   0.293  0.00  0.00    -0.076 A 
ATOM      2  C3  UNL d   1      -0.145   0.817   0.617  0.00  0.00     0.004 A 
ATOM      3  C4  UNL d   1      -0.675  -0.430   0.289  0.00  0.00    -0.003 A 
ATOM      4  C5  UNL d   1       0.113  -1.368  -0.368  0.00  0.00     0.000 A 
ATOM      5  C6  UNL d   1       1.438  -1.065  -0.681  0.00  0.00     0.000 A 
ATOM      6  C7  UNL d   1       1.993   0.181  -0.343  0.00  0.00    -0.073 A 
ATOM      7  C8  UNL d   1       3.426   0.457  -0.710  0.00  0.00     0.078 C 
ENDROOT
BRANCH   1   8
ATOM      8  C1  UNL d   1       1.695   2.523   0.650  0.00  0.00     0.053 C 
ATOM      9  C   UNL d   1       2.691   2.495   1.800  0.00  0.00     0.018 C 
ENDBRANCH   1   8
TORSDOF 1
ENDMDL
