MODEL 1
REMARK minimizedAffinity -4.08151388
REMARK minimizedRMSD -1
REMARK  1 active torsions:
REMARK  status: ('A' for Active; 'I' for Inactive)
REMARK    1  A    between atoms: C1_2  and  C2_3 
ROOT
ATOM      1  C2  UNL d   1      -0.498   0.024  -0.023  0.00  0.00    -0.076 A 
ATOM      2  C3  UNL d   1       0.814   0.264  -0.467  0.00  0.00     0.004 A 
ATOM      3  C4  UNL d   1       1.565   1.319   0.049  0.00  0.00    -0.003 A 
ATOM      4  C5  UNL d   1       1.015   2.151   1.018  0.00  0.00     0.000 A 
ATOM      5  C6  UNL d   1      -0.278   1.917   1.483  0.00  0.00     0.000 A 
ATOM      6  C7  UNL d   1      -1.043   0.848   0.985  0.00  0.00    -0.073 A 
ATOM      7  C8  UNL d   1      -2.434   0.646   1.518  0.00  0.00     0.078 C 
ENDROOT
BRANCH   1   8
ATOM      8  C1  UNL d   1      -1.274  -1.119  -0.638  0.00  0.00     0.053 C 
ATOM      9  C   UNL d   1      -1.660  -0.849  -2.084  0.00  0.00     0.018 C 
ENDBRANCH   1   8
TORSDOF 1
ENDMDL
