MODEL 1
REMARK minimizedAffinity -6.04144526
REMARK minimizedRMSD -1
REMARK  1 active torsions:
REMARK  status: ('A' for Active; 'I' for Inactive)
REMARK    1  A    between atoms: C1_2  and  C2_3 
ROOT
ATOM      1  C2  UNL d   1       0.221  -0.288   0.041  0.00  0.00    -0.076 A 
ATOM      2  C3  UNL d   1      -0.385   0.794   0.704  0.00  0.00     0.004 A 
ATOM      3  C4  UNL d   1       0.347   1.932   1.037  0.00  0.00    -0.003 A 
ATOM      4  C5  UNL d   1       1.697   2.008   0.712  0.00  0.00     0.000 A 
ATOM      5  C6  UNL d   1       2.310   0.952   0.038  0.00  0.00     0.000 A 
ATOM      6  C7  UNL d   1       1.582  -0.196  -0.319  0.00  0.00    -0.073 A 
ATOM      7  C8  UNL d   1       2.296  -1.308  -1.039  0.00  0.00     0.078 C 
ENDROOT
BRANCH   1   8
ATOM      8  C1  UNL d   1      -0.617  -1.508  -0.270  0.00  0.00     0.053 C 
ATOM      9  C   UNL d   1      -1.504  -1.310  -1.489  0.00  0.00     0.018 C 
ENDBRANCH   1   8
TORSDOF 1
ENDMDL
