MODEL 1
REMARK minimizedAffinity -5.8735857
REMARK minimizedRMSD -1
REMARK  1 active torsions:
REMARK  status: ('A' for Active; 'I' for Inactive)
REMARK    1  A    between atoms: C1_2  and  C2_3 
ROOT
ATOM      1  C2  UNL d   1       0.468   1.053  -0.277  0.00  0.00    -0.076 A 
ATOM      2  C3  UNL d   1      -0.701   0.392   0.139  0.00  0.00     0.004 A 
ATOM      3  C4  UNL d   1      -0.890  -0.964  -0.120  0.00  0.00    -0.003 A 
ATOM      4  C5  UNL d   1       0.088  -1.682  -0.799  0.00  0.00     0.000 A 
ATOM      5  C6  UNL d   1       1.262  -1.048  -1.204  0.00  0.00     0.000 A 
ATOM      6  C7  UNL d   1       1.475   0.316  -0.936  0.00  0.00    -0.073 A 
ATOM      7  C8  UNL d   1       2.756   0.951  -1.401  0.00  0.00     0.078 C 
ENDROOT
BRANCH   1   8
ATOM      8  C1  UNL d   1       0.605   2.531   0.008  0.00  0.00     0.053 C 
ATOM      9  C   UNL d   1       1.364   2.808   1.297  0.00  0.00     0.018 C 
ENDBRANCH   1   8
TORSDOF 1
ENDMDL
