MODEL 1
REMARK minimizedAffinity -4.08302212
REMARK minimizedRMSD -1
REMARK  1 active torsions:
REMARK  status: ('A' for Active; 'I' for Inactive)
REMARK    1  A    between atoms: C1_2  and  C2_3 
ROOT
ATOM      1  C2  UNL d   1       0.105   0.277   0.070  0.00  0.00    -0.076 A 
ATOM      2  C3  UNL d   1       1.082   1.071  -0.554  0.00  0.00     0.004 A 
ATOM      3  C4  UNL d   1       1.429   2.319  -0.040  0.00  0.00    -0.003 A 
ATOM      4  C5  UNL d   1       0.804   2.793   1.109  0.00  0.00     0.000 A 
ATOM      5  C6  UNL d   1      -0.155   2.011   1.751  0.00  0.00     0.000 A 
ATOM      6  C7  UNL d   1      -0.504   0.744   1.254  0.00  0.00    -0.073 A 
ATOM      7  C8  UNL d   1      -1.550  -0.054   1.984  0.00  0.00     0.078 C 
ENDROOT
BRANCH   1   8
ATOM      8  C1  UNL d   1      -0.249  -1.056  -0.549  0.00  0.00     0.053 C 
ATOM      9  C   UNL d   1      -1.282  -0.927  -1.659  0.00  0.00     0.018 C 
ENDBRANCH   1   8
TORSDOF 1
ENDMDL
