MODEL 1
REMARK minimizedAffinity -3.35538054
REMARK minimizedRMSD -1
REMARK  1 active torsions:
REMARK  status: ('A' for Active; 'I' for Inactive)
REMARK    1  A    between atoms: C1_2  and  C2_3 
ROOT
ATOM      1  C2  UNL d   1       0.714   0.475   0.148  0.00  0.00    -0.076 A 
ATOM      2  C3  UNL d   1       0.103  -0.784   0.279  0.00  0.00     0.004 A 
ATOM      3  C4  UNL d   1      -0.893  -1.003   1.228  0.00  0.00    -0.003 A 
ATOM      4  C5  UNL d   1      -1.296   0.034   2.063  0.00  0.00     0.000 A 
ATOM      5  C6  UNL d   1      -0.713   1.294   1.935  0.00  0.00     0.000 A 
ATOM      6  C7  UNL d   1       0.281   1.536   0.972  0.00  0.00    -0.073 A 
ATOM      7  C8  UNL d   1       0.880   2.913   0.883  0.00  0.00     0.078 C 
ENDROOT
BRANCH   1   8
ATOM      8  C1  UNL d   1       1.808   0.647  -0.881  0.00  0.00     0.053 C 
ATOM      9  C   UNL d   1       2.653  -0.607  -1.047  0.00  0.00     0.018 C 
ENDBRANCH   1   8
TORSDOF 1
ENDMDL
