MODEL 1
REMARK minimizedAffinity -3.27491307
REMARK minimizedRMSD -1
REMARK  1 active torsions:
REMARK  status: ('A' for Active; 'I' for Inactive)
REMARK    1  A    between atoms: C1_2  and  C2_3 
ROOT
ATOM      1  C2  UNL d   1       0.682   1.278   0.204  0.00  0.00    -0.076 A 
ATOM      2  C3  UNL d   1       1.663   0.771  -0.665  0.00  0.00     0.004 A 
ATOM      3  C4  UNL d   1       1.690  -0.580  -1.006  0.00  0.00    -0.003 A 
ATOM      4  C5  UNL d   1       0.736  -1.446  -0.483  0.00  0.00     0.000 A 
ATOM      5  C6  UNL d   1      -0.256  -0.957   0.366  0.00  0.00     0.000 A 
ATOM      6  C7  UNL d   1      -0.307   0.406   0.707  0.00  0.00    -0.073 A 
ATOM      7  C8  UNL d   1      -1.394   0.878   1.633  0.00  0.00     0.078 C 
ENDROOT
BRANCH   1   8
ATOM      8  C1  UNL d   1       0.719   2.748   0.560  0.00  0.00     0.053 C 
ATOM      9  C   UNL d   1       1.383   3.005   1.903  0.00  0.00     0.018 C 
ENDBRANCH   1   8
TORSDOF 1
ENDMDL
