MODEL 1
REMARK minimizedAffinity -4.10306597
REMARK minimizedRMSD -1
REMARK  1 active torsions:
REMARK  status: ('A' for Active; 'I' for Inactive)
REMARK    1  A    between atoms: C1_2  and  C2_3 
ROOT
ATOM      1  C2  UNL d   1       0.456  -0.040   0.044  0.00  0.00    -0.076 A 
ATOM      2  C3  UNL d   1       1.434   0.725  -0.615  0.00  0.00     0.004 A 
ATOM      3  C4  UNL d   1       1.845   1.956  -0.107  0.00  0.00    -0.003 A 
ATOM      4  C5  UNL d   1       1.285   2.443   1.069  0.00  0.00     0.000 A 
ATOM      5  C6  UNL d   1       0.326   1.689   1.746  0.00  0.00     0.000 A 
ATOM      6  C7  UNL d   1      -0.087   0.438   1.256  0.00  0.00    -0.073 A 
ATOM      7  C8  UNL d   1      -1.129  -0.329   2.023  0.00  0.00     0.078 C 
ENDROOT
BRANCH   1   8
ATOM      8  C1  UNL d   1       0.031  -1.355  -0.569  0.00  0.00     0.053 C 
ATOM      9  C   UNL d   1      -1.118  -1.195  -1.553  0.00  0.00     0.018 C 
ENDBRANCH   1   8
TORSDOF 1
ENDMDL
