MODEL 1
REMARK minimizedAffinity -5.77396917
REMARK minimizedRMSD -1
REMARK  1 active torsions:
REMARK  status: ('A' for Active; 'I' for Inactive)
REMARK    1  A    between atoms: C1_2  and  C2_3 
ROOT
ATOM      1  C2  UNL d   1       0.140   0.162   0.047  0.00  0.00    -0.076 A 
ATOM      2  C3  UNL d   1       0.957   1.184  -0.468  0.00  0.00     0.004 A 
ATOM      3  C4  UNL d   1       1.037   2.425   0.162  0.00  0.00    -0.003 A 
ATOM      4  C5  UNL d   1       0.302   2.663   1.318  0.00  0.00     0.000 A 
ATOM      5  C6  UNL d   1      -0.500   1.656   1.853  0.00  0.00     0.000 A 
ATOM      6  C7  UNL d   1      -0.580   0.394   1.238  0.00  0.00    -0.073 A 
ATOM      7  C8  UNL d   1      -1.465  -0.655   1.855  0.00  0.00     0.078 C 
ENDROOT
BRANCH   1   8
ATOM      8  C1  UNL d   1       0.072  -1.153  -0.695  0.00  0.00     0.053 C 
ATOM      9  C   UNL d   1      -0.971  -1.145  -1.802  0.00  0.00     0.018 C 
ENDBRANCH   1   8
TORSDOF 1
ENDMDL
