MODEL 1
REMARK minimizedAffinity -5.47153425
REMARK minimizedRMSD -1
REMARK  1 active torsions:
REMARK  status: ('A' for Active; 'I' for Inactive)
REMARK    1  A    between atoms: C1_2  and  C2_3 
ROOT
ATOM      1  C2  UNL d   1      -0.033   0.142  -0.192  0.00  0.00    -0.076 A 
ATOM      2  C3  UNL d   1       0.979   0.860  -0.852  0.00  0.00     0.004 A 
ATOM      3  C4  UNL d   1       1.440   2.076  -0.349  0.00  0.00    -0.003 A 
ATOM      4  C5  UNL d   1       0.896   2.593   0.821  0.00  0.00     0.000 A 
ATOM      5  C6  UNL d   1      -0.096   1.885   1.499  0.00  0.00     0.000 A 
ATOM      6  C7  UNL d   1      -0.561   0.650   1.015  0.00  0.00    -0.073 A 
ATOM      7  C8  UNL d   1      -1.637  -0.068   1.782  0.00  0.00     0.078 C 
ENDROOT
BRANCH   1   8
ATOM      8  C1  UNL d   1      -0.512  -1.158  -0.798  0.00  0.00     0.053 C 
ATOM      9  C   UNL d   1      -1.082  -0.974  -2.196  0.00  0.00     0.018 C 
ENDBRANCH   1   8
TORSDOF 1
ENDMDL
