MODEL 1
REMARK minimizedAffinity -5.06128311
REMARK minimizedRMSD -1
REMARK  1 active torsions:
REMARK  status: ('A' for Active; 'I' for Inactive)
REMARK    1  A    between atoms: C1_2  and  C2_3 
ROOT
ATOM      1  C2  UNL d   1       0.149   0.533   0.049  0.00  0.00    -0.076 A 
ATOM      2  C3  UNL d   1       1.439   0.914  -0.359  0.00  0.00     0.004 A 
ATOM      3  C4  UNL d   1       2.173   1.851   0.368  0.00  0.00    -0.003 A 
ATOM      4  C5  UNL d   1       1.628   2.420   1.514  0.00  0.00     0.000 A 
ATOM      5  C6  UNL d   1       0.357   2.040   1.942  0.00  0.00     0.000 A 
ATOM      6  C7  UNL d   1      -0.390   1.086   1.230  0.00  0.00    -0.073 A 
ATOM      7  C8  UNL d   1      -1.758   0.718   1.734  0.00  0.00     0.078 C 
ENDROOT
BRANCH   1   8
ATOM      8  C1  UNL d   1      -0.611  -0.467  -0.794  0.00  0.00     0.053 C 
ATOM      9  C   UNL d   1      -0.182  -1.901  -0.525  0.00  0.00     0.018 C 
ENDBRANCH   1   8
TORSDOF 1
ENDMDL
