MODEL 1
REMARK minimizedAffinity -3.23105669
REMARK minimizedRMSD -1
REMARK  1 active torsions:
REMARK  status: ('A' for Active; 'I' for Inactive)
REMARK    1  A    between atoms: C1_2  and  C2_3 
ROOT
ATOM      1  C2  UNL d   1       0.196   0.063   0.253  0.00  0.00    -0.076 A 
ATOM      2  C3  UNL d   1      -0.810   0.651   1.040  0.00  0.00     0.004 A 
ATOM      3  C4  UNL d   1      -0.520   1.706   1.903  0.00  0.00    -0.003 A 
ATOM      4  C5  UNL d   1       0.780   2.191   1.993  0.00  0.00     0.000 A 
ATOM      5  C6  UNL d   1       1.787   1.631   1.207  0.00  0.00     0.000 A 
ATOM      6  C7  UNL d   1       1.508   0.577   0.320  0.00  0.00    -0.073 A 
ATOM      7  C8  UNL d   1       2.634   0.007  -0.500  0.00  0.00     0.078 C 
ENDROOT
BRANCH   1   8
ATOM      8  C1  UNL d   1      -0.172  -1.097  -0.645  0.00  0.00     0.053 C 
ATOM      9  C   UNL d   1      -1.165  -0.703  -1.728  0.00  0.00     0.018 C 
ENDBRANCH   1   8
TORSDOF 1
ENDMDL
