MODEL 1
REMARK minimizedAffinity -0.9979918
REMARK minimizedRMSD -1
REMARK  1 active torsions:
REMARK  status: ('A' for Active; 'I' for Inactive)
REMARK    1  A    between atoms: C1_2  and  C2_3 
ROOT
ATOM      1  C2  UNL d   1      -0.408  -0.270   0.176  0.00  0.00    -0.076 A 
ATOM      2  C3  UNL d   1      -1.279   0.391   1.058  0.00  0.00     0.004 A 
ATOM      3  C4  UNL d   1      -0.840   1.467   1.828  0.00  0.00    -0.003 A 
ATOM      4  C5  UNL d   1       0.478   1.900   1.727  0.00  0.00     0.000 A 
ATOM      5  C6  UNL d   1       1.351   1.266   0.844  0.00  0.00     0.000 A 
ATOM      6  C7  UNL d   1       0.920   0.190   0.049  0.00  0.00    -0.073 A 
ATOM      7  C8  UNL d   1       1.907  -0.460  -0.882  0.00  0.00     0.078 C 
ENDROOT
BRANCH   1   8
ATOM      8  C1  UNL d   1      -0.933  -1.448  -0.613  0.00  0.00     0.053 C 
ATOM      9  C   UNL d   1      -1.983  -1.043  -1.636  0.00  0.00     0.018 C 
ENDBRANCH   1   8
TORSDOF 1
ENDMDL
