MODEL 1
REMARK minimizedAffinity -3.93336296
REMARK minimizedRMSD -1
REMARK  1 active torsions:
REMARK  status: ('A' for Active; 'I' for Inactive)
REMARK    1  A    between atoms: C1_2  and  C2_3 
ROOT
ATOM      1  C2  UNL d   1      -0.819   1.171  -1.383  0.00  0.00    -0.077 A 
ATOM      2  C3  UNL d   1      -1.553  -0.020  -1.474  0.00  0.00     0.002 A 
ATOM      3  C4  UNL d   1      -1.713  -0.839  -0.354  0.00  0.00     0.002 A 
ATOM      4  C5  UNL d   1      -1.146  -0.473   0.865  0.00  0.00    -0.004 A 
ATOM      5  C6  UNL d   1      -0.413   0.709   0.965  0.00  0.00     0.002 A 
ATOM      6  C7  UNL d   1      -0.251   1.527  -0.153  0.00  0.00     0.002 A 
ENDROOT
BRANCH   1   7
ATOM      7  C1  UNL d   1      -0.686   2.079  -2.577  0.00  0.00     0.055 C 
ATOM      8  C   UNL d   1      -0.349   3.502  -2.156  0.00  0.00     0.019 C 
ENDBRANCH   1   7
TORSDOF 1
ENDMDL
