MODEL 1
REMARK minimizedAffinity -0.905784965
REMARK minimizedRMSD -1
REMARK  1 active torsions:
REMARK  status: ('A' for Active; 'I' for Inactive)
REMARK    1  A    between atoms: C1_2  and  C2_3 
ROOT
ATOM      1  C2  UNL d   1      -0.339   1.283  -1.785  0.00  0.00    -0.077 A 
ATOM      2  C3  UNL d   1       0.818   1.704  -2.456  0.00  0.00     0.002 A 
ATOM      3  C4  UNL d   1       0.768   2.781  -3.342  0.00  0.00     0.002 A 
ATOM      4  C5  UNL d   1      -0.434   3.449  -3.563  0.00  0.00    -0.004 A 
ATOM      5  C6  UNL d   1      -1.591   3.037  -2.902  0.00  0.00     0.002 A 
ATOM      6  C7  UNL d   1      -1.543   1.959  -2.017  0.00  0.00     0.002 A 
ENDROOT
BRANCH   1   7
ATOM      7  C1  UNL d   1      -0.277   0.152  -0.792  0.00  0.00     0.055 C 
ATOM      8  C   UNL d   1       0.899   0.315   0.160  0.00  0.00     0.019 C 
ENDBRANCH   1   7
TORSDOF 1
ENDMDL
