MODEL 1
REMARK minimizedAffinity -5.27244759
REMARK minimizedRMSD -1
REMARK  1 active torsions:
REMARK  status: ('A' for Active; 'I' for Inactive)
REMARK    1  A    between atoms: C1_2  and  C2_3 
ROOT
ATOM      1  C2  UNL d   1       0.321   0.436   0.100  0.00  0.00    -0.077 A 
ATOM      2  C3  UNL d   1       1.690   0.156   0.213  0.00  0.00     0.002 A 
ATOM      3  C4  UNL d   1       2.220  -0.303   1.420  0.00  0.00     0.002 A 
ATOM      4  C5  UNL d   1       1.388  -0.491   2.522  0.00  0.00    -0.004 A 
ATOM      5  C6  UNL d   1       0.025  -0.214   2.420  0.00  0.00     0.002 A 
ATOM      6  C7  UNL d   1      -0.506   0.247   1.214  0.00  0.00     0.002 A 
ENDROOT
BRANCH   1   7
ATOM      7  C1  UNL d   1      -0.261   0.884  -1.215  0.00  0.00     0.055 C 
ATOM      8  C   UNL d   1       0.036   2.353  -1.480  0.00  0.00     0.019 C 
ENDBRANCH   1   7
TORSDOF 1
ENDMDL
