MODEL 1
REMARK minimizedAffinity -4.71120787
REMARK minimizedRMSD -1
REMARK  1 active torsions:
REMARK  status: ('A' for Active; 'I' for Inactive)
REMARK    1  A    between atoms: C1_2  and  C2_3 
ROOT
ATOM      1  C2  UNL d   1      -0.359  -0.701   0.706  0.00  0.00    -0.077 A 
ATOM      2  C3  UNL d   1      -0.451  -1.160   2.027  0.00  0.00     0.002 A 
ATOM      3  C4  UNL d   1       0.660  -1.721   2.659  0.00  0.00     0.002 A 
ATOM      4  C5  UNL d   1       1.872  -1.823   1.980  0.00  0.00    -0.004 A 
ATOM      5  C6  UNL d   1       1.974  -1.371   0.665  0.00  0.00     0.002 A 
ATOM      6  C7  UNL d   1       0.863  -0.811   0.031  0.00  0.00     0.002 A 
ENDROOT
BRANCH   1   7
ATOM      7  C1  UNL d   1      -1.543  -0.051   0.039  0.00  0.00     0.055 C 
ATOM      8  C   UNL d   1      -2.838  -0.377   0.769  0.00  0.00     0.019 C 
ENDBRANCH   1   7
TORSDOF 1
ENDMDL
