MODEL 1
REMARK minimizedAffinity -4.60936594
REMARK minimizedRMSD -1
REMARK  1 active torsions:
REMARK  status: ('A' for Active; 'I' for Inactive)
REMARK    1  A    between atoms: C1_2  and  C2_3 
ROOT
ATOM      1  C2  UNL d   1      -0.017  -0.295   1.143  0.00  0.00    -0.077 A 
ATOM      2  C3  UNL d   1       1.172   0.039   0.479  0.00  0.00     0.002 A 
ATOM      3  C4  UNL d   1       2.391  -0.495   0.902  0.00  0.00     0.002 A 
ATOM      4  C5  UNL d   1       2.432  -1.367   1.987  0.00  0.00    -0.004 A 
ATOM      5  C6  UNL d   1       1.256  -1.704   2.655  0.00  0.00     0.002 A 
ATOM      6  C7  UNL d   1       0.037  -1.171   2.235  0.00  0.00     0.002 A 
ENDROOT
BRANCH   1   7
ATOM      7  C1  UNL d   1      -1.339   0.240   0.658  0.00  0.00     0.055 C 
ATOM      8  C   UNL d   1      -1.290   0.574  -0.826  0.00  0.00     0.019 C 
ENDBRANCH   1   7
TORSDOF 1
ENDMDL
