MODEL 1
REMARK minimizedAffinity -0.998152733
REMARK minimizedRMSD -1
REMARK  0 active torsions:
REMARK  status: ('A' for Active; 'I' for Inactive)
ROOT
ATOM      1  O1  BZF d   1      -1.641   2.365   0.146  0.00  0.00    -0.204 OA
ATOM      2  C2  BZF d   1      -2.257   2.373   1.382  0.00  0.00     0.174 A 
ATOM      3  C3  BZF d   1      -1.665   1.493   2.217  0.00  0.00    -0.012 A 
ATOM      4  C3A BZF d   1      -0.557   0.965   1.483  0.00  0.00    -0.107 A 
ATOM      5  C4  BZF d   1       0.421   0.059   1.781  0.00  0.00     0.055 A 
ATOM      6  C5  BZF d   1       1.312  -0.292   0.817  0.00  0.00    -0.016 A 
ATOM      7  C6  BZF d   1       1.252   0.238  -0.455  0.00  0.00     0.022 A 
ATOM      8  C7  BZF d   1       0.304   1.144  -0.797  0.00  0.00     0.029 A 
ATOM      9  C7A BZF d   1      -0.578   1.526   0.185  0.00  0.00     0.058 A 
ENDROOT
TORSDOF 0
ENDMDL
