MODEL 1
REMARK minimizedAffinity 1.57361758
REMARK minimizedRMSD -1
REMARK  0 active torsions:
REMARK  status: ('A' for Active; 'I' for Inactive)
ROOT
ATOM      1  O1  BZF d   1      -2.781   0.830   1.063  0.00  0.00    -0.204 OA
ATOM      2  C2  BZF d   1      -3.610   1.935   1.099  0.00  0.00     0.174 A 
ATOM      3  C3  BZF d   1      -3.105   2.886   1.912  0.00  0.00    -0.012 A 
ATOM      4  C3A BZF d   1      -1.838   2.379   2.342  0.00  0.00    -0.107 A 
ATOM      5  C4  BZF d   1      -0.855   2.873   3.151  0.00  0.00     0.055 A 
ATOM      6  C5  BZF d   1       0.225   2.096   3.428  0.00  0.00    -0.016 A 
ATOM      7  C6  BZF d   1       0.351   0.820   2.919  0.00  0.00     0.022 A 
ATOM      8  C7  BZF d   1      -0.596   0.288   2.108  0.00  0.00     0.029 A 
ATOM      9  C7A BZF d   1      -1.672   1.084   1.799  0.00  0.00     0.058 A 
ENDROOT
TORSDOF 0
ENDMDL
