MODEL 1
REMARK minimizedAffinity 6.59994602
REMARK minimizedRMSD -1
REMARK  0 active torsions:
REMARK  status: ('A' for Active; 'I' for Inactive)
ROOT
ATOM      1  O1  BZF d   1       0.865   1.096   0.046  0.00  0.00    -0.204 OA
ATOM      2  C2  BZF d   1       0.557   1.763  -1.124  0.00  0.00     0.174 A 
ATOM      3  C3  BZF d   1      -0.655   2.347  -1.036  0.00  0.00    -0.012 A 
ATOM      4  C3A BZF d   1      -1.095   2.103   0.303  0.00  0.00    -0.107 A 
ATOM      5  C4  BZF d   1      -2.218   2.447   1.000  0.00  0.00     0.055 A 
ATOM      6  C5  BZF d   1      -2.373   1.989   2.270  0.00  0.00    -0.016 A 
ATOM      7  C6  BZF d   1      -1.429   1.182   2.872  0.00  0.00     0.022 A 
ATOM      8  C7  BZF d   1      -0.296   0.818   2.222  0.00  0.00     0.029 A 
ATOM      9  C7A BZF d   1      -0.121   1.307   0.950  0.00  0.00     0.058 A 
ENDROOT
TORSDOF 0
ENDMDL
