MODEL 1
REMARK minimizedAffinity 0.612125635
REMARK minimizedRMSD -1
REMARK  0 active torsions:
REMARK  status: ('A' for Active; 'I' for Inactive)
ROOT
ATOM      1  O1  BZF d   1       0.870   0.242   1.164  0.00  0.00    -0.204 OA
ATOM      2  C2  BZF d   1       1.381   0.293  -0.119  0.00  0.00     0.174 A 
ATOM      3  C3  BZF d   1       0.546   0.964  -0.939  0.00  0.00    -0.012 A 
ATOM      4  C3A BZF d   1      -0.510   1.435  -0.098  0.00  0.00    -0.107 A 
ATOM      5  C4  BZF d   1      -1.632   2.179  -0.328  0.00  0.00     0.055 A 
ATOM      6  C5  BZF d   1      -2.497   2.404   0.696  0.00  0.00    -0.016 A 
ATOM      7  C6  BZF d   1      -2.274   1.896   1.959  0.00  0.00     0.022 A 
ATOM      8  C7  BZF d   1      -1.172   1.157   2.237  0.00  0.00     0.029 A 
ATOM      9  C7A BZF d   1      -0.280   0.956   1.212  0.00  0.00     0.058 A 
ENDROOT
TORSDOF 0
ENDMDL
