MODEL 1
REMARK minimizedAffinity 11.4108
REMARK minimizedRMSD -1
REMARK  0 active torsions:
REMARK  status: ('A' for Active; 'I' for Inactive)
ROOT
ATOM      1  O1  BZF d   1       4.213  -1.523  -5.252  0.00  0.00    -0.204 OA
ATOM      2  C2  BZF d   1       2.912  -1.801  -5.627  0.00  0.00     0.174 A 
ATOM      3  C3  BZF d   1       2.500  -2.969  -5.093  0.00  0.00    -0.012 A 
ATOM      4  C3A BZF d   1       3.580  -3.405  -4.262  0.00  0.00    -0.107 A 
ATOM      5  C4  BZF d   1       3.765  -4.492  -3.456  0.00  0.00     0.055 A 
ATOM      6  C5  BZF d   1       4.963  -4.661  -2.839  0.00  0.00    -0.016 A 
ATOM      7  C6  BZF d   1       6.000  -3.766  -3.009  0.00  0.00     0.022 A 
ATOM      8  C7  BZF d   1       5.863  -2.671  -3.795  0.00  0.00     0.029 A 
ATOM      9  C7A BZF d   1       4.641  -2.480  -4.394  0.00  0.00     0.058 A 
ENDROOT
TORSDOF 0
ENDMDL
