MODEL 1
REMARK minimizedAffinity 6.80522919
REMARK minimizedRMSD -1
REMARK  0 active torsions:
REMARK  status: ('A' for Active; 'I' for Inactive)
ROOT
ATOM      1  O1  BZF d   1       0.484   1.764  -0.633  0.00  0.00    -0.204 OA
ATOM      2  C2  BZF d   1      -0.004   2.167  -1.861  0.00  0.00     0.174 A 
ATOM      3  C3  BZF d   1      -1.285   2.577  -1.755  0.00  0.00    -0.012 A 
ATOM      4  C3A BZF d   1      -1.588   2.508  -0.359  0.00  0.00    -0.107 A 
ATOM      5  C4  BZF d   1      -2.701   2.802   0.376  0.00  0.00     0.055 A 
ATOM      6  C5  BZF d   1      -2.694   2.553   1.712  0.00  0.00    -0.016 A 
ATOM      7  C6  BZF d   1      -1.596   2.008   2.344  0.00  0.00     0.022 A 
ATOM      8  C7  BZF d   1      -0.468   1.704   1.658  0.00  0.00     0.029 A 
ATOM      9  C7A BZF d   1      -0.459   1.984   0.313  0.00  0.00     0.058 A 
ENDROOT
TORSDOF 0
ENDMDL
