MODEL 1
REMARK minimizedAffinity -1.65277803
REMARK minimizedRMSD -1
REMARK  0 active torsions:
REMARK  status: ('A' for Active; 'I' for Inactive)
ROOT
ATOM      1  O1  BZF d   1       0.800   1.338  -0.823  0.00  0.00    -0.204 OA
ATOM      2  C2  BZF d   1       0.303   2.251  -1.733  0.00  0.00     0.174 A 
ATOM      3  C3  BZF d   1      -0.894   2.724  -1.330  0.00  0.00    -0.012 A 
ATOM      4  C3A BZF d   1      -1.119   2.135  -0.046  0.00  0.00    -0.107 A 
ATOM      5  C4  BZF d   1      -2.130   2.231   0.867  0.00  0.00     0.055 A 
ATOM      6  C5  BZF d   1      -2.080   1.468   1.991  0.00  0.00    -0.016 A 
ATOM      7  C6  BZF d   1      -1.038   0.596   2.230  0.00  0.00     0.022 A 
ATOM      8  C7  BZF d   1      -0.010   0.470   1.356  0.00  0.00     0.029 A 
ATOM      9  C7A BZF d   1      -0.042   1.263   0.236  0.00  0.00     0.058 A 
ENDROOT
TORSDOF 0
ENDMDL
