MODEL 1
REMARK minimizedAffinity 8.21897411
REMARK minimizedRMSD -1
REMARK  0 active torsions:
REMARK  status: ('A' for Active; 'I' for Inactive)
ROOT
ATOM      1  O1  BZF d   1       4.838  -3.891  -2.407  0.00  0.00    -0.204 OA
ATOM      2  C2  BZF d   1       4.579  -5.217  -2.693  0.00  0.00     0.174 A 
ATOM      3  C3  BZF d   1       4.860  -6.000  -1.631  0.00  0.00    -0.012 A 
ATOM      4  C3A BZF d   1       5.237  -5.097  -0.587  0.00  0.00    -0.107 A 
ATOM      5  C4  BZF d   1       5.613  -5.270   0.714  0.00  0.00     0.055 A 
ATOM      6  C5  BZF d   1       5.986  -4.186   1.444  0.00  0.00    -0.016 A 
ATOM      7  C6  BZF d   1       6.000  -2.917   0.903  0.00  0.00     0.022 A 
ATOM      8  C7  BZF d   1       5.630  -2.694  -0.382  0.00  0.00     0.029 A 
ATOM      9  C7A BZF d   1       5.221  -3.783  -1.112  0.00  0.00     0.058 A 
ENDROOT
TORSDOF 0
ENDMDL
