MODEL 1
REMARK minimizedAffinity 10.2597456
REMARK minimizedRMSD -1
REMARK  0 active torsions:
REMARK  status: ('A' for Active; 'I' for Inactive)
ROOT
ATOM      1  O1  BZF d   1      -1.113  -0.886  -2.696  0.00  0.00    -0.204 OA
ATOM      2  C2  BZF d   1      -2.473  -0.714  -2.527  0.00  0.00     0.174 A 
ATOM      3  C3  BZF d   1      -2.734   0.461  -1.918  0.00  0.00    -0.012 A 
ATOM      4  C3A BZF d   1      -1.463   1.102  -1.776  0.00  0.00    -0.107 A 
ATOM      5  C4  BZF d   1      -1.070   2.303  -1.259  0.00  0.00     0.055 A 
ATOM      6  C5  BZF d   1       0.256   2.597  -1.205  0.00  0.00    -0.016 A 
ATOM      7  C6  BZF d   1       1.214   1.712  -1.654  0.00  0.00     0.022 A 
ATOM      8  C7  BZF d   1       0.873   0.510  -2.179  0.00  0.00     0.029 A 
ATOM      9  C7A BZF d   1      -0.468   0.225  -2.266  0.00  0.00     0.058 A 
ENDROOT
TORSDOF 0
ENDMDL
