MODEL 1
REMARK minimizedAffinity 9.38659286
REMARK minimizedRMSD -1
REMARK  0 active torsions:
REMARK  status: ('A' for Active; 'I' for Inactive)
ROOT
ATOM      1  O1  BZF d   1      -4.409  -1.966   4.381  0.00  0.00    -0.204 OA
ATOM      2  C2  BZF d   1      -3.114  -2.062   3.909  0.00  0.00     0.174 A 
ATOM      3  C3  BZF d   1      -2.596  -3.278   4.178  0.00  0.00    -0.012 A 
ATOM      4  C3A BZF d   1      -3.663  -4.017   4.779  0.00  0.00    -0.107 A 
ATOM      5  C4  BZF d   1      -3.772  -5.294   5.251  0.00  0.00     0.055 A 
ATOM      6  C5  BZF d   1      -4.931  -5.683   5.844  0.00  0.00    -0.016 A 
ATOM      7  C6  BZF d   1      -5.998  -4.821   5.987  0.00  0.00     0.022 A 
ATOM      8  C7  BZF d   1      -5.940  -3.546   5.530  0.00  0.00     0.029 A 
ATOM      9  C7A BZF d   1      -4.782  -3.160   4.900  0.00  0.00     0.058 A 
ENDROOT
TORSDOF 0
ENDMDL
