MODEL 1
REMARK minimizedAffinity 3.96870351
REMARK minimizedRMSD -1
REMARK  0 active torsions:
REMARK  status: ('A' for Active; 'I' for Inactive)
ROOT
ATOM      1  O1  BZF d   1       5.036  -4.927   1.792  0.00  0.00    -0.204 OA
ATOM      2  C2  BZF d   1       3.750  -5.424   1.871  0.00  0.00     0.174 A 
ATOM      3  C3  BZF d   1       2.853  -4.493   1.485  0.00  0.00    -0.012 A 
ATOM      4  C3A BZF d   1       3.634  -3.373   1.056  0.00  0.00    -0.107 A 
ATOM      5  C4  BZF d   1       3.316  -2.147   0.547  0.00  0.00     0.055 A 
ATOM      6  C5  BZF d   1       4.313  -1.257   0.298  0.00  0.00    -0.016 A 
ATOM      7  C6  BZF d   1       5.635  -1.558   0.550  0.00  0.00     0.022 A 
ATOM      8  C7  BZF d   1       6.000  -2.764   1.049  0.00  0.00     0.029 A 
ATOM      9  C7A BZF d   1       4.998  -3.677   1.271  0.00  0.00     0.058 A 
ENDROOT
TORSDOF 0
ENDMDL
