MODEL 1
REMARK minimizedAffinity 2.80592728
REMARK minimizedRMSD -1
REMARK  0 active torsions:
REMARK  status: ('A' for Active; 'I' for Inactive)
ROOT
ATOM      1  O1  BZF d   1       4.137  -5.024   1.086  0.00  0.00    -0.204 OA
ATOM      2  C2  BZF d   1       2.756  -5.007   1.124  0.00  0.00     0.174 A 
ATOM      3  C3  BZF d   1       2.289  -3.750   0.980  0.00  0.00    -0.012 A 
ATOM      4  C3A BZF d   1       3.447  -2.942   0.750  0.00  0.00    -0.107 A 
ATOM      5  C4  BZF d   1       3.631  -1.609   0.518  0.00  0.00     0.055 A 
ATOM      6  C5  BZF d   1       4.897  -1.126   0.408  0.00  0.00    -0.016 A 
ATOM      7  C6  BZF d   1       6.000  -1.946   0.529  0.00  0.00     0.022 A 
ATOM      8  C7  BZF d   1       5.867  -3.276   0.754  0.00  0.00     0.029 A 
ATOM      9  C7A BZF d   1       4.589  -3.772   0.833  0.00  0.00     0.058 A 
ENDROOT
TORSDOF 0
ENDMDL
