MODEL 1
REMARK minimizedAffinity 4.93850756
REMARK minimizedRMSD -1
REMARK  0 active torsions:
REMARK  status: ('A' for Active; 'I' for Inactive)
ROOT
ATOM      1  O1  BZF d   1       1.193   4.503  -1.382  0.00  0.00    -0.204 OA
ATOM      2  C2  BZF d   1       0.819   5.467  -0.466  0.00  0.00     0.174 A 
ATOM      3  C3  BZF d   1       0.019   4.939   0.483  0.00  0.00    -0.012 A 
ATOM      4  C3A BZF d   1      -0.041   3.540   0.190  0.00  0.00    -0.107 A 
ATOM      5  C4  BZF d   1      -0.667   2.482   0.785  0.00  0.00     0.055 A 
ATOM      6  C5  BZF d   1      -0.584   1.255   0.206  0.00  0.00    -0.016 A 
ATOM      7  C6  BZF d   1       0.112   1.052  -0.968  0.00  0.00     0.022 A 
ATOM      8  C7  BZF d   1       0.753   2.069  -1.592  0.00  0.00     0.029 A 
ATOM      9  C7A BZF d   1       0.698   3.304  -0.992  0.00  0.00     0.058 A 
ENDROOT
TORSDOF 0
ENDMDL
