MODEL 1
REMARK minimizedAffinity 0.532122016
REMARK minimizedRMSD -1
REMARK  0 active torsions:
REMARK  status: ('A' for Active; 'I' for Inactive)
ROOT
ATOM      1  O1  BZF d   1      -3.056   0.829   2.158  0.00  0.00    -0.204 OA
ATOM      2  C2  BZF d   1      -2.360   1.872   1.578  0.00  0.00     0.174 A 
ATOM      3  C3  BZF d   1      -1.031   1.714   1.749  0.00  0.00    -0.012 A 
ATOM      4  C3A BZF d   1      -0.884   0.449   2.402  0.00  0.00    -0.107 A 
ATOM      5  C4  BZF d   1       0.198  -0.268   2.825  0.00  0.00     0.055 A 
ATOM      6  C5  BZF d   1      -0.003  -1.434   3.493  0.00  0.00    -0.016 A 
ATOM      7  C6  BZF d   1      -1.270  -1.909   3.761  0.00  0.00     0.022 A 
ATOM      8  C7  BZF d   1      -2.374  -1.234   3.357  0.00  0.00     0.029 A 
ATOM      9  C7A BZF d   1      -2.174  -0.073   2.652  0.00  0.00     0.058 A 
ENDROOT
TORSDOF 0
ENDMDL
