MODEL 1
REMARK minimizedAffinity 10.8636827
REMARK minimizedRMSD -1
REMARK  0 active torsions:
REMARK  status: ('A' for Active; 'I' for Inactive)
ROOT
ATOM      1  O1  BZF d   1      -2.824   1.298   2.134  0.00  0.00    -0.204 OA
ATOM      2  C2  BZF d   1      -3.333   2.094   1.126  0.00  0.00     0.174 A 
ATOM      3  C3  BZF d   1      -2.434   3.029   0.754  0.00  0.00    -0.012 A 
ATOM      4  C3A BZF d   1      -1.258   2.744   1.517  0.00  0.00    -0.107 A 
ATOM      5  C4  BZF d   1      -0.018   3.313   1.579  0.00  0.00     0.055 A 
ATOM      6  C5  BZF d   1       0.881   2.842   2.482  0.00  0.00    -0.016 A 
ATOM      7  C6  BZF d   1       0.574   1.806   3.340  0.00  0.00     0.022 A 
ATOM      8  C7  BZF d   1      -0.641   1.206   3.312  0.00  0.00     0.029 A 
ATOM      9  C7A BZF d   1      -1.541   1.659   2.379  0.00  0.00     0.058 A 
ENDROOT
TORSDOF 0
ENDMDL
