MODEL 1
REMARK minimizedAffinity 0.792586088
REMARK minimizedRMSD -1
REMARK  0 active torsions:
REMARK  status: ('A' for Active; 'I' for Inactive)
ROOT
ATOM      1  C   UNL d   1       1.704   4.079  -0.841  0.00  0.00     0.020 A 
ATOM      2  C1  UNL d   1       2.718   3.123  -0.830  0.00  0.00     0.020 A 
ATOM      3  C2  UNL d   1       2.532   1.915  -0.155  0.00  0.00     0.034 A 
ATOM      4  C3  UNL d   1       1.329   1.660   0.513  0.00  0.00     0.017 A 
ATOM      5  C4  UNL d   1       0.311   2.621   0.502  0.00  0.00     0.017 A 
ATOM      6  C5  UNL d   1       0.503   3.829  -0.176  0.00  0.00     0.034 A 
ATOM      7 Cl   UNL d   1      -1.201   2.379   1.303  0.00  0.00    -0.070 Cl
ATOM      8 Cl1  UNL d   1       1.167   0.145   1.328  0.00  0.00    -0.070 Cl
ENDROOT
TORSDOF 0
ENDMDL
