MODEL 1
REMARK minimizedAffinity 0.14814274
REMARK minimizedRMSD -1
REMARK  0 active torsions:
REMARK  status: ('A' for Active; 'I' for Inactive)
ROOT
ATOM      1  C   UNL d   1       2.556   1.663   0.883  0.00  0.00     0.020 A 
ATOM      2  C1  UNL d   1       1.457   1.654   0.025  0.00  0.00     0.020 A 
ATOM      3  C2  UNL d   1       0.466   0.680   0.170  0.00  0.00     0.034 A 
ATOM      4  C3  UNL d   1       0.573  -0.288   1.175  0.00  0.00     0.017 A 
ATOM      5  C4  UNL d   1       1.676  -0.278   2.036  0.00  0.00     0.017 A 
ATOM      6  C5  UNL d   1       2.665   0.699   1.886  0.00  0.00     0.034 A 
ATOM      7 Cl   UNL d   1       1.876  -1.440   3.299  0.00  0.00    -0.070 Cl
ATOM      8 Cl1  UNL d   1      -0.690  -1.462   1.296  0.00  0.00    -0.070 Cl
ENDROOT
TORSDOF 0
ENDMDL
