MODEL 1
REMARK minimizedAffinity 3.48485065
REMARK minimizedRMSD -1
REMARK  0 active torsions:
REMARK  status: ('A' for Active; 'I' for Inactive)
ROOT
ATOM      1  C   UNL d   1       2.364   1.887   0.711  0.00  0.00     0.020 A 
ATOM      2  C1  UNL d   1       1.090   1.371   0.944  0.00  0.00     0.020 A 
ATOM      3  C2  UNL d   1      -0.027   1.985   0.373  0.00  0.00     0.034 A 
ATOM      4  C3  UNL d   1       0.127   3.118  -0.433  0.00  0.00     0.017 A 
ATOM      5  C4  UNL d   1       1.407   3.636  -0.666  0.00  0.00     0.017 A 
ATOM      6  C5  UNL d   1       2.522   3.017  -0.093  0.00  0.00     0.034 A 
ATOM      7 Cl   UNL d   1       1.677   5.031  -1.650  0.00  0.00    -0.070 Cl
ATOM      8 Cl1  UNL d   1      -1.298   3.826  -1.106  0.00  0.00    -0.070 Cl
ENDROOT
TORSDOF 0
ENDMDL
