MODEL 1
REMARK minimizedAffinity 8.70981121
REMARK minimizedRMSD -1
REMARK  0 active torsions:
REMARK  status: ('A' for Active; 'I' for Inactive)
ROOT
ATOM      1  C   UNL d   1       2.042   1.573   0.839  0.00  0.00     0.020 A 
ATOM      2  C1  UNL d   1       2.999   1.406   1.840  0.00  0.00     0.020 A 
ATOM      3  C2  UNL d   1       2.924   0.310   2.701  0.00  0.00     0.034 A 
ATOM      4  C3  UNL d   1       1.890  -0.624   2.564  0.00  0.00     0.017 A 
ATOM      5  C4  UNL d   1       0.930  -0.455   1.560  0.00  0.00     0.017 A 
ATOM      6  C5  UNL d   1       1.010   0.644   0.700  0.00  0.00     0.034 A 
ATOM      7 Cl   UNL d   1      -0.374  -1.565   1.328  0.00  0.00    -0.070 Cl
ATOM      8 Cl1  UNL d   1       1.860  -1.956   3.664  0.00  0.00    -0.070 Cl
ENDROOT
TORSDOF 0
ENDMDL
