MODEL 1
REMARK minimizedAffinity 3.30263805
REMARK minimizedRMSD -1
REMARK  0 active torsions:
REMARK  status: ('A' for Active; 'I' for Inactive)
ROOT
ATOM      1  C   UNL d   1      -2.224  -3.217  -0.808  0.00  0.00     0.020 A 
ATOM      2  C1  UNL d   1      -1.825  -3.297  -2.142  0.00  0.00     0.020 A 
ATOM      3  C2  UNL d   1      -0.624  -2.710  -2.547  0.00  0.00     0.034 A 
ATOM      4  C3  UNL d   1       0.182  -2.042  -1.619  0.00  0.00     0.017 A 
ATOM      5  C4  UNL d   1      -0.220  -1.962  -0.280  0.00  0.00     0.017 A 
ATOM      6  C5  UNL d   1      -1.423  -2.551   0.120  0.00  0.00     0.034 A 
ATOM      7 Cl   UNL d   1       0.721  -1.154   0.923  0.00  0.00    -0.070 Cl
ATOM      8 Cl1  UNL d   1       1.654  -1.340  -2.190  0.00  0.00    -0.070 Cl
ENDROOT
TORSDOF 0
ENDMDL
