MODEL 1
REMARK minimizedAffinity -0.749406576
REMARK minimizedRMSD -1
REMARK  0 active torsions:
REMARK  status: ('A' for Active; 'I' for Inactive)
ROOT
ATOM      1  C   UNL d   1       2.959   1.348   1.104  0.00  0.00     0.020 A 
ATOM      2  C1  UNL d   1       1.982   1.362   0.110  0.00  0.00     0.020 A 
ATOM      3  C2  UNL d   1       0.917   0.460   0.164  0.00  0.00     0.034 A 
ATOM      4  C3  UNL d   1       0.827  -0.460   1.216  0.00  0.00     0.017 A 
ATOM      5  C4  UNL d   1       1.808  -0.473   2.214  0.00  0.00     0.017 A 
ATOM      6  C5  UNL d   1       2.872   0.433   2.154  0.00  0.00     0.034 A 
ATOM      7 Cl   UNL d   1       1.765  -1.577   3.542  0.00  0.00    -0.070 Cl
ATOM      8 Cl1  UNL d   1      -0.517  -1.546   1.220  0.00  0.00    -0.070 Cl
ENDROOT
TORSDOF 0
ENDMDL
