MODEL 1
REMARK minimizedAffinity 2.39440322
REMARK minimizedRMSD -1
REMARK  0 active torsions:
REMARK  status: ('A' for Active; 'I' for Inactive)
ROOT
ATOM      1  C   UNL d   1       1.851  -1.503  -1.926  0.00  0.00     0.020 A 
ATOM      2  C1  UNL d   1       1.069  -1.752  -3.052  0.00  0.00     0.020 A 
ATOM      3  C2  UNL d   1      -0.311  -1.921  -2.920  0.00  0.00     0.034 A 
ATOM      4  C3  UNL d   1      -0.913  -1.842  -1.659  0.00  0.00     0.017 A 
ATOM      5  C4  UNL d   1      -0.126  -1.591  -0.529  0.00  0.00     0.017 A 
ATOM      6  C5  UNL d   1       1.255  -1.422  -0.667  0.00  0.00     0.034 A 
ATOM      7 Cl   UNL d   1      -0.796  -1.479   1.060  0.00  0.00    -0.070 Cl
ATOM      8 Cl1  UNL d   1      -2.624  -2.061  -1.570  0.00  0.00    -0.070 Cl
ENDROOT
TORSDOF 0
ENDMDL
