MODEL 1
REMARK minimizedAffinity 0.896841526
REMARK minimizedRMSD -1
REMARK  0 active torsions:
REMARK  status: ('A' for Active; 'I' for Inactive)
ROOT
ATOM      1  C   UNL d   1       1.515   1.841   0.187  0.00  0.00     0.020 A 
ATOM      2  C1  UNL d   1       2.685   1.658   0.923  0.00  0.00     0.020 A 
ATOM      3  C2  UNL d   1       2.751   0.652   1.890  0.00  0.00     0.034 A 
ATOM      4  C3  UNL d   1       1.646  -0.175   2.122  0.00  0.00     0.017 A 
ATOM      5  C4  UNL d   1       0.472   0.010   1.383  0.00  0.00     0.017 A 
ATOM      6  C5  UNL d   1       0.411   1.019   0.416  0.00  0.00     0.034 A 
ATOM      7 Cl   UNL d   1      -0.932  -0.970   1.613  0.00  0.00    -0.070 Cl
ATOM      8 Cl1  UNL d   1       1.799  -1.399   3.332  0.00  0.00    -0.070 Cl
ENDROOT
TORSDOF 0
ENDMDL
