MODEL 1
REMARK minimizedAffinity -4.11421442
REMARK minimizedRMSD -1
REMARK  1 active torsions:
REMARK  status: ('A' for Active; 'I' for Inactive)
REMARK    1  A    between atoms: C1_2  and  C2_3 
ROOT
ATOM      1  C2  UNL d   1       0.208   0.441  -0.082  0.00  0.00    -0.077 A 
ATOM      2  C3  UNL d   1       0.287  -0.948   0.091  0.00  0.00     0.002 A 
ATOM      3  C4  UNL d   1       1.523  -1.565   0.294  0.00  0.00     0.002 A 
ATOM      4  C5  UNL d   1       2.687  -0.802   0.331  0.00  0.00    -0.004 A 
ATOM      5  C6  UNL d   1       2.620   0.580   0.158  0.00  0.00     0.002 A 
ATOM      6  C7  UNL d   1       1.385   1.199  -0.046  0.00  0.00     0.002 A 
ENDROOT
BRANCH   1   7
ATOM      7  C1  UNL d   1      -1.129   1.114  -0.252  0.00  0.00     0.055 C 
ATOM      8  C   UNL d   1      -1.380   1.485  -1.706  0.00  0.00     0.019 C 
ENDBRANCH   1   7
TORSDOF 1
ENDMDL
