MODEL 1
REMARK minimizedAffinity -4.83140182
REMARK minimizedRMSD -1
REMARK  1 active torsions:
REMARK  status: ('A' for Active; 'I' for Inactive)
REMARK    1  A    between atoms: C1_2  and  C2_3 
ROOT
ATOM      1  C2  UNL d   1       1.798  -0.779   1.373  0.00  0.00    -0.077 A 
ATOM      2  C3  UNL d   1       2.883   0.092   1.199  0.00  0.00     0.002 A 
ATOM      3  C4  UNL d   1       2.703   1.329   0.577  0.00  0.00     0.002 A 
ATOM      4  C5  UNL d   1       1.440   1.708   0.127  0.00  0.00    -0.004 A 
ATOM      5  C6  UNL d   1       0.355   0.848   0.293  0.00  0.00     0.002 A 
ATOM      6  C7  UNL d   1       0.533  -0.389   0.914  0.00  0.00     0.002 A 
ENDROOT
BRANCH   1   7
ATOM      7  C1  UNL d   1       1.979  -2.092   2.088  0.00  0.00     0.055 C 
ATOM      8  C   UNL d   1       0.667  -2.857   2.183  0.00  0.00     0.019 C 
ENDBRANCH   1   7
TORSDOF 1
ENDMDL
