MODEL 1
REMARK minimizedAffinity -3.1133883
REMARK minimizedRMSD -1
REMARK  1 active torsions:
REMARK  status: ('A' for Active; 'I' for Inactive)
REMARK    1  A    between atoms: C1_2  and  C2_3 
ROOT
ATOM      1  C2  UNL d   1      -1.651  -0.366  -0.704  0.00  0.00    -0.077 A 
ATOM      2  C3  UNL d   1      -1.583  -1.434  -1.610  0.00  0.00     0.002 A 
ATOM      3  C4  UNL d   1      -2.311  -1.396  -2.801  0.00  0.00     0.002 A 
ATOM      4  C5  UNL d   1      -3.107  -0.292  -3.099  0.00  0.00    -0.004 A 
ATOM      5  C6  UNL d   1      -3.182   0.774  -2.203  0.00  0.00     0.002 A 
ATOM      6  C7  UNL d   1      -2.457   0.738  -1.012  0.00  0.00     0.002 A 
ENDROOT
BRANCH   1   7
ATOM      7  C1  UNL d   1      -0.829  -0.382   0.559  0.00  0.00     0.055 C 
ATOM      8  C   UNL d   1       0.615  -0.767   0.274  0.00  0.00     0.019 C 
ENDBRANCH   1   7
TORSDOF 1
ENDMDL
