MODEL 1
REMARK minimizedAffinity -5.77415991
REMARK minimizedRMSD -1
REMARK  1 active torsions:
REMARK  status: ('A' for Active; 'I' for Inactive)
REMARK    1  A    between atoms: C1_2  and  C2_3 
ROOT
ATOM      1  C2  UNL d   1       0.269   0.305   0.190  0.00  0.00    -0.077 A 
ATOM      2  C3  UNL d   1       1.015  -0.883   0.170  0.00  0.00     0.002 A 
ATOM      3  C4  UNL d   1       2.378  -0.866   0.473  0.00  0.00     0.002 A 
ATOM      4  C5  UNL d   1       3.005   0.334   0.801  0.00  0.00    -0.004 A 
ATOM      5  C6  UNL d   1       2.273   1.520   0.822  0.00  0.00     0.002 A 
ATOM      6  C7  UNL d   1       0.911   1.506   0.519  0.00  0.00     0.002 A 
ENDROOT
BRANCH   1   7
ATOM      7  C1  UNL d   1      -1.211   0.281  -0.088  0.00  0.00     0.055 C 
ATOM      8  C   UNL d   1      -1.502  -0.207  -1.499  0.00  0.00     0.019 C 
ENDBRANCH   1   7
TORSDOF 1
ENDMDL
