MODEL 1
REMARK minimizedAffinity 5.21145296
REMARK minimizedRMSD -1
REMARK  1 active torsions:
REMARK  status: ('A' for Active; 'I' for Inactive)
REMARK    1  A    between atoms: C3_4  and  O_7 
ROOT
ATOM      1  C   UNL d   1      -3.240  -0.898   0.917  0.00  0.00    -0.033 A 
ATOM      2  C1  UNL d   1      -2.941  -1.942   1.794  0.00  0.00     0.039 A 
ATOM      3  C2  UNL d   1      -2.286  -3.083   1.327  0.00  0.00    -0.080 A 
ATOM      4  C3  UNL d   1      -1.935  -3.167  -0.018  0.00  0.00     0.150 A 
ATOM      5  C4  UNL d   1      -2.226  -2.129  -0.897  0.00  0.00    -0.007 A 
ATOM      6  C5  UNL d   1      -2.881  -0.991  -0.428  0.00  0.00     0.039 A 
ENDROOT
BRANCH   4   7
ATOM      7  O   UNL d   1      -1.298  -4.262  -0.521  0.00  0.00    -0.526 OA
ATOM      8  H5  UNL d   1      -1.188  -4.910   0.195  0.00  0.00     0.418 HD
ENDBRANCH   4   7
TORSDOF 1
ENDMDL
