MODEL 1
REMARK minimizedAffinity -0.961334884
REMARK minimizedRMSD -1
REMARK  1 active torsions:
REMARK  status: ('A' for Active; 'I' for Inactive)
REMARK    1  A    between atoms: C3_4  and  O_7 
ROOT
ATOM      1  C   UNL d   1      -5.947  -0.818  -1.008  0.00  0.00    -0.033 A 
ATOM      2  C1  UNL d   1      -5.231   0.345  -0.717  0.00  0.00     0.039 A 
ATOM      3  C2  UNL d   1      -4.363   0.377   0.376  0.00  0.00    -0.080 A 
ATOM      4  C3  UNL d   1      -4.219  -0.759   1.168  0.00  0.00     0.150 A 
ATOM      5  C4  UNL d   1      -4.926  -1.922   0.881  0.00  0.00    -0.007 A 
ATOM      6  C5  UNL d   1      -5.793  -1.952  -0.210  0.00  0.00     0.039 A 
ENDROOT
BRANCH   4   7
ATOM      7  O   UNL d   1      -3.387  -0.774   2.248  0.00  0.00    -0.526 OA
ATOM      8  H5  UNL d   1      -2.987   0.106   2.341  0.00  0.00     0.418 HD
ENDBRANCH   4   7
TORSDOF 1
ENDMDL
