MODEL 1
REMARK minimizedAffinity 12.0474529
REMARK minimizedRMSD -1
REMARK  1 active torsions:
REMARK  status: ('A' for Active; 'I' for Inactive)
REMARK    1  A    between atoms: C3_4  and  O_7 
ROOT
ATOM      1  C   UNL d   1      -5.068  -0.812   0.506  0.00  0.00    -0.033 A 
ATOM      2  C1  UNL d   1      -4.282   0.226   1.013  0.00  0.00     0.039 A 
ATOM      3  C2  UNL d   1      -4.052   1.369   0.245  0.00  0.00    -0.080 A 
ATOM      4  C3  UNL d   1      -4.613   1.463  -1.025  0.00  0.00     0.150 A 
ATOM      5  C4  UNL d   1      -5.400   0.435  -1.535  0.00  0.00    -0.007 A 
ATOM      6  C5  UNL d   1      -5.628  -0.706  -0.768  0.00  0.00     0.039 A 
ENDROOT
BRANCH   4   7
ATOM      7  O   UNL d   1      -4.413   2.557  -1.813  0.00  0.00    -0.526 OA
ATOM      8  H5  UNL d   1      -3.827   3.173  -1.342  0.00  0.00     0.418 HD
ENDBRANCH   4   7
TORSDOF 1
ENDMDL
