MODEL 1
REMARK minimizedAffinity 12.6489534
REMARK minimizedRMSD -1
REMARK  1 active torsions:
REMARK  status: ('A' for Active; 'I' for Inactive)
REMARK    1  A    between atoms: C3_4  and  O_7 
ROOT
ATOM      1  C   UNL d   1      -3.775   0.111   0.702  0.00  0.00    -0.033 A 
ATOM      2  C1  UNL d   1      -4.507  -0.052  -0.476  0.00  0.00     0.039 A 
ATOM      3  C2  UNL d   1      -3.873  -0.499  -1.637  0.00  0.00    -0.080 A 
ATOM      4  C3  UNL d   1      -2.511  -0.781  -1.607  0.00  0.00     0.150 A 
ATOM      5  C4  UNL d   1      -1.776  -0.625  -0.436  0.00  0.00    -0.007 A 
ATOM      6  C5  UNL d   1      -2.410  -0.177   0.722  0.00  0.00     0.039 A 
ENDROOT
BRANCH   4   7
ATOM      7  O   UNL d   1      -1.848  -1.216  -2.716  0.00  0.00    -0.526 OA
ATOM      8  H5  UNL d   1      -2.476  -1.250  -3.457  0.00  0.00     0.418 HD
ENDBRANCH   4   7
TORSDOF 1
ENDMDL
