MODEL 1
REMARK minimizedAffinity 7.84275913
REMARK minimizedRMSD -1
REMARK  1 active torsions:
REMARK  status: ('A' for Active; 'I' for Inactive)
REMARK    1  A    between atoms: C3_4  and  O_7 
ROOT
ATOM      1  C   UNL d   1       5.092   0.379   2.375  0.00  0.00    -0.033 A 
ATOM      2  C1  UNL d   1       5.999   1.317   1.878  0.00  0.00     0.039 A 
ATOM      3  C2  UNL d   1       5.921   1.728   0.546  0.00  0.00    -0.080 A 
ATOM      4  C3  UNL d   1       4.932   1.196  -0.276  0.00  0.00     0.150 A 
ATOM      5  C4  UNL d   1       4.023   0.264   0.213  0.00  0.00    -0.007 A 
ATOM      6  C5  UNL d   1       4.103  -0.146   1.543  0.00  0.00     0.039 A 
ENDROOT
BRANCH   4   7
ATOM      7  O   UNL d   1       4.819   1.563  -1.584  0.00  0.00    -0.526 OA
ATOM      8  H5  UNL d   1       5.532   2.191  -1.790  0.00  0.00     0.418 HD
ENDBRANCH   4   7
TORSDOF 1
ENDMDL
