MODEL 1
REMARK minimizedAffinity 11.4660215
REMARK minimizedRMSD -1
REMARK  2 active torsions:
REMARK  status: ('A' for Active; 'I' for Inactive)
REMARK    1  A    between atoms: C1_2  and  C2_3 
REMARK    2  A    between atoms: C2_3  and  C3_4 
ROOT
ATOM      1  C3  UNL d   1       4.970   1.270   1.272  0.00  0.00    -0.075 A 
ATOM      2  C4  UNL d   1       5.533   0.119   1.842  0.00  0.00     0.002 A 
ATOM      3  C5  UNL d   1       5.997   0.135   3.158  0.00  0.00     0.002 A 
ATOM      4  C6  UNL d   1       5.913   1.302   3.915  0.00  0.00    -0.004 A 
ATOM      5  C7  UNL d   1       5.370   2.455   3.353  0.00  0.00     0.002 A 
ATOM      6  C8  UNL d   1       4.901   2.441   2.038  0.00  0.00     0.002 A 
ENDROOT
BRANCH   1   7
ATOM      7  C2  UNL d   1       4.439   1.251  -0.142  0.00  0.00     0.056 C 
BRANCH   7   8
ATOM      8  C1  UNL d   1       2.910   1.258  -0.235  0.00  0.00     0.007 C 
ATOM      9  C   UNL d   1       2.279  -0.075   0.146  0.00  0.00     0.009 C 
ENDBRANCH   7   8
ENDBRANCH   1   7
TORSDOF 2
ENDMDL
