MODEL 1
REMARK minimizedAffinity 6.30584955
REMARK minimizedRMSD -1
REMARK  2 active torsions:
REMARK  status: ('A' for Active; 'I' for Inactive)
REMARK    1  A    between atoms: C1_2  and  C2_3 
REMARK    2  A    between atoms: C2_3  and  C3_4 
ROOT
ATOM      1  C3  UNL d   1       3.482   0.265   0.377  0.00  0.00    -0.075 A 
ATOM      2  C4  UNL d   1       4.765   0.733   0.693  0.00  0.00     0.002 A 
ATOM      3  C5  UNL d   1       5.629  -0.038   1.470  0.00  0.00     0.002 A 
ATOM      4  C6  UNL d   1       5.219  -1.280   1.950  0.00  0.00    -0.004 A 
ATOM      5  C7  UNL d   1       3.940  -1.748   1.656  0.00  0.00     0.002 A 
ATOM      6  C8  UNL d   1       3.075  -0.980   0.874  0.00  0.00     0.002 A 
ENDROOT
BRANCH   1   7
ATOM      7  C2  UNL d   1       2.553   1.082  -0.489  0.00  0.00     0.056 C 
BRANCH   7   8
ATOM      8  C1  UNL d   1       1.657   0.243  -1.407  0.00  0.00     0.007 C 
ATOM      9  C   UNL d   1       0.326   0.912  -1.722  0.00  0.00     0.009 C 
ENDBRANCH   7   8
ENDBRANCH   1   7
TORSDOF 2
ENDMDL
