MODEL 1
REMARK minimizedAffinity 6.6725316
REMARK minimizedRMSD -1
REMARK  2 active torsions:
REMARK  status: ('A' for Active; 'I' for Inactive)
REMARK    1  A    between atoms: C1_2  and  C2_3 
REMARK    2  A    between atoms: C2_3  and  C3_4 
ROOT
ATOM      1  C3  UNL d   1      -4.417   3.821   1.782  0.00  0.00    -0.075 A 
ATOM      2  C4  UNL d   1      -3.418   4.538   2.456  0.00  0.00     0.002 A 
ATOM      3  C5  UNL d   1      -3.706   5.207   3.646  0.00  0.00     0.002 A 
ATOM      4  C6  UNL d   1      -4.995   5.175   4.172  0.00  0.00    -0.004 A 
ATOM      5  C7  UNL d   1      -6.000   4.479   3.502  0.00  0.00     0.002 A 
ATOM      6  C8  UNL d   1      -5.713   3.806   2.313  0.00  0.00     0.002 A 
ENDROOT
BRANCH   1   7
ATOM      7  C2  UNL d   1      -4.105   3.071   0.509  0.00  0.00     0.056 C 
BRANCH   7   8
ATOM      8  C1  UNL d   1      -4.125   1.547   0.662  0.00  0.00     0.007 C 
ATOM      9  C   UNL d   1      -4.705   0.829  -0.549  0.00  0.00     0.009 C 
ENDBRANCH   7   8
ENDBRANCH   1   7
TORSDOF 2
ENDMDL
