MODEL 1
REMARK minimizedAffinity 14.6081448
REMARK minimizedRMSD -1
REMARK  2 active torsions:
REMARK  status: ('A' for Active; 'I' for Inactive)
REMARK    1  A    between atoms: C1_2  and  C2_3 
REMARK    2  A    between atoms: C2_3  and  C3_4 
ROOT
ATOM      1  C3  UNL d   1      -4.792   0.699  -0.973  0.00  0.00    -0.075 A 
ATOM      2  C4  UNL d   1      -3.485   0.423  -1.400  0.00  0.00     0.002 A 
ATOM      3  C5  UNL d   1      -2.396   0.706  -0.575  0.00  0.00     0.002 A 
ATOM      4  C6  UNL d   1      -2.598   1.278   0.679  0.00  0.00    -0.004 A 
ATOM      5  C7  UNL d   1      -3.891   1.572   1.107  0.00  0.00     0.002 A 
ATOM      6  C8  UNL d   1      -4.983   1.285   0.286  0.00  0.00     0.002 A 
ENDROOT
BRANCH   1   7
ATOM      7  C2  UNL d   1      -5.977   0.368  -1.848  0.00  0.00     0.056 C 
BRANCH   7   8
ATOM      8  C1  UNL d   1      -5.997   1.121  -3.182  0.00  0.00     0.007 C 
ATOM      9  C   UNL d   1      -5.992   2.635  -3.017  0.00  0.00     0.009 C 
ENDBRANCH   7   8
ENDBRANCH   1   7
TORSDOF 2
ENDMDL
