MODEL 1
REMARK minimizedAffinity -2.75392675
REMARK minimizedRMSD -1
REMARK  0 active torsions:
REMARK  status: ('A' for Active; 'I' for Inactive)
ROOT
ATOM      1  C2' OXE d   1       3.980  -4.979  -5.967  0.00  0.00     0.078 C 
ATOM      2  C1' OXE d   1       5.890  -5.019  -3.910  0.00  0.00     0.078 C 
ATOM      3  C1  OXE d   1       5.473  -3.676  -4.457  0.00  0.00    -0.078 A 
ATOM      4  C2  OXE d   1       4.573  -3.669  -5.495  0.00  0.00    -0.078 A 
ATOM      5  C3  OXE d   1       4.113  -2.456  -6.000  0.00  0.00     0.003 A 
ATOM      6  C4  OXE d   1       4.673  -1.249  -5.565  0.00  0.00    -0.002 A 
ATOM      7  C5  OXE d   1       5.621  -1.236  -4.536  0.00  0.00    -0.002 A 
ATOM      8  C6  OXE d   1       5.999  -2.436  -3.943  0.00  0.00     0.003 A 
ENDROOT
TORSDOF 0
ENDMDL
