MODEL 1
REMARK minimizedAffinity -1.27498412
REMARK minimizedRMSD -1
REMARK  0 active torsions:
REMARK  status: ('A' for Active; 'I' for Inactive)
ROOT
ATOM      1  C2' OXE d   1       3.817  -5.996  -5.580  0.00  0.00     0.078 C 
ATOM      2  C1' OXE d   1       5.798  -5.988  -3.591  0.00  0.00     0.078 C 
ATOM      3  C1  OXE d   1       5.410  -4.665  -4.202  0.00  0.00    -0.078 A 
ATOM      4  C2  OXE d   1       4.473  -4.684  -5.208  0.00  0.00    -0.078 A 
ATOM      5  C3  OXE d   1       4.039  -3.485  -5.768  0.00  0.00     0.003 A 
ATOM      6  C4  OXE d   1       4.658  -2.277  -5.424  0.00  0.00    -0.002 A 
ATOM      7  C5  OXE d   1       5.642  -2.241  -4.431  0.00  0.00    -0.002 A 
ATOM      8  C6  OXE d   1       5.998  -3.418  -3.781  0.00  0.00     0.003 A 
ENDROOT
TORSDOF 0
ENDMDL
