MODEL 1
REMARK minimizedAffinity -2.50261855
REMARK minimizedRMSD -1
REMARK  0 active torsions:
REMARK  status: ('A' for Active; 'I' for Inactive)
ROOT
ATOM      1  C2' OXE d   1       4.217  -5.676  -3.707  0.00  0.00     0.078 C 
ATOM      2  C1' OXE d   1       5.900  -5.767  -5.952  0.00  0.00     0.078 C 
ATOM      3  C1  OXE d   1       5.515  -4.411  -5.416  0.00  0.00    -0.078 A 
ATOM      4  C2  OXE d   1       4.653  -4.375  -4.346  0.00  0.00    -0.078 A 
ATOM      5  C3  OXE d   1       4.309  -3.152  -3.779  0.00  0.00     0.003 A 
ATOM      6  C4  OXE d   1       4.709  -1.953  -4.382  0.00  0.00    -0.002 A 
ATOM      7  C5  OXE d   1       5.555  -1.967  -5.496  0.00  0.00    -0.002 A 
ATOM      8  C6  OXE d   1       6.000  -3.184  -5.999  0.00  0.00     0.003 A 
ENDROOT
TORSDOF 0
ENDMDL
