MODEL 1
REMARK minimizedAffinity -2.75702453
REMARK minimizedRMSD -1
REMARK  0 active torsions:
REMARK  status: ('A' for Active; 'I' for Inactive)
ROOT
ATOM      1  C2' OXE d   1       3.219  -2.318  -5.566  0.00  0.00     0.078 C 
ATOM      2  C1' OXE d   1       5.999  -2.490  -5.912  0.00  0.00     0.078 C 
ATOM      3  C1  OXE d   1       5.298  -3.657  -5.264  0.00  0.00    -0.078 A 
ATOM      4  C2  OXE d   1       3.944  -3.545  -5.057  0.00  0.00    -0.078 A 
ATOM      5  C3  OXE d   1       3.239  -4.616  -4.513  0.00  0.00     0.003 A 
ATOM      6  C4  OXE d   1       3.919  -5.743  -4.036  0.00  0.00    -0.002 A 
ATOM      7  C5  OXE d   1       5.303  -5.860  -4.202  0.00  0.00    -0.002 A 
ATOM      8  C6  OXE d   1       6.000  -4.847  -4.851  0.00  0.00     0.003 A 
ENDROOT
TORSDOF 0
ENDMDL
