MODEL 1
REMARK minimizedAffinity -2.05286193
REMARK minimizedRMSD -1
REMARK  0 active torsions:
REMARK  status: ('A' for Active; 'I' for Inactive)
ROOT
ATOM      1  C2' OXE d   1       5.494  -5.979  -3.834  0.00  0.00     0.078 C 
ATOM      2  C1' OXE d   1       3.742  -5.591  -5.993  0.00  0.00     0.078 C 
ATOM      3  C1  OXE d   1       4.456  -4.382  -5.441  0.00  0.00    -0.078 A 
ATOM      4  C2  OXE d   1       5.275  -4.574  -4.354  0.00  0.00    -0.078 A 
ATOM      5  C3  OXE d   1       6.000  -3.503  -3.839  0.00  0.00     0.003 A 
ATOM      6  C4  OXE d   1       5.784  -2.205  -4.320  0.00  0.00    -0.002 A 
ATOM      7  C5  OXE d   1       4.924  -1.982  -5.400  0.00  0.00    -0.002 A 
ATOM      8  C6  OXE d   1       4.286  -3.063  -5.998  0.00  0.00     0.003 A 
ENDROOT
TORSDOF 0
ENDMDL
