MODEL 1
REMARK minimizedAffinity -3.14386082
REMARK minimizedRMSD -1
REMARK  0 active torsions:
REMARK  status: ('A' for Active; 'I' for Inactive)
ROOT
ATOM      1  C2' OXE d   1       6.000  -1.180  -5.998  0.00  0.00     0.078 C 
ATOM      2  C1' OXE d   1       3.216  -1.163  -5.633  0.00  0.00     0.078 C 
ATOM      3  C1  OXE d   1       3.929  -2.490  -5.546  0.00  0.00    -0.078 A 
ATOM      4  C2  OXE d   1       5.285  -2.495  -5.772  0.00  0.00    -0.078 A 
ATOM      5  C3  OXE d   1       5.999  -3.683  -5.649  0.00  0.00     0.003 A 
ATOM      6  C4  OXE d   1       5.329  -4.896  -5.449  0.00  0.00    -0.002 A 
ATOM      7  C5  OXE d   1       3.944  -4.918  -5.256  0.00  0.00    -0.002 A 
ATOM      8  C6  OXE d   1       3.236  -3.721  -5.259  0.00  0.00     0.003 A 
ENDROOT
TORSDOF 0
ENDMDL
