MODEL 1
REMARK minimizedAffinity -1.07646275
REMARK minimizedRMSD -1
REMARK  0 active torsions:
REMARK  status: ('A' for Active; 'I' for Inactive)
ROOT
ATOM      1  C2' OXE d   1       6.000  -2.233  -3.944  0.00  0.00     0.078 C 
ATOM      2  C1' OXE d   1       3.752  -2.078  -5.618  0.00  0.00     0.078 C 
ATOM      3  C1  OXE d   1       4.330  -3.444  -5.341  0.00  0.00    -0.078 A 
ATOM      4  C2  OXE d   1       5.458  -3.506  -4.559  0.00  0.00    -0.078 A 
ATOM      5  C3  OXE d   1       6.000  -4.744  -4.228  0.00  0.00     0.003 A 
ATOM      6  C4  OXE d   1       5.499  -5.915  -4.809  0.00  0.00    -0.002 A 
ATOM      7  C5  OXE d   1       4.374  -5.871  -5.640  0.00  0.00    -0.002 A 
ATOM      8  C6  OXE d   1       3.754  -4.650  -5.882  0.00  0.00     0.003 A 
ENDROOT
TORSDOF 0
ENDMDL
