MODEL 1
REMARK minimizedAffinity -3.20245218
REMARK minimizedRMSD -1
REMARK  0 active torsions:
REMARK  status: ('A' for Active; 'I' for Inactive)
ROOT
ATOM      1  C2' OXE d   1       3.443  -5.180  -5.240  0.00  0.00     0.078 C 
ATOM      2  C1' OXE d   1       5.996  -5.044  -4.081  0.00  0.00     0.078 C 
ATOM      3  C1  OXE d   1       5.353  -3.753  -4.520  0.00  0.00    -0.078 A 
ATOM      4  C2  OXE d   1       4.124  -3.833  -5.128  0.00  0.00    -0.078 A 
ATOM      5  C3  OXE d   1       3.462  -2.667  -5.502  0.00  0.00     0.003 A 
ATOM      6  C4  OXE d   1       4.103  -1.426  -5.405  0.00  0.00    -0.002 A 
ATOM      7  C5  OXE d   1       5.372  -1.326  -4.824  0.00  0.00    -0.002 A 
ATOM      8  C6  OXE d   1       5.991  -2.472  -4.339  0.00  0.00     0.003 A 
ENDROOT
TORSDOF 0
ENDMDL
