MODEL 1
REMARK minimizedAffinity -3.25816464
REMARK minimizedRMSD -1
REMARK  0 active torsions:
REMARK  status: ('A' for Active; 'I' for Inactive)
ROOT
ATOM      1  C2' OXE d   1       3.257  -4.229  -4.903  0.00  0.00     0.078 C 
ATOM      2  C1' OXE d   1       6.000  -4.049  -4.333  0.00  0.00     0.078 C 
ATOM      3  C1  OXE d   1       5.309  -2.816  -4.861  0.00  0.00    -0.078 A 
ATOM      4  C2  OXE d   1       3.977  -2.927  -5.181  0.00  0.00    -0.078 A 
ATOM      5  C3  OXE d   1       3.278  -1.806  -5.620  0.00  0.00     0.003 A 
ATOM      6  C4  OXE d   1       3.953  -0.608  -5.884  0.00  0.00    -0.002 A 
ATOM      7  C5  OXE d   1       5.318  -0.486  -5.603  0.00  0.00    -0.002 A 
ATOM      8  C6  OXE d   1       6.000  -1.565  -5.052  0.00  0.00     0.003 A 
ENDROOT
TORSDOF 0
ENDMDL
