MODEL 1
REMARK minimizedAffinity -2.38130093
REMARK minimizedRMSD -1
REMARK  0 active torsions:
REMARK  status: ('A' for Active; 'I' for Inactive)
ROOT
ATOM      1  C2' OXE d   1       6.000  -2.278  -3.688  0.00  0.00     0.078 C 
ATOM      2  C1' OXE d   1       4.141  -2.160  -5.789  0.00  0.00     0.078 C 
ATOM      3  C1  OXE d   1       4.620  -3.521  -5.349  0.00  0.00    -0.078 A 
ATOM      4  C2  OXE d   1       5.565  -3.567  -4.352  0.00  0.00    -0.078 A 
ATOM      5  C3  OXE d   1       6.000  -4.798  -3.870  0.00  0.00     0.003 A 
ATOM      6  C4  OXE d   1       5.600  -5.986  -4.496  0.00  0.00    -0.002 A 
ATOM      7  C5  OXE d   1       4.669  -5.959  -5.540  0.00  0.00    -0.002 A 
ATOM      8  C6  OXE d   1       4.138  -4.741  -5.949  0.00  0.00     0.003 A 
ENDROOT
TORSDOF 0
ENDMDL
