MODEL 1
REMARK minimizedAffinity -4.01556396
REMARK minimizedRMSD -1
REMARK  0 active torsions:
REMARK  status: ('A' for Active; 'I' for Inactive)
ROOT
ATOM      1  C2' OXE d   1       4.421  -6.000  -5.910  0.00  0.00     0.078 C 
ATOM      2  C1' OXE d   1       5.979  -5.468  -3.637  0.00  0.00     0.078 C 
ATOM      3  C1  OXE d   1       5.240  -4.315  -4.269  0.00  0.00    -0.078 A 
ATOM      4  C2  OXE d   1       4.518  -4.576  -5.408  0.00  0.00    -0.078 A 
ATOM      5  C3  OXE d   1       3.773  -3.559  -6.000  0.00  0.00     0.003 A 
ATOM      6  C4  OXE d   1       3.876  -2.242  -5.535  0.00  0.00    -0.002 A 
ATOM      7  C5  OXE d   1       4.638  -1.948  -4.399  0.00  0.00    -0.002 A 
ATOM      8  C6  OXE d   1       5.291  -2.978  -3.731  0.00  0.00     0.003 A 
ENDROOT
TORSDOF 0
ENDMDL
