MODEL 1
REMARK minimizedAffinity -1.96133542
REMARK minimizedRMSD -1
REMARK  0 active torsions:
REMARK  status: ('A' for Active; 'I' for Inactive)
ROOT
ATOM      1  C2' OXE d   1       5.994  -5.780  -3.056  0.00  0.00     0.078 C 
ATOM      2  C1' OXE d   1       5.941  -5.916  -5.859  0.00  0.00     0.078 C 
ATOM      3  C1  OXE d   1       5.950  -4.549  -5.221  0.00  0.00    -0.078 A 
ATOM      4  C2  OXE d   1       5.929  -4.492  -3.848  0.00  0.00    -0.078 A 
ATOM      5  C3  OXE d   1       5.992  -3.258  -3.209  0.00  0.00     0.003 A 
ATOM      6  C4  OXE d   1       5.922  -2.071  -3.949  0.00  0.00    -0.002 A 
ATOM      7  C5  OXE d   1       5.903  -2.107  -5.347  0.00  0.00    -0.002 A 
ATOM      8  C6  OXE d   1       5.959  -3.334  -5.998  0.00  0.00     0.003 A 
ENDROOT
TORSDOF 0
ENDMDL
