MODEL 1
REMARK minimizedAffinity -3.1258471
REMARK minimizedRMSD -1
REMARK  0 active torsions:
REMARK  status: ('A' for Active; 'I' for Inactive)
ROOT
ATOM      1  C2' OXE d   1       3.620  -2.041  -5.998  0.00  0.00     0.078 C 
ATOM      2  C1' OXE d   1       6.000  -1.828  -4.525  0.00  0.00     0.078 C 
ATOM      3  C1  OXE d   1       5.389  -3.198  -4.680  0.00  0.00    -0.078 A 
ATOM      4  C2  OXE d   1       4.200  -3.286  -5.363  0.00  0.00    -0.078 A 
ATOM      5  C3  OXE d   1       3.622  -4.533  -5.581  0.00  0.00     0.003 A 
ATOM      6  C4  OXE d   1       4.159  -5.679  -4.981  0.00  0.00    -0.002 A 
ATOM      7  C5  OXE d   1       5.348  -5.605  -4.248  0.00  0.00    -0.002 A 
ATOM      8  C6  OXE d   1       5.997  -4.382  -4.124  0.00  0.00     0.003 A 
ENDROOT
TORSDOF 0
ENDMDL
