MODEL 1
REMARK minimizedAffinity -1.77388477
REMARK minimizedRMSD -1
REMARK  0 active torsions:
REMARK  status: ('A' for Active; 'I' for Inactive)
ROOT
ATOM      1  C2' OXE d   1       3.524  -1.515  -4.663  0.00  0.00     0.078 C 
ATOM      2  C1' OXE d   1       5.992  -1.729  -5.983  0.00  0.00     0.078 C 
ATOM      3  C1  OXE d   1       5.378  -2.991  -5.431  0.00  0.00    -0.078 A 
ATOM      4  C2  OXE d   1       4.192  -2.870  -4.746  0.00  0.00    -0.078 A 
ATOM      5  C3  OXE d   1       3.555  -4.010  -4.265  0.00  0.00     0.003 A 
ATOM      6  C4  OXE d   1       4.186  -5.258  -4.337  0.00  0.00    -0.002 A 
ATOM      7  C5  OXE d   1       5.412  -5.397  -4.995  0.00  0.00    -0.002 A 
ATOM      8  C6  OXE d   1       5.999  -4.283  -5.584  0.00  0.00     0.003 A 
ENDROOT
TORSDOF 0
ENDMDL
