MODEL 1
REMARK minimizedAffinity -3.21760654
REMARK minimizedRMSD -1
REMARK  0 active torsions:
REMARK  status: ('A' for Active; 'I' for Inactive)
ROOT
ATOM      1  C4' PXY d   1       0.864   1.952  -0.345  0.00  0.00     0.077 C 
ATOM      2  C1' PXY d   1      -0.484  -3.582  -1.333  0.00  0.00     0.077 C 
ATOM      3  C1  PXY d   1      -0.122  -2.134  -1.064  0.00  0.00    -0.082 A 
ATOM      4  C2  PXY d   1      -0.964  -1.175  -1.412  0.00  0.00     0.003 A 
ATOM      5  C3  PXY d   1      -0.639   0.141  -1.206  0.00  0.00     0.003 A 
ATOM      6  C4  PXY d   1       0.536   0.476  -0.588  0.00  0.00    -0.082 A 
ATOM      7  C5  PXY d   1       1.395  -0.498  -0.220  0.00  0.00     0.003 A 
ATOM      8  C6  PXY d   1       1.065  -1.826  -0.476  0.00  0.00     0.003 A 
ENDROOT
TORSDOF 0
ENDMDL
