MODEL 1
REMARK minimizedAffinity -0.84201777
REMARK minimizedRMSD -1
REMARK  0 active torsions:
REMARK  status: ('A' for Active; 'I' for Inactive)
ROOT
ATOM      1  C4' PXY d   1       4.900   0.315  -1.153  0.00  0.00     0.077 C 
ATOM      2  C1' PXY d   1      -0.319  -2.131  -0.712  0.00  0.00     0.077 C 
ATOM      3  C1  PXY d   1       1.055  -1.501  -0.824  0.00  0.00    -0.082 A 
ATOM      4  C2  PXY d   1       1.179  -0.185  -0.759  0.00  0.00     0.003 A 
ATOM      5  C3  PXY d   1       2.410   0.403  -0.890  0.00  0.00     0.003 A 
ATOM      6  C4  PXY d   1       3.534  -0.366  -1.036  0.00  0.00    -0.082 A 
ATOM      7  C5  PXY d   1       3.417  -1.709  -1.092  0.00  0.00     0.003 A 
ATOM      8  C6  PXY d   1       2.154  -2.285  -0.998  0.00  0.00     0.003 A 
ENDROOT
TORSDOF 0
ENDMDL
