MODEL 1
REMARK minimizedAffinity -1.18371534
REMARK minimizedRMSD -1
REMARK  0 active torsions:
REMARK  status: ('A' for Active; 'I' for Inactive)
ROOT
ATOM      1  C4' PXY d   1       3.834  -3.774  -3.353  0.00  0.00     0.077 C 
ATOM      2  C1' PXY d   1       4.672   1.534  -1.223  0.00  0.00     0.077 C 
ATOM      3  C1  PXY d   1       4.448   0.138  -1.770  0.00  0.00    -0.082 A 
ATOM      4  C2  PXY d   1       5.131  -0.267  -2.828  0.00  0.00     0.003 A 
ATOM      5  C3  PXY d   1       4.917  -1.515  -3.355  0.00  0.00     0.003 A 
ATOM      6  C4  PXY d   1       4.034  -2.376  -2.761  0.00  0.00    -0.082 A 
ATOM      7  C5  PXY d   1       3.341  -1.974  -1.675  0.00  0.00     0.003 A 
ATOM      8  C6  PXY d   1       3.542  -0.689  -1.180  0.00  0.00     0.003 A 
ENDROOT
TORSDOF 0
ENDMDL
