MODEL 1
REMARK minimizedAffinity 1.07053101
REMARK minimizedRMSD -1
REMARK  0 active torsions:
REMARK  status: ('A' for Active; 'I' for Inactive)
ROOT
ATOM      1  C4' PXY d   1       0.653  -0.256  -0.096  0.00  0.00     0.077 C 
ATOM      2  C1' PXY d   1      -1.499  -3.325  -4.496  0.00  0.00     0.077 C 
ATOM      3  C1  PXY d   1      -0.933  -2.531  -3.335  0.00  0.00    -0.082 A 
ATOM      4  C2  PXY d   1      -1.247  -1.253  -3.203  0.00  0.00     0.003 A 
ATOM      5  C3  PXY d   1      -0.718  -0.512  -2.177  0.00  0.00     0.003 A 
ATOM      6  C4  PXY d   1       0.097  -1.099  -1.247  0.00  0.00    -0.082 A 
ATOM      7  C5  PXY d   1       0.413  -2.405  -1.370  0.00  0.00     0.003 A 
ATOM      8  C6  PXY d   1      -0.101  -3.130  -2.441  0.00  0.00     0.003 A 
ENDROOT
TORSDOF 0
ENDMDL
