MODEL 1
REMARK minimizedAffinity -4.74908209
REMARK minimizedRMSD -1
REMARK  0 active torsions:
REMARK  status: ('A' for Active; 'I' for Inactive)
ROOT
ATOM      1  C4' PXY d   1       4.112   0.446  -1.201  0.00  0.00     0.077 C 
ATOM      2  C1' PXY d   1      -0.433  -3.122  -1.376  0.00  0.00     0.077 C 
ATOM      3  C1  PXY d   1       0.751  -2.176  -1.333  0.00  0.00    -0.082 A 
ATOM      4  C2  PXY d   1       1.965  -2.636  -1.589  0.00  0.00     0.003 A 
ATOM      5  C3  PXY d   1       3.051  -1.801  -1.522  0.00  0.00     0.003 A 
ATOM      6  C4  PXY d   1       2.886  -0.471  -1.243  0.00  0.00    -0.082 A 
ATOM      7  C5  PXY d   1       1.649   0.008  -0.992  0.00  0.00     0.003 A 
ATOM      8  C6  PXY d   1       0.565  -0.864  -1.024  0.00  0.00     0.003 A 
ENDROOT
TORSDOF 0
ENDMDL
