MODEL 1
REMARK minimizedAffinity -3.19097543
REMARK minimizedRMSD -1
REMARK  0 active torsions:
REMARK  status: ('A' for Active; 'I' for Inactive)
ROOT
ATOM      1  C4' PXY d   1       3.994   0.842  -0.717  0.00  0.00     0.077 C 
ATOM      2  C1' PXY d   1      -0.746  -2.467  -0.730  0.00  0.00     0.077 C 
ATOM      3  C1  PXY d   1       0.490  -1.590  -0.734  0.00  0.00    -0.082 A 
ATOM      4  C2  PXY d   1       1.681  -2.137  -0.548  0.00  0.00     0.003 A 
ATOM      5  C3  PXY d   1       2.806  -1.355  -0.516  0.00  0.00     0.003 A 
ATOM      6  C4  PXY d   1       2.719  -0.006  -0.730  0.00  0.00    -0.082 A 
ATOM      7  C5  PXY d   1       1.509   0.559  -0.932  0.00  0.00     0.003 A 
ATOM      8  C6  PXY d   1       0.374  -0.247  -0.919  0.00  0.00     0.003 A 
ENDROOT
TORSDOF 0
ENDMDL
