MODEL 1
REMARK minimizedAffinity 0.9375844
REMARK minimizedRMSD -1
REMARK  0 active torsions:
REMARK  status: ('A' for Active; 'I' for Inactive)
ROOT
ATOM      1  C4' PXY d   1       4.949   0.291  -1.733  0.00  0.00     0.077 C 
ATOM      2  C1' PXY d   1      -0.429  -1.498  -0.597  0.00  0.00     0.077 C 
ATOM      3  C1  PXY d   1       0.986  -1.041  -0.893  0.00  0.00    -0.082 A 
ATOM      4  C2  PXY d   1       1.317   0.226  -0.704  0.00  0.00     0.003 A 
ATOM      5  C3  PXY d   1       2.583   0.663  -0.997  0.00  0.00     0.003 A 
ATOM      6  C4  PXY d   1       3.535  -0.217  -1.439  0.00  0.00    -0.082 A 
ATOM      7  C5  PXY d   1       3.208  -1.513  -1.624  0.00  0.00     0.003 A 
ATOM      8  C6  PXY d   1       1.906  -1.928  -1.360  0.00  0.00     0.003 A 
ENDROOT
TORSDOF 0
ENDMDL
