MODEL 1
REMARK minimizedAffinity -4.00619602
REMARK minimizedRMSD -1
REMARK  2 active torsions:
REMARK  status: ('A' for Active; 'I' for Inactive)
REMARK    1  A    between atoms: C1_2  and  C2_3 
REMARK    2  A    between atoms: C2_3  and  C3_4 
ROOT
ATOM      1  C3  UNL d   1      -0.261   0.125  -0.353  0.00  0.00    -0.075 A 
ATOM      2  C4  UNL d   1      -1.454  -0.088   0.353  0.00  0.00     0.002 A 
ATOM      3  C5  UNL d   1      -1.439  -0.237   1.741  0.00  0.00     0.002 A 
ATOM      4  C6  UNL d   1      -0.234  -0.186   2.437  0.00  0.00    -0.004 A 
ATOM      5  C7  UNL d   1       0.959   0.008   1.744  0.00  0.00     0.002 A 
ATOM      6  C8  UNL d   1       0.947   0.162   0.356  0.00  0.00     0.002 A 
ENDROOT
BRANCH   1   7
ATOM      7  C2  UNL d   1      -0.274   0.317  -1.850  0.00  0.00     0.056 C 
BRANCH   7   8
ATOM      8  C1  UNL d   1       0.828  -0.453  -2.587  0.00  0.00     0.007 C 
ATOM      9  C   UNL d   1       0.287  -1.487  -3.565  0.00  0.00     0.009 C 
ENDBRANCH   7   8
ENDBRANCH   1   7
TORSDOF 2
ENDMDL
