MODEL 1
REMARK minimizedAffinity -5.89232016
REMARK minimizedRMSD -1
REMARK  2 active torsions:
REMARK  status: ('A' for Active; 'I' for Inactive)
REMARK    1  A    between atoms: C1_2  and  C2_3 
REMARK    2  A    between atoms: C2_3  and  C3_4 
ROOT
ATOM      1  C3  UNL d   1      -0.036  -0.273   1.742  0.00  0.00    -0.075 A 
ATOM      2  C4  UNL d   1       1.049   0.582   1.985  0.00  0.00     0.002 A 
ATOM      3  C5  UNL d   1       1.683   1.239   0.931  0.00  0.00     0.002 A 
ATOM      4  C6  UNL d   1       1.248   1.044  -0.378  0.00  0.00    -0.004 A 
ATOM      5  C7  UNL d   1       0.182   0.184  -0.633  0.00  0.00     0.002 A 
ATOM      6  C8  UNL d   1      -0.457  -0.472   0.420  0.00  0.00     0.002 A 
ENDROOT
BRANCH   1   7
ATOM      7  C2  UNL d   1      -0.745  -0.965   2.882  0.00  0.00     0.056 C 
BRANCH   7   8
ATOM      8  C1  UNL d   1      -2.007  -0.241   3.362  0.00  0.00     0.007 C 
ATOM      9  C   UNL d   1      -2.877   0.271   2.222  0.00  0.00     0.009 C 
ENDBRANCH   7   8
ENDBRANCH   1   7
TORSDOF 2
ENDMDL
