MODEL 1
REMARK minimizedAffinity -3.29633355
REMARK minimizedRMSD -1
REMARK  2 active torsions:
REMARK  status: ('A' for Active; 'I' for Inactive)
REMARK    1  A    between atoms: C1_2  and  C2_3 
REMARK    2  A    between atoms: C2_3  and  C3_4 
ROOT
ATOM      1  C3  UNL d   1      -0.019   0.332  -0.324  0.00  0.00    -0.075 A 
ATOM      2  C4  UNL d   1       1.161   0.118   0.402  0.00  0.00     0.002 A 
ATOM      3  C5  UNL d   1       1.126  -0.009   1.791  0.00  0.00     0.002 A 
ATOM      4  C6  UNL d   1      -0.086   0.085   2.471  0.00  0.00    -0.004 A 
ATOM      5  C7  UNL d   1      -1.263   0.313   1.762  0.00  0.00     0.002 A 
ATOM      6  C8  UNL d   1      -1.231   0.437   0.372  0.00  0.00     0.002 A 
ENDROOT
BRANCH   1   7
ATOM      7  C2  UNL d   1       0.008   0.441  -1.830  0.00  0.00     0.056 C 
BRANCH   7   8
ATOM      8  C1  UNL d   1       1.060  -0.450  -2.501  0.00  0.00     0.007 C 
ATOM      9  C   UNL d   1       0.597  -1.026  -3.832  0.00  0.00     0.009 C 
ENDBRANCH   7   8
ENDBRANCH   1   7
TORSDOF 2
ENDMDL
