MODEL 1
REMARK minimizedAffinity -4.5398097
REMARK minimizedRMSD -1
REMARK  2 active torsions:
REMARK  status: ('A' for Active; 'I' for Inactive)
REMARK    1  A    between atoms: C1_2  and  C2_3 
REMARK    2  A    between atoms: C2_3  and  C3_4 
ROOT
ATOM      1  C3  UNL d   1      -0.235   0.126   0.274  0.00  0.00    -0.075 A 
ATOM      2  C4  UNL d   1      -1.593  -0.209   0.368  0.00  0.00     0.002 A 
ATOM      3  C5  UNL d   1      -2.175  -0.468   1.610  0.00  0.00     0.002 A 
ATOM      4  C6  UNL d   1      -1.405  -0.405   2.770  0.00  0.00    -0.004 A 
ATOM      5  C7  UNL d   1      -0.050  -0.090   2.686  0.00  0.00     0.002 A 
ATOM      6  C8  UNL d   1       0.533   0.174   1.445  0.00  0.00     0.002 A 
ENDROOT
BRANCH   1   7
ATOM      7  C2  UNL d   1       0.393   0.436  -1.064  0.00  0.00     0.056 C 
BRANCH   7   8
ATOM      8  C1  UNL d   1       0.285  -0.703  -2.083  0.00  0.00     0.007 C 
ATOM      9  C   UNL d   1       1.429  -0.722  -3.087  0.00  0.00     0.009 C 
ENDBRANCH   7   8
ENDBRANCH   1   7
TORSDOF 2
ENDMDL
