MODEL 1
REMARK minimizedAffinity -5.20618391
REMARK minimizedRMSD -1
REMARK  2 active torsions:
REMARK  status: ('A' for Active; 'I' for Inactive)
REMARK    1  A    between atoms: C1_2  and  C2_3 
REMARK    2  A    between atoms: C2_3  and  C3_4 
ROOT
ATOM      1  C3  UNL d   1       0.129   0.106   0.920  0.00  0.00    -0.075 A 
ATOM      2  C4  UNL d   1      -1.263   0.277   0.903  0.00  0.00     0.002 A 
ATOM      3  C5  UNL d   1      -2.040  -0.134   1.987  0.00  0.00     0.002 A 
ATOM      4  C6  UNL d   1      -1.439  -0.728   3.094  0.00  0.00    -0.004 A 
ATOM      5  C7  UNL d   1      -0.059  -0.918   3.114  0.00  0.00     0.002 A 
ATOM      6  C8  UNL d   1       0.722  -0.504   2.034  0.00  0.00     0.002 A 
ENDROOT
BRANCH   1   7
ATOM      7  C2  UNL d   1       0.979   0.575  -0.236  0.00  0.00     0.056 C 
BRANCH   7   8
ATOM      8  C1  UNL d   1       0.316   0.404  -1.607  0.00  0.00     0.007 C 
ATOM      9  C   UNL d   1       1.169  -0.385  -2.592  0.00  0.00     0.009 C 
ENDBRANCH   7   8
ENDBRANCH   1   7
TORSDOF 2
ENDMDL
