MODEL 1
REMARK minimizedAffinity -5.01499033
REMARK minimizedRMSD -1
REMARK  2 active torsions:
REMARK  status: ('A' for Active; 'I' for Inactive)
REMARK    1  A    between atoms: C1_2  and  C2_3 
REMARK    2  A    between atoms: C2_3  and  C3_4 
ROOT
ATOM      1  C3  UNL d   1       0.320   0.033  -1.320  0.00  0.00    -0.075 A 
ATOM      2  C4  UNL d   1       1.312   0.001  -0.329  0.00  0.00     0.002 A 
ATOM      3  C5  UNL d   1       0.964  -0.046   1.021  0.00  0.00     0.002 A 
ATOM      4  C6  UNL d   1      -0.378  -0.050   1.398  0.00  0.00    -0.004 A 
ATOM      5  C7  UNL d   1      -1.372  -0.002   0.423  0.00  0.00     0.002 A 
ATOM      6  C8  UNL d   1      -1.026   0.041  -0.929  0.00  0.00     0.002 A 
ENDROOT
BRANCH   1   7
ATOM      7  C2  UNL d   1       0.690   0.054  -2.784  0.00  0.00     0.056 C 
BRANCH   7   8
ATOM      8  C1  UNL d   1       0.553  -1.303  -3.481  0.00  0.00     0.007 C 
ATOM      9  C   UNL d   1       1.884  -2.017  -3.673  0.00  0.00     0.009 C 
ENDBRANCH   7   8
ENDBRANCH   1   7
TORSDOF 2
ENDMDL
