MODEL 1
REMARK minimizedAffinity -5.81288624
REMARK minimizedRMSD -1
REMARK  2 active torsions:
REMARK  status: ('A' for Active; 'I' for Inactive)
REMARK    1  A    between atoms: C1_2  and  C2_3 
REMARK    2  A    between atoms: C2_3  and  C3_4 
ROOT
ATOM      1  C3  UNL d   1      -0.091  -0.022   0.013  0.00  0.00    -0.075 A 
ATOM      2  C4  UNL d   1       1.021   0.456   0.721  0.00  0.00     0.002 A 
ATOM      3  C5  UNL d   1       1.110   0.280   2.103  0.00  0.00     0.002 A 
ATOM      4  C6  UNL d   1       0.087  -0.366   2.793  0.00  0.00    -0.004 A 
ATOM      5  C7  UNL d   1      -1.030  -0.830   2.102  0.00  0.00     0.002 A 
ATOM      6  C8  UNL d   1      -1.120  -0.659   0.720  0.00  0.00     0.002 A 
ENDROOT
BRANCH   1   7
ATOM      7  C2  UNL d   1      -0.181   0.139  -1.485  0.00  0.00     0.056 C 
BRANCH   7   8
ATOM      8  C1  UNL d   1       1.020  -0.432  -2.247  0.00  0.00     0.007 C 
ATOM      9  C   UNL d   1       0.646  -1.559  -3.200  0.00  0.00     0.009 C 
ENDBRANCH   7   8
ENDBRANCH   1   7
TORSDOF 2
ENDMDL
