MODEL 1
REMARK minimizedAffinity -3.33471084
REMARK minimizedRMSD -1
REMARK  2 active torsions:
REMARK  status: ('A' for Active; 'I' for Inactive)
REMARK    1  A    between atoms: C1_2  and  C2_3 
REMARK    2  A    between atoms: C2_3  and  C3_4 
ROOT
ATOM      1  C3  UNL d   1       0.192   0.065  -0.771  0.00  0.00    -0.075 A 
ATOM      2  C4  UNL d   1       1.106   0.469   0.214  0.00  0.00     0.002 A 
ATOM      3  C5  UNL d   1       0.805   0.310   1.567  0.00  0.00     0.002 A 
ATOM      4  C6  UNL d   1      -0.415  -0.243   1.952  0.00  0.00    -0.004 A 
ATOM      5  C7  UNL d   1      -1.337  -0.631   0.983  0.00  0.00     0.002 A 
ATOM      6  C8  UNL d   1      -1.036  -0.478  -0.372  0.00  0.00     0.002 A 
ENDROOT
BRANCH   1   7
ATOM      7  C2  UNL d   1       0.524   0.207  -2.237  0.00  0.00     0.056 C 
BRANCH   7   8
ATOM      8  C1  UNL d   1       0.584  -1.124  -2.994  0.00  0.00     0.007 C 
ATOM      9  C   UNL d   1       1.938  -1.385  -3.641  0.00  0.00     0.009 C 
ENDBRANCH   7   8
ENDBRANCH   1   7
TORSDOF 2
ENDMDL
