MODEL 1
REMARK minimizedAffinity -6.33792639
REMARK minimizedRMSD -1
REMARK  2 active torsions:
REMARK  status: ('A' for Active; 'I' for Inactive)
REMARK    1  A    between atoms: C1_2  and  C2_3 
REMARK    2  A    between atoms: C2_3  and  C3_4 
ROOT
ATOM      1  C3  UNL d   1      -0.352   0.155   1.045  0.00  0.00    -0.075 A 
ATOM      2  C4  UNL d   1      -1.641   0.436   0.570  0.00  0.00     0.002 A 
ATOM      3  C5  UNL d   1      -2.725   0.484   1.448  0.00  0.00     0.002 A 
ATOM      4  C6  UNL d   1      -2.536   0.243   2.807  0.00  0.00    -0.004 A 
ATOM      5  C7  UNL d   1      -1.262  -0.053   3.287  0.00  0.00     0.002 A 
ATOM      6  C8  UNL d   1      -0.175  -0.098   2.412  0.00  0.00     0.002 A 
ENDROOT
BRANCH   1   7
ATOM      7  C2  UNL d   1       0.829   0.130   0.105  0.00  0.00     0.056 C 
BRANCH   7   8
ATOM      8  C1  UNL d   1       0.463   0.371  -1.363  0.00  0.00     0.007 C 
ATOM      9  C   UNL d   1       0.903  -0.759  -2.284  0.00  0.00     0.009 C 
ENDBRANCH   7   8
ENDBRANCH   1   7
TORSDOF 2
ENDMDL
