MODEL 1
REMARK minimizedAffinity -3.5944097
REMARK minimizedRMSD -1
REMARK  2 active torsions:
REMARK  status: ('A' for Active; 'I' for Inactive)
REMARK    1  A    between atoms: C1_2  and  C2_3 
REMARK    2  A    between atoms: C2_3  and  C3_4 
ROOT
ATOM      1  C3  UNL d   1      -0.190   0.326  -0.213  0.00  0.00    -0.075 A 
ATOM      2  C4  UNL d   1      -1.392   0.549   0.474  0.00  0.00     0.002 A 
ATOM      3  C5  UNL d   1      -1.408   0.620   1.868  0.00  0.00     0.002 A 
ATOM      4  C6  UNL d   1      -0.228   0.458   2.590  0.00  0.00    -0.004 A 
ATOM      5  C7  UNL d   1       0.969   0.219   1.918  0.00  0.00     0.002 A 
ATOM      6  C8  UNL d   1       0.989   0.152   0.524  0.00  0.00     0.002 A 
ENDROOT
BRANCH   1   7
ATOM      7  C2  UNL d   1      -0.162   0.278  -1.722  0.00  0.00     0.056 C 
BRANCH   7   8
ATOM      8  C1  UNL d   1       1.178  -0.182  -2.306  0.00  0.00     0.007 C 
ATOM      9  C   UNL d   1       1.032  -1.275  -3.357  0.00  0.00     0.009 C 
ENDBRANCH   7   8
ENDBRANCH   1   7
TORSDOF 2
ENDMDL
