MODEL 1
REMARK minimizedAffinity -1.97919977
REMARK minimizedRMSD -1
REMARK  2 active torsions:
REMARK  status: ('A' for Active; 'I' for Inactive)
REMARK    1  A    between atoms: C1_2  and  C2_3 
REMARK    2  A    between atoms: C2_3  and  C3_4 
ROOT
ATOM      1  C3  UNL d   1       0.339  -0.307  -1.593  0.00  0.00    -0.075 A 
ATOM      2  C4  UNL d   1      -0.486  -1.208  -2.283  0.00  0.00     0.002 A 
ATOM      3  C5  UNL d   1      -0.107  -1.702  -3.531  0.00  0.00     0.002 A 
ATOM      4  C6  UNL d   1       1.094  -1.296  -4.109  0.00  0.00    -0.004 A 
ATOM      5  C7  UNL d   1       1.913  -0.389  -3.441  0.00  0.00     0.002 A 
ATOM      6  C8  UNL d   1       1.538   0.104  -2.190  0.00  0.00     0.002 A 
ENDROOT
BRANCH   1   7
ATOM      7  C2  UNL d   1      -0.052   0.209  -0.229  0.00  0.00     0.056 C 
BRANCH   7   8
ATOM      8  C1  UNL d   1       1.092   0.202   0.791  0.00  0.00     0.007 C 
ATOM      9  C   UNL d   1       0.608   0.220   2.235  0.00  0.00     0.009 C 
ENDBRANCH   7   8
ENDBRANCH   1   7
TORSDOF 2
ENDMDL
