MODEL 1
REMARK minimizedAffinity -5.92862368
REMARK minimizedRMSD -1
REMARK  2 active torsions:
REMARK  status: ('A' for Active; 'I' for Inactive)
REMARK    1  A    between atoms: C1_2  and  C2_3 
REMARK    2  A    between atoms: C2_3  and  C3_4 
ROOT
ATOM      1  C3  UNL d   1       0.019  -0.329  -0.103  0.00  0.00    -0.075 A 
ATOM      2  C4  UNL d   1       1.331  -0.261   0.388  0.00  0.00     0.002 A 
ATOM      3  C5  UNL d   1       1.577  -0.328   1.760  0.00  0.00     0.002 A 
ATOM      4  C6  UNL d   1       0.518  -0.454   2.656  0.00  0.00    -0.004 A 
ATOM      5  C7  UNL d   1      -0.790  -0.506   2.180  0.00  0.00     0.002 A 
ATOM      6  C8  UNL d   1      -1.040  -0.443   0.808  0.00  0.00     0.002 A 
ENDROOT
BRANCH   1   7
ATOM      7  C2  UNL d   1      -0.253  -0.286  -1.588  0.00  0.00     0.056 C 
BRANCH   7   8
ATOM      8  C1  UNL d   1       0.545  -1.313  -2.398  0.00  0.00     0.007 C 
ATOM      9  C   UNL d   1       1.530  -0.677  -3.370  0.00  0.00     0.009 C 
ENDBRANCH   7   8
ENDBRANCH   1   7
TORSDOF 2
ENDMDL
