MODEL 1
REMARK minimizedAffinity 6.82817507
REMARK minimizedRMSD -1
REMARK  0 active torsions:
REMARK  status: ('A' for Active; 'I' for Inactive)
ROOT
ATOM      1  C   UNL d   1      -0.198   4.390  -0.305  0.00  0.00     0.077 C 
ATOM      2  C1  UNL d   1      -0.007   3.573   0.938  0.00  0.00    -0.074 A 
ATOM      3  C2  UNL d   1      -0.848   2.493   1.224  0.00  0.00    -0.005 A 
ATOM      4  C3  UNL d   1      -0.653   1.736   2.379  0.00  0.00     0.006 A 
ATOM      5  C4  UNL d   1       0.384   2.050   3.258  0.00  0.00    -0.005 A 
ATOM      6  C5  UNL d   1       1.236   3.126   2.988  0.00  0.00    -0.074 A 
ATOM      7  C6  UNL d   1       2.362   3.471   3.917  0.00  0.00     0.077 C 
ATOM      8  C7  UNL d   1       1.038   3.878   1.822  0.00  0.00    -0.001 A 
ENDROOT
TORSDOF 0
ENDMDL
