MODEL 1
REMARK minimizedAffinity 8.92540455
REMARK minimizedRMSD -1
REMARK  0 active torsions:
REMARK  status: ('A' for Active; 'I' for Inactive)
ROOT
ATOM      1  C   UNL d   1       2.192   3.777   3.470  0.00  0.00     0.077 C 
ATOM      2  C1  UNL d   1       1.074   3.165   2.680  0.00  0.00    -0.074 A 
ATOM      3  C2  UNL d   1       0.374   2.056   3.165  0.00  0.00    -0.005 A 
ATOM      4  C3  UNL d   1      -0.670   1.503   2.423  0.00  0.00     0.006 A 
ATOM      5  C4  UNL d   1      -1.023   2.052   1.190  0.00  0.00    -0.005 A 
ATOM      6  C5  UNL d   1      -0.335   3.162   0.689  0.00  0.00    -0.074 A 
ATOM      7  C6  UNL d   1      -0.709   3.771  -0.630  0.00  0.00     0.077 C 
ATOM      8  C7  UNL d   1       0.708   3.716   1.444  0.00  0.00    -0.001 A 
ENDROOT
TORSDOF 0
ENDMDL
