MODEL 1
REMARK minimizedAffinity 11.1321287
REMARK minimizedRMSD -1
REMARK  0 active torsions:
REMARK  status: ('A' for Active; 'I' for Inactive)
ROOT
ATOM      1  C   UNL d   1      -0.446   1.507   2.864  0.00  0.00     0.077 C 
ATOM      2  C1  UNL d   1      -1.198   1.543   1.567  0.00  0.00    -0.074 A 
ATOM      3  C2  UNL d   1      -0.579   1.976   0.389  0.00  0.00    -0.005 A 
ATOM      4  C3  UNL d   1      -1.288   1.995  -0.812  0.00  0.00     0.006 A 
ATOM      5  C4  UNL d   1      -2.620   1.581  -0.848  0.00  0.00    -0.005 A 
ATOM      6  C5  UNL d   1      -3.255   1.144   0.319  0.00  0.00    -0.074 A 
ATOM      7  C6  UNL d   1      -4.683   0.686   0.295  0.00  0.00     0.077 C 
ATOM      8  C7  UNL d   1      -2.534   1.121   1.520  0.00  0.00    -0.001 A 
ENDROOT
TORSDOF 0
ENDMDL
