MODEL 1
REMARK minimizedAffinity 4.13511229
REMARK minimizedRMSD -1
REMARK  0 active torsions:
REMARK  status: ('A' for Active; 'I' for Inactive)
ROOT
ATOM      1  C   UNL d   1      -0.023   3.003  -0.171  0.00  0.00     0.077 C 
ATOM      2  C1  UNL d   1      -0.586   1.648  -0.478  0.00  0.00    -0.074 A 
ATOM      3  C2  UNL d   1       0.238   0.614  -0.934  0.00  0.00    -0.005 A 
ATOM      4  C3  UNL d   1      -0.299  -0.645  -1.207  0.00  0.00     0.006 A 
ATOM      5  C4  UNL d   1      -1.662  -0.882  -1.026  0.00  0.00    -0.005 A 
ATOM      6  C5  UNL d   1      -2.501   0.140  -0.569  0.00  0.00    -0.074 A 
ATOM      7  C6  UNL d   1      -3.967  -0.100  -0.360  0.00  0.00     0.077 C 
ATOM      8  C7  UNL d   1      -1.953   1.400  -0.291  0.00  0.00    -0.001 A 
ENDROOT
TORSDOF 0
ENDMDL
