MODEL 1
REMARK minimizedAffinity 8.42892838
REMARK minimizedRMSD -1
REMARK  0 active torsions:
REMARK  status: ('A' for Active; 'I' for Inactive)
ROOT
ATOM      1  C   UNL d   1       0.748  -2.984  -5.263  0.00  0.00     0.077 C 
ATOM      2  C1  UNL d   1       1.955  -3.772  -4.849  0.00  0.00    -0.074 A 
ATOM      3  C2  UNL d   1       3.110  -3.786  -5.638  0.00  0.00    -0.005 A 
ATOM      4  C3  UNL d   1       4.228  -4.516  -5.235  0.00  0.00     0.006 A 
ATOM      5  C4  UNL d   1       4.203  -5.239  -4.042  0.00  0.00    -0.005 A 
ATOM      6  C5  UNL d   1       3.058  -5.236  -3.240  0.00  0.00    -0.074 A 
ATOM      7  C6  UNL d   1       3.017  -6.000  -1.949  0.00  0.00     0.077 C 
ATOM      8  C7  UNL d   1       1.940  -4.495  -3.647  0.00  0.00    -0.001 A 
ENDROOT
TORSDOF 0
ENDMDL
