MODEL 1
REMARK minimizedAffinity 4.71765184
REMARK minimizedRMSD -1
REMARK  0 active torsions:
REMARK  status: ('A' for Active; 'I' for Inactive)
ROOT
ATOM      1  C   UNL d   1      -5.190   0.395   2.605  0.00  0.00     0.077 C 
ATOM      2  C1  UNL d   1      -4.865   0.417   1.141  0.00  0.00    -0.074 A 
ATOM      3  C2  UNL d   1      -5.615   1.191   0.250  0.00  0.00    -0.005 A 
ATOM      4  C3  UNL d   1      -5.295   1.209  -1.108  0.00  0.00     0.006 A 
ATOM      5  C4  UNL d   1      -4.225   0.454  -1.587  0.00  0.00    -0.005 A 
ATOM      6  C5  UNL d   1      -3.463  -0.326  -0.711  0.00  0.00    -0.074 A 
ATOM      7  C6  UNL d   1      -2.303  -1.136  -1.208  0.00  0.00     0.077 C 
ATOM      8  C7  UNL d   1      -3.786  -0.333   0.653  0.00  0.00    -0.001 A 
ENDROOT
TORSDOF 0
ENDMDL
