MODEL 1
REMARK minimizedAffinity 6.22368336
REMARK minimizedRMSD -1
REMARK  0 active torsions:
REMARK  status: ('A' for Active; 'I' for Inactive)
ROOT
ATOM      1  C   UNL d   1      -3.651  -0.914  -1.544  0.00  0.00     0.077 C 
ATOM      2  C1  UNL d   1      -2.228  -0.477  -1.361  0.00  0.00    -0.074 A 
ATOM      3  C2  UNL d   1      -1.168  -1.353  -1.619  0.00  0.00    -0.005 A 
ATOM      4  C3  UNL d   1       0.151  -0.929  -1.454  0.00  0.00     0.006 A 
ATOM      5  C4  UNL d   1       0.423   0.372  -1.031  0.00  0.00    -0.005 A 
ATOM      6  C5  UNL d   1      -0.624   1.263  -0.769  0.00  0.00    -0.074 A 
ATOM      7  C6  UNL d   1      -0.348   2.668  -0.323  0.00  0.00     0.077 C 
ATOM      8  C7  UNL d   1      -1.946   0.832  -0.944  0.00  0.00    -0.001 A 
ENDROOT
TORSDOF 0
ENDMDL
