MODEL 1
REMARK minimizedAffinity -2.26322341
REMARK minimizedRMSD -1
REMARK  0 active torsions:
REMARK  status: ('A' for Active; 'I' for Inactive)
ROOT
ATOM      1  C   UNL d   1      -0.252   2.699  -0.903  0.00  0.00     0.077 C 
ATOM      2  C1  UNL d   1      -0.851   1.328  -1.019  0.00  0.00    -0.074 A 
ATOM      3  C2  UNL d   1      -0.042   0.204  -1.214  0.00  0.00    -0.005 A 
ATOM      4  C3  UNL d   1      -0.613  -1.065  -1.311  0.00  0.00     0.006 A 
ATOM      5  C4  UNL d   1      -1.996  -1.222  -1.213  0.00  0.00    -0.005 A 
ATOM      6  C5  UNL d   1      -2.821  -0.110  -1.016  0.00  0.00    -0.074 A 
ATOM      7  C6  UNL d   1      -4.308  -0.263  -0.899  0.00  0.00     0.077 C 
ATOM      8  C7  UNL d   1      -2.239   1.161  -0.914  0.00  0.00    -0.001 A 
ENDROOT
TORSDOF 0
ENDMDL
