MODEL 1
REMARK minimizedAffinity 10.3288059
REMARK minimizedRMSD -1
REMARK  0 active torsions:
REMARK  status: ('A' for Active; 'I' for Inactive)
ROOT
ATOM      1  C   UNL d   1      -3.901  -0.426  -1.083  0.00  0.00     0.077 C 
ATOM      2  C1  UNL d   1      -2.419  -0.203  -1.139  0.00  0.00    -0.074 A 
ATOM      3  C2  UNL d   1      -1.549  -1.239  -1.497  0.00  0.00    -0.005 A 
ATOM      4  C3  UNL d   1      -0.174  -1.014  -1.555  0.00  0.00     0.006 A 
ATOM      5  C4  UNL d   1       0.345   0.246  -1.255  0.00  0.00    -0.005 A 
ATOM      6  C5  UNL d   1      -0.508   1.294  -0.896  0.00  0.00    -0.074 A 
ATOM      7  C6  UNL d   1       0.032   2.657  -0.581  0.00  0.00     0.077 C 
ATOM      8  C7  UNL d   1      -1.890   1.062  -0.847  0.00  0.00    -0.001 A 
ENDROOT
TORSDOF 0
ENDMDL
