MODEL 1
REMARK minimizedAffinity -1.32823277
REMARK minimizedRMSD -1
REMARK  0 active torsions:
REMARK  status: ('A' for Active; 'I' for Inactive)
ROOT
ATOM      1  C   UNL d   1       1.853   4.105   0.716  0.00  0.00    -0.002 A 
ATOM      2  C1  UNL d   1       2.794   3.385  -0.007  0.00  0.00     0.010 A 
ATOM      3  C2  UNL d   1       2.514   2.088  -0.443  0.00  0.00     0.041 A 
ATOM      4  C3  UNL d   1       1.260   1.523  -0.139  0.00  0.00    -0.075 A 
ATOM      5  S   UNL d   1       0.696  -0.048  -0.571  0.00  0.00     0.015 SA
ATOM      6  C4  UNL d   1      -0.807   0.200   0.193  0.00  0.00     0.022 A 
ATOM      7  C5  UNL d   1      -0.894   1.445   0.769  0.00  0.00     0.026 A 
ATOM      8  C6  UNL d   1       0.296   2.228   0.587  0.00  0.00    -0.082 A 
ATOM      9  C7  UNL d   1       0.610   3.540   1.016  0.00  0.00     0.045 A 
ENDROOT
TORSDOF 0
ENDMDL
