MODEL 1
REMARK minimizedAffinity -1.72000253
REMARK minimizedRMSD -1
REMARK  0 active torsions:
REMARK  status: ('A' for Active; 'I' for Inactive)
ROOT
ATOM      1  C   UNL d   1      -1.189   0.366   1.284  0.00  0.00    -0.002 A 
ATOM      2  C1  UNL d   1      -1.555  -0.654   2.151  0.00  0.00     0.010 A 
ATOM      3  C2  UNL d   1      -1.105  -1.959   1.942  0.00  0.00     0.041 A 
ATOM      4  C3  UNL d   1      -0.271  -2.223   0.838  0.00  0.00    -0.075 A 
ATOM      5  S   UNL d   1       0.402  -3.745   0.385  0.00  0.00     0.015 SA
ATOM      6  C4  UNL d   1       1.193  -3.076  -0.969  0.00  0.00     0.022 A 
ATOM      7  C5  UNL d   1       0.959  -1.726  -1.088  0.00  0.00     0.026 A 
ATOM      8  C6  UNL d   1       0.112  -1.213  -0.048  0.00  0.00    -0.082 A 
ATOM      9  C7  UNL d   1      -0.362   0.100   0.190  0.00  0.00     0.045 A 
ENDROOT
TORSDOF 0
ENDMDL
