MODEL 1
REMARK minimizedAffinity -0.941320777
REMARK minimizedRMSD -1
REMARK  0 active torsions:
REMARK  status: ('A' for Active; 'I' for Inactive)
ROOT
ATOM      1  C   UNL d   1      -0.599  -3.211   0.224  0.00  0.00    -0.002 A 
ATOM      2  C1  UNL d   1       0.632  -3.072  -0.400  0.00  0.00     0.010 A 
ATOM      3  C2  UNL d   1       1.215  -1.812  -0.549  0.00  0.00     0.041 A 
ATOM      4  C3  UNL d   1       0.534  -0.684  -0.052  0.00  0.00    -0.075 A 
ATOM      5  S   UNL d   1       1.056   0.958  -0.120  0.00  0.00     0.015 SA
ATOM      6  C4  UNL d   1      -0.343   1.514   0.680  0.00  0.00     0.022 A 
ATOM      7  C5  UNL d   1      -1.198   0.485   0.998  0.00  0.00     0.026 A 
ATOM      8  C6  UNL d   1      -0.706  -0.798   0.582  0.00  0.00    -0.082 A 
ATOM      9  C7  UNL d   1      -1.271  -2.089   0.716  0.00  0.00     0.045 A 
ENDROOT
TORSDOF 0
ENDMDL
