MODEL 1
REMARK minimizedAffinity -2.06027889
REMARK minimizedRMSD -1
REMARK  0 active torsions:
REMARK  status: ('A' for Active; 'I' for Inactive)
ROOT
ATOM      1  C   UNL d   1      -0.270  -0.727   1.615  0.00  0.00    -0.002 A 
ATOM      2  C1  UNL d   1       0.160  -2.010   1.305  0.00  0.00     0.010 A 
ATOM      3  C2  UNL d   1       0.476  -2.355  -0.010  0.00  0.00     0.041 A 
ATOM      4  C3  UNL d   1       0.354  -1.378  -1.019  0.00  0.00    -0.075 A 
ATOM      5  S   UNL d   1       0.686  -1.572  -2.699  0.00  0.00     0.015 SA
ATOM      6  C4  UNL d   1       0.266   0.043  -3.045  0.00  0.00     0.022 A 
ATOM      7  C5  UNL d   1      -0.121   0.728  -1.918  0.00  0.00     0.026 A 
ATOM      8  C6  UNL d   1      -0.076  -0.080  -0.731  0.00  0.00    -0.082 A 
ATOM      9  C7  UNL d   1      -0.390   0.238   0.612  0.00  0.00     0.045 A 
ENDROOT
TORSDOF 0
ENDMDL
