MODEL 1
REMARK minimizedAffinity -3.79508853
REMARK minimizedRMSD -1
REMARK  0 active torsions:
REMARK  status: ('A' for Active; 'I' for Inactive)
ROOT
ATOM      1  C   UNL d   1      -0.211  -3.454   0.162  0.00  0.00    -0.002 A 
ATOM      2  C1  UNL d   1       0.526  -3.094  -0.958  0.00  0.00     0.010 A 
ATOM      3  C2  UNL d   1       0.788  -1.751  -1.235  0.00  0.00     0.041 A 
ATOM      4  C3  UNL d   1       0.294  -0.766  -0.357  0.00  0.00    -0.075 A 
ATOM      5  S   UNL d   1       0.491   0.941  -0.495  0.00  0.00     0.015 SA
ATOM      6  C4  UNL d   1      -0.397   1.234   0.930  0.00  0.00     0.022 A 
ATOM      7  C5  UNL d   1      -0.841   0.068   1.509  0.00  0.00     0.026 A 
ATOM      8  C6  UNL d   1      -0.450  -1.103   0.777  0.00  0.00    -0.082 A 
ATOM      9  C7  UNL d   1      -0.699  -2.474   1.029  0.00  0.00     0.045 A 
ENDROOT
TORSDOF 0
ENDMDL
