MODEL 1
REMARK minimizedAffinity -3.96925664
REMARK minimizedRMSD -1
REMARK  0 active torsions:
REMARK  status: ('A' for Active; 'I' for Inactive)
ROOT
ATOM      1  C   UNL d   1       0.398   0.475  -2.453  0.00  0.00    -0.002 A 
ATOM      2  C1  UNL d   1      -0.330   1.277  -1.585  0.00  0.00     0.010 A 
ATOM      3  C2  UNL d   1      -0.669   0.818  -0.310  0.00  0.00     0.041 A 
ATOM      4  C3  UNL d   1      -0.260  -0.471   0.082  0.00  0.00    -0.075 A 
ATOM      5  S   UNL d   1      -0.560  -1.242   1.594  0.00  0.00     0.015 SA
ATOM      6  C4  UNL d   1       0.272  -2.654   1.125  0.00  0.00     0.022 A 
ATOM      7  C5  UNL d   1       0.772  -2.557  -0.152  0.00  0.00     0.026 A 
ATOM      8  C6  UNL d   1       0.475  -1.297  -0.774  0.00  0.00    -0.082 A 
ATOM      9  C7  UNL d   1       0.803  -0.804  -2.060  0.00  0.00     0.045 A 
ENDROOT
TORSDOF 0
ENDMDL
