MODEL 1
REMARK minimizedAffinity -0.87509805
REMARK minimizedRMSD -1
REMARK  0 active torsions:
REMARK  status: ('A' for Active; 'I' for Inactive)
ROOT
ATOM      1  C   UNL d   1       0.706  -3.089  -0.538  0.00  0.00    -0.002 A 
ATOM      2  C1  UNL d   1      -0.258  -3.352   0.425  0.00  0.00     0.010 A 
ATOM      3  C2  UNL d   1      -0.940  -2.308   1.051  0.00  0.00     0.041 A 
ATOM      4  C3  UNL d   1      -0.636  -0.981   0.689  0.00  0.00    -0.075 A 
ATOM      5  S   UNL d   1      -1.345   0.458   1.322  0.00  0.00     0.015 SA
ATOM      6  C4  UNL d   1      -0.386   1.456   0.328  0.00  0.00     0.022 A 
ATOM      7  C5  UNL d   1       0.461   0.727  -0.473  0.00  0.00     0.026 A 
ATOM      8  C6  UNL d   1       0.330  -0.690  -0.278  0.00  0.00    -0.082 A 
ATOM      9  C7  UNL d   1       1.005  -1.771  -0.894  0.00  0.00     0.045 A 
ENDROOT
TORSDOF 0
ENDMDL
