MODEL 1
REMARK minimizedAffinity -4.1852231
REMARK minimizedRMSD -1
REMARK  0 active torsions:
REMARK  status: ('A' for Active; 'I' for Inactive)
ROOT
ATOM      1  C   UNL d   1      -0.387  -1.791   1.243  0.00  0.00    -0.002 A 
ATOM      2  C1  UNL d   1      -0.233  -2.174  -0.082  0.00  0.00     0.010 A 
ATOM      3  C2  UNL d   1      -0.027  -1.218  -1.078  0.00  0.00     0.041 A 
ATOM      4  C3  UNL d   1       0.024   0.143  -0.716  0.00  0.00    -0.075 A 
ATOM      5  S   UNL d   1       0.267   1.489  -1.766  0.00  0.00     0.015 SA
ATOM      6  C4  UNL d   1       0.173   2.604  -0.480  0.00  0.00     0.022 A 
ATOM      7  C5  UNL d   1      -0.039   1.981   0.727  0.00  0.00     0.026 A 
ATOM      8  C6  UNL d   1      -0.127   0.553   0.611  0.00  0.00    -0.082 A 
ATOM      9  C7  UNL d   1      -0.336  -0.441   1.598  0.00  0.00     0.045 A 
ENDROOT
TORSDOF 0
ENDMDL
