MODEL 1
REMARK minimizedAffinity -5.31039238
REMARK minimizedRMSD -1
REMARK  0 active torsions:
REMARK  status: ('A' for Active; 'I' for Inactive)
ROOT
ATOM      1  C   UNL d   1      -0.493  -3.027   1.154  0.00  0.00    -0.002 A 
ATOM      2  C1  UNL d   1      -1.162  -2.034   1.855  0.00  0.00     0.010 A 
ATOM      3  C2  UNL d   1      -1.225  -0.731   1.357  0.00  0.00     0.041 A 
ATOM      4  C3  UNL d   1      -0.599  -0.440   0.128  0.00  0.00    -0.075 A 
ATOM      5  S   UNL d   1      -0.547   1.083  -0.677  0.00  0.00     0.015 SA
ATOM      6  C4  UNL d   1       0.364   0.452  -1.972  0.00  0.00     0.022 A 
ATOM      7  C5  UNL d   1       0.631  -0.887  -1.810  0.00  0.00     0.026 A 
ATOM      8  C6  UNL d   1       0.080  -1.424  -0.597  0.00  0.00    -0.082 A 
ATOM      9  C7  UNL d   1       0.126  -2.735  -0.065  0.00  0.00     0.045 A 
ENDROOT
TORSDOF 0
ENDMDL
