MODEL 1
REMARK minimizedAffinity -3.12460732
REMARK minimizedRMSD -1
REMARK  0 active torsions:
REMARK  status: ('A' for Active; 'I' for Inactive)
ROOT
ATOM      1  C   UNL d   1      -1.138  -2.278   1.124  0.00  0.00    -0.002 A 
ATOM      2  C1  UNL d   1      -0.143  -2.585   0.206  0.00  0.00     0.010 A 
ATOM      3  C2  UNL d   1       0.518  -1.572  -0.490  0.00  0.00     0.041 A 
ATOM      4  C3  UNL d   1       0.161  -0.231  -0.244  0.00  0.00    -0.075 A 
ATOM      5  S   UNL d   1       0.835   1.175  -0.978  0.00  0.00     0.015 SA
ATOM      6  C4  UNL d   1      -0.180   2.217  -0.091  0.00  0.00     0.022 A 
ATOM      7  C5  UNL d   1      -1.020   1.525   0.750  0.00  0.00     0.026 A 
ATOM      8  C6  UNL d   1      -0.837   0.103   0.676  0.00  0.00    -0.082 A 
ATOM      9  C7  UNL d   1      -1.490  -0.947   1.365  0.00  0.00     0.045 A 
ENDROOT
TORSDOF 0
ENDMDL
