MODEL 1
REMARK minimizedAffinity -5.98248863
REMARK minimizedRMSD -1
REMARK  0 active torsions:
REMARK  status: ('A' for Active; 'I' for Inactive)
ROOT
ATOM      1  C   UNL d   1       0.391  -3.109  -2.014  0.00  0.00    -0.002 A 
ATOM      2  C1  UNL d   1      -0.018  -3.674  -0.814  0.00  0.00     0.010 A 
ATOM      3  C2  UNL d   1      -0.398  -2.865   0.259  0.00  0.00     0.041 A 
ATOM      4  C3  UNL d   1      -0.362  -1.465   0.103  0.00  0.00    -0.075 A 
ATOM      5  S   UNL d   1      -0.783  -0.278   1.280  0.00  0.00     0.015 SA
ATOM      6  C4  UNL d   1      -0.431   1.008   0.218  0.00  0.00     0.022 A 
ATOM      7  C5  UNL d   1      -0.001   0.560  -1.009  0.00  0.00     0.026 A 
ATOM      8  C6  UNL d   1       0.046  -0.873  -1.095  0.00  0.00    -0.082 A 
ATOM      9  C7  UNL d   1       0.425  -1.720  -2.164  0.00  0.00     0.045 A 
ENDROOT
TORSDOF 0
ENDMDL
