MODEL 1
REMARK minimizedAffinity -0.988070309
REMARK minimizedRMSD -1
REMARK  0 active torsions:
REMARK  status: ('A' for Active; 'I' for Inactive)
ROOT
ATOM      1  C   UNL d   1      -1.510  -2.050   1.002  0.00  0.00    -0.002 A 
ATOM      2  C1  UNL d   1      -1.072  -1.247   2.046  0.00  0.00     0.010 A 
ATOM      3  C2  UNL d   1      -0.419  -0.040   1.788  0.00  0.00     0.041 A 
ATOM      4  C3  UNL d   1      -0.213   0.351   0.450  0.00  0.00    -0.075 A 
ATOM      5  S   UNL d   1       0.562   1.787  -0.105  0.00  0.00     0.015 SA
ATOM      6  C4  UNL d   1       0.329   1.370  -1.741  0.00  0.00     0.022 A 
ATOM      7  C5  UNL d   1      -0.323   0.167  -1.878  0.00  0.00     0.026 A 
ATOM      8  C6  UNL d   1      -0.646  -0.440  -0.618  0.00  0.00    -0.082 A 
ATOM      9  C7  UNL d   1      -1.305  -1.658  -0.323  0.00  0.00     0.045 A 
ENDROOT
TORSDOF 0
ENDMDL
