MODEL 1
REMARK minimizedAffinity -3.48954725
REMARK minimizedRMSD -1
REMARK  0 active torsions:
REMARK  status: ('A' for Active; 'I' for Inactive)
ROOT
ATOM      1  C   UNL d   1       0.045  -3.001   1.058  0.00  0.00    -0.002 A 
ATOM      2  C1  UNL d   1       1.270  -2.863   0.421  0.00  0.00     0.010 A 
ATOM      3  C2  UNL d   1       1.607  -1.669  -0.219  0.00  0.00     0.041 A 
ATOM      4  C3  UNL d   1       0.684  -0.605  -0.207  0.00  0.00    -0.075 A 
ATOM      5  S   UNL d   1       0.881   0.951  -0.924  0.00  0.00     0.015 SA
ATOM      6  C4  UNL d   1      -0.656   1.469  -0.400  0.00  0.00     0.022 A 
ATOM      7  C5  UNL d   1      -1.317   0.492   0.305  0.00  0.00     0.026 A 
ATOM      8  C6  UNL d   1      -0.556  -0.719   0.429  0.00  0.00    -0.082 A 
ATOM      9  C7  UNL d   1      -0.868  -1.943   1.068  0.00  0.00     0.045 A 
ENDROOT
TORSDOF 0
ENDMDL
