MODEL 1
REMARK minimizedAffinity 6.56638145
REMARK minimizedRMSD -1
REMARK  0 active torsions:
REMARK  status: ('A' for Active; 'I' for Inactive)
ROOT
ATOM      1  C1  DEN d   1       3.131  -5.999   1.585  0.00  0.00     0.130 A 
ATOM      2  C2  DEN d   1       1.782  -5.965   2.141  0.00  0.00    -0.031 A 
ATOM      3  C3  DEN d   1       0.825  -5.951   1.017  0.00  0.00     0.027 A 
ATOM      4  C4  DEN d   1       1.299  -5.982  -1.519  0.00  0.00     0.027 A 
ATOM      5  C5  DEN d   1       2.290  -5.999  -2.475  0.00  0.00    -0.003 A 
ATOM      6  C6  DEN d   1       3.620  -5.983  -2.148  0.00  0.00     0.001 A 
ATOM      7  C7  DEN d   1       3.996  -5.994  -0.831  0.00  0.00     0.017 A 
ATOM      8  C8  DEN d   1       3.003  -5.970   0.139  0.00  0.00    -0.094 A 
ATOM      9  C9  DEN d   1       1.663  -5.999  -0.211  0.00  0.00    -0.072 A 
ENDROOT
TORSDOF 0
ENDMDL
