MODEL 1
REMARK minimizedAffinity 5.78454924
REMARK minimizedRMSD -1
REMARK  0 active torsions:
REMARK  status: ('A' for Active; 'I' for Inactive)
ROOT
ATOM      1  C1  DEN d   1       2.148  -3.503   4.130  0.00  0.00     0.130 A 
ATOM      2  C2  DEN d   1       1.502  -2.251   3.744  0.00  0.00    -0.031 A 
ATOM      3  C3  DEN d   1       1.345  -2.253   2.276  0.00  0.00     0.027 A 
ATOM      4  C4  DEN d   1       2.031  -4.063   0.572  0.00  0.00     0.027 A 
ATOM      5  C5  DEN d   1       2.624  -5.298   0.424  0.00  0.00    -0.003 A 
ATOM      6  C6  DEN d   1       3.126  -6.000   1.487  0.00  0.00     0.001 A 
ATOM      7  C7  DEN d   1       3.004  -5.492   2.754  0.00  0.00     0.017 A 
ATOM      8  C8  DEN d   1       2.414  -4.245   2.911  0.00  0.00    -0.094 A 
ATOM      9  C9  DEN d   1       1.902  -3.556   1.824  0.00  0.00    -0.072 A 
ENDROOT
TORSDOF 0
ENDMDL
