MODEL 1
REMARK minimizedAffinity 12.370429
REMARK minimizedRMSD -1
REMARK  0 active torsions:
REMARK  status: ('A' for Active; 'I' for Inactive)
ROOT
ATOM      1  C1  DEN d   1       3.541  -5.456   1.642  0.00  0.00     0.130 A 
ATOM      2  C2  DEN d   1       2.643  -5.785   0.539  0.00  0.00    -0.031 A 
ATOM      3  C3  DEN d   1       1.654  -4.696   0.415  0.00  0.00     0.027 A 
ATOM      4  C4  DEN d   1       1.430  -2.541   1.815  0.00  0.00     0.027 A 
ATOM      5  C5  DEN d   1       1.956  -1.828   2.870  0.00  0.00    -0.003 A 
ATOM      6  C6  DEN d   1       3.017  -2.286   3.604  0.00  0.00     0.001 A 
ATOM      7  C7  DEN d   1       3.615  -3.471   3.266  0.00  0.00     0.017 A 
ATOM      8  C8  DEN d   1       3.086  -4.199   2.209  0.00  0.00    -0.094 A 
ATOM      9  C9  DEN d   1       2.021  -3.713   1.470  0.00  0.00    -0.072 A 
ENDROOT
TORSDOF 0
ENDMDL
