MODEL 1
REMARK minimizedAffinity 4.41795635
REMARK minimizedRMSD -1
REMARK  0 active torsions:
REMARK  status: ('A' for Active; 'I' for Inactive)
ROOT
ATOM      1  C1  DEN d   1       5.668  -5.914  -2.225  0.00  0.00     0.130 A 
ATOM      2  C2  DEN d   1       4.474  -5.953  -1.385  0.00  0.00    -0.031 A 
ATOM      3  C3  DEN d   1       3.294  -5.992  -2.271  0.00  0.00     0.027 A 
ATOM      4  C4  DEN d   1       3.198  -5.999  -4.848  0.00  0.00     0.027 A 
ATOM      5  C5  DEN d   1       3.954  -5.964  -6.000  0.00  0.00    -0.003 A 
ATOM      6  C6  DEN d   1       5.320  -5.876  -5.974  0.00  0.00     0.001 A 
ATOM      7  C7  DEN d   1       5.977  -5.866  -4.772  0.00  0.00     0.017 A 
ATOM      8  C8  DEN d   1       5.222  -5.894  -3.607  0.00  0.00    -0.094 A 
ATOM      9  C9  DEN d   1       3.842  -5.995  -3.654  0.00  0.00    -0.072 A 
ENDROOT
TORSDOF 0
ENDMDL
