MODEL 1
REMARK minimizedAffinity 16.1325169
REMARK minimizedRMSD -1
REMARK  0 active torsions:
REMARK  status: ('A' for Active; 'I' for Inactive)
ROOT
ATOM      1  C   UNL d   1      -0.779   2.264   1.866  0.00  0.00    -0.002 A 
ATOM      2  C1  UNL d   1       0.559   2.274   1.498  0.00  0.00     0.010 A 
ATOM      3  C2  UNL d   1       0.928   2.489   0.169  0.00  0.00     0.041 A 
ATOM      4  C3  UNL d   1      -0.080   2.697  -0.794  0.00  0.00    -0.075 A 
ATOM      5  S   UNL d   1       0.136   2.981  -2.480  0.00  0.00     0.015 SA
ATOM      6  C4  UNL d   1      -1.542   3.096  -2.752  0.00  0.00     0.022 A 
ATOM      7  C5  UNL d   1      -2.265   2.924  -1.595  0.00  0.00     0.026 A 
ATOM      8  C6  UNL d   1      -1.434   2.692  -0.447  0.00  0.00    -0.082 A 
ATOM      9  C7  UNL d   1      -1.776   2.471   0.909  0.00  0.00     0.045 A 
ENDROOT
TORSDOF 0
ENDMDL
