MODEL 1
REMARK minimizedAffinity 17.9552174
REMARK minimizedRMSD -1
REMARK  0 active torsions:
REMARK  status: ('A' for Active; 'I' for Inactive)
ROOT
ATOM      1  C   UNL d   1      -3.959   1.156  -2.793  0.00  0.00    -0.002 A 
ATOM      2  C1  UNL d   1      -3.795   0.502  -1.580  0.00  0.00     0.010 A 
ATOM      3  C2  UNL d   1      -2.629   0.677  -0.831  0.00  0.00     0.041 A 
ATOM      4  C3  UNL d   1      -1.622   1.528  -1.327  0.00  0.00    -0.075 A 
ATOM      5  S   UNL d   1      -0.111   1.894  -0.582  0.00  0.00     0.015 SA
ATOM      6  C4  UNL d   1       0.352   2.927  -1.856  0.00  0.00     0.022 A 
ATOM      7  C5  UNL d   1      -0.611   3.003  -2.834  0.00  0.00     0.026 A 
ATOM      8  C6  UNL d   1      -1.765   2.198  -2.545  0.00  0.00    -0.082 A 
ATOM      9  C7  UNL d   1      -2.959   2.000  -3.281  0.00  0.00     0.045 A 
ENDROOT
TORSDOF 0
ENDMDL
