MODEL 1
REMARK minimizedAffinity 11.0645161
REMARK minimizedRMSD -1
REMARK  0 active torsions:
REMARK  status: ('A' for Active; 'I' for Inactive)
ROOT
ATOM      1  C   UNL d   1      -0.331   3.770  -1.245  0.00  0.00    -0.002 A 
ATOM      2  C1  UNL d   1      -0.806   2.481  -1.440  0.00  0.00     0.010 A 
ATOM      3  C2  UNL d   1      -0.781   1.550  -0.400  0.00  0.00     0.041 A 
ATOM      4  C3  UNL d   1      -0.267   1.940   0.852  0.00  0.00    -0.075 A 
ATOM      5  S   UNL d   1      -0.137   0.970   2.271  0.00  0.00     0.015 SA
ATOM      6  C4  UNL d   1       0.551   2.244   3.170  0.00  0.00     0.022 A 
ATOM      7  C5  UNL d   1       0.686   3.389   2.421  0.00  0.00     0.026 A 
ATOM      8  C6  UNL d   1       0.216   3.233   1.073  0.00  0.00    -0.082 A 
ATOM      9  C7  UNL d   1       0.178   4.154  -0.002  0.00  0.00     0.045 A 
ENDROOT
TORSDOF 0
ENDMDL
