MODEL 1
REMARK minimizedAffinity 8.13316631
REMARK minimizedRMSD -1
REMARK  0 active torsions:
REMARK  status: ('A' for Active; 'I' for Inactive)
ROOT
ATOM      1  C   UNL d   1       1.675   4.265   2.574  0.00  0.00    -0.002 A 
ATOM      2  C1  UNL d   1       0.866   3.491   3.393  0.00  0.00     0.010 A 
ATOM      3  C2  UNL d   1      -0.192   2.755   2.856  0.00  0.00     0.041 A 
ATOM      4  C3  UNL d   1      -0.423   2.808   1.467  0.00  0.00    -0.075 A 
ATOM      5  S   UNL d   1      -1.658   1.989   0.587  0.00  0.00     0.015 SA
ATOM      6  C4  UNL d   1      -1.139   2.646  -0.898  0.00  0.00     0.022 A 
ATOM      7  C5  UNL d   1      -0.052   3.472  -0.744  0.00  0.00     0.026 A 
ATOM      8  C6  UNL d   1       0.380   3.579   0.621  0.00  0.00    -0.082 A 
ATOM      9  C7  UNL d   1       1.443   4.315   1.197  0.00  0.00     0.045 A 
ENDROOT
TORSDOF 0
ENDMDL
