MODEL 1
REMARK minimizedAffinity 15.7941751
REMARK minimizedRMSD -1
REMARK  0 active torsions:
REMARK  status: ('A' for Active; 'I' for Inactive)
ROOT
ATOM      1  C   UNL d   1       0.889   2.602   3.294  0.00  0.00    -0.002 A 
ATOM      2  C1  UNL d   1       0.062   1.539   2.958  0.00  0.00     0.010 A 
ATOM      3  C2  UNL d   1      -0.589   1.508   1.723  0.00  0.00     0.041 A 
ATOM      4  C3  UNL d   1      -0.391   2.573   0.821  0.00  0.00    -0.075 A 
ATOM      5  S   UNL d   1      -1.084   2.748  -0.748  0.00  0.00     0.015 SA
ATOM      6  C4  UNL d   1      -0.298   4.238  -1.010  0.00  0.00     0.022 A 
ATOM      7  C5  UNL d   1       0.478   4.607   0.064  0.00  0.00     0.026 A 
ATOM      8  C6  UNL d   1       0.437   3.654   1.136  0.00  0.00    -0.082 A 
ATOM      9  C7  UNL d   1       1.082   3.656   2.397  0.00  0.00     0.045 A 
ENDROOT
TORSDOF 0
ENDMDL
