MODEL 1
REMARK minimizedAffinity 17.145525
REMARK minimizedRMSD -1
REMARK  0 active torsions:
REMARK  status: ('A' for Active; 'I' for Inactive)
ROOT
ATOM      1  C   UNL d   1       3.008  -1.123  -0.005  0.00  0.00    -0.002 A 
ATOM      2  C1  UNL d   1       2.094  -2.151   0.174  0.00  0.00     0.010 A 
ATOM      3  C2  UNL d   1       2.468  -3.479  -0.039  0.00  0.00     0.041 A 
ATOM      4  C3  UNL d   1       3.790  -3.759  -0.438  0.00  0.00    -0.075 A 
ATOM      5  S   UNL d   1       4.474  -5.310  -0.757  0.00  0.00     0.015 SA
ATOM      6  C4  UNL d   1       5.996  -4.643  -1.137  0.00  0.00     0.022 A 
ATOM      7  C5  UNL d   1       6.000  -3.273  -1.030  0.00  0.00     0.026 A 
ATOM      8  C6  UNL d   1       4.729  -2.741  -0.624  0.00  0.00    -0.082 A 
ATOM      9  C7  UNL d   1       4.319  -1.404  -0.401  0.00  0.00     0.045 A 
ENDROOT
TORSDOF 0
ENDMDL
