MODEL 1
REMARK minimizedAffinity 5.75899267
REMARK minimizedRMSD -1
REMARK  0 active torsions:
REMARK  status: ('A' for Active; 'I' for Inactive)
ROOT
ATOM      1  C   UNL d   1       1.733   3.758   2.978  0.00  0.00    -0.002 A 
ATOM      2  C1  UNL d   1       1.075   2.618   3.417  0.00  0.00     0.010 A 
ATOM      3  C2  UNL d   1       0.165   1.959   2.587  0.00  0.00     0.041 A 
ATOM      4  C3  UNL d   1      -0.073   2.469   1.296  0.00  0.00    -0.075 A 
ATOM      5  S   UNL d   1      -1.143   1.828   0.106  0.00  0.00     0.015 SA
ATOM      6  C4  UNL d   1      -0.751   3.052  -1.014  0.00  0.00     0.022 A 
ATOM      7  C5  UNL d   1       0.172   3.936  -0.509  0.00  0.00     0.026 A 
ATOM      8  C6  UNL d   1       0.579   3.615   0.831  0.00  0.00    -0.082 A 
ATOM      9  C7  UNL d   1       1.494   4.261   1.696  0.00  0.00     0.045 A 
ENDROOT
TORSDOF 0
ENDMDL
