MODEL 1
REMARK minimizedAffinity 9.99017143
REMARK minimizedRMSD -1
REMARK  0 active torsions:
REMARK  status: ('A' for Active; 'I' for Inactive)
ROOT
ATOM      1  C   UNL d   1       1.164   2.961   3.542  0.00  0.00    -0.002 A 
ATOM      2  C1  UNL d   1       0.572   1.707   3.492  0.00  0.00     0.010 A 
ATOM      3  C2  UNL d   1      -0.075   1.272   2.333  0.00  0.00     0.041 A 
ATOM      4  C3  UNL d   1      -0.114   2.126   1.214  0.00  0.00    -0.075 A 
ATOM      5  S   UNL d   1      -0.848   1.806  -0.313  0.00  0.00     0.015 SA
ATOM      6  C4  UNL d   1      -0.392   3.325  -0.935  0.00  0.00     0.022 A 
ATOM      7  C5  UNL d   1       0.304   4.072  -0.014  0.00  0.00     0.026 A 
ATOM      8  C6  UNL d   1       0.477   3.393   1.239  0.00  0.00    -0.082 A 
ATOM      9  C7  UNL d   1       1.123   3.805   2.429  0.00  0.00     0.045 A 
ENDROOT
TORSDOF 0
ENDMDL
