MODEL 1
REMARK minimizedAffinity 10.8593969
REMARK minimizedRMSD -1
REMARK  0 active torsions:
REMARK  status: ('A' for Active; 'I' for Inactive)
ROOT
ATOM      1  C   UNL d   1      -4.907  -0.111   2.721  0.00  0.00    -0.002 A 
ATOM      2  C1  UNL d   1      -5.580   0.400   3.821  0.00  0.00     0.010 A 
ATOM      3  C2  UNL d   1      -5.955  -0.435   4.876  0.00  0.00     0.041 A 
ATOM      4  C3  UNL d   1      -5.637  -1.805   4.806  0.00  0.00    -0.075 A 
ATOM      5  S   UNL d   1      -5.995  -3.016   5.980  0.00  0.00     0.015 SA
ATOM      6  C4  UNL d   1      -5.261  -4.241   5.049  0.00  0.00     0.022 A 
ATOM      7  C5  UNL d   1      -4.751  -3.756   3.868  0.00  0.00     0.026 A 
ATOM      8  C6  UNL d   1      -4.958  -2.344   3.709  0.00  0.00    -0.082 A 
ATOM      9  C7  UNL d   1      -4.593  -1.472   2.655  0.00  0.00     0.045 A 
ENDROOT
TORSDOF 0
ENDMDL
