MODEL 1
REMARK minimizedAffinity -4.50688648
REMARK minimizedRMSD -1
REMARK  1 active torsions:
REMARK  status: ('A' for Active; 'I' for Inactive)
REMARK    1  A    between atoms: C3_4  and  O_7 
ROOT
ATOM      1  C   UNL d   1       0.801  -0.014  -0.204  0.00  0.00    -0.033 A 
ATOM      2  C1  UNL d   1       1.423   0.527   0.923  0.00  0.00     0.039 A 
ATOM      3  C2  UNL d   1       0.852   0.359   2.186  0.00  0.00    -0.080 A 
ATOM      4  C3  UNL d   1      -0.338  -0.353   2.308  0.00  0.00     0.150 A 
ATOM      5  C4  UNL d   1      -0.961  -0.898   1.190  0.00  0.00    -0.007 A 
ATOM      6  C5  UNL d   1      -0.390  -0.728  -0.070  0.00  0.00     0.039 A 
ENDROOT
BRANCH   4   7
ATOM      7  O   UNL d   1      -0.935  -0.540   3.519  0.00  0.00    -0.526 OA
ATOM      8  H5  UNL d   1      -0.408  -0.083   4.196  0.00  0.00     0.418 HD
ENDBRANCH   4   7
TORSDOF 1
ENDMDL
