MODEL 1
REMARK minimizedAffinity -4.71724558
REMARK minimizedRMSD -1
REMARK  1 active torsions:
REMARK  status: ('A' for Active; 'I' for Inactive)
REMARK    1  A    between atoms: C3_4  and  O_7 
ROOT
ATOM      1  C   UNL d   1      -1.085   0.072  -0.018  0.00  0.00    -0.033 A 
ATOM      2  C1  UNL d   1       0.239  -0.318   0.191  0.00  0.00     0.039 A 
ATOM      3  C2  UNL d   1       0.657  -0.726   1.459  0.00  0.00    -0.080 A 
ATOM      4  C3  UNL d   1      -0.258  -0.741   2.508  0.00  0.00     0.150 A 
ATOM      5  C4  UNL d   1      -1.580  -0.357   2.306  0.00  0.00    -0.007 A 
ATOM      6  C5  UNL d   1      -1.995   0.051   1.040  0.00  0.00     0.039 A 
ENDROOT
BRANCH   4   7
ATOM      7  O   UNL d   1       0.104  -1.126   3.764  0.00  0.00    -0.526 OA
ATOM      8  H5  UNL d   1       1.053  -1.336   3.760  0.00  0.00     0.418 HD
ENDBRANCH   4   7
TORSDOF 1
ENDMDL
