MODEL 1
REMARK minimizedAffinity -4.31907034
REMARK minimizedRMSD -1
REMARK  1 active torsions:
REMARK  status: ('A' for Active; 'I' for Inactive)
REMARK    1  A    between atoms: C3_4  and  O_7 
ROOT
ATOM      1  C   UNL d   1       0.010  -0.351  -0.582  0.00  0.00    -0.033 A 
ATOM      2  C1  UNL d   1       1.147  -0.537   0.206  0.00  0.00     0.039 A 
ATOM      3  C2  UNL d   1       1.030  -0.630   1.594  0.00  0.00    -0.080 A 
ATOM      4  C3  UNL d   1      -0.229  -0.537   2.181  0.00  0.00     0.150 A 
ATOM      5  C4  UNL d   1      -1.367  -0.356   1.402  0.00  0.00    -0.007 A 
ATOM      6  C5  UNL d   1      -1.248  -0.262   0.016  0.00  0.00     0.039 A 
ENDROOT
BRANCH   4   7
ATOM      7  O   UNL d   1      -0.393  -0.617   3.532  0.00  0.00    -0.526 OA
ATOM      8  H5  UNL d   1       0.482  -0.713   3.943  0.00  0.00     0.418 HD
ENDBRANCH   4   7
TORSDOF 1
ENDMDL
