MODEL 1
REMARK minimizedAffinity -3.89461899
REMARK minimizedRMSD -1
REMARK  1 active torsions:
REMARK  status: ('A' for Active; 'I' for Inactive)
REMARK    1  A    between atoms: C3_4  and  O_7 
ROOT
ATOM      1  C   UNL d   1       0.002  -0.452   2.989  0.00  0.00    -0.033 A 
ATOM      2  C1  UNL d   1       1.149   0.029   2.354  0.00  0.00     0.039 A 
ATOM      3  C2  UNL d   1       1.225   0.040   0.960  0.00  0.00    -0.080 A 
ATOM      4  C3  UNL d   1       0.150  -0.431   0.213  0.00  0.00     0.150 A 
ATOM      5  C4  UNL d   1      -0.998  -0.909   0.838  0.00  0.00    -0.007 A 
ATOM      6  C5  UNL d   1      -1.072  -0.920   2.230  0.00  0.00     0.039 A 
ENDROOT
BRANCH   4   7
ATOM      7  O   UNL d   1       0.180  -0.445  -1.150  0.00  0.00    -0.526 OA
ATOM      8  H5  UNL d   1       1.045  -0.113  -1.442  0.00  0.00     0.418 HD
ENDBRANCH   4   7
TORSDOF 1
ENDMDL
