MODEL 1
REMARK minimizedAffinity -4.73326397
REMARK minimizedRMSD -1
REMARK  1 active torsions:
REMARK  status: ('A' for Active; 'I' for Inactive)
REMARK    1  A    between atoms: C3_4  and  O_7 
ROOT
ATOM      1  C   UNL d   1      -0.045  -0.045   2.573  0.00  0.00    -0.033 A 
ATOM      2  C1  UNL d   1       1.235   0.229   2.085  0.00  0.00     0.039 A 
ATOM      3  C2  UNL d   1       1.475   0.226   0.710  0.00  0.00    -0.080 A 
ATOM      4  C3  UNL d   1       0.429  -0.051  -0.166  0.00  0.00     0.150 A 
ATOM      5  C4  UNL d   1      -0.849  -0.321   0.312  0.00  0.00    -0.007 A 
ATOM      6  C5  UNL d   1      -1.087  -0.318   1.686  0.00  0.00     0.039 A 
ENDROOT
BRANCH   4   7
ATOM      7  O   UNL d   1       0.617  -0.070  -1.516  0.00  0.00    -0.526 OA
ATOM      8  H5  UNL d   1       1.555   0.106  -1.699  0.00  0.00     0.418 HD
ENDBRANCH   4   7
TORSDOF 1
ENDMDL
