MODEL 1
REMARK minimizedAffinity -5.25496864
REMARK minimizedRMSD -1
REMARK  1 active torsions:
REMARK  status: ('A' for Active; 'I' for Inactive)
REMARK    1  A    between atoms: C3_4  and  O_7 
ROOT
ATOM      1  C   UNL d   1      -1.101   0.881  -0.118  0.00  0.00    -0.033 A 
ATOM      2  C1  UNL d   1       0.199   0.400   0.046  0.00  0.00     0.039 A 
ATOM      3  C2  UNL d   1       0.520  -0.386   1.155  0.00  0.00    -0.080 A 
ATOM      4  C3  UNL d   1      -0.468  -0.684   2.090  0.00  0.00     0.150 A 
ATOM      5  C4  UNL d   1      -1.767  -0.211   1.930  0.00  0.00    -0.007 A 
ATOM      6  C5  UNL d   1      -2.084   0.575   0.823  0.00  0.00     0.039 A 
ENDROOT
BRANCH   4   7
ATOM      7  O   UNL d   1      -0.202  -1.443   3.191  0.00  0.00    -0.526 OA
ATOM      8  H5  UNL d   1       0.741  -1.675   3.184  0.00  0.00     0.418 HD
ENDBRANCH   4   7
TORSDOF 1
ENDMDL
