MODEL 1
REMARK minimizedAffinity -4.13625336
REMARK minimizedRMSD -1
REMARK  1 active torsions:
REMARK  status: ('A' for Active; 'I' for Inactive)
REMARK    1  A    between atoms: C3_4  and  O_7 
ROOT
ATOM      1  C   UNL d   1      -1.033   1.082  -0.721  0.00  0.00    -0.033 A 
ATOM      2  C1  UNL d   1       0.127   0.978   0.049  0.00  0.00     0.039 A 
ATOM      3  C2  UNL d   1       0.155   0.135   1.162  0.00  0.00    -0.080 A 
ATOM      4  C3  UNL d   1      -0.981  -0.599   1.493  0.00  0.00     0.150 A 
ATOM      5  C4  UNL d   1      -2.139  -0.503   0.727  0.00  0.00    -0.007 A 
ATOM      6  C5  UNL d   1      -2.165   0.340  -0.383  0.00  0.00     0.039 A 
ENDROOT
BRANCH   4   7
ATOM      7  O   UNL d   1      -1.003  -1.431   2.572  0.00  0.00    -0.526 OA
ATOM      8  H5  UNL d   1      -0.143  -1.374   3.022  0.00  0.00     0.418 HD
ENDBRANCH   4   7
TORSDOF 1
ENDMDL
