MODEL 1
REMARK minimizedAffinity 0.817673147
REMARK minimizedRMSD -1
REMARK  1 active torsions:
REMARK  status: ('A' for Active; 'I' for Inactive)
REMARK    1  A    between atoms: C3_4  and  O_7 
ROOT
ATOM      1  C   UNL d   1       1.526   1.077   0.488  0.00  0.00    -0.033 A 
ATOM      2  C1  UNL d   1       1.934   1.602   1.716  0.00  0.00     0.039 A 
ATOM      3  C2  UNL d   1       1.171   1.373   2.863  0.00  0.00    -0.080 A 
ATOM      4  C3  UNL d   1       0.004   0.620   2.768  0.00  0.00     0.150 A 
ATOM      5  C4  UNL d   1      -0.406   0.091   1.549  0.00  0.00    -0.007 A 
ATOM      6  C5  UNL d   1       0.356   0.321   0.405  0.00  0.00     0.039 A 
ENDROOT
BRANCH   4   7
ATOM      7  O   UNL d   1      -0.776   0.374   3.859  0.00  0.00    -0.526 OA
ATOM      8  H5  UNL d   1      -0.384   0.825   4.625  0.00  0.00     0.418 HD
ENDBRANCH   4   7
TORSDOF 1
ENDMDL
