MODEL 1
REMARK minimizedAffinity -2.96899986
REMARK minimizedRMSD -1
REMARK  1 active torsions:
REMARK  status: ('A' for Active; 'I' for Inactive)
REMARK    1  A    between atoms: C3_4  and  O_7 
ROOT
ATOM      1  C   UNL d   1       0.586   0.226  -0.094  0.00  0.00    -0.033 A 
ATOM      2  C1  UNL d   1      -0.007  -1.037  -0.029  0.00  0.00     0.039 A 
ATOM      3  C2  UNL d   1      -0.474  -1.529   1.191  0.00  0.00    -0.080 A 
ATOM      4  C3  UNL d   1      -0.344  -0.749   2.337  0.00  0.00     0.150 A 
ATOM      5  C4  UNL d   1       0.242   0.511   2.279  0.00  0.00    -0.007 A 
ATOM      6  C5  UNL d   1       0.709   1.000   1.059  0.00  0.00     0.039 A 
ENDROOT
BRANCH   4   7
ATOM      7  O   UNL d   1      -0.780  -1.188   3.552  0.00  0.00    -0.526 OA
ATOM      8  H5  UNL d   1      -1.136  -2.086   3.444  0.00  0.00     0.418 HD
ENDBRANCH   4   7
TORSDOF 1
ENDMDL
