MODEL 1
REMARK minimizedAffinity -3.15897036
REMARK minimizedRMSD -1
REMARK  1 active torsions:
REMARK  status: ('A' for Active; 'I' for Inactive)
REMARK    1  A    between atoms: C3_4  and  O_7 
ROOT
ATOM      1  C   UNL d   1      -2.253  -0.772   1.021  0.00  0.00    -0.033 A 
ATOM      2  C1  UNL d   1      -2.621   0.231   0.121  0.00  0.00     0.039 A 
ATOM      3  C2  UNL d   1      -1.686   0.733  -0.787  0.00  0.00    -0.080 A 
ATOM      4  C3  UNL d   1      -0.391   0.224  -0.785  0.00  0.00     0.150 A 
ATOM      5  C4  UNL d   1      -0.019  -0.778   0.106  0.00  0.00    -0.007 A 
ATOM      6  C5  UNL d   1      -0.953  -1.277   1.012  0.00  0.00     0.039 A 
ENDROOT
BRANCH   4   7
ATOM      7  O   UNL d   1       0.557   0.685  -1.650  0.00  0.00    -0.526 OA
ATOM      8  H5  UNL d   1       0.165   1.395  -2.186  0.00  0.00     0.418 HD
ENDBRANCH   4   7
TORSDOF 1
ENDMDL
