MODEL 1
REMARK minimizedAffinity 0.80494678
REMARK minimizedRMSD -1
REMARK  1 active torsions:
REMARK  status: ('A' for Active; 'I' for Inactive)
REMARK    1  A    between atoms: C3_4  and  O_7 
ROOT
ATOM      1  C   UNL d   1       0.135  -0.959   0.325  0.00  0.00    -0.033 A 
ATOM      2  C1  UNL d   1      -1.137  -1.446   0.630  0.00  0.00     0.039 A 
ATOM      3  C2  UNL d   1      -2.272  -0.788   0.150  0.00  0.00    -0.080 A 
ATOM      4  C3  UNL d   1      -2.120   0.352  -0.634  0.00  0.00     0.150 A 
ATOM      5  C4  UNL d   1      -0.856   0.841  -0.945  0.00  0.00    -0.007 A 
ATOM      6  C5  UNL d   1       0.276   0.184  -0.464  0.00  0.00     0.039 A 
ENDROOT
BRANCH   4   7
ATOM      7  O   UNL d   1      -3.198   1.030  -1.121  0.00  0.00    -0.526 OA
ATOM      8  H5  UNL d   1      -4.006   0.594  -0.802  0.00  0.00     0.418 HD
ENDBRANCH   4   7
TORSDOF 1
ENDMDL
