MODEL 1
REMARK minimizedAffinity -3.08505034
REMARK minimizedRMSD -1
REMARK  1 active torsions:
REMARK  status: ('A' for Active; 'I' for Inactive)
REMARK    1  A    between atoms: C3_4  and  O_7 
ROOT
ATOM      1  C   UNL d   1       0.228   0.462  -0.012  0.00  0.00    -0.033 A 
ATOM      2  C1  UNL d   1      -0.797  -0.481   0.094  0.00  0.00     0.039 A 
ATOM      3  C2  UNL d   1      -1.131  -1.014   1.341  0.00  0.00    -0.080 A 
ATOM      4  C3  UNL d   1      -0.434  -0.597   2.471  0.00  0.00     0.150 A 
ATOM      5  C4  UNL d   1       0.586   0.345   2.373  0.00  0.00    -0.007 A 
ATOM      6  C5  UNL d   1       0.918   0.875   1.127  0.00  0.00     0.039 A 
ENDROOT
BRANCH   4   7
ATOM      7  O   UNL d   1      -0.721  -1.092   3.709  0.00  0.00    -0.526 OA
ATOM      8  H5  UNL d   1      -1.427  -1.754   3.619  0.00  0.00     0.418 HD
ENDBRANCH   4   7
TORSDOF 1
ENDMDL
