MODEL 1
REMARK minimizedAffinity -4.09598017
REMARK minimizedRMSD -1
REMARK  1 active torsions:
REMARK  status: ('A' for Active; 'I' for Inactive)
REMARK    1  A    between atoms: C3_4  and  O_7 
ROOT
ATOM      1  C   UNL d   1       0.038  -0.141   2.902  0.00  0.00    -0.033 A 
ATOM      2  C1  UNL d   1       1.100   0.488   2.250  0.00  0.00     0.039 A 
ATOM      3  C2  UNL d   1       1.104   0.592   0.858  0.00  0.00    -0.080 A 
ATOM      4  C3  UNL d   1       0.041   0.063   0.130  0.00  0.00     0.150 A 
ATOM      5  C4  UNL d   1      -1.022  -0.562   0.773  0.00  0.00    -0.007 A 
ATOM      6  C5  UNL d   1      -1.024  -0.665   2.164  0.00  0.00     0.039 A 
ENDROOT
BRANCH   4   7
ATOM      7  O   UNL d   1       0.004   0.136  -1.231  0.00  0.00    -0.526 OA
ATOM      8  H5  UNL d   1       0.818   0.568  -1.538  0.00  0.00     0.418 HD
ENDBRANCH   4   7
TORSDOF 1
ENDMDL
