MODEL 1
REMARK minimizedAffinity -4.00267506
REMARK minimizedRMSD -1
REMARK  1 active torsions:
REMARK  status: ('A' for Active; 'I' for Inactive)
REMARK    1  A    between atoms: C3_4  and  O_7 
ROOT
ATOM      1  C   UNL d   1      -0.026   0.293  -0.197  0.00  0.00    -0.033 A 
ATOM      2  C1  UNL d   1       0.859   0.714   0.798  0.00  0.00     0.039 A 
ATOM      3  C2  UNL d   1       0.720   0.241   2.104  0.00  0.00    -0.080 A 
ATOM      4  C3  UNL d   1      -0.306  -0.652   2.402  0.00  0.00     0.150 A 
ATOM      5  C4  UNL d   1      -1.188  -1.079   1.415  0.00  0.00    -0.007 A 
ATOM      6  C5  UNL d   1      -1.049  -0.605   0.111  0.00  0.00     0.039 A 
ENDROOT
BRANCH   4   7
ATOM      7  O   UNL d   1      -0.484  -1.137   3.663  0.00  0.00    -0.526 OA
ATOM      8  H5  UNL d   1       0.181  -0.734   4.245  0.00  0.00     0.418 HD
ENDBRANCH   4   7
TORSDOF 1
ENDMDL
