MODEL 1
REMARK minimizedAffinity -2.53408027
REMARK minimizedRMSD -1
REMARK  1 active torsions:
REMARK  status: ('A' for Active; 'I' for Inactive)
REMARK    1  A    between atoms: C1_2  and  C2_3 
ROOT
ATOM      1  C2  UNL d   1      -5.654   3.579  -3.777  0.00  0.00    -0.077 A 
ATOM      2  C3  UNL d   1      -5.122   3.518  -5.073  0.00  0.00     0.002 A 
ATOM      3  C4  UNL d   1      -4.785   4.690  -5.753  0.00  0.00     0.002 A 
ATOM      4  C5  UNL d   1      -4.971   5.929  -5.145  0.00  0.00    -0.004 A 
ATOM      5  C6  UNL d   1      -5.502   6.000  -3.857  0.00  0.00     0.002 A 
ATOM      6  C7  UNL d   1      -5.841   4.830  -3.176  0.00  0.00     0.002 A 
ENDROOT
BRANCH   1   7
ATOM      7  C1  UNL d   1      -5.973   2.314  -3.023  0.00  0.00     0.055 C 
ATOM      8  C   UNL d   1      -5.979   2.553  -1.520  0.00  0.00     0.019 C 
ENDBRANCH   1   7
TORSDOF 1
ENDMDL
