MODEL 1
REMARK minimizedAffinity -3.90433979
REMARK minimizedRMSD -1
REMARK  1 active torsions:
REMARK  status: ('A' for Active; 'I' for Inactive)
REMARK    1  A    between atoms: C1_2  and  C2_3 
ROOT
ATOM      1  C2  UNL d   1      -5.219   3.076  -2.600  0.00  0.00    -0.077 A 
ATOM      2  C3  UNL d   1      -4.216   2.628  -3.470  0.00  0.00     0.002 A 
ATOM      3  C4  UNL d   1      -3.731   3.463  -4.478  0.00  0.00     0.002 A 
ATOM      4  C5  UNL d   1      -4.240   4.752  -4.623  0.00  0.00    -0.004 A 
ATOM      5  C6  UNL d   1      -5.240   5.206  -3.763  0.00  0.00     0.002 A 
ATOM      6  C7  UNL d   1      -5.727   4.372  -2.756  0.00  0.00     0.002 A 
ENDROOT
BRANCH   1   7
ATOM      7  C1  UNL d   1      -5.709   2.194  -1.481  0.00  0.00     0.055 C 
ATOM      8  C   UNL d   1      -5.957   2.996  -0.212  0.00  0.00     0.019 C 
ENDBRANCH   1   7
TORSDOF 1
ENDMDL
