MODEL 1
REMARK minimizedAffinity 5.47565842
REMARK minimizedRMSD -1
REMARK  1 active torsions:
REMARK  status: ('A' for Active; 'I' for Inactive)
REMARK    1  A    between atoms: C1_2  and  C2_3 
ROOT
ATOM      1  C2  UNL d   1       5.366   5.320   2.661  0.00  0.00    -0.077 A 
ATOM      2  C3  UNL d   1       5.783   6.000   1.508  0.00  0.00     0.002 A 
ATOM      3  C4  UNL d   1       5.706   5.384   0.257  0.00  0.00     0.002 A 
ATOM      4  C5  UNL d   1       5.207   4.088   0.147  0.00  0.00    -0.004 A 
ATOM      5  C6  UNL d   1       4.791   3.402   1.287  0.00  0.00     0.002 A 
ATOM      6  C7  UNL d   1       4.869   4.016   2.539  0.00  0.00     0.002 A 
ENDROOT
BRANCH   1   7
ATOM      7  C1  UNL d   1       5.403   6.000   4.004  0.00  0.00     0.055 C 
ATOM      8  C   UNL d   1       4.113   5.769   4.777  0.00  0.00     0.019 C 
ENDBRANCH   1   7
TORSDOF 1
ENDMDL
