MODEL 1
REMARK minimizedAffinity -2.38337493
REMARK minimizedRMSD -1
REMARK  1 active torsions:
REMARK  status: ('A' for Active; 'I' for Inactive)
REMARK    1  A    between atoms: C1_2  and  C2_3 
ROOT
ATOM      1  C2  UNL d   1      -5.319   5.621  -3.538  0.00  0.00    -0.077 A 
ATOM      2  C3  UNL d   1      -5.998   4.846  -4.488  0.00  0.00     0.002 A 
ATOM      3  C4  UNL d   1      -5.362   4.458  -5.669  0.00  0.00     0.002 A 
ATOM      4  C5  UNL d   1      -4.043   4.837  -5.908  0.00  0.00    -0.004 A 
ATOM      5  C6  UNL d   1      -3.359   5.610  -4.970  0.00  0.00     0.002 A 
ATOM      6  C7  UNL d   1      -3.994   5.999  -3.790  0.00  0.00     0.002 A 
ENDROOT
BRANCH   1   7
ATOM      7  C1  UNL d   1      -5.987   5.999  -2.242  0.00  0.00     0.055 C 
ATOM      8  C   UNL d   1      -5.903   4.869  -1.225  0.00  0.00     0.019 C 
ENDBRANCH   1   7
TORSDOF 1
ENDMDL
