MODEL 1
REMARK minimizedAffinity 13.5278254
REMARK minimizedRMSD -1
REMARK  1 active torsions:
REMARK  status: ('A' for Active; 'I' for Inactive)
REMARK    1  A    between atoms: C1_2  and  C2_3 
ROOT
ATOM      1  C2  UNL d   1       0.849   2.957  -4.870  0.00  0.00    -0.077 A 
ATOM      2  C3  UNL d   1      -0.390   2.302  -4.827  0.00  0.00     0.002 A 
ATOM      3  C4  UNL d   1      -1.529   2.910  -5.357  0.00  0.00     0.002 A 
ATOM      4  C5  UNL d   1      -1.440   4.174  -5.938  0.00  0.00    -0.004 A 
ATOM      5  C6  UNL d   1      -0.213   4.834  -5.984  0.00  0.00     0.002 A 
ATOM      6  C7  UNL d   1       0.926   4.228  -5.453  0.00  0.00     0.002 A 
ENDROOT
BRANCH   1   7
ATOM      7  C1  UNL d   1       2.089   2.282  -4.343  0.00  0.00     0.055 C 
ATOM      8  C   UNL d   1       1.781   0.883  -3.831  0.00  0.00     0.019 C 
ENDBRANCH   1   7
TORSDOF 1
ENDMDL
