MODEL 1
REMARK minimizedAffinity 3.22346354
REMARK minimizedRMSD -1
REMARK  1 active torsions:
REMARK  status: ('A' for Active; 'I' for Inactive)
REMARK    1  A    between atoms: C1_2  and  C2_3 
ROOT
ATOM      1  C2  UNL d   1      -3.949  -4.668  -0.902  0.00  0.00    -0.077 A 
ATOM      2  C3  UNL d   1      -3.469  -3.918   0.181  0.00  0.00     0.002 A 
ATOM      3  C4  UNL d   1      -2.433  -3.000   0.000  0.00  0.00     0.002 A 
ATOM      4  C5  UNL d   1      -1.872  -2.820  -1.262  0.00  0.00    -0.004 A 
ATOM      5  C6  UNL d   1      -2.340  -3.562  -2.345  0.00  0.00     0.002 A 
ATOM      6  C7  UNL d   1      -3.375  -4.482  -2.166  0.00  0.00     0.002 A 
ENDROOT
BRANCH   1   7
ATOM      7  C1  UNL d   1      -5.099  -5.624  -0.719  0.00  0.00     0.055 C 
ATOM      8  C   UNL d   1      -5.279  -6.000   0.744  0.00  0.00     0.019 C 
ENDBRANCH   1   7
TORSDOF 1
ENDMDL
