MODEL 1
REMARK minimizedAffinity 6.44155264
REMARK minimizedRMSD -1
REMARK  1 active torsions:
REMARK  status: ('A' for Active; 'I' for Inactive)
REMARK    1  A    between atoms: C1_2  and  C2_3 
ROOT
ATOM      1  C2  UNL d   1       5.222   4.792   1.189  0.00  0.00    -0.077 A 
ATOM      2  C3  UNL d   1       4.902   6.000   0.554  0.00  0.00     0.002 A 
ATOM      3  C4  UNL d   1       4.190   5.999  -0.647  0.00  0.00     0.002 A 
ATOM      4  C5  UNL d   1       3.789   4.795  -1.220  0.00  0.00    -0.004 A 
ATOM      5  C6  UNL d   1       4.104   3.588  -0.598  0.00  0.00     0.002 A 
ATOM      6  C7  UNL d   1       4.817   3.586   0.602  0.00  0.00     0.002 A 
ENDROOT
BRANCH   1   7
ATOM      7  C1  UNL d   1       5.947   4.792   2.510  0.00  0.00     0.055 C 
ATOM      8  C   UNL d   1       5.998   3.396   3.114  0.00  0.00     0.019 C 
ENDBRANCH   1   7
TORSDOF 1
ENDMDL
