MODEL 1
REMARK minimizedAffinity 3.03592777
REMARK minimizedRMSD -1
REMARK  1 active torsions:
REMARK  status: ('A' for Active; 'I' for Inactive)
REMARK    1  A    between atoms: C1_2  and  C2_3 
ROOT
ATOM      1  C2  UNL d   1       3.440   4.828  -5.918  0.00  0.00    -0.077 A 
ATOM      2  C3  UNL d   1       4.588   5.630  -5.983  0.00  0.00     0.002 A 
ATOM      3  C4  UNL d   1       5.857   5.048  -5.987  0.00  0.00     0.002 A 
ATOM      4  C5  UNL d   1       5.989   3.662  -5.929  0.00  0.00    -0.004 A 
ATOM      5  C6  UNL d   1       4.854   2.856  -5.861  0.00  0.00     0.002 A 
ATOM      6  C7  UNL d   1       3.585   3.436  -5.857  0.00  0.00     0.002 A 
ENDROOT
BRANCH   1   7
ATOM      7  C1  UNL d   1       2.069   5.452  -5.964  0.00  0.00     0.055 C 
ATOM      8  C   UNL d   1       0.978   4.392  -5.959  0.00  0.00     0.019 C 
ENDBRANCH   1   7
TORSDOF 1
ENDMDL
