MODEL 1
REMARK minimizedAffinity 1.98686492
REMARK minimizedRMSD -1
REMARK  1 active torsions:
REMARK  status: ('A' for Active; 'I' for Inactive)
REMARK    1  A    between atoms: C1_2  and  C2_3 
ROOT
ATOM      1  C2  UNL d   1      -5.956   3.832  -1.237  0.00  0.00    -0.077 A 
ATOM      2  C3  UNL d   1      -5.994   5.230  -1.338  0.00  0.00     0.002 A 
ATOM      3  C4  UNL d   1      -6.000   5.848  -2.590  0.00  0.00     0.002 A 
ATOM      4  C5  UNL d   1      -5.973   5.076  -3.750  0.00  0.00    -0.004 A 
ATOM      5  C6  UNL d   1      -5.933   3.685  -3.660  0.00  0.00     0.002 A 
ATOM      6  C7  UNL d   1      -5.926   3.066  -2.409  0.00  0.00     0.002 A 
ENDROOT
BRANCH   1   7
ATOM      7  C1  UNL d   1      -5.999   3.163   0.112  0.00  0.00     0.055 C 
ATOM      8  C   UNL d   1      -5.389   1.770   0.058  0.00  0.00     0.019 C 
ENDBRANCH   1   7
TORSDOF 1
ENDMDL
