MODEL 1
REMARK minimizedAffinity 11.9275436
REMARK minimizedRMSD -1
REMARK  2 active torsions:
REMARK  status: ('A' for Active; 'I' for Inactive)
REMARK    1  A    between atoms: C2'_3  and  C1'_4 
REMARK    2  A    between atoms: C1'_4  and  C1_5 
ROOT
ATOM      1  C1  I4B d   1       1.271   0.961   1.254  0.00  0.00    -0.075 A 
ATOM      2  C2  I4B d   1       2.451   0.548   1.820  0.00  0.00     0.003 A 
ATOM      3  C3  I4B d   1       3.632   1.309   1.642  0.00  0.00     0.002 A 
ATOM      4  C4  I4B d   1       3.599   2.440   0.853  0.00  0.00    -0.004 A 
ATOM      5  C5  I4B d   1       2.397   2.870   0.298  0.00  0.00     0.002 A 
ATOM      6  C6  I4B d   1       1.222   2.133   0.509  0.00  0.00     0.003 A 
ENDROOT
BRANCH   1   7
ATOM      7  C1' I4B d   1       0.050   0.116   1.435  0.00  0.00     0.060 C 
BRANCH   7   8
ATOM      8  C2' I4B d   1       0.014  -0.900   0.312  0.00  0.00    -0.013 C 
ATOM      9  C4' I4B d   1      -0.551  -2.214   0.784  0.00  0.00     0.013 C 
ATOM     10  C3' I4B d   1      -0.806  -0.328  -0.805  0.00  0.00     0.013 C 
ENDBRANCH   7   8
ENDBRANCH   1   7
TORSDOF 2
ENDMDL
