MODEL 1
REMARK minimizedAffinity 0.926766098
REMARK minimizedRMSD -1
REMARK  2 active torsions:
REMARK  status: ('A' for Active; 'I' for Inactive)
REMARK    1  A    between atoms: C2'_3  and  C1'_4 
REMARK    2  A    between atoms: C1'_4  and  C1_5 
ROOT
ATOM      1  C1  I4B d   1       1.222   4.891  -4.402  0.00  0.00    -0.075 A 
ATOM      2  C2  I4B d   1       1.867   3.866  -3.754  0.00  0.00     0.003 A 
ATOM      3  C3  I4B d   1       3.272   3.902  -3.585  0.00  0.00     0.002 A 
ATOM      4  C4  I4B d   1       3.994   4.950  -4.119  0.00  0.00    -0.004 A 
ATOM      5  C5  I4B d   1       3.337   5.999  -4.755  0.00  0.00     0.002 A 
ATOM      6  C6  I4B d   1       1.941   5.976  -4.887  0.00  0.00     0.003 A 
ENDROOT
BRANCH   1   7
ATOM      7  C1' I4B d   1      -0.259   4.804  -4.592  0.00  0.00     0.060 C 
BRANCH   7   8
ATOM      8  C2' I4B d   1      -0.888   6.000  -3.906  0.00  0.00    -0.013 C 
ATOM      9  C4' I4B d   1      -2.387   5.990  -4.059  0.00  0.00     0.013 C 
ATOM     10  C3' I4B d   1      -0.492   5.966  -2.461  0.00  0.00     0.013 C 
ENDBRANCH   7   8
ENDBRANCH   1   7
TORSDOF 2
ENDMDL
