MODEL 1
REMARK minimizedAffinity -2.0842216
REMARK minimizedRMSD -1
REMARK  2 active torsions:
REMARK  status: ('A' for Active; 'I' for Inactive)
REMARK    1  A    between atoms: C2'_3  and  C1'_4 
REMARK    2  A    between atoms: C1'_4  and  C1_5 
ROOT
ATOM      1  C1  I4B d   1       3.510   5.248  -4.547  0.00  0.00    -0.075 A 
ATOM      2  C2  I4B d   1       4.683   5.955  -4.445  0.00  0.00     0.003 A 
ATOM      3  C3  I4B d   1       5.903   5.280  -4.198  0.00  0.00     0.002 A 
ATOM      4  C4  I4B d   1       5.897   3.913  -4.011  0.00  0.00    -0.004 A 
ATOM      5  C5  I4B d   1       4.712   3.196  -4.137  0.00  0.00     0.002 A 
ATOM      6  C6  I4B d   1       3.512   3.865  -4.419  0.00  0.00     0.003 A 
ENDROOT
BRANCH   1   7
ATOM      7  C1' I4B d   1       2.235   5.996  -4.775  0.00  0.00     0.060 C 
BRANCH   7   8
ATOM      8  C2' I4B d   1       1.542   5.382  -5.974  0.00  0.00    -0.013 C 
ATOM      9  C4' I4B d   1       1.586   3.877  -5.917  0.00  0.00     0.013 C 
ATOM     10  C3' I4B d   1       0.128   5.882  -5.998  0.00  0.00     0.013 C 
ENDBRANCH   7   8
ENDBRANCH   1   7
TORSDOF 2
ENDMDL
