MODEL 1
REMARK minimizedAffinity 4.85298014
REMARK minimizedRMSD -1
REMARK  2 active torsions:
REMARK  status: ('A' for Active; 'I' for Inactive)
REMARK    1  A    between atoms: C2'_3  and  C1'_4 
REMARK    2  A    between atoms: C1'_4  and  C1_5 
ROOT
ATOM      1  C1  I4B d   1       3.683   5.137  -4.151  0.00  0.00    -0.075 A 
ATOM      2  C2  I4B d   1       3.824   3.996  -3.401  0.00  0.00     0.003 A 
ATOM      3  C3  I4B d   1       4.988   3.199  -3.528  0.00  0.00     0.002 A 
ATOM      4  C4  I4B d   1       5.956   3.552  -4.447  0.00  0.00    -0.004 A 
ATOM      5  C5  I4B d   1       5.822   4.722  -5.189  0.00  0.00     0.002 A 
ATOM      6  C6  I4B d   1       4.684   5.527  -5.031  0.00  0.00     0.003 A 
ENDROOT
BRANCH   1   7
ATOM      7  C1' I4B d   1       2.426   5.937  -4.015  0.00  0.00     0.060 C 
BRANCH   7   8
ATOM      8  C2' I4B d   1       1.289   5.121  -4.593  0.00  0.00    -0.013 C 
ATOM      9  C4' I4B d   1       0.153   4.996  -3.612  0.00  0.00     0.013 C 
ATOM     10  C3' I4B d   1       0.839   5.786  -5.860  0.00  0.00     0.013 C 
ENDBRANCH   7   8
ENDBRANCH   1   7
TORSDOF 2
ENDMDL
