MODEL 1
REMARK minimizedAffinity 0.362393081
REMARK minimizedRMSD -1
REMARK  2 active torsions:
REMARK  status: ('A' for Active; 'I' for Inactive)
REMARK    1  A    between atoms: C2'_3  and  C1'_4 
REMARK    2  A    between atoms: C1'_4  and  C1_5 
ROOT
ATOM      1  C1  I4B d   1      -1.582   5.997  -3.410  0.00  0.00    -0.075 A 
ATOM      2  C2  I4B d   1      -2.369   5.998  -4.534  0.00  0.00     0.003 A 
ATOM      3  C3  I4B d   1      -3.780   5.977  -4.416  0.00  0.00     0.002 A 
ATOM      4  C4  I4B d   1      -4.356   5.904  -3.165  0.00  0.00    -0.004 A 
ATOM      5  C5  I4B d   1      -3.557   5.926  -2.025  0.00  0.00     0.002 A 
ATOM      6  C6  I4B d   1      -2.161   5.986  -2.148  0.00  0.00     0.003 A 
ENDROOT
BRANCH   1   7
ATOM      7  C1' I4B d   1      -0.095   5.987  -3.572  0.00  0.00     0.060 C 
BRANCH   7   8
ATOM      8  C2' I4B d   1       0.237   5.148  -4.789  0.00  0.00    -0.013 C 
ATOM      9  C4' I4B d   1       0.816   5.993  -5.893  0.00  0.00     0.013 C 
ATOM     10  C3' I4B d   1       1.198   4.077  -4.366  0.00  0.00     0.013 C 
ENDBRANCH   7   8
ENDBRANCH   1   7
TORSDOF 2
ENDMDL
