MODEL 1
REMARK minimizedAffinity 5.19227123
REMARK minimizedRMSD -1
REMARK  2 active torsions:
REMARK  status: ('A' for Active; 'I' for Inactive)
REMARK    1  A    between atoms: C2'_3  and  C1'_4 
REMARK    2  A    between atoms: C1'_4  and  C1_5 
ROOT
ATOM      1  C1  I4B d   1      -1.593  -1.648  -4.533  0.00  0.00    -0.075 A 
ATOM      2  C2  I4B d   1      -1.324  -0.508  -5.249  0.00  0.00     0.003 A 
ATOM      3  C3  I4B d   1       0.016  -0.125  -5.502  0.00  0.00     0.002 A 
ATOM      4  C4  I4B d   1       1.048  -0.878  -4.980  0.00  0.00    -0.004 A 
ATOM      5  C5  I4B d   1       0.773  -2.046  -4.274  0.00  0.00     0.002 A 
ATOM      6  C6  I4B d   1      -0.555  -2.441  -4.060  0.00  0.00     0.003 A 
ENDROOT
BRANCH   1   7
ATOM      7  C1' I4B d   1      -3.019  -2.006  -4.257  0.00  0.00     0.060 C 
BRANCH   7   8
ATOM      8  C2' I4B d   1      -3.170  -2.203  -2.762  0.00  0.00    -0.013 C 
ATOM      9  C4' I4B d   1      -3.050  -0.895  -2.025  0.00  0.00     0.013 C 
ATOM     10  C3' I4B d   1      -4.501  -2.845  -2.512  0.00  0.00     0.013 C 
ENDBRANCH   7   8
ENDBRANCH   1   7
TORSDOF 2
ENDMDL
