MODEL 1
REMARK minimizedAffinity 2.30691051
REMARK minimizedRMSD -1
REMARK  2 active torsions:
REMARK  status: ('A' for Active; 'I' for Inactive)
REMARK    1  A    between atoms: C2'_3  and  C1'_4 
REMARK    2  A    between atoms: C1'_4  and  C1_5 
ROOT
ATOM      1  C1  I4B d   1      -0.592   6.000  -3.861  0.00  0.00    -0.075 A 
ATOM      2  C2  I4B d   1      -1.945   5.994  -4.092  0.00  0.00     0.003 A 
ATOM      3  C3  I4B d   1      -2.854   5.977  -3.007  0.00  0.00     0.002 A 
ATOM      4  C4  I4B d   1      -2.370   5.914  -1.716  0.00  0.00    -0.004 A 
ATOM      5  C5  I4B d   1      -0.998   5.943  -1.483  0.00  0.00     0.002 A 
ATOM      6  C6  I4B d   1      -0.103   5.999  -2.561  0.00  0.00     0.003 A 
ENDROOT
BRANCH   1   7
ATOM      7  C1' I4B d   1       0.339   5.985  -5.032  0.00  0.00     0.060 C 
BRANCH   7   8
ATOM      8  C2' I4B d   1       1.756   5.926  -4.500  0.00  0.00    -0.013 C 
ATOM      9  C4' I4B d   1       1.986   4.673  -3.697  0.00  0.00     0.013 C 
ATOM     10  C3' I4B d   1       2.693   6.000  -5.668  0.00  0.00     0.013 C 
ENDBRANCH   7   8
ENDBRANCH   1   7
TORSDOF 2
ENDMDL
