MODEL 1
REMARK minimizedAffinity 4.86410141
REMARK minimizedRMSD -1
REMARK  2 active torsions:
REMARK  status: ('A' for Active; 'I' for Inactive)
REMARK    1  A    between atoms: C2'_3  and  C1'_4 
REMARK    2  A    between atoms: C1'_4  and  C1_5 
ROOT
ATOM      1  C1  I4B d   1      -1.341   5.908  -4.059  0.00  0.00    -0.075 A 
ATOM      2  C2  I4B d   1      -1.153   5.897  -2.699  0.00  0.00     0.003 A 
ATOM      3  C3  I4B d   1      -2.267   5.912  -1.825  0.00  0.00     0.002 A 
ATOM      4  C4  I4B d   1      -3.541   5.989  -2.349  0.00  0.00    -0.004 A 
ATOM      5  C5  I4B d   1      -3.731   5.977  -3.728  0.00  0.00     0.002 A 
ATOM      6  C6  I4B d   1      -2.625   5.923  -4.589  0.00  0.00     0.003 A 
ENDROOT
BRANCH   1   7
ATOM      7  C1' I4B d   1      -0.142   5.924  -4.953  0.00  0.00     0.060 C 
BRANCH   7   8
ATOM      8  C2' I4B d   1       1.051   5.459  -4.142  0.00  0.00    -0.013 C 
ATOM      9  C4' I4B d   1       1.066   3.959  -4.006  0.00  0.00     0.013 C 
ATOM     10  C3' I4B d   1       2.293   5.954  -4.820  0.00  0.00     0.013 C 
ENDBRANCH   7   8
ENDBRANCH   1   7
TORSDOF 2
ENDMDL
