MODEL 1
REMARK minimizedAffinity -2.95765972
REMARK minimizedRMSD -1
REMARK  2 active torsions:
REMARK  status: ('A' for Active; 'I' for Inactive)
REMARK    1  A    between atoms: C2'_3  and  C1'_4 
REMARK    2  A    between atoms: C1'_4  and  C1_5 
ROOT
ATOM      1  C1  I4B d   1       3.289   5.599  -5.147  0.00  0.00    -0.075 A 
ATOM      2  C2  I4B d   1       4.296   6.000  -5.989  0.00  0.00     0.003 A 
ATOM      3  C3  I4B d   1       5.642   5.665  -5.701  0.00  0.00     0.002 A 
ATOM      4  C4  I4B d   1       5.937   4.976  -4.542  0.00  0.00    -0.004 A 
ATOM      5  C5  I4B d   1       4.912   4.551  -3.702  0.00  0.00     0.002 A 
ATOM      6  C6  I4B d   1       3.578   4.854  -4.012  0.00  0.00     0.003 A 
ENDROOT
BRANCH   1   7
ATOM      7  C1' I4B d   1       1.883   5.999  -5.465  0.00  0.00     0.060 C 
BRANCH   7   8
ATOM      8  C2' I4B d   1       0.954   5.154  -4.617  0.00  0.00    -0.013 C 
ATOM      9  C4' I4B d   1      -0.111   5.998  -3.968  0.00  0.00     0.013 C 
ATOM     10  C3' I4B d   1       0.350   4.103  -5.499  0.00  0.00     0.013 C 
ENDBRANCH   7   8
ENDBRANCH   1   7
TORSDOF 2
ENDMDL
