MODEL 1
REMARK minimizedAffinity 7.18388128
REMARK minimizedRMSD -1
REMARK  2 active torsions:
REMARK  status: ('A' for Active; 'I' for Inactive)
REMARK    1  A    between atoms: C2'_3  and  C1'_4 
REMARK    2  A    between atoms: C1'_4  and  C1_5 
ROOT
ATOM      1  C1  I4B d   1      -2.294  -1.274  -3.420  0.00  0.00    -0.075 A 
ATOM      2  C2  I4B d   1      -1.682  -0.117  -3.832  0.00  0.00     0.003 A 
ATOM      3  C3  I4B d   1      -0.800  -0.133  -4.941  0.00  0.00     0.002 A 
ATOM      4  C4  I4B d   1      -0.523  -1.328  -5.572  0.00  0.00    -0.004 A 
ATOM      5  C5  I4B d   1      -1.163  -2.496  -5.167  0.00  0.00     0.002 A 
ATOM      6  C6  I4B d   1      -2.064  -2.467  -4.092  0.00  0.00     0.003 A 
ENDROOT
BRANCH   1   7
ATOM      7  C1' I4B d   1      -3.194  -1.227  -2.226  0.00  0.00     0.060 C 
BRANCH   7   8
ATOM      8  C2' I4B d   1      -3.746  -2.620  -2.003  0.00  0.00    -0.013 C 
ATOM      9  C4' I4B d   1      -3.842  -2.940  -0.534  0.00  0.00     0.013 C 
ATOM     10  C3' I4B d   1      -5.091  -2.696  -2.663  0.00  0.00     0.013 C 
ENDBRANCH   7   8
ENDBRANCH   1   7
TORSDOF 2
ENDMDL
