MODEL 1
REMARK minimizedAffinity 3.08916926
REMARK minimizedRMSD -1
REMARK  2 active torsions:
REMARK  status: ('A' for Active; 'I' for Inactive)
REMARK    1  A    between atoms: C2'_3  and  C1'_4 
REMARK    2  A    between atoms: C1'_4  and  C1_5 
ROOT
ATOM      1  C1  I4B d   1      -1.234   5.941  -4.391  0.00  0.00    -0.075 A 
ATOM      2  C2  I4B d   1      -1.059   5.946  -3.030  0.00  0.00     0.003 A 
ATOM      3  C3  I4B d   1      -2.181   5.939  -2.166  0.00  0.00     0.002 A 
ATOM      4  C4  I4B d   1      -3.452   5.978  -2.703  0.00  0.00    -0.004 A 
ATOM      5  C5  I4B d   1      -3.628   5.950  -4.083  0.00  0.00     0.002 A 
ATOM      6  C6  I4B d   1      -2.513   5.919  -4.933  0.00  0.00     0.003 A 
ENDROOT
BRANCH   1   7
ATOM      7  C1' I4B d   1      -0.027   5.981  -5.273  0.00  0.00     0.060 C 
BRANCH   7   8
ATOM      8  C2' I4B d   1       0.870   4.821  -4.892  0.00  0.00    -0.013 C 
ATOM      9  C4' I4B d   1       2.316   5.136  -5.168  0.00  0.00     0.013 C 
ATOM     10  C3' I4B d   1       0.648   4.524  -3.438  0.00  0.00     0.013 C 
ENDBRANCH   7   8
ENDBRANCH   1   7
TORSDOF 2
ENDMDL
