MODEL 1
REMARK minimizedAffinity 8.27989006
REMARK minimizedRMSD -1
REMARK  2 active torsions:
REMARK  status: ('A' for Active; 'I' for Inactive)
REMARK    1  A    between atoms: C2'_3  and  C1'_4 
REMARK    2  A    between atoms: C1'_4  and  C1_5 
ROOT
ATOM      1  C1  I4B d   1       0.074   1.030   1.172  0.00  0.00    -0.075 A 
ATOM      2  C2  I4B d   1       1.070   1.568   1.948  0.00  0.00     0.003 A 
ATOM      3  C3  I4B d   1       1.838   2.657   1.468  0.00  0.00     0.002 A 
ATOM      4  C4  I4B d   1       1.610   3.140   0.196  0.00  0.00    -0.004 A 
ATOM      5  C5  I4B d   1       0.585   2.609  -0.580  0.00  0.00     0.002 A 
ATOM      6  C6  I4B d   1      -0.197   1.555  -0.085  0.00  0.00     0.003 A 
ENDROOT
BRANCH   1   7
ATOM      7  C1' I4B d   1      -0.695  -0.141   1.697  0.00  0.00     0.060 C 
BRANCH   7   8
ATOM      8  C2' I4B d   1      -0.549  -1.277   0.705  0.00  0.00    -0.013 C 
ATOM      9  C4' I4B d   1       0.797  -1.243   0.031  0.00  0.00     0.013 C 
ATOM     10  C3' I4B d   1      -0.752  -2.566   1.445  0.00  0.00     0.013 C 
ENDBRANCH   7   8
ENDBRANCH   1   7
TORSDOF 2
ENDMDL
