MODEL 1
REMARK minimizedAffinity 2.96737361
REMARK minimizedRMSD -1
REMARK  2 active torsions:
REMARK  status: ('A' for Active; 'I' for Inactive)
REMARK    1  A    between atoms: C2'_3  and  C1'_4 
REMARK    2  A    between atoms: C1'_4  and  C1_5 
ROOT
ATOM      1  C1  I4B d   1       0.964   0.469   0.515  0.00  0.00    -0.075 A 
ATOM      2  C2  I4B d   1       0.771   1.123  -0.676  0.00  0.00     0.003 A 
ATOM      3  C3  I4B d   1       1.454   2.334  -0.942  0.00  0.00     0.002 A 
ATOM      4  C4  I4B d   1       2.276   2.878   0.024  0.00  0.00    -0.004 A 
ATOM      5  C5  I4B d   1       2.488   2.202   1.222  0.00  0.00     0.002 A 
ATOM      6  C6  I4B d   1       1.838   0.983   1.465  0.00  0.00     0.003 A 
ENDROOT
BRANCH   1   7
ATOM      7  C1' I4B d   1       0.202  -0.791   0.777  0.00  0.00     0.060 C 
BRANCH   7   8
ATOM      8  C2' I4B d   1      -1.107  -0.416   1.441  0.00  0.00    -0.013 C 
ATOM      9  C4' I4B d   1      -0.871   0.322   2.732  0.00  0.00     0.013 C 
ATOM     10  C3' I4B d   1      -1.893   0.420   0.475  0.00  0.00     0.013 C 
ENDBRANCH   7   8
ENDBRANCH   1   7
TORSDOF 2
ENDMDL
