MODEL 1
REMARK minimizedAffinity 2.25682616
REMARK minimizedRMSD -1
REMARK  2 active torsions:
REMARK  status: ('A' for Active; 'I' for Inactive)
REMARK    1  A    between atoms: C2'_3  and  C1'_4 
REMARK    2  A    between atoms: C1'_4  and  C1_5 
ROOT
ATOM      1  C1  I4B d   1      -2.120   5.979  -3.417  0.00  0.00    -0.075 A 
ATOM      2  C2  I4B d   1      -0.760   5.986  -3.604  0.00  0.00     0.003 A 
ATOM      3  C3  I4B d   1      -0.221   6.000  -4.914  0.00  0.00     0.002 A 
ATOM      4  C4  I4B d   1      -1.072   5.955  -5.999  0.00  0.00    -0.004 A 
ATOM      5  C5  I4B d   1      -2.451   5.971  -5.807  0.00  0.00     0.002 A 
ATOM      6  C6  I4B d   1      -2.978   5.995  -4.508  0.00  0.00     0.003 A 
ENDROOT
BRANCH   1   7
ATOM      7  C1' I4B d   1      -2.654   5.931  -2.020  0.00  0.00     0.060 C 
BRANCH   7   8
ATOM      8  C2' I4B d   1      -1.523   5.516  -1.101  0.00  0.00    -0.013 C 
ATOM      9  C4' I4B d   1      -1.759   5.997   0.306  0.00  0.00     0.013 C 
ATOM     10  C3' I4B d   1      -1.410   4.022  -1.151  0.00  0.00     0.013 C 
ENDBRANCH   7   8
ENDBRANCH   1   7
TORSDOF 2
ENDMDL
