MODEL 1
REMARK minimizedAffinity -4.07735777
REMARK minimizedRMSD -1
REMARK  1 active torsions:
REMARK  status: ('A' for Active; 'I' for Inactive)
REMARK    1  A    between atoms: C1_2  and  C2_3 
ROOT
ATOM      1  C2  UNL d   1       0.420  -0.214   0.006  0.00  0.00    -0.077 A 
ATOM      2  C3  UNL d   1      -0.391  -1.187  -0.595  0.00  0.00     0.002 A 
ATOM      3  C4  UNL d   1      -0.098  -2.544  -0.444  0.00  0.00     0.002 A 
ATOM      4  C5  UNL d   1       1.004  -2.940   0.312  0.00  0.00    -0.004 A 
ATOM      5  C6  UNL d   1       1.818  -1.980   0.912  0.00  0.00     0.002 A 
ATOM      6  C7  UNL d   1       1.526  -0.623   0.761  0.00  0.00     0.002 A 
ENDROOT
BRANCH   1   7
ATOM      7  C1  UNL d   1       0.076   1.247  -0.115  0.00  0.00     0.055 C 
ATOM      8  C   UNL d   1      -1.272   1.445  -0.793  0.00  0.00     0.019 C 
ENDBRANCH   1   7
TORSDOF 1
ENDMDL
