MODEL 1
REMARK minimizedAffinity -6.0422554
REMARK minimizedRMSD -1
REMARK  1 active torsions:
REMARK  status: ('A' for Active; 'I' for Inactive)
REMARK    1  A    between atoms: C1_2  and  C2_3 
ROOT
ATOM      1  C2  UNL d   1       0.557  -0.351   0.260  0.00  0.00    -0.077 A 
ATOM      2  C3  UNL d   1       1.483  -1.358   0.567  0.00  0.00     0.002 A 
ATOM      3  C4  UNL d   1       1.187  -2.319   1.535  0.00  0.00     0.002 A 
ATOM      4  C5  UNL d   1      -0.036  -2.285   2.201  0.00  0.00    -0.004 A 
ATOM      5  C6  UNL d   1      -0.963  -1.287   1.904  0.00  0.00     0.002 A 
ATOM      6  C7  UNL d   1      -0.669  -0.325   0.937  0.00  0.00     0.002 A 
ENDROOT
BRANCH   1   7
ATOM      7  C1  UNL d   1       0.855   0.657  -0.819  0.00  0.00     0.055 C 
ATOM      8  C   UNL d   1      -0.382   1.469  -1.174  0.00  0.00     0.019 C 
ENDBRANCH   1   7
TORSDOF 1
ENDMDL
