MODEL 1
REMARK minimizedAffinity -1.77850902
REMARK minimizedRMSD -1
REMARK  1 active torsions:
REMARK  status: ('A' for Active; 'I' for Inactive)
REMARK    1  A    between atoms: C1_2  and  C2_3 
ROOT
ATOM      1  C2  UNL d   1       0.948  -0.848   0.472  0.00  0.00    -0.077 A 
ATOM      2  C3  UNL d   1       1.259   0.411  -0.060  0.00  0.00     0.002 A 
ATOM      3  C4  UNL d   1       0.257   1.365  -0.250  0.00  0.00     0.002 A 
ATOM      4  C5  UNL d   1      -1.061   1.071   0.094  0.00  0.00    -0.004 A 
ATOM      5  C6  UNL d   1      -1.381  -0.179   0.621  0.00  0.00     0.002 A 
ATOM      6  C7  UNL d   1      -0.381  -1.134   0.810  0.00  0.00     0.002 A 
ENDROOT
BRANCH   1   7
ATOM      7  C1  UNL d   1       2.035  -1.860   0.723  0.00  0.00     0.055 C 
ATOM      8  C   UNL d   1       2.530  -1.796   2.161  0.00  0.00     0.019 C 
ENDBRANCH   1   7
TORSDOF 1
ENDMDL
