MODEL 1
REMARK minimizedAffinity -5.64420748
REMARK minimizedRMSD -1
REMARK  1 active torsions:
REMARK  status: ('A' for Active; 'I' for Inactive)
REMARK    1  A    between atoms: C1_2  and  C2_3 
ROOT
ATOM      1  C2  UNL d   1       0.697  -0.963   0.525  0.00  0.00    -0.077 A 
ATOM      2  C3  UNL d   1      -0.435  -0.895   1.349  0.00  0.00     0.002 A 
ATOM      3  C4  UNL d   1      -0.549  -1.731   2.462  0.00  0.00     0.002 A 
ATOM      4  C5  UNL d   1       0.466  -2.637   2.762  0.00  0.00    -0.004 A 
ATOM      5  C6  UNL d   1       1.594  -2.713   1.946  0.00  0.00     0.002 A 
ATOM      6  C7  UNL d   1       1.710  -1.880   0.833  0.00  0.00     0.002 A 
ENDROOT
BRANCH   1   7
ATOM      7  C1  UNL d   1       0.844  -0.028  -0.647  0.00  0.00     0.055 C 
ATOM      8  C   UNL d   1      -0.234   1.046  -0.639  0.00  0.00     0.019 C 
ENDBRANCH   1   7
TORSDOF 1
ENDMDL
