MODEL 1
REMARK minimizedAffinity -4.95097733
REMARK minimizedRMSD -1
REMARK  1 active torsions:
REMARK  status: ('A' for Active; 'I' for Inactive)
REMARK    1  A    between atoms: C1_2  and  C2_3 
ROOT
ATOM      1  C2  UNL d   1       0.669  -0.568  -0.309  0.00  0.00    -0.077 A 
ATOM      2  C3  UNL d   1      -0.056  -1.204   0.708  0.00  0.00     0.002 A 
ATOM      3  C4  UNL d   1       0.530  -2.223   1.462  0.00  0.00     0.002 A 
ATOM      4  C5  UNL d   1       1.845  -2.609   1.211  0.00  0.00    -0.004 A 
ATOM      5  C6  UNL d   1       2.574  -1.983   0.201  0.00  0.00     0.002 A 
ATOM      6  C7  UNL d   1       1.989  -0.967  -0.555  0.00  0.00     0.002 A 
ENDROOT
BRANCH   1   7
ATOM      7  C1  UNL d   1       0.055   0.564  -1.091  0.00  0.00     0.055 C 
ATOM      8  C   UNL d   1      -0.970   1.320  -0.258  0.00  0.00     0.019 C 
ENDBRANCH   1   7
TORSDOF 1
ENDMDL
