MODEL 1
REMARK minimizedAffinity -1.62371314
REMARK minimizedRMSD -1
REMARK  1 active torsions:
REMARK  status: ('A' for Active; 'I' for Inactive)
REMARK    1  A    between atoms: C1_2  and  C2_3 
ROOT
ATOM      1  C2  UNL d   1       0.029   0.273   0.413  0.00  0.00    -0.077 A 
ATOM      2  C3  UNL d   1       1.176   0.341  -0.391  0.00  0.00     0.002 A 
ATOM      3  C4  UNL d   1       2.195  -0.603  -0.249  0.00  0.00     0.002 A 
ATOM      4  C5  UNL d   1       2.076  -1.623   0.692  0.00  0.00    -0.004 A 
ATOM      5  C6  UNL d   1       0.940  -1.698   1.498  0.00  0.00     0.002 A 
ATOM      6  C7  UNL d   1      -0.079  -0.755   1.358  0.00  0.00     0.002 A 
ENDROOT
BRANCH   1   7
ATOM      7  C1  UNL d   1      -1.093   1.261   0.227  0.00  0.00     0.055 C 
ATOM      8  C   UNL d   1      -1.295   1.600  -1.243  0.00  0.00     0.019 C 
ENDBRANCH   1   7
TORSDOF 1
ENDMDL
