MODEL 1
REMARK minimizedAffinity -4.81663132
REMARK minimizedRMSD -1
REMARK  1 active torsions:
REMARK  status: ('A' for Active; 'I' for Inactive)
REMARK    1  A    between atoms: C1_2  and  C2_3 
ROOT
ATOM      1  C2  UNL d   1      -0.324  -0.235   1.069  0.00  0.00    -0.077 A 
ATOM      2  C3  UNL d   1      -0.889  -0.770   2.235  0.00  0.00     0.002 A 
ATOM      3  C4  UNL d   1      -0.305  -1.872   2.862  0.00  0.00     0.002 A 
ATOM      4  C5  UNL d   1       0.849  -2.446   2.333  0.00  0.00    -0.004 A 
ATOM      5  C6  UNL d   1       1.418  -1.922   1.172  0.00  0.00     0.002 A 
ATOM      6  C7  UNL d   1       0.834  -0.821   0.543  0.00  0.00     0.002 A 
ENDROOT
BRANCH   1   7
ATOM      7  C1  UNL d   1      -0.925   0.984   0.419  0.00  0.00     0.055 C 
ATOM      8  C   UNL d   1       0.138   1.822  -0.276  0.00  0.00     0.019 C 
ENDBRANCH   1   7
TORSDOF 1
ENDMDL
