MODEL 1
REMARK minimizedAffinity -3.89267325
REMARK minimizedRMSD -1
REMARK  1 active torsions:
REMARK  status: ('A' for Active; 'I' for Inactive)
REMARK    1  A    between atoms: C1_2  and  C2_3 
ROOT
ATOM      1  C2  UNL d   1       0.485  -1.202   0.560  0.00  0.00    -0.077 A 
ATOM      2  C3  UNL d   1       1.238  -0.348  -0.258  0.00  0.00     0.002 A 
ATOM      3  C4  UNL d   1       0.731   0.896  -0.637  0.00  0.00     0.002 A 
ATOM      4  C5  UNL d   1      -0.529   1.299  -0.200  0.00  0.00    -0.004 A 
ATOM      5  C6  UNL d   1      -1.287   0.456   0.613  0.00  0.00     0.002 A 
ATOM      6  C7  UNL d   1      -0.782  -0.788   0.991  0.00  0.00     0.002 A 
ENDROOT
BRANCH   1   7
ATOM      7  C1  UNL d   1       1.051  -2.523   1.010  0.00  0.00     0.055 C 
ATOM      8  C   UNL d   1       2.119  -2.334   2.077  0.00  0.00     0.019 C 
ENDBRANCH   1   7
TORSDOF 1
ENDMDL
