MODEL 1
REMARK minimizedAffinity -4.31158018
REMARK minimizedRMSD -1
REMARK  1 active torsions:
REMARK  status: ('A' for Active; 'I' for Inactive)
REMARK    1  A    between atoms: C1_2  and  C2_3 
ROOT
ATOM      1  C2  UNL d   1       0.532  -1.818   1.786  0.00  0.00    -0.077 A 
ATOM      2  C3  UNL d   1       1.801  -2.188   1.317  0.00  0.00     0.002 A 
ATOM      3  C4  UNL d   1       2.346  -1.569   0.191  0.00  0.00     0.002 A 
ATOM      4  C5  UNL d   1       1.632  -0.574  -0.473  0.00  0.00    -0.004 A 
ATOM      5  C6  UNL d   1       0.369  -0.200  -0.016  0.00  0.00     0.002 A 
ATOM      6  C7  UNL d   1      -0.178  -0.819   1.109  0.00  0.00     0.002 A 
ENDROOT
BRANCH   1   7
ATOM      7  C1  UNL d   1      -0.036  -2.451   3.029  0.00  0.00     0.055 C 
ATOM      8  C   UNL d   1      -1.292  -1.727   3.494  0.00  0.00     0.019 C 
ENDBRANCH   1   7
TORSDOF 1
ENDMDL
