MODEL 1
REMARK minimizedAffinity -3.77841878
REMARK minimizedRMSD -1
REMARK  1 active torsions:
REMARK  status: ('A' for Active; 'I' for Inactive)
REMARK    1  A    between atoms: C1_2  and  C2_3 
ROOT
ATOM      1  C2  UNL d   1       0.875  -0.936   0.641  0.00  0.00    -0.077 A 
ATOM      2  C3  UNL d   1       1.314   0.156  -0.120  0.00  0.00     0.002 A 
ATOM      3  C4  UNL d   1       0.459   1.231  -0.372  0.00  0.00     0.002 A 
ATOM      4  C5  UNL d   1      -0.838   1.225   0.138  0.00  0.00    -0.004 A 
ATOM      5  C6  UNL d   1      -1.285   0.142   0.894  0.00  0.00     0.002 A 
ATOM      6  C7  UNL d   1      -0.431  -0.933   1.145  0.00  0.00     0.002 A 
ENDROOT
BRANCH   1   7
ATOM      7  C1  UNL d   1       1.812  -2.073   0.955  0.00  0.00     0.055 C 
ATOM      8  C   UNL d   1       1.137  -3.421   0.745  0.00  0.00     0.019 C 
ENDBRANCH   1   7
TORSDOF 1
ENDMDL
