MODEL 1
REMARK minimizedAffinity -5.33229589
REMARK minimizedRMSD -1
REMARK  1 active torsions:
REMARK  status: ('A' for Active; 'I' for Inactive)
REMARK    1  A    between atoms: C1_2  and  C2_3 
ROOT
ATOM      1  C2  UNL d   1       0.014  -0.187   0.238  0.00  0.00    -0.077 A 
ATOM      2  C3  UNL d   1       1.378  -0.163  -0.086  0.00  0.00     0.002 A 
ATOM      3  C4  UNL d   1       2.170  -1.296   0.107  0.00  0.00     0.002 A 
ATOM      4  C5  UNL d   1       1.607  -2.463   0.620  0.00  0.00    -0.004 A 
ATOM      5  C6  UNL d   1       0.252  -2.497   0.947  0.00  0.00     0.002 A 
ATOM      6  C7  UNL d   1      -0.541  -1.365   0.756  0.00  0.00     0.002 A 
ENDROOT
BRANCH   1   7
ATOM      7  C1  UNL d   1      -0.853   1.018  -0.015  0.00  0.00     0.055 C 
ATOM      8  C   UNL d   1      -1.539   0.932  -1.371  0.00  0.00     0.019 C 
ENDBRANCH   1   7
TORSDOF 1
ENDMDL
