MODEL 1
REMARK minimizedAffinity 7.92514277
REMARK minimizedRMSD -1
REMARK  0 active torsions:
REMARK  status: ('A' for Active; 'I' for Inactive)
ROOT
ATOM      1  N1  IND d   1       1.525  -0.204   1.777  0.00  0.00    -0.196 N 
ATOM      2  C2  IND d   1       2.533   0.678   1.502  0.00  0.00     0.054 A 
ATOM      3  C3  IND d   1       3.674   0.295   2.118  0.00  0.00    -0.031 A 
ATOM      4  C4  IND d   1       4.142  -1.798   3.540  0.00  0.00     0.051 A 
ATOM      5  C5  IND d   1       3.523  -2.881   4.099  0.00  0.00    -0.031 A 
ATOM      6  C6  IND d   1       2.181  -3.134   3.906  0.00  0.00     0.015 A 
ATOM      7  C7  IND d   1       1.405  -2.315   3.135  0.00  0.00    -0.016 A 
ATOM      8  C8  IND d   1       2.029  -1.211   2.571  0.00  0.00    -0.047 A 
ATOM      9  C9  IND d   1       3.381  -0.926   2.798  0.00  0.00    -0.096 A 
ATOM     10  HN1 IND d   1       0.714  -0.141   1.500  0.00  0.00     0.298 HD
ENDROOT
TORSDOF 0
ENDMDL
