MODEL 1
REMARK minimizedAffinity 6.69782591
REMARK minimizedRMSD -1
REMARK  0 active torsions:
REMARK  status: ('A' for Active; 'I' for Inactive)
ROOT
ATOM      1  N1  IND d   1       2.563  -6.000  -2.271  0.00  0.00    -0.196 N 
ATOM      2  C2  IND d   1       3.699  -5.990  -1.511  0.00  0.00     0.054 A 
ATOM      3  C3  IND d   1       4.795  -5.973  -2.303  0.00  0.00    -0.031 A 
ATOM      4  C4  IND d   1       4.955  -5.856  -4.870  0.00  0.00     0.051 A 
ATOM      5  C5  IND d   1       4.186  -5.882  -5.999  0.00  0.00    -0.031 A 
ATOM      6  C6  IND d   1       2.809  -5.946  -5.943  0.00  0.00     0.015 A 
ATOM      7  C7  IND d   1       2.146  -5.977  -4.749  0.00  0.00    -0.016 A 
ATOM      8  C8  IND d   1       2.924  -5.958  -3.600  0.00  0.00    -0.047 A 
ATOM      9  C9  IND d   1       4.324  -5.935  -3.651  0.00  0.00    -0.096 A 
ATOM     10  HN1 IND d   1       1.758  -6.027  -1.969  0.00  0.00     0.298 HD
ENDROOT
TORSDOF 0
ENDMDL
