MODEL 1
REMARK minimizedAffinity 6.62378502
REMARK minimizedRMSD -1
REMARK  0 active torsions:
REMARK  status: ('A' for Active; 'I' for Inactive)
ROOT
ATOM      1  N1  IND d   1       4.577  -1.026   1.046  0.00  0.00    -0.196 N 
ATOM      2  C2  IND d   1       5.647  -1.513   1.743  0.00  0.00     0.054 A 
ATOM      3  C3  IND d   1       5.284  -1.813   3.011  0.00  0.00    -0.031 A 
ATOM      4  C4  IND d   1       2.967  -1.679   4.124  0.00  0.00     0.051 A 
ATOM      5  C5  IND d   1       1.686  -1.259   3.899  0.00  0.00    -0.031 A 
ATOM      6  C6  IND d   1       1.295  -0.732   2.685  0.00  0.00     0.015 A 
ATOM      7  C7  IND d   1       2.171  -0.615   1.643  0.00  0.00    -0.016 A 
ATOM      8  C8  IND d   1       3.475  -1.034   1.871  0.00  0.00    -0.047 A 
ATOM      9  C9  IND d   1       3.888  -1.530   3.114  0.00  0.00    -0.096 A 
ATOM     10  HN1 IND d   1       4.591  -0.759   0.228  0.00  0.00     0.298 HD
ENDROOT
TORSDOF 0
ENDMDL
