MODEL 1
REMARK minimizedAffinity 8.86312962
REMARK minimizedRMSD -1
REMARK  0 active torsions:
REMARK  status: ('A' for Active; 'I' for Inactive)
ROOT
ATOM      1  N1  IND d   1       5.071  -5.946  -1.676  0.00  0.00    -0.196 N 
ATOM      2  C2  IND d   1       3.984  -5.996  -0.849  0.00  0.00     0.054 A 
ATOM      3  C3  IND d   1       2.842  -5.985  -1.573  0.00  0.00    -0.031 A 
ATOM      4  C4  IND d   1       2.524  -5.991  -4.128  0.00  0.00     0.051 A 
ATOM      5  C5  IND d   1       3.222  -5.911  -5.300  0.00  0.00    -0.031 A 
ATOM      6  C6  IND d   1       4.600  -5.841  -5.325  0.00  0.00     0.015 A 
ATOM      7  C7  IND d   1       5.335  -5.858  -4.174  0.00  0.00    -0.016 A 
ATOM      8  C8  IND d   1       4.630  -5.932  -2.981  0.00  0.00    -0.047 A 
ATOM      9  C9  IND d   1       3.230  -5.961  -2.948  0.00  0.00    -0.096 A 
ATOM     10  HN1 IND d   1       5.893  -5.927  -1.424  0.00  0.00     0.298 HD
ENDROOT
TORSDOF 0
ENDMDL
