MODEL 1
REMARK minimizedAffinity 4.0432992
REMARK minimizedRMSD -1
REMARK  0 active torsions:
REMARK  status: ('A' for Active; 'I' for Inactive)
ROOT
ATOM      1  N1  IND d   1       3.524  -0.476   1.242  0.00  0.00    -0.196 N 
ATOM      2  C2  IND d   1       2.912   0.738   1.386  0.00  0.00     0.054 A 
ATOM      3  C3  IND d   1       2.053   0.710   2.430  0.00  0.00    -0.031 A 
ATOM      4  C4  IND d   1       1.570  -1.187   4.101  0.00  0.00     0.051 A 
ATOM      5  C5  IND d   1       1.860  -2.499   4.355  0.00  0.00    -0.031 A 
ATOM      6  C6  IND d   1       2.739  -3.216   3.570  0.00  0.00     0.015 A 
ATOM      7  C7  IND d   1       3.373  -2.643   2.504  0.00  0.00    -0.016 A 
ATOM      8  C8  IND d   1       3.076  -1.314   2.239  0.00  0.00    -0.047 A 
ATOM      9  C9  IND d   1       2.152  -0.593   3.006  0.00  0.00    -0.096 A 
ATOM     10  HN1 IND d   1       4.094  -0.681   0.631  0.00  0.00     0.298 HD
ENDROOT
TORSDOF 0
ENDMDL
