MODEL 1
REMARK minimizedAffinity 7.0530591
REMARK minimizedRMSD -1
REMARK  0 active torsions:
REMARK  status: ('A' for Active; 'I' for Inactive)
ROOT
ATOM      1  N1  IND d   1       1.627  -0.838   3.444  0.00  0.00    -0.196 N 
ATOM      2  C2  IND d   1       2.745  -0.375   2.809  0.00  0.00     0.054 A 
ATOM      3  C3  IND d   1       3.746  -1.279   2.899  0.00  0.00    -0.031 A 
ATOM      4  C4  IND d   1       3.738  -3.628   3.953  0.00  0.00     0.051 A 
ATOM      5  C5  IND d   1       2.957  -4.478   4.684  0.00  0.00    -0.031 A 
ATOM      6  C6  IND d   1       1.665  -4.153   5.045  0.00  0.00     0.015 A 
ATOM      7  C7  IND d   1       1.101  -2.965   4.676  0.00  0.00    -0.016 A 
ATOM      8  C8  IND d   1       1.893  -2.096   3.939  0.00  0.00    -0.047 A 
ATOM      9  C9  IND d   1       3.219  -2.403   3.606  0.00  0.00    -0.096 A 
ATOM     10  HN1 IND d   1       0.882  -0.416   3.522  0.00  0.00     0.298 HD
ENDROOT
TORSDOF 0
ENDMDL
