MODEL 1
REMARK minimizedAffinity 11.5897436
REMARK minimizedRMSD -1
REMARK  0 active torsions:
REMARK  status: ('A' for Active; 'I' for Inactive)
ROOT
ATOM      1  N1  IND d   1       2.009  -0.567   4.729  0.00  0.00    -0.196 N 
ATOM      2  C2  IND d   1       2.017  -1.831   4.207  0.00  0.00     0.054 A 
ATOM      3  C3  IND d   1       2.342  -1.795   2.895  0.00  0.00    -0.031 A 
ATOM      4  C4  IND d   1       3.002   0.214   1.427  0.00  0.00     0.051 A 
ATOM      5  C5  IND d   1       3.105   1.577   1.450  0.00  0.00    -0.031 A 
ATOM      6  C6  IND d   1       2.845   2.309   2.590  0.00  0.00     0.015 A 
ATOM      7  C7  IND d   1       2.482   1.702   3.759  0.00  0.00    -0.016 A 
ATOM      8  C8  IND d   1       2.370   0.319   3.738  0.00  0.00    -0.047 A 
ATOM      9  C9  IND d   1       2.591  -0.426   2.573  0.00  0.00    -0.096 A 
ATOM     10  HN1 IND d   1       1.813  -0.361   5.540  0.00  0.00     0.298 HD
ENDROOT
TORSDOF 0
ENDMDL
