MODEL 1
REMARK minimizedAffinity 2.32779622
REMARK minimizedRMSD -1
REMARK  0 active torsions:
REMARK  status: ('A' for Active; 'I' for Inactive)
ROOT
ATOM      1  N1  IND d   1       3.350   1.424   0.302  0.00  0.00    -0.196 N 
ATOM      2  C2  IND d   1       2.943   0.705   1.391  0.00  0.00     0.054 A 
ATOM      3  C3  IND d   1       1.791   1.213   1.886  0.00  0.00    -0.031 A 
ATOM      4  C4  IND d   1       0.348   3.154   1.005  0.00  0.00     0.051 A 
ATOM      5  C5  IND d   1       0.329   4.138   0.057  0.00  0.00    -0.031 A 
ATOM      6  C6  IND d   1       1.334   4.268  -0.879  0.00  0.00     0.015 A 
ATOM      7  C7  IND d   1       2.396   3.409  -0.908  0.00  0.00    -0.016 A 
ATOM      8  C8  IND d   1       2.422   2.413   0.058  0.00  0.00    -0.047 A 
ATOM      9  C9  IND d   1       1.426   2.301   1.036  0.00  0.00    -0.096 A 
ATOM     10  HN1 IND d   1       4.065   1.282  -0.154  0.00  0.00     0.298 HD
ENDROOT
TORSDOF 0
ENDMDL
