MODEL 1
REMARK minimizedAffinity 8.5826931
REMARK minimizedRMSD -1
REMARK  0 active torsions:
REMARK  status: ('A' for Active; 'I' for Inactive)
ROOT
ATOM      1  N1  IND d   1       1.743  -0.373   3.566  0.00  0.00    -0.196 N 
ATOM      2  C2  IND d   1       1.840  -0.450   2.204  0.00  0.00     0.054 A 
ATOM      3  C3  IND d   1       2.524  -1.558   1.843  0.00  0.00    -0.031 A 
ATOM      4  C4  IND d   1       3.488  -3.437   3.315  0.00  0.00     0.051 A 
ATOM      5  C5  IND d   1       3.681  -3.791   4.621  0.00  0.00    -0.031 A 
ATOM      6  C6  IND d   1       3.226  -3.009   5.663  0.00  0.00     0.015 A 
ATOM      7  C7  IND d   1       2.548  -1.845   5.436  0.00  0.00    -0.016 A 
ATOM      8  C8  IND d   1       2.357  -1.479   4.112  0.00  0.00    -0.047 A 
ATOM      9  C9  IND d   1       2.854  -2.247   3.051  0.00  0.00    -0.096 A 
ATOM     10  HN1 IND d   1       1.364   0.260   4.007  0.00  0.00     0.298 HD
ENDROOT
TORSDOF 0
ENDMDL
