MODEL 1
REMARK minimizedAffinity 3.0828836
REMARK minimizedRMSD -1
REMARK  1 active torsions:
REMARK  status: ('A' for Active; 'I' for Inactive)
REMARK    1  A    between atoms: C1_2  and  C2_3 
ROOT
ATOM      1  C2  UNL d   1      -2.937  -2.430  -2.514  0.00  0.00    -0.077 A 
ATOM      2  C3  UNL d   1      -2.188  -3.462  -3.097  0.00  0.00     0.002 A 
ATOM      3  C4  UNL d   1      -2.063  -4.695  -2.454  0.00  0.00     0.002 A 
ATOM      4  C5  UNL d   1      -2.687  -4.908  -1.227  0.00  0.00    -0.004 A 
ATOM      5  C6  UNL d   1      -3.431  -3.888  -0.637  0.00  0.00     0.002 A 
ATOM      6  C7  UNL d   1      -3.557  -2.655  -1.278  0.00  0.00     0.002 A 
ENDROOT
BRANCH   1   7
ATOM      7  C1  UNL d   1      -3.114  -1.116  -3.229  0.00  0.00     0.055 C 
ATOM      8  C   UNL d   1      -1.948  -0.176  -2.957  0.00  0.00     0.019 C 
ENDBRANCH   1   7
TORSDOF 1
ENDMDL
