MODEL 1
REMARK minimizedAffinity -5.24563742
REMARK minimizedRMSD -1
REMARK  1 active torsions:
REMARK  status: ('A' for Active; 'I' for Inactive)
REMARK    1  A    between atoms: C1_2  and  C2_3 
ROOT
ATOM      1  C2  UNL d   1      -2.426   0.661   0.652  0.00  0.00    -0.077 A 
ATOM      2  C3  UNL d   1      -1.370  -0.252   0.525  0.00  0.00     0.002 A 
ATOM      3  C4  UNL d   1      -0.069   0.200   0.296  0.00  0.00     0.002 A 
ATOM      4  C5  UNL d   1       0.189   1.566   0.198  0.00  0.00    -0.004 A 
ATOM      5  C6  UNL d   1      -0.855   2.482   0.322  0.00  0.00     0.002 A 
ATOM      6  C7  UNL d   1      -2.156   2.032   0.549  0.00  0.00     0.002 A 
ENDROOT
BRANCH   1   7
ATOM      7  C1  UNL d   1      -3.822   0.178   0.948  0.00  0.00     0.055 C 
ATOM      8  C   UNL d   1      -4.807   1.336   1.010  0.00  0.00     0.019 C 
ENDBRANCH   1   7
TORSDOF 1
ENDMDL
