MODEL 1
REMARK minimizedAffinity -1.42985833
REMARK minimizedRMSD -1
REMARK  1 active torsions:
REMARK  status: ('A' for Active; 'I' for Inactive)
REMARK    1  A    between atoms: C1_2  and  C2_3 
ROOT
ATOM      1  C2  UNL d   1      -2.209   1.367   0.383  0.00  0.00    -0.077 A 
ATOM      2  C3  UNL d   1      -3.031   0.376   0.935  0.00  0.00     0.002 A 
ATOM      3  C4  UNL d   1      -4.377   0.640   1.199  0.00  0.00     0.002 A 
ATOM      4  C5  UNL d   1      -4.912   1.894   0.911  0.00  0.00    -0.004 A 
ATOM      5  C6  UNL d   1      -4.101   2.888   0.364  0.00  0.00     0.002 A 
ATOM      6  C7  UNL d   1      -2.756   2.625   0.100  0.00  0.00     0.002 A 
ENDROOT
BRANCH   1   7
ATOM      7  C1  UNL d   1      -0.770   1.069   0.052  0.00  0.00     0.055 C 
ATOM      8  C   UNL d   1      -0.037   0.479   1.248  0.00  0.00     0.019 C 
ENDBRANCH   1   7
TORSDOF 1
ENDMDL
