MODEL 1
REMARK minimizedAffinity -3.3069303
REMARK minimizedRMSD -1
REMARK  1 active torsions:
REMARK  status: ('A' for Active; 'I' for Inactive)
REMARK    1  A    between atoms: C1_2  and  C2_3 
ROOT
ATOM      1  C2  UNL d   1       1.171   1.190   0.931  0.00  0.00    -0.077 A 
ATOM      2  C3  UNL d   1       0.355   0.381   1.734  0.00  0.00     0.002 A 
ATOM      3  C4  UNL d   1      -1.021   0.317   1.504  0.00  0.00     0.002 A 
ATOM      4  C5  UNL d   1      -1.591   1.057   0.470  0.00  0.00    -0.004 A 
ATOM      5  C6  UNL d   1      -0.788   1.866  -0.332  0.00  0.00     0.002 A 
ATOM      6  C7  UNL d   1       0.587   1.932  -0.104  0.00  0.00     0.002 A 
ENDROOT
BRANCH   1   7
ATOM      7  C1  UNL d   1       2.662   1.222   1.146  0.00  0.00     0.055 C 
ATOM      8  C   UNL d   1       3.412   1.241  -0.178  0.00  0.00     0.019 C 
ENDBRANCH   1   7
TORSDOF 1
ENDMDL
