MODEL 1
REMARK minimizedAffinity -0.120526746
REMARK minimizedRMSD -1
REMARK  1 active torsions:
REMARK  status: ('A' for Active; 'I' for Inactive)
REMARK    1  A    between atoms: C1_2  and  C2_3 
ROOT
ATOM      1  C2  UNL d   1      -3.642   1.653   0.420  0.00  0.00    -0.077 A 
ATOM      2  C3  UNL d   1      -2.816   1.278   1.489  0.00  0.00     0.002 A 
ATOM      3  C4  UNL d   1      -1.459   1.605   1.482  0.00  0.00     0.002 A 
ATOM      4  C5  UNL d   1      -0.916   2.310   0.410  0.00  0.00    -0.004 A 
ATOM      5  C6  UNL d   1      -1.728   2.685  -0.660  0.00  0.00     0.002 A 
ATOM      6  C7  UNL d   1      -3.085   2.358  -0.655  0.00  0.00     0.002 A 
ENDROOT
BRANCH   1   7
ATOM      7  C1  UNL d   1      -5.116   1.345   0.449  0.00  0.00     0.055 C 
ATOM      8  C   UNL d   1      -5.919   2.531   0.961  0.00  0.00     0.019 C 
ENDBRANCH   1   7
TORSDOF 1
ENDMDL
