MODEL 1
REMARK minimizedAffinity 5.31318665
REMARK minimizedRMSD -1
REMARK  1 active torsions:
REMARK  status: ('A' for Active; 'I' for Inactive)
REMARK    1  A    between atoms: C1_2  and  C2_3 
ROOT
ATOM      1  C2  UNL d   1       3.243  -2.505   0.453  0.00  0.00    -0.077 A 
ATOM      2  C3  UNL d   1       3.975  -3.271  -0.464  0.00  0.00     0.002 A 
ATOM      3  C4  UNL d   1       3.567  -4.566  -0.788  0.00  0.00     0.002 A 
ATOM      4  C5  UNL d   1       2.423  -5.105  -0.203  0.00  0.00    -0.004 A 
ATOM      5  C6  UNL d   1       1.689  -4.352   0.712  0.00  0.00     0.002 A 
ATOM      6  C7  UNL d   1       2.096  -3.058   1.038  0.00  0.00     0.002 A 
ENDROOT
BRANCH   1   7
ATOM      7  C1  UNL d   1       3.654  -1.090   0.767  0.00  0.00     0.055 C 
ATOM      8  C   UNL d   1       2.507  -0.305   1.386  0.00  0.00     0.019 C 
ENDBRANCH   1   7
TORSDOF 1
ENDMDL
