MODEL 1
REMARK minimizedAffinity -2.73171568
REMARK minimizedRMSD -1
REMARK  1 active torsions:
REMARK  status: ('A' for Active; 'I' for Inactive)
REMARK    1  A    between atoms: C1_2  and  C2_3 
ROOT
ATOM      1  C2  UNL d   1       2.015   0.991   1.149  0.00  0.00    -0.077 A 
ATOM      2  C3  UNL d   1       1.931   1.124   2.542  0.00  0.00     0.002 A 
ATOM      3  C4  UNL d   1       0.791   1.674   3.132  0.00  0.00     0.002 A 
ATOM      4  C5  UNL d   1      -0.275   2.090   2.336  0.00  0.00    -0.004 A 
ATOM      5  C6  UNL d   1      -0.200   1.963   0.950  0.00  0.00     0.002 A 
ATOM      6  C7  UNL d   1       0.939   1.415   0.359  0.00  0.00     0.002 A 
ENDROOT
BRANCH   1   7
ATOM      7  C1  UNL d   1       3.224   0.354   0.514  0.00  0.00     0.055 C 
ATOM      8  C   UNL d   1       3.403   0.817  -0.924  0.00  0.00     0.019 C 
ENDBRANCH   1   7
TORSDOF 1
ENDMDL
