MODEL 1
REMARK minimizedAffinity -1.25728536
REMARK minimizedRMSD -1
REMARK  1 active torsions:
REMARK  status: ('A' for Active; 'I' for Inactive)
REMARK    1  A    between atoms: C1_2  and  C2_3 
ROOT
ATOM      1  C2  UNL d   1      -3.019   2.389   0.370  0.00  0.00    -0.077 A 
ATOM      2  C3  UNL d   1      -2.726   1.059   0.704  0.00  0.00     0.002 A 
ATOM      3  C4  UNL d   1      -1.402   0.620   0.758  0.00  0.00     0.002 A 
ATOM      4  C5  UNL d   1      -0.361   1.504   0.484  0.00  0.00    -0.004 A 
ATOM      5  C6  UNL d   1      -0.642   2.828   0.150  0.00  0.00     0.002 A 
ATOM      6  C7  UNL d   1      -1.965   3.269   0.094  0.00  0.00     0.002 A 
ENDROOT
BRANCH   1   7
ATOM      7  C1  UNL d   1      -4.444   2.878   0.359  0.00  0.00     0.055 C 
ATOM      8  C   UNL d   1      -5.402   1.800   0.844  0.00  0.00     0.019 C 
ENDBRANCH   1   7
TORSDOF 1
ENDMDL
