MODEL 1
REMARK minimizedAffinity 2.16730475
REMARK minimizedRMSD -1
REMARK  1 active torsions:
REMARK  status: ('A' for Active; 'I' for Inactive)
REMARK    1  A    between atoms: C1_2  and  C2_3 
ROOT
ATOM      1  C2  UNL d   1      -1.105   2.165   0.611  0.00  0.00    -0.077 A 
ATOM      2  C3  UNL d   1      -0.042   1.557  -0.073  0.00  0.00     0.002 A 
ATOM      3  C4  UNL d   1       0.876   0.761   0.615  0.00  0.00     0.002 A 
ATOM      4  C5  UNL d   1       0.739   0.562   1.987  0.00  0.00    -0.004 A 
ATOM      5  C6  UNL d   1      -0.314   1.164   2.676  0.00  0.00     0.002 A 
ATOM      6  C7  UNL d   1      -1.232   1.961   1.991  0.00  0.00     0.002 A 
ENDROOT
BRANCH   1   7
ATOM      7  C1  UNL d   1      -2.124   2.983  -0.137  0.00  0.00     0.055 C 
ATOM      8  C   UNL d   1      -3.491   2.908   0.528  0.00  0.00     0.019 C 
ENDBRANCH   1   7
TORSDOF 1
ENDMDL
