MODEL 1
REMARK minimizedAffinity -3.6886313
REMARK minimizedRMSD -1
REMARK  1 active torsions:
REMARK  status: ('A' for Active; 'I' for Inactive)
REMARK    1  A    between atoms: C1_2  and  C2_3 
ROOT
ATOM      1  C2  UNL d   1      -2.958   1.317   0.550  0.00  0.00    -0.077 A 
ATOM      2  C3  UNL d   1      -2.637   0.040   1.029  0.00  0.00     0.002 A 
ATOM      3  C4  UNL d   1      -1.304  -0.335   1.203  0.00  0.00     0.002 A 
ATOM      4  C5  UNL d   1      -0.281   0.563   0.903  0.00  0.00    -0.004 A 
ATOM      5  C6  UNL d   1      -0.590   1.835   0.424  0.00  0.00     0.002 A 
ATOM      6  C7  UNL d   1      -1.923   2.211   0.249  0.00  0.00     0.002 A 
ENDROOT
BRANCH   1   7
ATOM      7  C1  UNL d   1      -4.397   1.741   0.410  0.00  0.00     0.055 C 
ATOM      8  C   UNL d   1      -5.319   0.850   1.229  0.00  0.00     0.019 C 
ENDBRANCH   1   7
TORSDOF 1
ENDMDL
