MODEL 1
REMARK minimizedAffinity -1.83139122
REMARK minimizedRMSD -1
REMARK  1 active torsions:
REMARK  status: ('A' for Active; 'I' for Inactive)
REMARK    1  A    between atoms: C1_2  and  C2_3 
ROOT
ATOM      1  C2  UNL d   1       0.820   0.908   0.779  0.00  0.00    -0.077 A 
ATOM      2  C3  UNL d   1       0.842   2.103   0.047  0.00  0.00     0.002 A 
ATOM      3  C4  UNL d   1      -0.271   2.947   0.038  0.00  0.00     0.002 A 
ATOM      4  C5  UNL d   1      -1.411   2.607   0.763  0.00  0.00    -0.004 A 
ATOM      5  C6  UNL d   1      -1.443   1.419   1.493  0.00  0.00     0.002 A 
ATOM      6  C7  UNL d   1      -0.333   0.574   1.502  0.00  0.00     0.002 A 
ENDROOT
BRANCH   1   7
ATOM      7  C1  UNL d   1       2.036   0.021   0.829  0.00  0.00     0.055 C 
ATOM      8  C   UNL d   1       2.999   0.463   1.921  0.00  0.00     0.019 C 
ENDBRANCH   1   7
TORSDOF 1
ENDMDL
