MODEL 1
REMARK minimizedAffinity 6.79807186
REMARK minimizedRMSD -1
REMARK  1 active torsions:
REMARK  status: ('A' for Active; 'I' for Inactive)
REMARK    1  A    between atoms: C1_2  and  C2_3 
ROOT
ATOM      1  C2  UNL d   1       0.394   1.689   0.384  0.00  0.00    -0.076 A 
ATOM      2  C3  UNL d   1       1.606   2.393   0.490  0.00  0.00     0.004 A 
ATOM      3  C4  UNL d   1       1.651   3.774   0.310  0.00  0.00    -0.003 A 
ATOM      4  C5  UNL d   1       0.485   4.475   0.023  0.00  0.00     0.000 A 
ATOM      5  C6  UNL d   1      -0.729   3.795  -0.069  0.00  0.00     0.000 A 
ATOM      6  C7  UNL d   1      -0.795   2.404   0.126  0.00  0.00    -0.073 A 
ATOM      7  C8  UNL d   1      -2.130   1.722   0.009  0.00  0.00     0.078 C 
ENDROOT
BRANCH   1   8
ATOM      8  C1  UNL d   1       0.410   0.187   0.561  0.00  0.00     0.053 C 
ATOM      9  C   UNL d   1       1.619  -0.293   1.350  0.00  0.00     0.018 C 
ENDBRANCH   1   8
TORSDOF 1
ENDMDL
