MODEL 1
REMARK minimizedAffinity 6.51739025
REMARK minimizedRMSD -1
REMARK  1 active torsions:
REMARK  status: ('A' for Active; 'I' for Inactive)
REMARK    1  A    between atoms: C1_2  and  C2_3 
ROOT
ATOM      1  C2  UNL d   1       0.492   2.714  -0.447  0.00  0.00    -0.076 A 
ATOM      2  C3  UNL d   1       1.079   2.707   0.830  0.00  0.00     0.004 A 
ATOM      3  C4  UNL d   1       1.366   1.508   1.481  0.00  0.00    -0.003 A 
ATOM      4  C5  UNL d   1       1.070   0.297   0.865  0.00  0.00     0.000 A 
ATOM      5  C6  UNL d   1       0.504   0.285  -0.409  0.00  0.00     0.000 A 
ATOM      6  C7  UNL d   1       0.224   1.485  -1.086  0.00  0.00    -0.073 A 
ATOM      7  C8  UNL d   1      -0.393   1.414  -2.456  0.00  0.00     0.078 C 
ENDROOT
BRANCH   1   8
ATOM      8  C1  UNL d   1       0.179   4.045  -1.092  0.00  0.00     0.053 C 
ATOM      9  C   UNL d   1       1.390   4.964  -1.149  0.00  0.00     0.018 C 
ENDBRANCH   1   8
TORSDOF 1
ENDMDL
