MODEL 1
REMARK minimizedAffinity 10.1497622
REMARK minimizedRMSD -1
REMARK  1 active torsions:
REMARK  status: ('A' for Active; 'I' for Inactive)
REMARK    1  A    between atoms: C1_2  and  C2_3 
ROOT
ATOM      1  C2  UNL d   1       0.735   3.415   0.207  0.00  0.00    -0.076 A 
ATOM      2  C3  UNL d   1       1.712   4.365  -0.139  0.00  0.00     0.004 A 
ATOM      3  C4  UNL d   1       1.359   5.567  -0.750  0.00  0.00    -0.003 A 
ATOM      4  C5  UNL d   1       0.023   5.839  -1.024  0.00  0.00     0.000 A 
ATOM      5  C6  UNL d   1      -0.961   4.916  -0.671  0.00  0.00     0.000 A 
ATOM      6  C7  UNL d   1      -0.623   3.706  -0.040  0.00  0.00    -0.073 A 
ATOM      7  C8  UNL d   1      -1.725   2.744   0.313  0.00  0.00     0.078 C 
ENDROOT
BRANCH   1   8
ATOM      8  C1  UNL d   1       1.180   2.117   0.842  0.00  0.00     0.053 C 
ATOM      9  C   UNL d   1       1.286   0.982  -0.164  0.00  0.00     0.018 C 
ENDBRANCH   1   8
TORSDOF 1
ENDMDL
