MODEL 1
REMARK minimizedAffinity 1.37125671
REMARK minimizedRMSD -1
REMARK  1 active torsions:
REMARK  status: ('A' for Active; 'I' for Inactive)
REMARK    1  A    between atoms: C1_2  and  C2_3 
ROOT
ATOM      1  C2  UNL d   1       0.966   1.487  -0.189  0.00  0.00    -0.076 A 
ATOM      2  C3  UNL d   1       1.365   1.336   1.150  0.00  0.00     0.004 A 
ATOM      3  C4  UNL d   1       1.573   0.072   1.699  0.00  0.00    -0.003 A 
ATOM      4  C5  UNL d   1       1.385  -1.062   0.917  0.00  0.00     0.000 A 
ATOM      5  C6  UNL d   1       1.007  -0.931  -0.419  0.00  0.00     0.000 A 
ATOM      6  C7  UNL d   1       0.809   0.337  -0.992  0.00  0.00    -0.073 A 
ATOM      7  C8  UNL d   1       0.395   0.420  -2.436  0.00  0.00     0.078 C 
ENDROOT
BRANCH   1   8
ATOM      8  C1  UNL d   1       0.730   2.882  -0.722  0.00  0.00     0.053 C 
ATOM      9  C   UNL d   1      -0.575   3.483  -0.222  0.00  0.00     0.018 C 
ENDBRANCH   1   8
TORSDOF 1
ENDMDL
