MODEL 1
REMARK minimizedAffinity -1.36927867
REMARK minimizedRMSD -1
REMARK  1 active torsions:
REMARK  status: ('A' for Active; 'I' for Inactive)
REMARK    1  A    between atoms: C1_2  and  C2_3 
ROOT
ATOM      1  C2  UNL d   1       0.285   2.779  -0.226  0.00  0.00    -0.076 A 
ATOM      2  C3  UNL d   1       1.376   3.661  -0.305  0.00  0.00     0.004 A 
ATOM      3  C4  UNL d   1       1.228   4.940  -0.841  0.00  0.00    -0.003 A 
ATOM      4  C5  UNL d   1      -0.015   5.356  -1.306  0.00  0.00     0.000 A 
ATOM      5  C6  UNL d   1      -1.112   4.500  -1.219  0.00  0.00     0.000 A 
ATOM      6  C7  UNL d   1      -0.983   3.214  -0.667  0.00  0.00    -0.073 A 
ATOM      7  C8  UNL d   1      -2.199   2.331  -0.603  0.00  0.00     0.078 C 
ENDROOT
BRANCH   1   8
ATOM      8  C1  UNL d   1       0.512   1.395   0.339  0.00  0.00     0.053 C 
ATOM      9  C   UNL d   1       1.075   0.429  -0.692  0.00  0.00     0.018 C 
ENDBRANCH   1   8
TORSDOF 1
ENDMDL
