MODEL 1
REMARK minimizedAffinity 6.94721985
REMARK minimizedRMSD -1
REMARK  1 active torsions:
REMARK  status: ('A' for Active; 'I' for Inactive)
REMARK    1  A    between atoms: C1_2  and  C2_3 
ROOT
ATOM      1  C2  UNL d   1      -4.726   2.959  -3.108  0.00  0.00    -0.076 A 
ATOM      2  C3  UNL d   1      -3.523   2.449  -2.590  0.00  0.00     0.004 A 
ATOM      3  C4  UNL d   1      -2.345   3.192  -2.647  0.00  0.00    -0.003 A 
ATOM      4  C5  UNL d   1      -2.352   4.458  -3.222  0.00  0.00     0.000 A 
ATOM      5  C6  UNL d   1      -3.540   4.987  -3.724  0.00  0.00     0.000 A 
ATOM      6  C7  UNL d   1      -4.740   4.258  -3.660  0.00  0.00    -0.073 A 
ATOM      7  C8  UNL d   1      -5.991   4.875  -4.223  0.00  0.00     0.078 C 
ENDROOT
BRANCH   1   8
ATOM      8  C1  UNL d   1      -5.966   2.096  -3.042  0.00  0.00     0.053 C 
ATOM      9  C   UNL d   1      -5.735   0.800  -2.281  0.00  0.00     0.018 C 
ENDBRANCH   1   8
TORSDOF 1
ENDMDL
