MODEL 1
REMARK minimizedAffinity 10.8924141
REMARK minimizedRMSD -1
REMARK  1 active torsions:
REMARK  status: ('A' for Active; 'I' for Inactive)
REMARK    1  A    between atoms: C1_2  and  C2_3 
ROOT
ATOM      1  C2  UNL d   1      -1.111   4.239  -0.024  0.00  0.00    -0.076 A 
ATOM      2  C3  UNL d   1      -1.425   5.285  -0.910  0.00  0.00     0.004 A 
ATOM      3  C4  UNL d   1      -0.455   5.827  -1.752  0.00  0.00    -0.003 A 
ATOM      4  C5  UNL d   1       0.844   5.332  -1.722  0.00  0.00     0.000 A 
ATOM      5  C6  UNL d   1       1.168   4.283  -0.863  0.00  0.00     0.000 A 
ATOM      6  C7  UNL d   1       0.199   3.714  -0.019  0.00  0.00    -0.073 A 
ATOM      7  C8  UNL d   1       0.605   2.589   0.892  0.00  0.00     0.078 C 
ENDROOT
BRANCH   1   8
ATOM      8  C1  UNL d   1      -2.197   3.710   0.885  0.00  0.00     0.053 C 
ATOM      9  C   UNL d   1      -2.865   4.809   1.696  0.00  0.00     0.018 C 
ENDBRANCH   1   8
TORSDOF 1
ENDMDL
