MODEL 1
REMARK minimizedAffinity -4.52527094
REMARK minimizedRMSD -1
REMARK  1 active torsions:
REMARK  status: ('A' for Active; 'I' for Inactive)
REMARK    1  A    between atoms: C1_2  and  C2_3 
ROOT
ATOM      1  C2  UNL d   1      -4.925   2.345  -4.249  0.00  0.00    -0.076 A 
ATOM      2  C3  UNL d   1      -5.999   2.980  -4.897  0.00  0.00     0.004 A 
ATOM      3  C4  UNL d   1      -6.000   4.359  -5.101  0.00  0.00    -0.003 A 
ATOM      4  C5  UNL d   1      -4.926   5.125  -4.661  0.00  0.00     0.000 A 
ATOM      5  C6  UNL d   1      -3.844   4.510  -4.032  0.00  0.00     0.000 A 
ATOM      6  C7  UNL d   1      -3.821   3.118  -3.833  0.00  0.00    -0.073 A 
ATOM      7  C8  UNL d   1      -2.631   2.508  -3.144  0.00  0.00     0.078 C 
ENDROOT
BRANCH   1   8
ATOM      8  C1  UNL d   1      -4.993   0.850  -4.031  0.00  0.00     0.053 C 
ATOM      9  C   UNL d   1      -4.793   0.464  -2.574  0.00  0.00     0.018 C 
ENDBRANCH   1   8
TORSDOF 1
ENDMDL
