MODEL 1
REMARK minimizedAffinity 12.3737526
REMARK minimizedRMSD -1
REMARK  1 active torsions:
REMARK  status: ('A' for Active; 'I' for Inactive)
REMARK    1  A    between atoms: C1_2  and  C2_3 
ROOT
ATOM      1  C2  UNL d   1      -2.350   0.003  -3.142  0.00  0.00    -0.076 A 
ATOM      2  C3  UNL d   1      -3.051  -1.209  -3.016  0.00  0.00     0.004 A 
ATOM      3  C4  UNL d   1      -4.368  -1.232  -2.559  0.00  0.00    -0.003 A 
ATOM      4  C5  UNL d   1      -5.004  -0.043  -2.220  0.00  0.00     0.000 A 
ATOM      5  C6  UNL d   1      -4.329   1.170  -2.355  0.00  0.00     0.000 A 
ATOM      6  C7  UNL d   1      -3.007   1.212  -2.830  0.00  0.00    -0.073 A 
ATOM      7  C8  UNL d   1      -2.325   2.547  -2.950  0.00  0.00     0.078 C 
ENDROOT
BRANCH   1   8
ATOM      8  C1  UNL d   1      -0.915  -0.037  -3.617  0.00  0.00     0.053 C 
ATOM      9  C   UNL d   1      -0.795  -0.468  -5.071  0.00  0.00     0.018 C 
ENDBRANCH   1   8
TORSDOF 1
ENDMDL
