MODEL 1
REMARK minimizedAffinity 4.87101746
REMARK minimizedRMSD -1
REMARK  1 active torsions:
REMARK  status: ('A' for Active; 'I' for Inactive)
REMARK    1  A    between atoms: C1_2  and  C2_3 
ROOT
ATOM      1  C2  UNL d   1       1.703  -4.813  -3.192  0.00  0.00    -0.076 A 
ATOM      2  C3  UNL d   1       1.751  -3.668  -4.005  0.00  0.00     0.004 A 
ATOM      3  C4  UNL d   1       0.959  -2.556  -3.726  0.00  0.00    -0.003 A 
ATOM      4  C5  UNL d   1       0.104  -2.571  -2.629  0.00  0.00     0.000 A 
ATOM      5  C6  UNL d   1       0.056  -3.692  -1.801  0.00  0.00     0.000 A 
ATOM      6  C7  UNL d   1       0.861  -4.815  -2.059  0.00  0.00    -0.073 A 
ATOM      7  C8  UNL d   1       0.764  -6.000  -1.137  0.00  0.00     0.078 C 
ENDROOT
BRANCH   1   8
ATOM      8  C1  UNL d   1       2.565  -5.999  -3.559  0.00  0.00     0.053 C 
ATOM      9  C   UNL d   1       3.991  -5.863  -3.048  0.00  0.00     0.018 C 
ENDBRANCH   1   8
TORSDOF 1
ENDMDL
