MODEL 1
REMARK minimizedAffinity 0.704383731
REMARK minimizedRMSD -1
REMARK  1 active torsions:
REMARK  status: ('A' for Active; 'I' for Inactive)
REMARK    1  A    between atoms: C1_2  and  C2_3 
ROOT
ATOM      1  C2  UNL d   1       4.472  -2.371  -0.348  0.00  0.00    -0.076 A 
ATOM      2  C3  UNL d   1       4.026  -1.039  -0.369  0.00  0.00     0.004 A 
ATOM      3  C4  UNL d   1       2.776  -0.692   0.140  0.00  0.00    -0.003 A 
ATOM      4  C5  UNL d   1       1.951  -1.673   0.681  0.00  0.00     0.000 A 
ATOM      5  C6  UNL d   1       2.385  -2.998   0.726  0.00  0.00     0.000 A 
ATOM      6  C7  UNL d   1       3.650  -3.361   0.231  0.00  0.00    -0.073 A 
ATOM      7  C8  UNL d   1       4.064  -4.805   0.300  0.00  0.00     0.078 C 
ENDROOT
BRANCH   1   8
ATOM      8  C1  UNL d   1       5.826  -2.691  -0.940  0.00  0.00     0.053 C 
ATOM      9  C   UNL d   1       5.769  -2.901  -2.445  0.00  0.00     0.018 C 
ENDBRANCH   1   8
TORSDOF 1
ENDMDL
