MODEL 1
REMARK minimizedAffinity 1.68190944
REMARK minimizedRMSD -1
REMARK  0 active torsions:
REMARK  status: ('A' for Active; 'I' for Inactive)
ROOT
ATOM      1  C1  BNZ d   1      -0.128  -0.271   2.328  0.00  0.00     0.000 A 
ATOM      2  C2  BNZ d   1       0.052  -1.595   2.626  0.00  0.00     0.000 A 
ATOM      3  C3  BNZ d   1       0.720  -1.974   3.757  0.00  0.00     0.000 A 
ATOM      4  C4  BNZ d   1       1.240  -1.029   4.567  0.00  0.00     0.000 A 
ATOM      5  C5  BNZ d   1       1.075   0.310   4.275  0.00  0.00     0.000 A 
ATOM      6  C6  BNZ d   1       0.369   0.688   3.156  0.00  0.00     0.000 A 
ENDROOT
TORSDOF 0
ENDMDL
