MODEL 1
REMARK minimizedAffinity 1.98779035
REMARK minimizedRMSD -1
REMARK  0 active torsions:
REMARK  status: ('A' for Active; 'I' for Inactive)
ROOT
ATOM      1  C1  BNZ d   1       1.227  -0.577   4.459  0.00  0.00     0.000 A 
ATOM      2  C2  BNZ d   1       1.138  -1.558   3.507  0.00  0.00     0.000 A 
ATOM      3  C3  BNZ d   1       0.649  -1.282   2.261  0.00  0.00     0.000 A 
ATOM      4  C4  BNZ d   1       0.212  -0.037   1.981  0.00  0.00     0.000 A 
ATOM      5  C5  BNZ d   1       0.287   0.961   2.933  0.00  0.00     0.000 A 
ATOM      6  C6  BNZ d   1       0.816   0.688   4.173  0.00  0.00     0.000 A 
ENDROOT
TORSDOF 0
ENDMDL
