MODEL 1
REMARK minimizedAffinity 12.850852
REMARK minimizedRMSD -1
REMARK  0 active torsions:
REMARK  status: ('A' for Active; 'I' for Inactive)
ROOT
ATOM      1  C1  BNZ d   1       0.999  -1.885  -3.811  0.00  0.00     0.000 A 
ATOM      2  C2  BNZ d   1       0.493  -2.747  -2.875  0.00  0.00     0.000 A 
ATOM      3  C3  BNZ d   1      -0.623  -2.423  -2.156  0.00  0.00     0.000 A 
ATOM      4  C4  BNZ d   1      -1.207  -1.221  -2.344  0.00  0.00     0.000 A 
ATOM      5  C5  BNZ d   1      -0.703  -0.337  -3.276  0.00  0.00     0.000 A 
ATOM      6  C6  BNZ d   1       0.398  -0.683  -4.026  0.00  0.00     0.000 A 
ENDROOT
TORSDOF 0
ENDMDL
