MODEL 1
REMARK minimizedAffinity 6.70842075
REMARK minimizedRMSD -1
REMARK  0 active torsions:
REMARK  status: ('A' for Active; 'I' for Inactive)
ROOT
ATOM      1  C1  BNZ d   1       3.220   0.999   2.669  0.00  0.00     0.000 A 
ATOM      2  C2  BNZ d   1       1.987   0.685   2.164  0.00  0.00     0.000 A 
ATOM      3  C3  BNZ d   1       0.965   0.314   2.993  0.00  0.00     0.000 A 
ATOM      4  C4  BNZ d   1       1.189   0.219   4.320  0.00  0.00     0.000 A 
ATOM      5  C5  BNZ d   1       2.430   0.523   4.843  0.00  0.00     0.000 A 
ATOM      6  C6  BNZ d   1       3.445   0.934   4.010  0.00  0.00     0.000 A 
ENDROOT
TORSDOF 0
ENDMDL
