MODEL 1
REMARK minimizedAffinity 2.60554743
REMARK minimizedRMSD -1
REMARK  0 active torsions:
REMARK  status: ('A' for Active; 'I' for Inactive)
ROOT
ATOM      1  C1  BNZ d   1       4.766   6.000   1.835  0.00  0.00     0.000 A 
ATOM      2  C2  BNZ d   1       4.973   5.190   2.920  0.00  0.00     0.000 A 
ATOM      3  C3  BNZ d   1       4.879   3.831   2.806  0.00  0.00     0.000 A 
ATOM      4  C4  BNZ d   1       4.541   3.286   1.620  0.00  0.00     0.000 A 
ATOM      5  C5  BNZ d   1       4.320   4.090   0.519  0.00  0.00     0.000 A 
ATOM      6  C6  BNZ d   1       4.453   5.456   0.628  0.00  0.00     0.000 A 
ENDROOT
TORSDOF 0
ENDMDL
