MODEL 1
REMARK minimizedAffinity 9.22228432
REMARK minimizedRMSD -1
REMARK  0 active torsions:
REMARK  status: ('A' for Active; 'I' for Inactive)
ROOT
ATOM      1  C1  BNZ d   1       0.491   1.288   3.476  0.00  0.00     0.000 A 
ATOM      2  C2  BNZ d   1      -0.533   1.451   2.581  0.00  0.00     0.000 A 
ATOM      3  C3  BNZ d   1      -1.020   0.388   1.873  0.00  0.00     0.000 A 
ATOM      4  C4  BNZ d   1      -0.458  -0.827   2.031  0.00  0.00     0.000 A 
ATOM      5  C5  BNZ d   1       0.582  -1.006   2.922  0.00  0.00     0.000 A 
ATOM      6  C6  BNZ d   1       1.044   0.058   3.661  0.00  0.00     0.000 A 
ENDROOT
TORSDOF 0
ENDMDL
