MODEL 1
REMARK minimizedAffinity -0.472448975
REMARK minimizedRMSD -1
REMARK  0 active torsions:
REMARK  status: ('A' for Active; 'I' for Inactive)
ROOT
ATOM      1  C1  BNZ d   1       1.820  -1.670   4.932  0.00  0.00     0.000 A 
ATOM      2  C2  BNZ d   1       1.018  -1.663   3.821  0.00  0.00     0.000 A 
ATOM      3  C3  BNZ d   1       0.944  -0.559   3.019  0.00  0.00     0.000 A 
ATOM      4  C4  BNZ d   1       1.638   0.549   3.348  0.00  0.00     0.000 A 
ATOM      5  C5  BNZ d   1       2.443   0.561   4.470  0.00  0.00     0.000 A 
ATOM      6  C6  BNZ d   1       2.546  -0.565   5.254  0.00  0.00     0.000 A 
ENDROOT
TORSDOF 0
ENDMDL
