MODEL 1
REMARK minimizedAffinity 14.8461704
REMARK minimizedRMSD -1
REMARK  0 active torsions:
REMARK  status: ('A' for Active; 'I' for Inactive)
ROOT
ATOM      1  C1  BNZ d   1       0.784  -0.373  -5.431  0.00  0.00     0.000 A 
ATOM      2  C2  BNZ d   1       0.019   0.160  -4.429  0.00  0.00     0.000 A 
ATOM      3  C3  BNZ d   1      -0.793  -0.635  -3.669  0.00  0.00     0.000 A 
ATOM      4  C4  BNZ d   1      -0.869  -1.954  -3.939  0.00  0.00     0.000 A 
ATOM      5  C5  BNZ d   1      -0.111  -2.505  -4.953  0.00  0.00     0.000 A 
ATOM      6  C6  BNZ d   1       0.734  -1.708  -5.690  0.00  0.00     0.000 A 
ENDROOT
TORSDOF 0
ENDMDL
