MODEL 1
REMARK minimizedAffinity 11.3068848
REMARK minimizedRMSD -1
REMARK  0 active torsions:
REMARK  status: ('A' for Active; 'I' for Inactive)
ROOT
ATOM      1  C1  BNZ d   1      -0.005  -1.211   1.138  0.00  0.00     0.000 A 
ATOM      2  C2  BNZ d   1       1.049  -1.365   1.999  0.00  0.00     0.000 A 
ATOM      3  C3  BNZ d   1       1.542  -0.300   2.699  0.00  0.00     0.000 A 
ATOM      4  C4  BNZ d   1       1.008   0.924   2.508  0.00  0.00     0.000 A 
ATOM      5  C5  BNZ d   1      -0.049   1.097   1.636  0.00  0.00     0.000 A 
ATOM      6  C6  BNZ d   1      -0.568   0.015   0.963  0.00  0.00     0.000 A 
ENDROOT
TORSDOF 0
ENDMDL
