MODEL 1
REMARK minimizedAffinity -2.67398119
REMARK minimizedRMSD -1
REMARK  0 active torsions:
REMARK  status: ('A' for Active; 'I' for Inactive)
ROOT
ATOM      1  C   UNL d   1      -0.183   2.738   0.396  0.00  0.00     0.172 C 
ATOM      2  N   UNL d   1       0.209   1.349   0.359  0.00  0.00    -0.070 N 
ATOM      3  C1  UNL d   1       1.490   0.877   0.471  0.00  0.00    -0.004 A 
ATOM      4  C2  UNL d   1       1.442  -0.498   0.388  0.00  0.00    -0.047 A 
ATOM      5  C3  UNL d   1       0.086  -0.865   0.220  0.00  0.00    -0.047 A 
ATOM      6  C4  UNL d   1      -0.656   0.297   0.206  0.00  0.00    -0.004 A 
ENDROOT
TORSDOF 0
ENDMDL
