MODEL 1
REMARK minimizedAffinity -3.77074671
REMARK minimizedRMSD -1
REMARK  0 active torsions:
REMARK  status: ('A' for Active; 'I' for Inactive)
ROOT
ATOM      1  C   UNL d   1       0.397  -1.461   0.044  0.00  0.00     0.172 C 
ATOM      2  N   UNL d   1       0.605  -0.032   0.093  0.00  0.00    -0.070 N 
ATOM      3  C1  UNL d   1       1.821   0.597   0.123  0.00  0.00    -0.004 A 
ATOM      4  C2  UNL d   1       1.593   1.955   0.166  0.00  0.00    -0.047 A 
ATOM      5  C3  UNL d   1       0.191   2.149   0.162  0.00  0.00    -0.047 A 
ATOM      6  C4  UNL d   1      -0.396   0.902   0.116  0.00  0.00    -0.004 A 
ENDROOT
TORSDOF 0
ENDMDL
