MODEL 1
REMARK minimizedAffinity -4.02375698
REMARK minimizedRMSD -1
REMARK  0 active torsions:
REMARK  status: ('A' for Active; 'I' for Inactive)
ROOT
ATOM      1  C   UNL d   1      -1.214  -0.035   0.747  0.00  0.00     0.172 C 
ATOM      2  N   UNL d   1      -0.329   1.049   0.387  0.00  0.00    -0.070 N 
ATOM      3  C1  UNL d   1      -0.546   2.375   0.648  0.00  0.00    -0.004 A 
ATOM      4  C2  UNL d   1       0.525   3.084   0.147  0.00  0.00    -0.047 A 
ATOM      5  C3  UNL d   1       1.415   2.151  -0.436  0.00  0.00    -0.047 A 
ATOM      6  C4  UNL d   1       0.862   0.898  -0.273  0.00  0.00    -0.004 A 
ENDROOT
TORSDOF 0
ENDMDL
