MODEL 1
REMARK minimizedAffinity -3.9150703
REMARK minimizedRMSD -1
REMARK  0 active torsions:
REMARK  status: ('A' for Active; 'I' for Inactive)
ROOT
ATOM      1  C   UNL d   1       0.177  -0.965  -0.193  0.00  0.00     0.172 C 
ATOM      2  N   UNL d   1       0.027   0.466  -0.073  0.00  0.00    -0.070 N 
ATOM      3  C1  UNL d   1       0.922   1.403  -0.518  0.00  0.00    -0.004 A 
ATOM      4  C2  UNL d   1       0.414   2.648  -0.216  0.00  0.00    -0.047 A 
ATOM      5  C3  UNL d   1      -0.828   2.453   0.435  0.00  0.00    -0.047 A 
ATOM      6  C4  UNL d   1      -1.043   1.093   0.510  0.00  0.00    -0.004 A 
ENDROOT
TORSDOF 0
ENDMDL
