MODEL 1
REMARK minimizedAffinity -3.87922192
REMARK minimizedRMSD -1
REMARK  0 active torsions:
REMARK  status: ('A' for Active; 'I' for Inactive)
ROOT
ATOM      1  C   UNL d   1       0.175   2.913   0.294  0.00  0.00     0.172 C 
ATOM      2  N   UNL d   1       0.485   1.503   0.288  0.00  0.00    -0.070 N 
ATOM      3  C1  UNL d   1       1.735   0.959   0.415  0.00  0.00    -0.004 A 
ATOM      4  C2  UNL d   1       1.607  -0.412   0.361  0.00  0.00    -0.047 A 
ATOM      5  C3  UNL d   1       0.232  -0.702   0.195  0.00  0.00    -0.047 A 
ATOM      6  C4  UNL d   1      -0.440   0.501   0.153  0.00  0.00    -0.004 A 
ENDROOT
TORSDOF 0
ENDMDL
