MODEL 1
REMARK minimizedAffinity -3.88636923
REMARK minimizedRMSD -1
REMARK  0 active torsions:
REMARK  status: ('A' for Active; 'I' for Inactive)
ROOT
ATOM      1  C   UNL d   1       0.670  -0.436   0.192  0.00  0.00     0.172 C 
ATOM      2  N   UNL d   1       0.694   0.987   0.439  0.00  0.00    -0.070 N 
ATOM      3  C1  UNL d   1       1.780   1.705   0.863  0.00  0.00    -0.004 A 
ATOM      4  C2  UNL d   1       1.395   3.023   0.979  0.00  0.00    -0.047 A 
ATOM      5  C3  UNL d   1       0.030   3.100   0.613  0.00  0.00    -0.047 A 
ATOM      6  C4  UNL d   1      -0.379   1.825   0.284  0.00  0.00    -0.004 A 
ENDROOT
TORSDOF 0
ENDMDL
