MODEL 1
REMARK minimizedAffinity -3.64702487
REMARK minimizedRMSD -1
REMARK  0 active torsions:
REMARK  status: ('A' for Active; 'I' for Inactive)
ROOT
ATOM      1  C   UNL d   1       0.992   2.299  -0.660  0.00  0.00     0.172 C 
ATOM      2  N   UNL d   1       0.942   0.934  -0.191  0.00  0.00    -0.070 N 
ATOM      3  C1  UNL d   1      -0.122   0.082  -0.324  0.00  0.00    -0.004 A 
ATOM      4  C2  UNL d   1       0.227  -1.121   0.250  0.00  0.00    -0.047 A 
ATOM      5  C3  UNL d   1       1.546  -0.988   0.745  0.00  0.00    -0.047 A 
ATOM      6  C4  UNL d   1       1.965   0.294   0.458  0.00  0.00    -0.004 A 
ENDROOT
TORSDOF 0
ENDMDL
