MODEL 1
REMARK minimizedAffinity -3.47698092
REMARK minimizedRMSD -1
REMARK  0 active torsions:
REMARK  status: ('A' for Active; 'I' for Inactive)
ROOT
ATOM      1  C   UNL d   1       0.081  -0.881  -0.252  0.00  0.00     0.172 C 
ATOM      2  N   UNL d   1      -0.059   0.551  -0.131  0.00  0.00    -0.070 N 
ATOM      3  C1  UNL d   1       0.886   1.478  -0.480  0.00  0.00    -0.004 A 
ATOM      4  C2  UNL d   1       0.371   2.728  -0.213  0.00  0.00    -0.047 A 
ATOM      5  C3  UNL d   1      -0.930   2.545   0.315  0.00  0.00    -0.047 A 
ATOM      6  C4  UNL d   1      -1.170   1.188   0.355  0.00  0.00    -0.004 A 
ENDROOT
TORSDOF 0
ENDMDL
