MODEL 1
REMARK minimizedAffinity -2.85026002
REMARK minimizedRMSD -1
REMARK  0 active torsions:
REMARK  status: ('A' for Active; 'I' for Inactive)
ROOT
ATOM      1  C   UNL d   1       0.118  -1.426  -0.110  0.00  0.00     0.172 C 
ATOM      2  N   UNL d   1      -0.110  -0.002  -0.038  0.00  0.00    -0.070 N 
ATOM      3  C1  UNL d   1      -1.141   0.609   0.625  0.00  0.00    -0.004 A 
ATOM      4  C2  UNL d   1      -1.005   1.970   0.455  0.00  0.00    -0.047 A 
ATOM      5  C3  UNL d   1       0.147   2.184  -0.339  0.00  0.00    -0.047 A 
ATOM      6  C4  UNL d   1       0.681   0.947  -0.630  0.00  0.00    -0.004 A 
ENDROOT
TORSDOF 0
ENDMDL
