MODEL 1
REMARK minimizedAffinity -3.53535604
REMARK minimizedRMSD -1
REMARK  0 active torsions:
REMARK  status: ('A' for Active; 'I' for Inactive)
ROOT
ATOM      1  C   UNL d   1       0.098  -1.103   0.167  0.00  0.00     0.172 C 
ATOM      2  N   UNL d   1      -0.005   0.333   0.056  0.00  0.00    -0.070 N 
ATOM      3  C1  UNL d   1       1.046   1.211   0.045  0.00  0.00    -0.004 A 
ATOM      4  C2  UNL d   1       0.532   2.484  -0.075  0.00  0.00    -0.047 A 
ATOM      5  C3  UNL d   1      -0.877   2.367  -0.138  0.00  0.00    -0.047 A 
ATOM      6  C4  UNL d   1      -1.182   1.025  -0.055  0.00  0.00    -0.004 A 
ENDROOT
TORSDOF 0
ENDMDL
