MODEL 1
REMARK minimizedAffinity -3.75892496
REMARK minimizedRMSD -1
REMARK  0 active torsions:
REMARK  status: ('A' for Active; 'I' for Inactive)
ROOT
ATOM      1  C   UNL d   1       2.035   1.124  -0.429  0.00  0.00     0.172 C 
ATOM      2  N   UNL d   1       0.772   0.467  -0.191  0.00  0.00    -0.070 N 
ATOM      3  C1  UNL d   1      -0.422   1.094   0.044  0.00  0.00    -0.004 A 
ATOM      4  C2  UNL d   1      -1.382   0.121   0.221  0.00  0.00    -0.047 A 
ATOM      5  C3  UNL d   1      -0.742  -1.135   0.089  0.00  0.00    -0.047 A 
ATOM      6  C4  UNL d   1       0.591  -0.891  -0.165  0.00  0.00    -0.004 A 
ENDROOT
TORSDOF 0
ENDMDL
