MODEL 1
REMARK minimizedAffinity -3.14527583
REMARK minimizedRMSD -1
REMARK  0 active torsions:
REMARK  status: ('A' for Active; 'I' for Inactive)
ROOT
ATOM      1  C   UNL d   1       0.801  -0.208  -0.650  0.00  0.00     0.172 C 
ATOM      2  N   UNL d   1       0.199  -1.477  -0.985  0.00  0.00    -0.070 N 
ATOM      3  C1  UNL d   1       0.300  -2.115  -2.192  0.00  0.00    -0.004 A 
ATOM      4  C2  UNL d   1      -0.411  -3.292  -2.109  0.00  0.00    -0.047 A 
ATOM      5  C3  UNL d   1      -0.960  -3.364  -0.806  0.00  0.00    -0.047 A 
ATOM      6  C4  UNL d   1      -0.566  -2.228  -0.131  0.00  0.00    -0.004 A 
ENDROOT
TORSDOF 0
ENDMDL
