MODEL 1
REMARK minimizedAffinity -3.27562046
REMARK minimizedRMSD -1
REMARK  0 active torsions:
REMARK  status: ('A' for Active; 'I' for Inactive)
ROOT
ATOM      1  C   UNL d   1      -0.180  -0.874   0.246  0.00  0.00     0.172 C 
ATOM      2  N   UNL d   1      -0.044   0.563   0.265  0.00  0.00    -0.070 N 
ATOM      3  C1  UNL d   1       0.910   1.284  -0.402  0.00  0.00    -0.004 A 
ATOM      4  C2  UNL d   1       0.699   2.618  -0.127  0.00  0.00    -0.047 A 
ATOM      5  C3  UNL d   1      -0.419   2.702   0.735  0.00  0.00    -0.047 A 
ATOM      6  C4  UNL d   1      -0.860   1.415   0.962  0.00  0.00    -0.004 A 
ENDROOT
TORSDOF 0
ENDMDL
