MODEL 1
REMARK minimizedAffinity -3.22633529
REMARK minimizedRMSD -1
REMARK  0 active torsions:
REMARK  status: ('A' for Active; 'I' for Inactive)
ROOT
ATOM      1  C   UNL d   1       0.306  -1.492  -0.026  0.00  0.00     0.172 C 
ATOM      2  N   UNL d   1       0.201  -0.052  -0.059  0.00  0.00    -0.070 N 
ATOM      3  C1  UNL d   1       1.235   0.819  -0.274  0.00  0.00    -0.004 A 
ATOM      4  C2  UNL d   1       0.725   2.098  -0.230  0.00  0.00    -0.047 A 
ATOM      5  C3  UNL d   1      -0.664   1.992   0.022  0.00  0.00    -0.047 A 
ATOM      6  C4  UNL d   1      -0.961   0.650   0.124  0.00  0.00    -0.004 A 
ENDROOT
TORSDOF 0
ENDMDL
