MODEL 1
REMARK minimizedAffinity -2.48136616
REMARK minimizedRMSD -1
REMARK  0 active torsions:
REMARK  status: ('A' for Active; 'I' for Inactive)
ROOT
ATOM      1  C   UNL d   1      -0.077  -0.670  -0.302  0.00  0.00     0.172 C 
ATOM      2  N   UNL d   1      -0.075   0.760  -0.107  0.00  0.00    -0.070 N 
ATOM      3  C1  UNL d   1       0.976   1.600  -0.362  0.00  0.00    -0.004 A 
ATOM      4  C2  UNL d   1       0.579   2.881  -0.047  0.00  0.00    -0.047 A 
ATOM      5  C3  UNL d   1      -0.757   2.810   0.413  0.00  0.00    -0.047 A 
ATOM      6  C4  UNL d   1      -1.137   1.485   0.366  0.00  0.00    -0.004 A 
ENDROOT
TORSDOF 0
ENDMDL
