MODEL 1
REMARK minimizedAffinity -2.82995772
REMARK minimizedRMSD -1
REMARK  0 active torsions:
REMARK  status: ('A' for Active; 'I' for Inactive)
ROOT
ATOM      1  C   UNL d   1      -0.583  -0.084   1.077  0.00  0.00     0.172 C 
ATOM      2  N   UNL d   1      -0.194   1.207   0.559  0.00  0.00    -0.070 N 
ATOM      3  C1  UNL d   1      -0.336   2.403   1.210  0.00  0.00    -0.004 A 
ATOM      4  C2  UNL d   1       0.153   3.393   0.384  0.00  0.00    -0.047 A 
ATOM      5  C3  UNL d   1       0.603   2.770  -0.804  0.00  0.00    -0.047 A 
ATOM      6  C4  UNL d   1       0.376   1.416  -0.669  0.00  0.00    -0.004 A 
ENDROOT
TORSDOF 0
ENDMDL
