MODEL 1
REMARK minimizedAffinity 8.21128941
REMARK minimizedRMSD -1
REMARK  0 active torsions:
REMARK  status: ('A' for Active; 'I' for Inactive)
ROOT
ATOM      1  C   UNL d   1       4.791  -2.893  -1.729  0.00  0.00     0.124 A 
ATOM      2  C1  UNL d   1       4.669  -4.025  -2.522  0.00  0.00     0.062 A 
ATOM      3  C2  UNL d   1       3.617  -4.914  -2.316  0.00  0.00     0.162 A 
ATOM      4  C3  UNL d   1       2.679  -4.673  -1.312  0.00  0.00    -0.034 A 
ATOM      5  C4  UNL d   1       2.810  -3.533  -0.517  0.00  0.00     0.162 A 
ATOM      6  C5  UNL d   1       3.863  -2.648  -0.727  0.00  0.00     0.062 A 
ATOM      7  F   UNL d   1       3.980  -1.555   0.041  0.00  0.00    -0.097 F 
ATOM      8  F1  UNL d   1       1.926  -3.272   0.457  0.00  0.00    -0.096 F 
ATOM      9  I   UNL d   1       1.106  -6.000  -1.000  0.00  0.00    -0.060 I 
ATOM     10  F2  UNL d   1       3.523  -5.999  -3.098  0.00  0.00    -0.096 F 
ATOM     11  F3  UNL d   1       5.565  -4.264  -3.490  0.00  0.00    -0.097 F 
ATOM     12  F4  UNL d   1       5.804  -2.040  -1.929  0.00  0.00    -0.092 F 
ENDROOT
TORSDOF 0
ENDMDL
