MODEL 1
REMARK minimizedAffinity 12.2007036
REMARK minimizedRMSD -1
REMARK  0 active torsions:
REMARK  status: ('A' for Active; 'I' for Inactive)
ROOT
ATOM      1  C   UNL d   1      -0.243   4.600  -0.902  0.00  0.00     0.124 A 
ATOM      2  C1  UNL d   1      -1.276   4.784  -1.811  0.00  0.00     0.062 A 
ATOM      3  C2  UNL d   1      -2.075   3.709  -2.189  0.00  0.00     0.162 A 
ATOM      4  C3  UNL d   1      -1.847   2.440  -1.656  0.00  0.00    -0.034 A 
ATOM      5  C4  UNL d   1      -0.807   2.263  -0.743  0.00  0.00     0.162 A 
ATOM      6  C5  UNL d   1      -0.010   3.340  -0.368  0.00  0.00     0.062 A 
ATOM      7  F   UNL d   1       0.987   3.160   0.511  0.00  0.00    -0.097 F 
ATOM      8  F1  UNL d   1      -0.559   1.057  -0.211  0.00  0.00    -0.096 F 
ATOM      9  I   UNL d   1      -3.041   0.831  -2.219  0.00  0.00    -0.060 I 
ATOM     10  F2  UNL d   1      -3.066   3.916  -3.070  0.00  0.00    -0.096 F 
ATOM     11  F3  UNL d   1      -1.503   6.000  -2.329  0.00  0.00    -0.097 F 
ATOM     12  F4  UNL d   1       0.525   5.635  -0.541  0.00  0.00    -0.092 F 
ENDROOT
TORSDOF 0
ENDMDL
