MODEL 1
REMARK minimizedAffinity 9.50672245
REMARK minimizedRMSD -1
REMARK  0 active torsions:
REMARK  status: ('A' for Active; 'I' for Inactive)
ROOT
ATOM      1  C   UNL d   1      -0.828   4.659  -1.448  0.00  0.00     0.124 A 
ATOM      2  C1  UNL d   1      -1.899   4.711  -2.329  0.00  0.00     0.062 A 
ATOM      3  C2  UNL d   1      -2.604   3.553  -2.644  0.00  0.00     0.162 A 
ATOM      4  C3  UNL d   1      -2.241   2.332  -2.076  0.00  0.00    -0.034 A 
ATOM      5  C4  UNL d   1      -1.162   2.287  -1.191  0.00  0.00     0.162 A 
ATOM      6  C5  UNL d   1      -0.460   3.447  -0.880  0.00  0.00     0.062 A 
ATOM      7  F   UNL d   1       0.574   3.395  -0.029  0.00  0.00    -0.097 F 
ATOM      8  F1  UNL d   1      -0.786   1.130  -0.627  0.00  0.00    -0.096 F 
ATOM      9  I   UNL d   1      -3.293   0.598  -2.543  0.00  0.00    -0.060 I 
ATOM     10  F2  UNL d   1      -3.635   3.633  -3.498  0.00  0.00    -0.096 F 
ATOM     11  F3  UNL d   1      -2.256   5.881  -2.880  0.00  0.00    -0.097 F 
ATOM     12  F4  UNL d   1      -0.150   5.775  -1.148  0.00  0.00    -0.092 F 
ENDROOT
TORSDOF 0
ENDMDL
