MODEL 1
REMARK minimizedAffinity 9.87049961
REMARK minimizedRMSD -1
REMARK  0 active torsions:
REMARK  status: ('A' for Active; 'I' for Inactive)
ROOT
ATOM      1  C   UNL d   1       3.944  -2.409  -1.177  0.00  0.00     0.124 A 
ATOM      2  C1  UNL d   1       3.892  -2.125  -2.535  0.00  0.00     0.062 A 
ATOM      3  C2  UNL d   1       4.022  -3.148  -3.469  0.00  0.00     0.162 A 
ATOM      4  C3  UNL d   1       4.204  -4.466  -3.050  0.00  0.00    -0.034 A 
ATOM      5  C4  UNL d   1       4.256  -4.744  -1.683  0.00  0.00     0.162 A 
ATOM      6  C5  UNL d   1       4.126  -3.718  -0.752  0.00  0.00     0.062 A 
ATOM      7  F   UNL d   1       4.176  -3.994   0.559  0.00  0.00    -0.097 F 
ATOM      8  F1  UNL d   1       4.430  -6.000  -1.245  0.00  0.00    -0.096 F 
ATOM      9  I   UNL d   1       4.399  -5.998  -4.444  0.00  0.00    -0.060 I 
ATOM     10  F2  UNL d   1       3.969  -2.844  -4.775  0.00  0.00    -0.096 F 
ATOM     11  F3  UNL d   1       3.718  -0.861  -2.947  0.00  0.00    -0.097 F 
ATOM     12  F4  UNL d   1       3.819  -1.423  -0.280  0.00  0.00    -0.092 F 
ENDROOT
TORSDOF 0
ENDMDL
