MODEL 1
REMARK minimizedAffinity 10.0363045
REMARK minimizedRMSD -1
REMARK  0 active torsions:
REMARK  status: ('A' for Active; 'I' for Inactive)
ROOT
ATOM      1  C   UNL d   1       4.073  -2.497  -0.937  0.00  0.00     0.124 A 
ATOM      2  C1  UNL d   1       4.493  -3.774  -0.590  0.00  0.00     0.062 A 
ATOM      3  C2  UNL d   1       4.560  -4.775  -1.555  0.00  0.00     0.162 A 
ATOM      4  C3  UNL d   1       4.206  -4.504  -2.876  0.00  0.00    -0.034 A 
ATOM      5  C4  UNL d   1       3.783  -3.218  -3.218  0.00  0.00     0.162 A 
ATOM      6  C5  UNL d   1       3.718  -2.221  -2.250  0.00  0.00     0.062 A 
ATOM      7  F   UNL d   1       3.311  -0.988  -2.587  0.00  0.00    -0.097 F 
ATOM      8  F1  UNL d   1       3.436  -2.923  -4.479  0.00  0.00    -0.096 F 
ATOM      9  I   UNL d   1       4.305  -5.999  -4.321  0.00  0.00    -0.060 I 
ATOM     10  F2  UNL d   1       4.970  -5.999  -1.191  0.00  0.00    -0.096 F 
ATOM     11  F3  UNL d   1       4.836  -4.044   0.678  0.00  0.00    -0.097 F 
ATOM     12  F4  UNL d   1       4.008  -1.536  -0.007  0.00  0.00    -0.092 F 
ENDROOT
TORSDOF 0
ENDMDL
