MODEL 1
REMARK minimizedAffinity -0.75451076
REMARK minimizedRMSD -1
REMARK  0 active torsions:
REMARK  status: ('A' for Active; 'I' for Inactive)
ROOT
ATOM      1  C   UNL d   1       4.129  -4.323  -2.900  0.00  0.00     0.124 A 
ATOM      2  C1  UNL d   1       4.298  -4.703  -1.576  0.00  0.00     0.062 A 
ATOM      3  C2  UNL d   1       4.135  -3.772  -0.554  0.00  0.00     0.162 A 
ATOM      4  C3  UNL d   1       3.800  -2.451  -0.853  0.00  0.00    -0.034 A 
ATOM      5  C4  UNL d   1       3.633  -2.076  -2.187  0.00  0.00     0.162 A 
ATOM      6  C5  UNL d   1       3.797  -3.010  -3.205  0.00  0.00     0.062 A 
ATOM      7  F   UNL d   1       3.634  -2.641  -4.483  0.00  0.00    -0.097 F 
ATOM      8  F1  UNL d   1       3.311  -0.815  -2.509  0.00  0.00    -0.096 F 
ATOM      9  I   UNL d   1       3.555  -1.056   0.672  0.00  0.00    -0.060 I 
ATOM     10  F2  UNL d   1       4.303  -4.167   0.716  0.00  0.00    -0.096 F 
ATOM     11  F3  UNL d   1       4.619  -5.971  -1.280  0.00  0.00    -0.097 F 
ATOM     12  F4  UNL d   1       4.288  -5.221  -3.881  0.00  0.00    -0.092 F 
ENDROOT
TORSDOF 0
ENDMDL
