MODEL 1
REMARK minimizedAffinity 5.8005991
REMARK minimizedRMSD -1
REMARK  0 active torsions:
REMARK  status: ('A' for Active; 'I' for Inactive)
ROOT
ATOM      1  C   UNL d   1       4.170  -2.610  -1.347  0.00  0.00     0.124 A 
ATOM      2  C1  UNL d   1       4.802  -3.814  -1.070  0.00  0.00     0.062 A 
ATOM      3  C2  UNL d   1       4.931  -4.782  -2.062  0.00  0.00     0.162 A 
ATOM      4  C3  UNL d   1       4.428  -4.549  -3.342  0.00  0.00    -0.034 A 
ATOM      5  C4  UNL d   1       3.792  -3.335  -3.613  0.00  0.00     0.162 A 
ATOM      6  C5  UNL d   1       3.666  -2.371  -2.618  0.00  0.00     0.062 A 
ATOM      7  F   UNL d   1       3.055  -1.209  -2.888  0.00  0.00    -0.097 F 
ATOM      8  F1  UNL d   1       3.297  -3.079  -4.833  0.00  0.00    -0.096 F 
ATOM      9  I   UNL d   1       4.618  -5.993  -4.828  0.00  0.00    -0.060 I 
ATOM     10  F2  UNL d   1       5.546  -5.936  -1.765  0.00  0.00    -0.096 F 
ATOM     11  F3  UNL d   1       5.289  -4.047   0.158  0.00  0.00    -0.097 F 
ATOM     12  F4  UNL d   1       4.047  -1.681  -0.390  0.00  0.00    -0.092 F 
ENDROOT
TORSDOF 0
ENDMDL
