MODEL 1
REMARK minimizedAffinity 10.2443285
REMARK minimizedRMSD -1
REMARK  0 active torsions:
REMARK  status: ('A' for Active; 'I' for Inactive)
ROOT
ATOM      1  C   UNL d   1      -3.461   1.786   4.781  0.00  0.00     0.172 C 
ATOM      2  N   UNL d   1      -3.419   0.876   3.660  0.00  0.00    -0.070 N 
ATOM      3  C1  UNL d   1      -3.973  -0.376   3.627  0.00  0.00    -0.004 A 
ATOM      4  C2  UNL d   1      -3.716  -0.919   2.387  0.00  0.00    -0.047 A 
ATOM      5  C3  UNL d   1      -2.980   0.039   1.650  0.00  0.00    -0.047 A 
ATOM      6  C4  UNL d   1      -2.810   1.141   2.462  0.00  0.00    -0.004 A 
ENDROOT
TORSDOF 0
ENDMDL
