MODEL 1
REMARK minimizedAffinity 5.18962145
REMARK minimizedRMSD -1
REMARK  0 active torsions:
REMARK  status: ('A' for Active; 'I' for Inactive)
ROOT
ATOM      1  C   UNL d   1       3.157  -3.721  -0.579  0.00  0.00     0.172 C 
ATOM      2  N   UNL d   1       2.679  -2.568  -1.305  0.00  0.00    -0.070 N 
ATOM      3  C1  UNL d   1       2.449  -1.328  -0.772  0.00  0.00    -0.004 A 
ATOM      4  C2  UNL d   1       2.003  -0.509  -1.786  0.00  0.00    -0.047 A 
ATOM      5  C3  UNL d   1       1.963  -1.283  -2.970  0.00  0.00    -0.047 A 
ATOM      6  C4  UNL d   1       2.386  -2.554  -2.643  0.00  0.00    -0.004 A 
ENDROOT
TORSDOF 0
ENDMDL
