MODEL 1
REMARK minimizedAffinity -3.15061235
REMARK minimizedRMSD -1
REMARK  0 active torsions:
REMARK  status: ('A' for Active; 'I' for Inactive)
ROOT
ATOM      1  C   UNL d   1      -5.265  -5.991   0.011  0.00  0.00     0.172 C 
ATOM      2  N   UNL d   1      -5.268  -5.251   1.251  0.00  0.00    -0.070 N 
ATOM      3  C1  UNL d   1      -5.992  -4.117   1.502  0.00  0.00    -0.004 A 
ATOM      4  C2  UNL d   1      -5.721  -3.720   2.794  0.00  0.00    -0.047 A 
ATOM      5  C3  UNL d   1      -4.800  -4.647   3.337  0.00  0.00    -0.047 A 
ATOM      6  C4  UNL d   1      -4.537  -5.584   2.361  0.00  0.00    -0.004 A 
ENDROOT
TORSDOF 0
ENDMDL
