MODEL 1
REMARK minimizedAffinity 7.60451269
REMARK minimizedRMSD -1
REMARK  0 active torsions:
REMARK  status: ('A' for Active; 'I' for Inactive)
ROOT
ATOM      1  C   UNL d   1       3.750  -3.788  -0.448  0.00  0.00     0.172 C 
ATOM      2  N   UNL d   1       2.864  -2.763  -0.948  0.00  0.00    -0.070 N 
ATOM      3  C1  UNL d   1       2.970  -1.422  -0.689  0.00  0.00    -0.004 A 
ATOM      4  C2  UNL d   1       1.940  -0.783  -1.346  0.00  0.00    -0.047 A 
ATOM      5  C3  UNL d   1       1.189  -1.775  -2.021  0.00  0.00    -0.047 A 
ATOM      6  C4  UNL d   1       1.783  -2.991  -1.758  0.00  0.00    -0.004 A 
ENDROOT
TORSDOF 0
ENDMDL
