MODEL 1
REMARK minimizedAffinity 6.99344969
REMARK minimizedRMSD -1
REMARK  0 active torsions:
REMARK  status: ('A' for Active; 'I' for Inactive)
ROOT
ATOM      1  C   UNL d   1       3.615  -3.348  -0.462  0.00  0.00     0.172 C 
ATOM      2  N   UNL d   1       2.761  -2.302  -0.974  0.00  0.00    -0.070 N 
ATOM      3  C1  UNL d   1       2.402  -1.164  -0.302  0.00  0.00    -0.004 A 
ATOM      4  C2  UNL d   1       1.584  -0.426  -1.130  0.00  0.00    -0.047 A 
ATOM      5  C3  UNL d   1       1.446  -1.145  -2.340  0.00  0.00    -0.047 A 
ATOM      6  C4  UNL d   1       2.185  -2.303  -2.217  0.00  0.00    -0.004 A 
ENDROOT
TORSDOF 0
ENDMDL
