MODEL 1
REMARK minimizedAffinity 5.71591473
REMARK minimizedRMSD -1
REMARK  0 active torsions:
REMARK  status: ('A' for Active; 'I' for Inactive)
ROOT
ATOM      1  C   UNL d   1      -4.504   2.310   4.712  0.00  0.00     0.172 C 
ATOM      2  N   UNL d   1      -3.915   1.431   3.729  0.00  0.00    -0.070 N 
ATOM      3  C1  UNL d   1      -4.552   0.393   3.103  0.00  0.00    -0.004 A 
ATOM      4  C2  UNL d   1      -3.652  -0.196   2.241  0.00  0.00    -0.047 A 
ATOM      5  C3  UNL d   1      -2.432   0.512   2.353  0.00  0.00    -0.047 A 
ATOM      6  C4  UNL d   1      -2.623   1.514   3.281  0.00  0.00    -0.004 A 
ENDROOT
TORSDOF 0
ENDMDL
