MODEL 1
REMARK minimizedAffinity -1.31862044
REMARK minimizedRMSD -1
REMARK  0 active torsions:
REMARK  status: ('A' for Active; 'I' for Inactive)
ROOT
ATOM      1  C   UNL d   1       3.456  -3.381   0.049  0.00  0.00     0.172 C 
ATOM      2  N   UNL d   1       3.582  -3.721  -1.349  0.00  0.00    -0.070 N 
ATOM      3  C1  UNL d   1       2.734  -3.321  -2.346  0.00  0.00    -0.004 A 
ATOM      4  C2  UNL d   1       3.196  -3.851  -3.531  0.00  0.00    -0.047 A 
ATOM      5  C3  UNL d   1       4.362  -4.596  -3.235  0.00  0.00    -0.047 A 
ATOM      6  C4  UNL d   1       4.578  -4.498  -1.877  0.00  0.00    -0.004 A 
ENDROOT
TORSDOF 0
ENDMDL
