MODEL 1
REMARK minimizedAffinity 2.27270055
REMARK minimizedRMSD -1
REMARK  0 active torsions:
REMARK  status: ('A' for Active; 'I' for Inactive)
ROOT
ATOM      1  C   UNL d   1       6.000  -4.560  -4.501  0.00  0.00     0.172 C 
ATOM      2  N   UNL d   1       4.663  -4.405  -3.977  0.00  0.00    -0.070 N 
ATOM      3  C1  UNL d   1       3.637  -3.739  -4.591  0.00  0.00    -0.004 A 
ATOM      4  C2  UNL d   1       2.531  -3.819  -3.772  0.00  0.00    -0.047 A 
ATOM      5  C3  UNL d   1       2.907  -4.558  -2.625  0.00  0.00    -0.047 A 
ATOM      6  C4  UNL d   1       4.232  -4.909  -2.778  0.00  0.00    -0.004 A 
ENDROOT
TORSDOF 0
ENDMDL
