MODEL 1
REMARK minimizedAffinity 6.88364077
REMARK minimizedRMSD -1
REMARK  0 active torsions:
REMARK  status: ('A' for Active; 'I' for Inactive)
ROOT
ATOM      1  C   UNL d   1      -3.005   1.108   6.000  0.00  0.00     0.172 C 
ATOM      2  N   UNL d   1      -3.151   0.787   4.600  0.00  0.00    -0.070 N 
ATOM      3  C1  UNL d   1      -3.047   1.675   3.562  0.00  0.00    -0.004 A 
ATOM      4  C2  UNL d   1      -3.250   0.980   2.390  0.00  0.00    -0.047 A 
ATOM      5  C3  UNL d   1      -3.485  -0.373   2.735  0.00  0.00    -0.047 A 
ATOM      6  C4  UNL d   1      -3.419  -0.464   4.109  0.00  0.00    -0.004 A 
ENDROOT
TORSDOF 0
ENDMDL
