MODEL 1
REMARK minimizedAffinity 5.7152648
REMARK minimizedRMSD -1
REMARK  0 active torsions:
REMARK  status: ('A' for Active; 'I' for Inactive)
ROOT
ATOM      1  C   UNL d   1       5.327  -5.254  -2.291  0.00  0.00     0.172 C 
ATOM      2  N   UNL d   1       3.942  -5.024  -2.630  0.00  0.00    -0.070 N 
ATOM      3  C1  UNL d   1       3.312  -3.808  -2.629  0.00  0.00    -0.004 A 
ATOM      4  C2  UNL d   1       2.003  -4.011  -3.009  0.00  0.00    -0.047 A 
ATOM      5  C3  UNL d   1       1.841  -5.397  -3.246  0.00  0.00    -0.047 A 
ATOM      6  C4  UNL d   1       3.057  -6.000  -3.004  0.00  0.00    -0.004 A 
ENDROOT
TORSDOF 0
ENDMDL
