MODEL 1
REMARK minimizedAffinity -3.19856071
REMARK minimizedRMSD -1
REMARK  0 active torsions:
REMARK  status: ('A' for Active; 'I' for Inactive)
ROOT
ATOM      1  C   UNL d   1       3.962  -5.251  -2.720  0.00  0.00     0.172 C 
ATOM      2  N   UNL d   1       4.212  -4.744  -4.049  0.00  0.00    -0.070 N 
ATOM      3  C1  UNL d   1       3.382  -3.915  -4.756  0.00  0.00    -0.004 A 
ATOM      4  C2  UNL d   1       3.976  -3.662  -5.974  0.00  0.00    -0.047 A 
ATOM      5  C3  UNL d   1       5.204  -4.364  -6.000  0.00  0.00    -0.047 A 
ATOM      6  C4  UNL d   1       5.325  -5.026  -4.796  0.00  0.00    -0.004 A 
ENDROOT
TORSDOF 0
ENDMDL
