MODEL 1
REMARK minimizedAffinity 4.40240955
REMARK minimizedRMSD -1
REMARK  0 active torsions:
REMARK  status: ('A' for Active; 'I' for Inactive)
ROOT
ATOM      1  C   UNL d   1       2.299   1.715  -1.066  0.00  0.00     0.172 C 
ATOM      2  N   UNL d   1       1.857   2.869  -0.318  0.00  0.00    -0.070 N 
ATOM      3  C1  UNL d   1       1.845   2.980   1.047  0.00  0.00    -0.004 A 
ATOM      4  C2  UNL d   1       1.356   4.228   1.365  0.00  0.00    -0.047 A 
ATOM      5  C3  UNL d   1       1.063   4.891   0.149  0.00  0.00    -0.047 A 
ATOM      6  C4  UNL d   1       1.382   4.027  -0.877  0.00  0.00    -0.004 A 
ENDROOT
TORSDOF 0
ENDMDL
