MODEL 1
REMARK minimizedAffinity 1.10267401
REMARK minimizedRMSD -1
REMARK  0 active torsions:
REMARK  status: ('A' for Active; 'I' for Inactive)
ROOT
ATOM      1  C   UNL d   1       3.360  -2.567  -0.063  0.00  0.00     0.172 C 
ATOM      2  N   UNL d   1       3.332  -3.484  -1.179  0.00  0.00    -0.070 N 
ATOM      3  C1  UNL d   1       2.552  -3.357  -2.297  0.00  0.00    -0.004 A 
ATOM      4  C2  UNL d   1       2.817  -4.430  -3.120  0.00  0.00    -0.047 A 
ATOM      5  C3  UNL d   1       3.788  -5.231  -2.473  0.00  0.00    -0.047 A 
ATOM      6  C4  UNL d   1       4.089  -4.622  -1.273  0.00  0.00    -0.004 A 
ENDROOT
TORSDOF 0
ENDMDL
