MODEL 1
REMARK minimizedAffinity 7.10325718
REMARK minimizedRMSD -1
REMARK  0 active torsions:
REMARK  status: ('A' for Active; 'I' for Inactive)
ROOT
ATOM      1  C   UNL d   1      -3.376  -4.185   4.878  0.00  0.00     0.172 C 
ATOM      2  N   UNL d   1      -4.223  -3.298   4.117  0.00  0.00    -0.070 N 
ATOM      3  C1  UNL d   1      -3.859  -2.624   2.983  0.00  0.00    -0.004 A 
ATOM      4  C2  UNL d   1      -4.945  -1.887   2.562  0.00  0.00    -0.047 A 
ATOM      5  C3  UNL d   1      -5.998  -2.126   3.476  0.00  0.00    -0.047 A 
ATOM      6  C4  UNL d   1      -5.524  -3.003   4.429  0.00  0.00    -0.004 A 
ENDROOT
TORSDOF 0
ENDMDL
