MODEL 1
REMARK minimizedAffinity 14.2389698
REMARK minimizedRMSD -1
REMARK  0 active torsions:
REMARK  status: ('A' for Active; 'I' for Inactive)
ROOT
ATOM      1  C   UNL d   1      -0.771   2.934   6.000  0.00  0.00     0.172 C 
ATOM      2  N   UNL d   1       0.020   2.269   4.992  0.00  0.00    -0.070 N 
ATOM      3  C1  UNL d   1       1.155   1.538   5.222  0.00  0.00    -0.004 A 
ATOM      4  C2  UNL d   1       1.610   1.071   4.008  0.00  0.00    -0.047 A 
ATOM      5  C3  UNL d   1       0.718   1.538   3.013  0.00  0.00    -0.047 A 
ATOM      6  C4  UNL d   1      -0.257   2.277   3.650  0.00  0.00    -0.004 A 
ENDROOT
TORSDOF 0
ENDMDL
