MODEL 1
REMARK minimizedAffinity 5.05720091
REMARK minimizedRMSD -1
REMARK  0 active torsions:
REMARK  status: ('A' for Active; 'I' for Inactive)
ROOT
ATOM      1  C   UNL d   1       1.429   0.946  -3.020  0.00  0.00     0.172 C 
ATOM      2  N   UNL d   1       1.855  -0.370  -2.605  0.00  0.00    -0.070 N 
ATOM      3  C1  UNL d   1       2.174  -0.740  -1.326  0.00  0.00    -0.004 A 
ATOM      4  C2  UNL d   1       2.529  -2.072  -1.347  0.00  0.00    -0.047 A 
ATOM      5  C3  UNL d   1       2.421  -2.517  -2.686  0.00  0.00    -0.047 A 
ATOM      6  C4  UNL d   1       2.002  -1.444  -3.444  0.00  0.00    -0.004 A 
ENDROOT
TORSDOF 0
ENDMDL
