MODEL 1
REMARK minimizedAffinity -0.624530673
REMARK minimizedRMSD -1
REMARK  0 active torsions:
REMARK  status: ('A' for Active; 'I' for Inactive)
ROOT
ATOM      1  C   UNL d   1       4.176  -4.755  -0.042  0.00  0.00     0.172 C 
ATOM      2  N   UNL d   1       3.608  -4.494  -1.344  0.00  0.00    -0.070 N 
ATOM      3  C1  UNL d   1       2.400  -3.897  -1.584  0.00  0.00    -0.004 A 
ATOM      4  C2  UNL d   1       2.224  -3.832  -2.949  0.00  0.00    -0.047 A 
ATOM      5  C3  UNL d   1       3.366  -4.411  -3.551  0.00  0.00    -0.047 A 
ATOM      6  C4  UNL d   1       4.207  -4.813  -2.535  0.00  0.00    -0.004 A 
ENDROOT
TORSDOF 0
ENDMDL
