MODEL 1
REMARK minimizedAffinity 9.91534615
REMARK minimizedRMSD -1
REMARK  2 active torsions:
REMARK  status: ('A' for Active; 'I' for Inactive)
REMARK    1  A    between atoms: C2'_3  and  C1'_4 
REMARK    2  A    between atoms: C1'_4  and  C1_5 
ROOT
ATOM      1  C1  I4B d   1       1.800   4.730   3.550  0.00  0.00    -0.075 A 
ATOM      2  C2  I4B d   1       0.746   5.332   4.190  0.00  0.00     0.003 A 
ATOM      3  C3  I4B d   1       0.947   6.000   5.422  0.00  0.00     0.002 A 
ATOM      4  C4  I4B d   1       2.200   5.997   6.000  0.00  0.00    -0.004 A 
ATOM      5  C5  I4B d   1       3.273   5.406   5.338  0.00  0.00     0.002 A 
ATOM      6  C6  I4B d   1       3.075   4.779   4.099  0.00  0.00     0.003 A 
ENDROOT
BRANCH   1   7
ATOM      7  C1' I4B d   1       1.546   4.006   2.266  0.00  0.00     0.060 C 
BRANCH   7   8
ATOM      8  C2' I4B d   1       2.673   3.016   2.057  0.00  0.00    -0.013 C 
ATOM      9  C4' I4B d   1       2.305   1.652   2.579  0.00  0.00     0.013 C 
ATOM     10  C3' I4B d   1       2.983   2.969   0.590  0.00  0.00     0.013 C 
ENDBRANCH   7   8
ENDBRANCH   1   7
TORSDOF 2
ENDMDL
