MODEL 1
REMARK minimizedAffinity 8.9357357
REMARK minimizedRMSD -1
REMARK  2 active torsions:
REMARK  status: ('A' for Active; 'I' for Inactive)
REMARK    1  A    between atoms: C2'_3  and  C1'_4 
REMARK    2  A    between atoms: C1'_4  and  C1_5 
ROOT
ATOM      1  C1  I4B d   1       1.317   0.126  -1.220  0.00  0.00    -0.075 A 
ATOM      2  C2  I4B d   1       0.168   0.430  -1.906  0.00  0.00     0.003 A 
ATOM      3  C3  I4B d   1      -0.161   1.779  -2.183  0.00  0.00     0.002 A 
ATOM      4  C4  I4B d   1       0.656   2.788  -1.715  0.00  0.00    -0.004 A 
ATOM      5  C5  I4B d   1       1.833   2.477  -1.040  0.00  0.00     0.002 A 
ATOM      6  C6  I4B d   1       2.172   1.137  -0.801  0.00  0.00     0.003 A 
ENDROOT
BRANCH   1   7
ATOM      7  C1' I4B d   1       1.617  -1.308  -0.916  0.00  0.00     0.060 C 
BRANCH   7   8
ATOM      8  C2' I4B d   1       2.641  -1.344   0.200  0.00  0.00    -0.013 C 
ATOM      9  C4' I4B d   1       2.049  -1.908   1.465  0.00  0.00     0.013 C 
ATOM     10  C3' I4B d   1       3.806  -2.165  -0.266  0.00  0.00     0.013 C 
ENDBRANCH   7   8
ENDBRANCH   1   7
TORSDOF 2
ENDMDL
