MODEL 1
REMARK minimizedAffinity 5.92317104
REMARK minimizedRMSD -1
REMARK  2 active torsions:
REMARK  status: ('A' for Active; 'I' for Inactive)
REMARK    1  A    between atoms: C2'_3  and  C1'_4 
REMARK    2  A    between atoms: C1'_4  and  C1_5 
ROOT
ATOM      1  C1  I4B d   1       1.429  -0.653  -0.373  0.00  0.00    -0.075 A 
ATOM      2  C2  I4B d   1       2.404  -1.519  -0.801  0.00  0.00     0.003 A 
ATOM      3  C3  I4B d   1       2.667  -2.709  -0.080  0.00  0.00     0.002 A 
ATOM      4  C4  I4B d   1       1.970  -2.967   1.082  0.00  0.00    -0.004 A 
ATOM      5  C5  I4B d   1       0.966  -2.100   1.503  0.00  0.00     0.002 A 
ATOM      6  C6  I4B d   1       0.685  -0.941   0.764  0.00  0.00     0.003 A 
ENDROOT
BRANCH   1   7
ATOM      7  C1' I4B d   1       1.201   0.611  -1.139  0.00  0.00     0.060 C 
BRANCH   7   8
ATOM      8  C2' I4B d   1       2.507   1.379  -1.173  0.00  0.00    -0.013 C 
ATOM      9  C4' I4B d   1       2.961   1.620  -2.588  0.00  0.00     0.013 C 
ATOM     10  C3' I4B d   1       2.302   2.673  -0.442  0.00  0.00     0.013 C 
ENDBRANCH   7   8
ENDBRANCH   1   7
TORSDOF 2
ENDMDL
