MODEL 1
REMARK minimizedAffinity 6.58990574
REMARK minimizedRMSD -1
REMARK  2 active torsions:
REMARK  status: ('A' for Active; 'I' for Inactive)
REMARK    1  A    between atoms: C2'_3  and  C1'_4 
REMARK    2  A    between atoms: C1'_4  and  C1_5 
ROOT
ATOM      1  C1  I4B d   1       0.763  -1.386   1.209  0.00  0.00    -0.075 A 
ATOM      2  C2  I4B d   1       1.724  -0.714   1.924  0.00  0.00     0.003 A 
ATOM      3  C3  I4B d   1       1.365   0.032   3.072  0.00  0.00     0.002 A 
ATOM      4  C4  I4B d   1       0.038   0.120   3.439  0.00  0.00    -0.004 A 
ATOM      5  C5  I4B d   1      -0.931  -0.581   2.727  0.00  0.00     0.002 A 
ATOM      6  C6  I4B d   1      -0.565  -1.349   1.612  0.00  0.00     0.003 A 
ENDROOT
BRANCH   1   7
ATOM      7  C1' I4B d   1       1.172  -2.138  -0.018  0.00  0.00     0.060 C 
BRANCH   7   8
ATOM      8  C2' I4B d   1       1.776  -1.147  -0.993  0.00  0.00    -0.013 C 
ATOM      9  C4' I4B d   1       2.667  -1.838  -1.990  0.00  0.00     0.013 C 
ATOM     10  C3' I4B d   1       0.652  -0.429  -1.678  0.00  0.00     0.013 C 
ENDBRANCH   7   8
ENDBRANCH   1   7
TORSDOF 2
ENDMDL
