MODEL 1
REMARK minimizedAffinity 10.0673218
REMARK minimizedRMSD -1
REMARK  2 active torsions:
REMARK  status: ('A' for Active; 'I' for Inactive)
REMARK    1  A    between atoms: C2'_3  and  C1'_4 
REMARK    2  A    between atoms: C1'_4  and  C1_5 
ROOT
ATOM      1  C1  I4B d   1       1.593  -0.867  -0.154  0.00  0.00    -0.075 A 
ATOM      2  C2  I4B d   1       0.841  -0.908   0.993  0.00  0.00     0.003 A 
ATOM      3  C3  I4B d   1       1.188  -1.793   2.042  0.00  0.00     0.002 A 
ATOM      4  C4  I4B d   1       2.258  -2.650   1.882  0.00  0.00    -0.004 A 
ATOM      5  C5  I4B d   1       3.033  -2.591   0.727  0.00  0.00     0.002 A 
ATOM      6  C6  I4B d   1       2.706  -1.686  -0.292  0.00  0.00     0.003 A 
ENDROOT
BRANCH   1   7
ATOM      7  C1' I4B d   1       1.178   0.057  -1.255  0.00  0.00     0.060 C 
BRANCH   7   8
ATOM      8  C2' I4B d   1       2.332   0.999  -1.534  0.00  0.00    -0.013 C 
ATOM      9  C4' I4B d   1       2.361   1.412  -2.981  0.00  0.00     0.013 C 
ATOM     10  C3' I4B d   1       2.186   2.189  -0.633  0.00  0.00     0.013 C 
ENDBRANCH   7   8
ENDBRANCH   1   7
TORSDOF 2
ENDMDL
