MODEL 1
REMARK minimizedAffinity 5.68200541
REMARK minimizedRMSD -1
REMARK  2 active torsions:
REMARK  status: ('A' for Active; 'I' for Inactive)
REMARK    1  A    between atoms: C2'_3  and  C1'_4 
REMARK    2  A    between atoms: C1'_4  and  C1_5 
ROOT
ATOM      1  C1  I4B d   1       1.930  -0.592  -0.090  0.00  0.00    -0.075 A 
ATOM      2  C2  I4B d   1       1.224  -0.854  -1.238  0.00  0.00     0.003 A 
ATOM      3  C3  I4B d   1       0.996   0.175  -2.184  0.00  0.00     0.002 A 
ATOM      4  C4  I4B d   1       1.444   1.453  -1.921  0.00  0.00    -0.004 A 
ATOM      5  C5  I4B d   1       2.180   1.711  -0.768  0.00  0.00     0.002 A 
ATOM      6  C6  I4B d   1       2.435   0.680   0.148  0.00  0.00     0.003 A 
ENDROOT
BRANCH   1   7
ATOM      7  C1' I4B d   1       2.125  -1.693   0.903  0.00  0.00     0.060 C 
BRANCH   7   8
ATOM      8  C2' I4B d   1       0.815  -1.898   1.635  0.00  0.00    -0.013 C 
ATOM      9  C4' I4B d   1       0.522  -3.363   1.831  0.00  0.00     0.013 C 
ATOM     10  C3' I4B d   1       0.903  -1.183   2.951  0.00  0.00     0.013 C 
ENDBRANCH   7   8
ENDBRANCH   1   7
TORSDOF 2
ENDMDL
