MODEL 1
REMARK minimizedAffinity -3.2563262
REMARK minimizedRMSD -1
REMARK  0 active torsions:
REMARK  status: ('A' for Active; 'I' for Inactive)
ROOT
ATOM      1  C   UNL d   1       0.474  -0.781  -0.510  0.00  0.00     0.172 C 
ATOM      2  N   UNL d   1       0.067   0.237   0.430  0.00  0.00    -0.070 N 
ATOM      3  C1  UNL d   1      -0.874   1.205   0.201  0.00  0.00    -0.004 A 
ATOM      4  C2  UNL d   1      -0.973   1.976   1.340  0.00  0.00    -0.047 A 
ATOM      5  C3  UNL d   1      -0.060   1.452   2.286  0.00  0.00    -0.047 A 
ATOM      6  C4  UNL d   1       0.570   0.376   1.697  0.00  0.00    -0.004 A 
ENDROOT
TORSDOF 0
ENDMDL
