MODEL 1
REMARK minimizedAffinity -3.44799781
REMARK minimizedRMSD -1
REMARK  0 active torsions:
REMARK  status: ('A' for Active; 'I' for Inactive)
ROOT
ATOM      1  C   UNL d   1      -0.252  -1.032  -0.173  0.00  0.00     0.172 C 
ATOM      2  N   UNL d   1      -0.564   0.227   0.460  0.00  0.00    -0.070 N 
ATOM      3  C1  UNL d   1       0.053   0.737   1.571  0.00  0.00    -0.004 A 
ATOM      4  C2  UNL d   1      -0.530   1.953   1.857  0.00  0.00    -0.047 A 
ATOM      5  C3  UNL d   1      -1.533   2.181   0.885  0.00  0.00    -0.047 A 
ATOM      6  C4  UNL d   1      -1.533   1.097   0.032  0.00  0.00    -0.004 A 
ENDROOT
TORSDOF 0
ENDMDL
