MODEL 1
REMARK minimizedAffinity -3.70243573
REMARK minimizedRMSD -1
REMARK  0 active torsions:
REMARK  status: ('A' for Active; 'I' for Inactive)
ROOT
ATOM      1  C   UNL d   1       0.012  -0.295   0.443  0.00  0.00     0.172 C 
ATOM      2  N   UNL d   1      -0.195  -1.557  -0.228  0.00  0.00    -0.070 N 
ATOM      3  C1  UNL d   1      -1.012  -2.567   0.205  0.00  0.00    -0.004 A 
ATOM      4  C2  UNL d   1      -0.934  -3.594  -0.710  0.00  0.00    -0.047 A 
ATOM      5  C3  UNL d   1      -0.038  -3.188  -1.727  0.00  0.00    -0.047 A 
ATOM      6  C4  UNL d   1       0.405  -1.923  -1.404  0.00  0.00    -0.004 A 
ENDROOT
TORSDOF 0
ENDMDL
