MODEL 1
REMARK minimizedAffinity 3.07997274
REMARK minimizedRMSD -1
REMARK  0 active torsions:
REMARK  status: ('A' for Active; 'I' for Inactive)
ROOT
ATOM      1  C   UNL d   1       0.012   0.143  -2.132  0.00  0.00     0.172 C 
ATOM      2  N   UNL d   1      -0.613  -1.103  -2.506  0.00  0.00    -0.070 N 
ATOM      3  C1  UNL d   1      -1.107  -2.041  -1.639  0.00  0.00    -0.004 A 
ATOM      4  C2  UNL d   1      -1.620  -3.079  -2.386  0.00  0.00    -0.047 A 
ATOM      5  C3  UNL d   1      -1.427  -2.754  -3.750  0.00  0.00    -0.047 A 
ATOM      6  C4  UNL d   1      -0.802  -1.526  -3.796  0.00  0.00    -0.004 A 
ENDROOT
TORSDOF 0
ENDMDL
