MODEL 1
REMARK minimizedAffinity -3.45421028
REMARK minimizedRMSD -1
REMARK  0 active torsions:
REMARK  status: ('A' for Active; 'I' for Inactive)
ROOT
ATOM      1  C   UNL d   1      -0.554   2.269  -1.549  0.00  0.00     0.172 C 
ATOM      2  N   UNL d   1      -0.475   1.687  -0.229  0.00  0.00    -0.070 N 
ATOM      3  C1  UNL d   1      -0.096   0.403   0.056  0.00  0.00    -0.004 A 
ATOM      4  C2  UNL d   1      -0.150   0.240   1.423  0.00  0.00    -0.047 A 
ATOM      5  C3  UNL d   1      -0.577   1.469   1.979  0.00  0.00    -0.047 A 
ATOM      6  C4  UNL d   1      -0.771   2.348   0.934  0.00  0.00    -0.004 A 
ENDROOT
TORSDOF 0
ENDMDL
