MODEL 1
REMARK minimizedAffinity -3.7297616
REMARK minimizedRMSD -1
REMARK  0 active torsions:
REMARK  status: ('A' for Active; 'I' for Inactive)
ROOT
ATOM      1  C   UNL d   1       0.312  -0.795  -0.660  0.00  0.00     0.172 C 
ATOM      2  N   UNL d   1      -0.124   0.177   0.315  0.00  0.00    -0.070 N 
ATOM      3  C1  UNL d   1      -0.967   1.228   0.073  0.00  0.00    -0.004 A 
ATOM      4  C2  UNL d   1      -1.135   1.915   1.255  0.00  0.00    -0.047 A 
ATOM      5  C3  UNL d   1      -0.365   1.256   2.242  0.00  0.00    -0.047 A 
ATOM      6  C4  UNL d   1       0.251   0.183   1.633  0.00  0.00    -0.004 A 
ENDROOT
TORSDOF 0
ENDMDL
