MODEL 1
REMARK minimizedAffinity -3.41945767
REMARK minimizedRMSD -1
REMARK  0 active torsions:
REMARK  status: ('A' for Active; 'I' for Inactive)
ROOT
ATOM      1  C   UNL d   1      -1.266   2.702   1.467  0.00  0.00     0.172 C 
ATOM      2  N   UNL d   1      -0.688   1.558   0.801  0.00  0.00    -0.070 N 
ATOM      3  C1  UNL d   1      -0.882   1.216  -0.511  0.00  0.00    -0.004 A 
ATOM      4  C2  UNL d   1      -0.162   0.067  -0.758  0.00  0.00    -0.047 A 
ATOM      5  C3  UNL d   1       0.486  -0.294   0.447  0.00  0.00    -0.047 A 
ATOM      6  C4  UNL d   1       0.143   0.646   1.396  0.00  0.00    -0.004 A 
ENDROOT
TORSDOF 0
ENDMDL
