MODEL 1
REMARK minimizedAffinity -3.06149054
REMARK minimizedRMSD -1
REMARK  0 active torsions:
REMARK  status: ('A' for Active; 'I' for Inactive)
ROOT
ATOM      1  C   UNL d   1       0.274  -1.732  -0.818  0.00  0.00     0.172 C 
ATOM      2  N   UNL d   1       0.010  -0.548  -0.036  0.00  0.00    -0.070 N 
ATOM      3  C1  UNL d   1       0.801  -0.065   0.972  0.00  0.00    -0.004 A 
ATOM      4  C2  UNL d   1       0.206   1.077   1.465  0.00  0.00    -0.047 A 
ATOM      5  C3  UNL d   1      -0.984   1.286   0.728  0.00  0.00    -0.047 A 
ATOM      6  C4  UNL d   1      -1.081   0.266  -0.194  0.00  0.00    -0.004 A 
ENDROOT
TORSDOF 0
ENDMDL
