MODEL 1
REMARK minimizedAffinity 1.4230746
REMARK minimizedRMSD -1
REMARK  0 active torsions:
REMARK  status: ('A' for Active; 'I' for Inactive)
ROOT
ATOM      1  C   UNL d   1      -0.645   2.500   0.756  0.00  0.00     0.124 A 
ATOM      2  C1  UNL d   1      -0.139   1.598   1.682  0.00  0.00     0.062 A 
ATOM      3  C2  UNL d   1       0.249   0.323   1.278  0.00  0.00     0.162 A 
ATOM      4  C3  UNL d   1       0.133  -0.057  -0.059  0.00  0.00    -0.034 A 
ATOM      5  C4  UNL d   1      -0.378   0.855  -0.984  0.00  0.00     0.162 A 
ATOM      6  C5  UNL d   1      -0.764   2.128  -0.576  0.00  0.00     0.062 A 
ATOM      7  F   UNL d   1      -1.252   2.998  -1.472  0.00  0.00    -0.097 F 
ATOM      8  F1  UNL d   1      -0.503   0.523  -2.278  0.00  0.00    -0.096 F 
ATOM      9  I   UNL d   1       0.711  -1.962  -0.667  0.00  0.00    -0.060 I 
ATOM     10  F2  UNL d   1       0.735  -0.528   2.194  0.00  0.00    -0.096 F 
ATOM     11  F3  UNL d   1      -0.023   1.954   2.969  0.00  0.00    -0.097 F 
ATOM     12  F4  UNL d   1      -1.018   3.725   1.147  0.00  0.00    -0.092 F 
ENDROOT
TORSDOF 0
ENDMDL
