MODEL 1
REMARK minimizedAffinity -0.761592507
REMARK minimizedRMSD -1
REMARK  0 active torsions:
REMARK  status: ('A' for Active; 'I' for Inactive)
ROOT
ATOM      1  C   UNL d   1       1.252  -0.384  -1.894  0.00  0.00     0.124 A 
ATOM      2  C1  UNL d   1       1.499  -0.756  -0.580  0.00  0.00     0.062 A 
ATOM      3  C2  UNL d   1       1.028   0.027   0.470  0.00  0.00     0.162 A 
ATOM      4  C3  UNL d   1       0.303   1.190   0.210  0.00  0.00    -0.034 A 
ATOM      5  C4  UNL d   1       0.060   1.559  -1.114  0.00  0.00     0.162 A 
ATOM      6  C5  UNL d   1       0.532   0.773  -2.160  0.00  0.00     0.062 A 
ATOM      7  F   UNL d   1       0.293   1.134  -3.429  0.00  0.00    -0.097 F 
ATOM      8  F1  UNL d   1      -0.633   2.671  -1.399  0.00  0.00    -0.096 F 
ATOM      9  I   UNL d   1      -0.403   2.364   1.777  0.00  0.00    -0.060 I 
ATOM     10  F2  UNL d   1       1.281  -0.357   1.730  0.00  0.00    -0.096 F 
ATOM     11  F3  UNL d   1       2.194  -1.873  -0.320  0.00  0.00    -0.097 F 
ATOM     12  F4  UNL d   1       1.707  -1.138  -2.902  0.00  0.00    -0.092 F 
ENDROOT
TORSDOF 0
ENDMDL
