MODEL 1
REMARK minimizedAffinity -4.9616456
REMARK minimizedRMSD -1
REMARK  0 active torsions:
REMARK  status: ('A' for Active; 'I' for Inactive)
ROOT
ATOM      1  C   UNL d   1      -1.103   2.891   0.198  0.00  0.00     0.124 A 
ATOM      2  C1  UNL d   1      -1.390   1.876   1.101  0.00  0.00     0.062 A 
ATOM      3  C2  UNL d   1      -0.977   0.572   0.843  0.00  0.00     0.162 A 
ATOM      4  C3  UNL d   1      -0.271   0.275  -0.323  0.00  0.00    -0.034 A 
ATOM      5  C4  UNL d   1       0.013   1.301  -1.226  0.00  0.00     0.162 A 
ATOM      6  C5  UNL d   1      -0.402   2.603  -0.964  0.00  0.00     0.062 A 
ATOM      7  F   UNL d   1      -0.124   3.582  -1.837  0.00  0.00    -0.097 F 
ATOM      8  F1  UNL d   1       0.690   1.051  -2.357  0.00  0.00    -0.096 F 
ATOM      9  I   UNL d   1       0.349  -1.673  -0.712  0.00  0.00    -0.060 I 
ATOM     10  F2  UNL d   1      -1.268  -0.388   1.733  0.00  0.00    -0.096 F 
ATOM     11  F3  UNL d   1      -2.068   2.152   2.224  0.00  0.00    -0.097 F 
ATOM     12  F4  UNL d   1      -1.503   4.144   0.448  0.00  0.00    -0.092 F 
ENDROOT
TORSDOF 0
ENDMDL
