MODEL 1
REMARK minimizedAffinity -1.64446759
REMARK minimizedRMSD -1
REMARK  0 active torsions:
REMARK  status: ('A' for Active; 'I' for Inactive)
ROOT
ATOM      1  C   UNL d   1       0.964  -0.315  -0.461  0.00  0.00     0.124 A 
ATOM      2  C1  UNL d   1       0.930  -0.049   0.901  0.00  0.00     0.062 A 
ATOM      3  C2  UNL d   1       0.080   0.933   1.401  0.00  0.00     0.162 A 
ATOM      4  C3  UNL d   1      -0.744   1.657   0.539  0.00  0.00    -0.034 A 
ATOM      5  C4  UNL d   1      -0.703   1.385  -0.830  0.00  0.00     0.162 A 
ATOM      6  C5  UNL d   1       0.148   0.402  -1.325  0.00  0.00     0.062 A 
ATOM      7  F   UNL d   1       0.180   0.147  -2.641  0.00  0.00    -0.097 F 
ATOM      8  F1  UNL d   1      -1.481   2.062  -1.687  0.00  0.00    -0.096 F 
ATOM      9  I   UNL d   1      -2.016   3.127   1.283  0.00  0.00    -0.060 I 
ATOM     10  F2  UNL d   1       0.067   1.169   2.722  0.00  0.00    -0.096 F 
ATOM     11  F3  UNL d   1       1.717  -0.740   1.738  0.00  0.00    -0.097 F 
ATOM     12  F4  UNL d   1       1.783  -1.260  -0.940  0.00  0.00    -0.092 F 
ENDROOT
TORSDOF 0
ENDMDL
