MODEL 1
REMARK minimizedAffinity -1.66748154
REMARK minimizedRMSD -1
REMARK  0 active torsions:
REMARK  status: ('A' for Active; 'I' for Inactive)
ROOT
ATOM      1  C   UNL d   1       0.130  -3.567  -0.749  0.00  0.00     0.124 A 
ATOM      2  C1  UNL d   1      -1.072  -2.950  -1.063  0.00  0.00     0.062 A 
ATOM      3  C2  UNL d   1      -1.230  -1.581  -0.863  0.00  0.00     0.162 A 
ATOM      4  C3  UNL d   1      -0.181  -0.820  -0.348  0.00  0.00    -0.034 A 
ATOM      5  C4  UNL d   1       1.026  -1.449  -0.033  0.00  0.00     0.162 A 
ATOM      6  C5  UNL d   1       1.178  -2.817  -0.235  0.00  0.00     0.062 A 
ATOM      7  F   UNL d   1       2.341  -3.412   0.069  0.00  0.00    -0.097 F 
ATOM      8  F1  UNL d   1       2.055  -0.747   0.465  0.00  0.00    -0.096 F 
ATOM      9  I   UNL d   1      -0.412   1.226  -0.047  0.00  0.00    -0.060 I 
ATOM     10  F2  UNL d   1      -2.403  -1.011  -1.176  0.00  0.00    -0.096 F 
ATOM     11  F3  UNL d   1      -2.086  -3.673  -1.560  0.00  0.00    -0.097 F 
ATOM     12  F4  UNL d   1       0.279  -4.884  -0.942  0.00  0.00    -0.092 F 
ENDROOT
TORSDOF 0
ENDMDL
