MODEL 1
REMARK minimizedAffinity 4.00128508
REMARK minimizedRMSD -1
REMARK  0 active torsions:
REMARK  status: ('A' for Active; 'I' for Inactive)
ROOT
ATOM      1  C   UNL d   1      -0.228   1.096   1.960  0.00  0.00     0.124 A 
ATOM      2  C1  UNL d   1      -1.367   1.503   1.280  0.00  0.00     0.062 A 
ATOM      3  C2  UNL d   1      -1.663   0.971   0.028  0.00  0.00     0.162 A 
ATOM      4  C3  UNL d   1      -0.817   0.025  -0.552  0.00  0.00    -0.034 A 
ATOM      5  C4  UNL d   1       0.327  -0.379   0.138  0.00  0.00     0.162 A 
ATOM      6  C5  UNL d   1       0.618   0.156   1.389  0.00  0.00     0.062 A 
ATOM      7  F   UNL d   1       1.720  -0.238   2.045  0.00  0.00    -0.097 F 
ATOM      8  F1  UNL d   1       1.162  -1.286  -0.390  0.00  0.00    -0.096 F 
ATOM      9  I   UNL d   1      -1.255  -0.774  -2.423  0.00  0.00    -0.060 I 
ATOM     10  F2  UNL d   1      -2.771   1.382  -0.607  0.00  0.00    -0.096 F 
ATOM     11  F3  UNL d   1      -2.186   2.412   1.829  0.00  0.00    -0.097 F 
ATOM     12  F4  UNL d   1       0.054   1.611   3.164  0.00  0.00    -0.092 F 
ENDROOT
TORSDOF 0
ENDMDL
