MODEL 1
REMARK minimizedAffinity 6.75392246
REMARK minimizedRMSD -1
REMARK  0 active torsions:
REMARK  status: ('A' for Active; 'I' for Inactive)
ROOT
ATOM      1  C1  BNZ d   1       4.168  -3.670  -3.053  0.00  0.00     0.000 A 
ATOM      2  C2  BNZ d   1       4.437  -3.688  -1.710  0.00  0.00     0.000 A 
ATOM      3  C3  BNZ d   1       4.789  -4.849  -1.082  0.00  0.00     0.000 A 
ATOM      4  C4  BNZ d   1       4.833  -5.998  -1.788  0.00  0.00     0.000 A 
ATOM      5  C5  BNZ d   1       4.556  -5.998  -3.140  0.00  0.00     0.000 A 
ATOM      6  C6  BNZ d   1       4.239  -4.820  -3.777  0.00  0.00     0.000 A 
ENDROOT
TORSDOF 0
ENDMDL
