MODEL 1
REMARK minimizedAffinity -2.99701905
REMARK minimizedRMSD -1
REMARK  0 active torsions:
REMARK  status: ('A' for Active; 'I' for Inactive)
ROOT
ATOM      1  C1  BNZ d   1      -6.000   2.853  -3.420  0.00  0.00     0.000 A 
ATOM      2  C2  BNZ d   1      -5.999   3.575  -2.256  0.00  0.00     0.000 A 
ATOM      3  C3  BNZ d   1      -5.084   4.568  -2.048  0.00  0.00     0.000 A 
ATOM      4  C4  BNZ d   1      -4.146   4.811  -2.986  0.00  0.00     0.000 A 
ATOM      5  C5  BNZ d   1      -4.127   4.086  -4.161  0.00  0.00     0.000 A 
ATOM      6  C6  BNZ d   1      -5.075   3.113  -4.383  0.00  0.00     0.000 A 
ENDROOT
TORSDOF 0
ENDMDL
