MODEL 1
REMARK minimizedAffinity 1.00048387
REMARK minimizedRMSD -1
REMARK  0 active torsions:
REMARK  status: ('A' for Active; 'I' for Inactive)
ROOT
ATOM      1  C1  BNZ d   1      -0.359  -1.738  -1.125  0.00  0.00     0.000 A 
ATOM      2  C2  BNZ d   1       0.619  -0.970  -0.551  0.00  0.00     0.000 A 
ATOM      3  C3  BNZ d   1       1.754  -1.542  -0.048  0.00  0.00     0.000 A 
ATOM      4  C4  BNZ d   1       1.891  -2.884  -0.082  0.00  0.00     0.000 A 
ATOM      5  C5  BNZ d   1       0.910  -3.672  -0.649  0.00  0.00     0.000 A 
ATOM      6  C6  BNZ d   1      -0.213  -3.089  -1.190  0.00  0.00     0.000 A 
ENDROOT
TORSDOF 0
ENDMDL
