MODEL 1
REMARK minimizedAffinity 13.2191238
REMARK minimizedRMSD -1
REMARK  0 active torsions:
REMARK  status: ('A' for Active; 'I' for Inactive)
ROOT
ATOM      1  C1  BNZ d   1      -0.007   4.894  -0.038  0.00  0.00     0.000 A 
ATOM      2  C2  BNZ d   1      -0.719   5.998  -0.425  0.00  0.00     0.000 A 
ATOM      3  C3  BNZ d   1      -1.426   6.000  -1.595  0.00  0.00     0.000 A 
ATOM      4  C4  BNZ d   1      -1.387   4.915  -2.395  0.00  0.00     0.000 A 
ATOM      5  C5  BNZ d   1      -0.666   3.798  -2.023  0.00  0.00     0.000 A 
ATOM      6  C6  BNZ d   1       0.013   3.785  -0.826  0.00  0.00     0.000 A 
ENDROOT
TORSDOF 0
ENDMDL
