MODEL 1
REMARK minimizedAffinity 3.81061316
REMARK minimizedRMSD -1
REMARK  0 active torsions:
REMARK  status: ('A' for Active; 'I' for Inactive)
ROOT
ATOM      1  C1  BNZ d   1      -4.087  -1.262   4.046  0.00  0.00     0.000 A 
ATOM      2  C2  BNZ d   1      -4.094  -2.261   4.983  0.00  0.00     0.000 A 
ATOM      3  C3  BNZ d   1      -5.063  -2.309   5.947  0.00  0.00     0.000 A 
ATOM      4  C4  BNZ d   1      -5.998  -1.339   5.996  0.00  0.00     0.000 A 
ATOM      5  C5  BNZ d   1      -5.999  -0.321   5.064  0.00  0.00     0.000 A 
ATOM      6  C6  BNZ d   1      -5.045  -0.296   4.072  0.00  0.00     0.000 A 
ENDROOT
TORSDOF 0
ENDMDL
