MODEL 1
REMARK minimizedAffinity 1.45496702
REMARK minimizedRMSD -1
REMARK  0 active torsions:
REMARK  status: ('A' for Active; 'I' for Inactive)
ROOT
ATOM      1  C1  BNZ d   1      -5.092   4.122  -4.310  0.00  0.00     0.000 A 
ATOM      2  C2  BNZ d   1      -4.173   4.865  -3.619  0.00  0.00     0.000 A 
ATOM      3  C3  BNZ d   1      -4.146   4.850  -2.253  0.00  0.00     0.000 A 
ATOM      4  C4  BNZ d   1      -5.061   4.124  -1.579  0.00  0.00     0.000 A 
ATOM      5  C5  BNZ d   1      -6.000   3.376  -2.261  0.00  0.00     0.000 A 
ATOM      6  C6  BNZ d   1      -6.000   3.363  -3.637  0.00  0.00     0.000 A 
ENDROOT
TORSDOF 0
ENDMDL
