MODEL 1
REMARK minimizedAffinity 2.34211159
REMARK minimizedRMSD -1
REMARK  0 active torsions:
REMARK  status: ('A' for Active; 'I' for Inactive)
ROOT
ATOM      1  C   UNL d   1       1.601  -1.908   5.337  0.00  0.00     0.077 C 
ATOM      2  C1  UNL d   1       0.230  -1.383   5.026  0.00  0.00    -0.074 A 
ATOM      3  C2  UNL d   1       0.052  -0.324   4.131  0.00  0.00    -0.005 A 
ATOM      4  C3  UNL d   1      -1.230   0.147   3.845  0.00  0.00     0.006 A 
ATOM      5  C4  UNL d   1      -2.344  -0.437   4.450  0.00  0.00    -0.005 A 
ATOM      6  C5  UNL d   1      -2.185  -1.498   5.347  0.00  0.00    -0.074 A 
ATOM      7  C6  UNL d   1      -3.372  -2.142   5.999  0.00  0.00     0.077 C 
ATOM      8  C7  UNL d   1      -0.894  -1.969   5.624  0.00  0.00    -0.001 A 
ENDROOT
TORSDOF 0
ENDMDL
