MODEL 1
REMARK minimizedAffinity -0.12467932
REMARK minimizedRMSD -1
REMARK  0 active torsions:
REMARK  status: ('A' for Active; 'I' for Inactive)
ROOT
ATOM      1  C   UNL d   1       0.896  -1.901   5.248  0.00  0.00     0.077 C 
ATOM      2  C1  UNL d   1      -0.596  -1.746   5.256  0.00  0.00    -0.074 A 
ATOM      3  C2  UNL d   1      -1.405  -2.617   5.993  0.00  0.00    -0.005 A 
ATOM      4  C3  UNL d   1      -2.791  -2.455   5.999  0.00  0.00     0.006 A 
ATOM      5  C4  UNL d   1      -3.380  -1.422   5.268  0.00  0.00    -0.005 A 
ATOM      6  C5  UNL d   1      -2.587  -0.541   4.526  0.00  0.00    -0.074 A 
ATOM      7  C6  UNL d   1      -3.203   0.580   3.743  0.00  0.00     0.077 C 
ATOM      8  C7  UNL d   1      -1.195  -0.707   4.531  0.00  0.00    -0.001 A 
ENDROOT
TORSDOF 0
ENDMDL
