MODEL 1
REMARK minimizedAffinity -3.87482715
REMARK minimizedRMSD -1
REMARK  0 active torsions:
REMARK  status: ('A' for Active; 'I' for Inactive)
ROOT
ATOM      1  C   UNL d   1       1.070   0.889   2.756  0.00  0.00     0.077 C 
ATOM      2  C1  UNL d   1       0.716   0.208   1.468  0.00  0.00    -0.074 A 
ATOM      3  C2  UNL d   1       0.840   0.875   0.245  0.00  0.00    -0.005 A 
ATOM      4  C3  UNL d   1       0.516   0.226  -0.946  0.00  0.00     0.006 A 
ATOM      5  C4  UNL d   1       0.064  -1.094  -0.927  0.00  0.00    -0.005 A 
ATOM      6  C5  UNL d   1      -0.066  -1.777   0.286  0.00  0.00    -0.074 A 
ATOM      7  C6  UNL d   1      -0.541  -3.199   0.324  0.00  0.00     0.077 C 
ATOM      8  C7  UNL d   1       0.269  -1.120   1.478  0.00  0.00    -0.001 A 
ENDROOT
TORSDOF 0
ENDMDL
