MODEL 1
REMARK minimizedAffinity -1.48689818
REMARK minimizedRMSD -1
REMARK  0 active torsions:
REMARK  status: ('A' for Active; 'I' for Inactive)
ROOT
ATOM      1  C   UNL d   1      -0.343  -1.306   1.024  0.00  0.00     0.077 C 
ATOM      2  C1  UNL d   1       0.069   0.036   0.497  0.00  0.00    -0.074 A 
ATOM      3  C2  UNL d   1       0.706   0.156  -0.743  0.00  0.00    -0.005 A 
ATOM      4  C3  UNL d   1       1.074   1.412  -1.225  0.00  0.00     0.006 A 
ATOM      5  C4  UNL d   1       0.811   2.558  -0.474  0.00  0.00    -0.005 A 
ATOM      6  C5  UNL d   1       0.174   2.457   0.767  0.00  0.00    -0.074 A 
ATOM      7  C6  UNL d   1      -0.125   3.680   1.582  0.00  0.00     0.077 C 
ATOM      8  C7  UNL d   1      -0.200   1.193   1.241  0.00  0.00    -0.001 A 
ENDROOT
TORSDOF 0
ENDMDL
