MODEL 1
REMARK minimizedAffinity -4.46605635
REMARK minimizedRMSD -1
REMARK  0 active torsions:
REMARK  status: ('A' for Active; 'I' for Inactive)
ROOT
ATOM      1  C   UNL d   1       0.103  -3.122  -2.249  0.00  0.00     0.077 C 
ATOM      2  C1  UNL d   1      -0.100  -2.271  -1.031  0.00  0.00    -0.074 A 
ATOM      3  C2  UNL d   1      -0.510  -2.837   0.181  0.00  0.00    -0.005 A 
ATOM      4  C3  UNL d   1      -0.685  -2.035   1.308  0.00  0.00     0.006 A 
ATOM      5  C4  UNL d   1      -0.454  -0.660   1.235  0.00  0.00    -0.005 A 
ATOM      6  C5  UNL d   1      -0.044  -0.077   0.032  0.00  0.00    -0.074 A 
ATOM      7  C6  UNL d   1       0.219   1.397  -0.061  0.00  0.00     0.077 C 
ATOM      8  C7  UNL d   1       0.138  -0.891  -1.094  0.00  0.00    -0.001 A 
ENDROOT
TORSDOF 0
ENDMDL
