MODEL 1
REMARK minimizedAffinity -5.48352528
REMARK minimizedRMSD -1
REMARK  0 active torsions:
REMARK  status: ('A' for Active; 'I' for Inactive)
ROOT
ATOM      1  C   UNL d   1       0.708   1.114   0.754  0.00  0.00     0.077 C 
ATOM      2  C1  UNL d   1       0.206  -0.295   0.865  0.00  0.00    -0.074 A 
ATOM      3  C2  UNL d   1      -0.321  -0.778   2.068  0.00  0.00    -0.005 A 
ATOM      4  C3  UNL d   1      -0.792  -2.088   2.154  0.00  0.00     0.006 A 
ATOM      5  C4  UNL d   1      -0.743  -2.927   1.040  0.00  0.00    -0.005 A 
ATOM      6  C5  UNL d   1      -0.221  -2.461  -0.171  0.00  0.00    -0.074 A 
ATOM      7  C6  UNL d   1      -0.169  -3.347  -1.381  0.00  0.00     0.077 C 
ATOM      8  C7  UNL d   1       0.245  -1.142  -0.251  0.00  0.00    -0.001 A 
ENDROOT
TORSDOF 0
ENDMDL
