MODEL 1
REMARK minimizedAffinity -2.7539854
REMARK minimizedRMSD -1
REMARK  0 active torsions:
REMARK  status: ('A' for Active; 'I' for Inactive)
ROOT
ATOM      1  C   UNL d   1       0.656  -1.773   0.381  0.00  0.00     0.077 C 
ATOM      2  C1  UNL d   1       0.857  -0.296   0.219  0.00  0.00    -0.074 A 
ATOM      3  C2  UNL d   1      -0.052   0.478  -0.510  0.00  0.00    -0.005 A 
ATOM      4  C3  UNL d   1       0.143   1.853  -0.643  0.00  0.00     0.006 A 
ATOM      5  C4  UNL d   1       1.247   2.467  -0.050  0.00  0.00    -0.005 A 
ATOM      6  C5  UNL d   1       2.166   1.709   0.683  0.00  0.00    -0.074 A 
ATOM      7  C6  UNL d   1       3.352   2.355   1.335  0.00  0.00     0.077 C 
ATOM      8  C7  UNL d   1       1.959   0.330   0.819  0.00  0.00    -0.001 A 
ENDROOT
TORSDOF 0
ENDMDL
