MODEL 1
REMARK minimizedAffinity -4.38694429
REMARK minimizedRMSD -1
REMARK  0 active torsions:
REMARK  status: ('A' for Active; 'I' for Inactive)
ROOT
ATOM      1  C   UNL d   1       1.624   0.697   0.150  0.00  0.00     0.077 C 
ATOM      2  C1  UNL d   1       0.493  -0.224   0.500  0.00  0.00    -0.074 A 
ATOM      3  C2  UNL d   1       0.265  -1.393  -0.232  0.00  0.00    -0.005 A 
ATOM      4  C3  UNL d   1      -0.786  -2.244   0.111  0.00  0.00     0.006 A 
ATOM      5  C4  UNL d   1      -1.618  -1.935   1.187  0.00  0.00    -0.005 A 
ATOM      6  C5  UNL d   1      -1.405  -0.770   1.932  0.00  0.00    -0.074 A 
ATOM      7  C6  UNL d   1      -2.283  -0.428   3.098  0.00  0.00     0.077 C 
ATOM      8  C7  UNL d   1      -0.343   0.076   1.585  0.00  0.00    -0.001 A 
ENDROOT
TORSDOF 0
ENDMDL
