MODEL 1
REMARK minimizedAffinity -3.7613802
REMARK minimizedRMSD -1
REMARK  0 active torsions:
REMARK  status: ('A' for Active; 'I' for Inactive)
ROOT
ATOM      1  C   UNL d   1       1.083  -2.969  -0.580  0.00  0.00     0.077 C 
ATOM      2  C1  UNL d   1       0.292  -1.833  -0.003  0.00  0.00    -0.074 A 
ATOM      3  C2  UNL d   1      -0.916  -2.063   0.663  0.00  0.00    -0.005 A 
ATOM      4  C3  UNL d   1      -1.636  -0.998   1.203  0.00  0.00     0.006 A 
ATOM      5  C4  UNL d   1      -1.156   0.307   1.083  0.00  0.00    -0.005 A 
ATOM      6  C5  UNL d   1       0.051   0.557   0.421  0.00  0.00    -0.074 A 
ATOM      7  C6  UNL d   1       0.586   1.952   0.292  0.00  0.00     0.077 C 
ATOM      8  C7  UNL d   1       0.772  -0.520  -0.112  0.00  0.00    -0.001 A 
ENDROOT
TORSDOF 0
ENDMDL
