MODEL 1
REMARK minimizedAffinity -5.24327898
REMARK minimizedRMSD -1
REMARK  0 active torsions:
REMARK  status: ('A' for Active; 'I' for Inactive)
ROOT
ATOM      1  C   UNL d   1       0.560  -3.762  -0.479  0.00  0.00     0.077 C 
ATOM      2  C1  UNL d   1       0.196  -2.308  -0.413  0.00  0.00    -0.074 A 
ATOM      3  C2  UNL d   1       0.614  -1.417  -1.406  0.00  0.00    -0.005 A 
ATOM      4  C3  UNL d   1       0.260  -0.070  -1.337  0.00  0.00     0.006 A 
ATOM      5  C4  UNL d   1      -0.514   0.399  -0.275  0.00  0.00    -0.005 A 
ATOM      6  C5  UNL d   1      -0.942  -0.477   0.727  0.00  0.00    -0.074 A 
ATOM      7  C6  UNL d   1      -1.783   0.008   1.871  0.00  0.00     0.077 C 
ATOM      8  C7  UNL d   1      -0.588  -1.831   0.647  0.00  0.00    -0.001 A 
ENDROOT
TORSDOF 0
ENDMDL
