MODEL 1
REMARK minimizedAffinity -0.526501477
REMARK minimizedRMSD -1
REMARK  0 active torsions:
REMARK  status: ('A' for Active; 'I' for Inactive)
ROOT
ATOM      1  C   UNL d   1      -4.013  -3.764   0.886  0.00  0.00     0.077 C 
ATOM      2  C1  UNL d   1      -2.734  -2.982   0.891  0.00  0.00    -0.074 A 
ATOM      3  C2  UNL d   1      -1.528  -3.573   0.500  0.00  0.00    -0.005 A 
ATOM      4  C3  UNL d   1      -0.348  -2.830   0.501  0.00  0.00     0.006 A 
ATOM      5  C4  UNL d   1      -0.361  -1.490   0.891  0.00  0.00    -0.005 A 
ATOM      6  C5  UNL d   1      -1.557  -0.882   1.284  0.00  0.00    -0.074 A 
ATOM      7  C6  UNL d   1      -1.591   0.560   1.697  0.00  0.00     0.077 C 
ATOM      8  C7  UNL d   1      -2.740  -1.633   1.274  0.00  0.00    -0.001 A 
ENDROOT
TORSDOF 0
ENDMDL
