MODEL 1
REMARK minimizedAffinity -4.66626167
REMARK minimizedRMSD -1
REMARK  0 active torsions:
REMARK  status: ('A' for Active; 'I' for Inactive)
ROOT
ATOM      1  C   UNL d   1      -2.183  -0.969   1.812  0.00  0.00     0.077 C 
ATOM      2  C1  UNL d   1      -1.062  -1.284   0.866  0.00  0.00    -0.074 A 
ATOM      3  C2  UNL d   1      -0.343  -2.479   0.976  0.00  0.00    -0.005 A 
ATOM      4  C3  UNL d   1       0.690  -2.763   0.083  0.00  0.00     0.006 A 
ATOM      5  C4  UNL d   1       1.014  -1.857  -0.927  0.00  0.00    -0.005 A 
ATOM      6  C5  UNL d   1       0.306  -0.658  -1.053  0.00  0.00    -0.074 A 
ATOM      7  C6  UNL d   1       0.635   0.323  -2.140  0.00  0.00     0.077 C 
ATOM      8  C7  UNL d   1      -0.736  -0.383  -0.157  0.00  0.00    -0.001 A 
ENDROOT
TORSDOF 0
ENDMDL
