MODEL 1
REMARK minimizedAffinity -2.53723264
REMARK minimizedRMSD -1
REMARK  0 active torsions:
REMARK  status: ('A' for Active; 'I' for Inactive)
ROOT
ATOM      1  C   UNL d   1      -0.827  -1.026   1.190  0.00  0.00     0.077 C 
ATOM      2  C1  UNL d   1      -0.291   0.236   0.584  0.00  0.00    -0.074 A 
ATOM      3  C2  UNL d   1      -0.158   0.368  -0.802  0.00  0.00    -0.005 A 
ATOM      4  C3  UNL d   1       0.333   1.552  -1.353  0.00  0.00     0.006 A 
ATOM      5  C4  UNL d   1       0.695   2.614  -0.524  0.00  0.00    -0.005 A 
ATOM      6  C5  UNL d   1       0.568   2.502   0.864  0.00  0.00    -0.074 A 
ATOM      7  C6  UNL d   1       0.944   3.638   1.769  0.00  0.00     0.077 C 
ATOM      8  C7  UNL d   1       0.067   1.311   1.409  0.00  0.00    -0.001 A 
ENDROOT
TORSDOF 0
ENDMDL
