MODEL 1
REMARK minimizedAffinity -4.24693823
REMARK minimizedRMSD -1
REMARK  0 active torsions:
REMARK  status: ('A' for Active; 'I' for Inactive)
ROOT
ATOM      1  C   UNL d   1      -0.940  -3.447  -1.382  0.00  0.00     0.077 C 
ATOM      2  C1  UNL d   1      -1.040  -2.498  -0.226  0.00  0.00    -0.074 A 
ATOM      3  C2  UNL d   1      -2.038  -2.646   0.742  0.00  0.00    -0.005 A 
ATOM      4  C3  UNL d   1      -2.113  -1.760   1.817  0.00  0.00     0.006 A 
ATOM      5  C4  UNL d   1      -1.191  -0.720   1.935  0.00  0.00    -0.005 A 
ATOM      6  C5  UNL d   1      -0.185  -0.556   0.978  0.00  0.00    -0.074 A 
ATOM      7  C6  UNL d   1       0.820   0.551   1.095  0.00  0.00     0.077 C 
ATOM      8  C7  UNL d   1      -0.112  -1.454  -0.096  0.00  0.00    -0.001 A 
ENDROOT
TORSDOF 0
ENDMDL
