MODEL 1
REMARK minimizedAffinity -3.45380807
REMARK minimizedRMSD -1
REMARK  0 active torsions:
REMARK  status: ('A' for Active; 'I' for Inactive)
ROOT
ATOM      1  C   UNL d   1      -0.068  -0.849   1.706  0.00  0.00     0.077 C 
ATOM      2  C1  UNL d   1       0.173   0.410   0.929  0.00  0.00    -0.074 A 
ATOM      3  C2  UNL d   1      -0.529   0.671  -0.253  0.00  0.00    -0.005 A 
ATOM      4  C3  UNL d   1      -0.301   1.851  -0.960  0.00  0.00     0.006 A 
ATOM      5  C4  UNL d   1       0.630   2.781  -0.495  0.00  0.00    -0.005 A 
ATOM      6  C5  UNL d   1       1.341   2.538   0.685  0.00  0.00    -0.074 A 
ATOM      7  C6  UNL d   1       2.338   3.531   1.204  0.00  0.00     0.077 C 
ATOM      8  C7  UNL d   1       1.101   1.353   1.394  0.00  0.00    -0.001 A 
ENDROOT
TORSDOF 0
ENDMDL
