MODEL 1
REMARK minimizedAffinity -2.9759624
REMARK minimizedRMSD -1
REMARK  0 active torsions:
REMARK  status: ('A' for Active; 'I' for Inactive)
ROOT
ATOM      1  C   UNL d   1      -0.753  -3.154  -1.833  0.00  0.00     0.077 C 
ATOM      2  C1  UNL d   1      -0.715  -2.006  -0.868  0.00  0.00    -0.074 A 
ATOM      3  C2  UNL d   1      -0.211  -0.759  -1.254  0.00  0.00    -0.005 A 
ATOM      4  C3  UNL d   1      -0.190   0.301  -0.348  0.00  0.00     0.006 A 
ATOM      5  C4  UNL d   1      -0.672   0.127   0.950  0.00  0.00    -0.005 A 
ATOM      6  C5  UNL d   1      -1.181  -1.112   1.353  0.00  0.00    -0.074 A 
ATOM      7  C6  UNL d   1      -1.712  -1.314   2.741  0.00  0.00     0.077 C 
ATOM      8  C7  UNL d   1      -1.204  -2.171   0.435  0.00  0.00    -0.001 A 
ENDROOT
TORSDOF 0
ENDMDL
