MODEL 1
REMARK minimizedAffinity -3.83077645
REMARK minimizedRMSD -1
REMARK  0 active torsions:
REMARK  status: ('A' for Active; 'I' for Inactive)
ROOT
ATOM      1  C   UNL d   1       0.585   0.933   0.002  0.00  0.00     0.077 C 
ATOM      2  C1  UNL d   1       0.026  -0.459  -0.013  0.00  0.00    -0.074 A 
ATOM      3  C2  UNL d   1      -0.479  -1.044   1.153  0.00  0.00    -0.005 A 
ATOM      4  C3  UNL d   1      -1.004  -2.336   1.122  0.00  0.00     0.006 A 
ATOM      5  C4  UNL d   1      -1.029  -3.055  -0.074  0.00  0.00    -0.005 A 
ATOM      6  C5  UNL d   1      -0.529  -2.486  -1.250  0.00  0.00    -0.074 A 
ATOM      7  C6  UNL d   1      -0.558  -3.242  -2.545  0.00  0.00     0.077 C 
ATOM      8  C7  UNL d   1      -0.010  -1.185  -1.212  0.00  0.00    -0.001 A 
ENDROOT
TORSDOF 0
ENDMDL
