MODEL 1
REMARK minimizedAffinity -2.06909251
REMARK minimizedRMSD -1
REMARK  0 active torsions:
REMARK  status: ('A' for Active; 'I' for Inactive)
ROOT
ATOM      1  C   UNL d   1       0.689   1.186  -0.082  0.00  0.00     0.077 C 
ATOM      2  C1  UNL d   1      -0.050  -0.098   0.153  0.00  0.00    -0.074 A 
ATOM      3  C2  UNL d   1      -0.577  -0.403   1.412  0.00  0.00    -0.005 A 
ATOM      4  C3  UNL d   1      -1.271  -1.597   1.613  0.00  0.00     0.006 A 
ATOM      5  C4  UNL d   1      -1.443  -2.495   0.559  0.00  0.00    -0.005 A 
ATOM      6  C5  UNL d   1      -0.924  -2.206  -0.706  0.00  0.00    -0.074 A 
ATOM      7  C6  UNL d   1      -1.109  -3.157  -1.852  0.00  0.00     0.077 C 
ATOM      8  C7  UNL d   1      -0.234  -1.002  -0.902  0.00  0.00    -0.001 A 
ENDROOT
TORSDOF 0
ENDMDL
