MODEL 1
REMARK minimizedAffinity -4.06859636
REMARK minimizedRMSD -1
REMARK  0 active torsions:
REMARK  status: ('A' for Active; 'I' for Inactive)
ROOT
ATOM      1  C   UNL d   1      -1.603   0.445  -0.604  0.00  0.00     0.023 A 
ATOM      2  C1  UNL d   1      -0.803   1.560  -0.352  0.00  0.00     0.003 A 
ATOM      3  C2  UNL d   1       0.496   1.394   0.133  0.00  0.00     0.048 A 
ATOM      4  C3  UNL d   1       0.990   0.110   0.362  0.00  0.00     0.023 A 
ATOM      5  C4  UNL d   1       0.193  -1.008   0.110  0.00  0.00     0.048 A 
ATOM      6  C5  UNL d   1      -1.105  -0.837  -0.373  0.00  0.00     0.003 A 
ATOM      7  I   UNL d   1       2.923  -0.140   1.083  0.00  0.00    -0.146 I 
ENDROOT
TORSDOF 0
ENDMDL
