MODEL 1
REMARK minimizedAffinity -2.52204895
REMARK minimizedRMSD -1
REMARK  0 active torsions:
REMARK  status: ('A' for Active; 'I' for Inactive)
ROOT
ATOM      1  C   UNL d   1       2.650  -0.803   2.378  0.00  0.00     0.023 A 
ATOM      2  C1  UNL d   1       1.552  -1.660   2.451  0.00  0.00     0.003 A 
ATOM      3  C2  UNL d   1       0.403  -1.390   1.704  0.00  0.00     0.048 A 
ATOM      4  C3  UNL d   1       0.361  -0.263   0.884  0.00  0.00     0.023 A 
ATOM      5  C4  UNL d   1       1.458   0.597   0.807  0.00  0.00     0.048 A 
ATOM      6  C5  UNL d   1       2.603   0.324   1.557  0.00  0.00     0.003 A 
ATOM      7  I   UNL d   1      -1.347   0.140  -0.230  0.00  0.00    -0.146 I 
ENDROOT
TORSDOF 0
ENDMDL
