MODEL 1
REMARK minimizedAffinity -1.85318363
REMARK minimizedRMSD -1
REMARK  0 active torsions:
REMARK  status: ('A' for Active; 'I' for Inactive)
ROOT
ATOM      1  C   UNL d   1      -3.639  -0.060  -3.145  0.00  0.00     0.023 A 
ATOM      2  C1  UNL d   1      -2.686  -1.074  -3.051  0.00  0.00     0.003 A 
ATOM      3  C2  UNL d   1      -1.729  -1.042  -2.035  0.00  0.00     0.048 A 
ATOM      4  C3  UNL d   1      -1.731   0.006  -1.115  0.00  0.00     0.023 A 
ATOM      5  C4  UNL d   1      -2.684   1.022  -1.205  0.00  0.00     0.048 A 
ATOM      6  C5  UNL d   1      -3.638   0.987  -2.223  0.00  0.00     0.003 A 
ATOM      7  I   UNL d   1      -0.308   0.055   0.399  0.00  0.00    -0.146 I 
ENDROOT
TORSDOF 0
ENDMDL
