MODEL 1
REMARK minimizedAffinity -3.23916984
REMARK minimizedRMSD -1
REMARK  0 active torsions:
REMARK  status: ('A' for Active; 'I' for Inactive)
ROOT
ATOM      1  C   UNL d   1       3.308   0.239   1.086  0.00  0.00     0.023 A 
ATOM      2  C1  UNL d   1       2.956  -0.959   0.464  0.00  0.00     0.003 A 
ATOM      3  C2  UNL d   1       1.613  -1.250   0.218  0.00  0.00     0.048 A 
ATOM      4  C3  UNL d   1       0.627  -0.338   0.594  0.00  0.00     0.023 A 
ATOM      5  C4  UNL d   1       0.975   0.862   1.215  0.00  0.00     0.048 A 
ATOM      6  C5  UNL d   1       2.319   1.149   1.461  0.00  0.00     0.003 A 
ATOM      7  I   UNL d   1      -1.373  -0.769   0.228  0.00  0.00    -0.146 I 
ENDROOT
TORSDOF 0
ENDMDL
