MODEL 1
REMARK minimizedAffinity -2.88847899
REMARK minimizedRMSD -1
REMARK  0 active torsions:
REMARK  status: ('A' for Active; 'I' for Inactive)
ROOT
ATOM      1  C   UNL d   1       2.638   0.284   0.971  0.00  0.00     0.023 A 
ATOM      2  C1  UNL d   1       1.945   1.455   0.660  0.00  0.00     0.003 A 
ATOM      3  C2  UNL d   1       0.667   1.384   0.102  0.00  0.00     0.048 A 
ATOM      4  C3  UNL d   1       0.086   0.139  -0.141  0.00  0.00     0.023 A 
ATOM      5  C4  UNL d   1       0.775  -1.034   0.170  0.00  0.00     0.048 A 
ATOM      6  C5  UNL d   1       2.053  -0.959   0.727  0.00  0.00     0.003 A 
ATOM      7  I   UNL d   1      -1.816   0.031  -0.970  0.00  0.00    -0.146 I 
ENDROOT
TORSDOF 0
ENDMDL
