MODEL 1
REMARK minimizedAffinity -2.07376242
REMARK minimizedRMSD -1
REMARK  0 active torsions:
REMARK  status: ('A' for Active; 'I' for Inactive)
ROOT
ATOM      1  C   UNL d   1      -3.234  -0.205  -3.783  0.00  0.00     0.023 A 
ATOM      2  C1  UNL d   1      -2.924  -1.316  -2.998  0.00  0.00     0.003 A 
ATOM      3  C2  UNL d   1      -2.071  -1.181  -1.901  0.00  0.00     0.048 A 
ATOM      4  C3  UNL d   1      -1.532   0.068  -1.594  0.00  0.00     0.023 A 
ATOM      5  C4  UNL d   1      -1.839   1.182  -2.376  0.00  0.00     0.048 A 
ATOM      6  C5  UNL d   1      -2.692   1.042  -3.473  0.00  0.00     0.003 A 
ATOM      7  I   UNL d   1      -0.262   0.271   0.039  0.00  0.00    -0.146 I 
ENDROOT
TORSDOF 0
ENDMDL
