MODEL 1
REMARK minimizedAffinity 0.0677794963
REMARK minimizedRMSD -1
REMARK  0 active torsions:
REMARK  status: ('A' for Active; 'I' for Inactive)
ROOT
ATOM      1  C   UNL d   1       1.385  -0.186  -4.400  0.00  0.00     0.023 A 
ATOM      2  C1  UNL d   1       0.017  -0.129  -4.132  0.00  0.00     0.003 A 
ATOM      3  C2  UNL d   1      -0.440  -0.168  -2.814  0.00  0.00     0.048 A 
ATOM      4  C3  UNL d   1       0.477  -0.264  -1.767  0.00  0.00     0.023 A 
ATOM      5  C4  UNL d   1       1.846  -0.321  -2.030  0.00  0.00     0.048 A 
ATOM      6  C5  UNL d   1       2.298  -0.282  -3.350  0.00  0.00     0.003 A 
ATOM      7  I   UNL d   1      -0.201  -0.322   0.197  0.00  0.00    -0.146 I 
ENDROOT
TORSDOF 0
ENDMDL
