MODEL 1
REMARK minimizedAffinity -2.57533884
REMARK minimizedRMSD -1
REMARK  0 active torsions:
REMARK  status: ('A' for Active; 'I' for Inactive)
ROOT
ATOM      1  C   UNL d   1       1.817   0.180  -4.106  0.00  0.00     0.023 A 
ATOM      2  C1  UNL d   1       1.036   1.266  -3.709  0.00  0.00     0.003 A 
ATOM      3  C2  UNL d   1       0.221   1.166  -2.580  0.00  0.00     0.048 A 
ATOM      4  C3  UNL d   1       0.192  -0.022  -1.851  0.00  0.00     0.023 A 
ATOM      5  C4  UNL d   1       0.972  -1.111  -2.243  0.00  0.00     0.048 A 
ATOM      6  C5  UNL d   1       1.785  -1.007  -3.374  0.00  0.00     0.003 A 
ATOM      7  I   UNL d   1      -1.020  -0.173  -0.170  0.00  0.00    -0.146 I 
ENDROOT
TORSDOF 0
ENDMDL
