MODEL 1
REMARK minimizedAffinity -0.340589583
REMARK minimizedRMSD -1
REMARK  0 active torsions:
REMARK  status: ('A' for Active; 'I' for Inactive)
ROOT
ATOM      1  C   UNL d   1      -1.845   0.441   0.349  0.00  0.00     0.023 A 
ATOM      2  C1  UNL d   1      -0.896   0.024  -0.585  0.00  0.00     0.003 A 
ATOM      3  C2  UNL d   1       0.410  -0.256  -0.177  0.00  0.00     0.048 A 
ATOM      4  C3  UNL d   1       0.760  -0.118   1.165  0.00  0.00     0.023 A 
ATOM      5  C4  UNL d   1      -0.187   0.297   2.103  0.00  0.00     0.048 A 
ATOM      6  C5  UNL d   1      -1.491   0.577   1.691  0.00  0.00     0.003 A 
ATOM      7  I   UNL d   1       2.703  -0.535   1.774  0.00  0.00    -0.146 I 
ENDROOT
TORSDOF 0
ENDMDL
