MODEL 1
REMARK minimizedAffinity -2.10384727
REMARK minimizedRMSD -1
REMARK  0 active torsions:
REMARK  status: ('A' for Active; 'I' for Inactive)
ROOT
ATOM      1  C   UNL d   1       0.152  -0.281   3.650  0.00  0.00     0.023 A 
ATOM      2  C1  UNL d   1       1.349  -0.509   2.972  0.00  0.00     0.003 A 
ATOM      3  C2  UNL d   1       1.406  -0.367   1.584  0.00  0.00     0.048 A 
ATOM      4  C3  UNL d   1       0.261   0.006   0.880  0.00  0.00     0.023 A 
ATOM      5  C4  UNL d   1      -0.939   0.237   1.554  0.00  0.00     0.048 A 
ATOM      6  C5  UNL d   1      -0.991   0.092   2.942  0.00  0.00     0.003 A 
ATOM      7  I   UNL d   1       0.342   0.219  -1.186  0.00  0.00    -0.146 I 
ENDROOT
TORSDOF 0
ENDMDL
