MODEL 1
REMARK minimizedAffinity -0.659402549
REMARK minimizedRMSD -1
REMARK  0 active torsions:
REMARK  status: ('A' for Active; 'I' for Inactive)
ROOT
ATOM      1  C   UNL d   1      -0.724   0.511   2.735  0.00  0.00     0.023 A 
ATOM      2  C1  UNL d   1       0.555   0.083   2.377  0.00  0.00     0.003 A 
ATOM      3  C2  UNL d   1       0.874  -0.120   1.033  0.00  0.00     0.048 A 
ATOM      4  C3  UNL d   1      -0.090   0.109   0.051  0.00  0.00     0.023 A 
ATOM      5  C4  UNL d   1      -1.370   0.539   0.405  0.00  0.00     0.048 A 
ATOM      6  C5  UNL d   1      -1.685   0.740   1.750  0.00  0.00     0.003 A 
ATOM      7  I   UNL d   1       0.382  -0.191  -1.950  0.00  0.00    -0.146 I 
ENDROOT
TORSDOF 0
ENDMDL
