MODEL 1
REMARK minimizedAffinity -1.771222
REMARK minimizedRMSD -1
REMARK  0 active torsions:
REMARK  status: ('A' for Active; 'I' for Inactive)
ROOT
ATOM      1  C   UNL d   1       1.741   0.464  -4.228  0.00  0.00     0.023 A 
ATOM      2  C1  UNL d   1       0.712  -0.478  -4.208  0.00  0.00     0.003 A 
ATOM      3  C2  UNL d   1       0.019  -0.732  -3.022  0.00  0.00     0.048 A 
ATOM      4  C3  UNL d   1       0.359  -0.038  -1.861  0.00  0.00     0.023 A 
ATOM      5  C4  UNL d   1       1.386   0.907  -1.877  0.00  0.00     0.048 A 
ATOM      6  C5  UNL d   1       2.077   1.156  -3.065  0.00  0.00     0.003 A 
ATOM      7  I   UNL d   1      -0.672  -0.413  -0.096  0.00  0.00    -0.146 I 
ENDROOT
TORSDOF 0
ENDMDL
