MODEL 1
REMARK minimizedAffinity 1.90843821
REMARK minimizedRMSD -1
REMARK  0 active torsions:
REMARK  status: ('A' for Active; 'I' for Inactive)
ROOT
ATOM      1  C2' OXE d   1       0.284   1.766  -2.001  0.00  0.00     0.078 C 
ATOM      2  C1' OXE d   1       0.685   4.030  -3.612  0.00  0.00     0.078 C 
ATOM      3  C1  OXE d   1      -0.734   3.660  -3.260  0.00  0.00    -0.078 A 
ATOM      4  C2  OXE d   1      -0.923   2.524  -2.510  0.00  0.00    -0.078 A 
ATOM      5  C3  OXE d   1      -2.209   2.168  -2.111  0.00  0.00     0.003 A 
ATOM      6  C4  OXE d   1      -3.320   2.868  -2.594  0.00  0.00    -0.002 A 
ATOM      7  C5  OXE d   1      -3.152   4.005  -3.392  0.00  0.00    -0.002 A 
ATOM      8  C6  OXE d   1      -1.866   4.438  -3.698  0.00  0.00     0.003 A 
ENDROOT
TORSDOF 0
ENDMDL
