MODEL 1
REMARK minimizedAffinity 8.45015049
REMARK minimizedRMSD -1
REMARK  0 active torsions:
REMARK  status: ('A' for Active; 'I' for Inactive)
ROOT
ATOM      1  C2' OXE d   1       0.066  -2.260   2.869  0.00  0.00     0.078 C 
ATOM      2  C1' OXE d   1       1.627  -0.685   1.147  0.00  0.00     0.078 C 
ATOM      3  C1  OXE d   1       1.724  -2.184   1.012  0.00  0.00    -0.078 A 
ATOM      4  C2  OXE d   1       0.992  -2.948   1.889  0.00  0.00    -0.078 A 
ATOM      5  C3  OXE d   1       1.004  -4.335   1.772  0.00  0.00     0.003 A 
ATOM      6  C4  OXE d   1       1.871  -4.963   0.870  0.00  0.00    -0.002 A 
ATOM      7  C5  OXE d   1       2.655  -4.204  -0.006  0.00  0.00    -0.002 A 
ATOM      8  C6  OXE d   1       2.562  -2.817   0.023  0.00  0.00     0.003 A 
ENDROOT
TORSDOF 0
ENDMDL
