MODEL 1
REMARK minimizedAffinity 11.0906239
REMARK minimizedRMSD -1
REMARK  0 active torsions:
REMARK  status: ('A' for Active; 'I' for Inactive)
ROOT
ATOM      1  C2' OXE d   1       1.717  -0.448   0.688  0.00  0.00     0.078 C 
ATOM      2  C1' OXE d   1       0.043  -1.872   2.434  0.00  0.00     0.078 C 
ATOM      3  C1  OXE d   1       1.050  -2.656   1.630  0.00  0.00    -0.078 A 
ATOM      4  C2  OXE d   1       1.833  -1.956   0.744  0.00  0.00    -0.078 A 
ATOM      5  C3  OXE d   1       2.816  -2.622   0.017  0.00  0.00     0.003 A 
ATOM      6  C4  OXE d   1       2.910  -4.018   0.067  0.00  0.00    -0.002 A 
ATOM      7  C5  OXE d   1       2.095  -4.754   0.933  0.00  0.00    -0.002 A 
ATOM      8  C6  OXE d   1       1.191  -4.086   1.751  0.00  0.00     0.003 A 
ENDROOT
TORSDOF 0
ENDMDL
