MODEL 1
REMARK minimizedAffinity 3.28206277
REMARK minimizedRMSD -1
REMARK  0 active torsions:
REMARK  status: ('A' for Active; 'I' for Inactive)
ROOT
ATOM      1  C2' OXE d   1      -0.577  -1.086   2.582  0.00  0.00     0.078 C 
ATOM      2  C1' OXE d   1      -0.327  -1.343  -0.202  0.00  0.00     0.078 C 
ATOM      3  C1  OXE d   1       0.752  -1.950   0.661  0.00  0.00    -0.078 A 
ATOM      4  C2  OXE d   1       0.645  -1.779   2.020  0.00  0.00    -0.078 A 
ATOM      5  C3  OXE d   1       1.584  -2.366   2.864  0.00  0.00     0.003 A 
ATOM      6  C4  OXE d   1       2.717  -2.996   2.335  0.00  0.00    -0.002 A 
ATOM      7  C5  OXE d   1       2.865  -3.147   0.952  0.00  0.00    -0.002 A 
ATOM      8  C6  OXE d   1       1.872  -2.668   0.105  0.00  0.00     0.003 A 
ENDROOT
TORSDOF 0
ENDMDL
