MODEL 1
REMARK minimizedAffinity 1.69338894
REMARK minimizedRMSD -1
REMARK  0 active torsions:
REMARK  status: ('A' for Active; 'I' for Inactive)
ROOT
ATOM      1  C2' OXE d   1       5.969  -2.144   0.902  0.00  0.00     0.078 C 
ATOM      2  C1' OXE d   1       5.990  -0.505  -1.376  0.00  0.00     0.078 C 
ATOM      3  C1  OXE d   1       5.975   0.167  -0.026  0.00  0.00    -0.078 A 
ATOM      4  C2  OXE d   1       5.918  -0.643   1.082  0.00  0.00    -0.078 A 
ATOM      5  C3  OXE d   1       5.957  -0.076   2.353  0.00  0.00     0.003 A 
ATOM      6  C4  OXE d   1       5.900   1.314   2.511  0.00  0.00    -0.002 A 
ATOM      7  C5  OXE d   1       5.917   2.157   1.395  0.00  0.00    -0.002 A 
ATOM      8  C6  OXE d   1       5.998   1.601   0.123  0.00  0.00     0.003 A 
ENDROOT
TORSDOF 0
ENDMDL
