MODEL 1
REMARK minimizedAffinity 0.0479254499
REMARK minimizedRMSD -1
REMARK  0 active torsions:
REMARK  status: ('A' for Active; 'I' for Inactive)
ROOT
ATOM      1  C2' OXE d   1       0.783  -1.589  -0.748  0.00  0.00     0.078 C 
ATOM      2  C1' OXE d   1       1.925  -3.378   1.089  0.00  0.00     0.078 C 
ATOM      3  C1  OXE d   1       0.959  -2.348   1.618  0.00  0.00    -0.078 A 
ATOM      4  C2  OXE d   1       0.440  -1.447   0.720  0.00  0.00    -0.078 A 
ATOM      5  C3  OXE d   1      -0.498  -0.510   1.145  0.00  0.00     0.003 A 
ATOM      6  C4  OXE d   1      -0.801  -0.379   2.506  0.00  0.00    -0.002 A 
ATOM      7  C5  OXE d   1      -0.254  -1.261   3.444  0.00  0.00    -0.002 A 
ATOM      8  C6  OXE d   1       0.593  -2.276   3.011  0.00  0.00     0.003 A 
ENDROOT
TORSDOF 0
ENDMDL
