MODEL 1
REMARK minimizedAffinity 8.26972771
REMARK minimizedRMSD -1
REMARK  0 active torsions:
REMARK  status: ('A' for Active; 'I' for Inactive)
ROOT
ATOM      1  C2' OXE d   1       2.120  -3.489   1.332  0.00  0.00     0.078 C 
ATOM      2  C1' OXE d   1       0.983  -1.798  -0.599  0.00  0.00     0.078 C 
ATOM      3  C1  OXE d   1       0.490  -1.676   0.822  0.00  0.00    -0.078 A 
ATOM      4  C2  OXE d   1       1.018  -2.540   1.750  0.00  0.00    -0.078 A 
ATOM      5  C3  OXE d   1       0.639  -2.433   3.085  0.00  0.00     0.003 A 
ATOM      6  C4  OXE d   1      -0.388  -1.559   3.463  0.00  0.00    -0.002 A 
ATOM      7  C5  OXE d   1      -0.969  -0.699   2.525  0.00  0.00    -0.002 A 
ATOM      8  C6  OXE d   1      -0.512  -0.715   1.211  0.00  0.00     0.003 A 
ENDROOT
TORSDOF 0
ENDMDL
