MODEL 1
REMARK minimizedAffinity 13.9001102
REMARK minimizedRMSD -1
REMARK  0 active torsions:
REMARK  status: ('A' for Active; 'I' for Inactive)
ROOT
ATOM      1  C2' OXE d   1       5.999  -1.581   0.802  0.00  0.00     0.078 C 
ATOM      2  C1' OXE d   1       5.978  -0.756  -1.881  0.00  0.00     0.078 C 
ATOM      3  C1  OXE d   1       5.981   0.313  -0.817  0.00  0.00    -0.078 A 
ATOM      4  C2  OXE d   1       5.944  -0.100   0.494  0.00  0.00    -0.078 A 
ATOM      5  C3  OXE d   1       6.000   0.843   1.515  0.00  0.00     0.003 A 
ATOM      6  C4  OXE d   1       5.938   2.211   1.221  0.00  0.00    -0.002 A 
ATOM      7  C5  OXE d   1       5.935   2.652  -0.106  0.00  0.00    -0.002 A 
ATOM      8  C6  OXE d   1       5.999   1.719  -1.135  0.00  0.00     0.003 A 
ENDROOT
TORSDOF 0
ENDMDL
