MODEL 1
REMARK minimizedAffinity 3.74571276
REMARK minimizedRMSD -1
REMARK  0 active torsions:
REMARK  status: ('A' for Active; 'I' for Inactive)
ROOT
ATOM      1  C2' OXE d   1      -1.604  -0.696   2.965  0.00  0.00     0.078 C 
ATOM      2  C1' OXE d   1      -1.381  -3.465   3.366  0.00  0.00     0.078 C 
ATOM      3  C1  OXE d   1      -0.342  -2.794   2.503  0.00  0.00    -0.078 A 
ATOM      4  C2  OXE d   1      -0.486  -1.446   2.274  0.00  0.00    -0.078 A 
ATOM      5  C3  OXE d   1       0.474  -0.767   1.529  0.00  0.00     0.003 A 
ATOM      6  C4  OXE d   1       1.499  -1.470   0.885  0.00  0.00    -0.002 A 
ATOM      7  C5  OXE d   1       1.641  -2.849   1.073  0.00  0.00    -0.002 A 
ATOM      8  C6  OXE d   1       0.755  -3.517   1.911  0.00  0.00     0.003 A 
ENDROOT
TORSDOF 0
ENDMDL
