MODEL 1
REMARK minimizedAffinity 7.52747679
REMARK minimizedRMSD -1
REMARK  0 active torsions:
REMARK  status: ('A' for Active; 'I' for Inactive)
ROOT
ATOM      1  C2' OXE d   1       2.609  -4.369   1.055  0.00  0.00     0.078 C 
ATOM      2  C1' OXE d   1       2.546  -2.207  -0.734  0.00  0.00     0.078 C 
ATOM      3  C1  OXE d   1       1.821  -2.054   0.580  0.00  0.00    -0.078 A 
ATOM      4  C2  OXE d   1       1.818  -3.134   1.429  0.00  0.00    -0.078 A 
ATOM      5  C3  OXE d   1       1.210  -3.028   2.677  0.00  0.00     0.003 A 
ATOM      6  C4  OXE d   1       0.472  -1.886   3.011  0.00  0.00    -0.002 A 
ATOM      7  C5  OXE d   1       0.429  -0.789   2.144  0.00  0.00    -0.002 A 
ATOM      8  C6  OXE d   1       1.132  -0.841   0.945  0.00  0.00     0.003 A 
ENDROOT
TORSDOF 0
ENDMDL
