MODEL 1
REMARK minimizedAffinity 5.3047576
REMARK minimizedRMSD -1
REMARK  0 active torsions:
REMARK  status: ('A' for Active; 'I' for Inactive)
ROOT
ATOM      1  C2' OXE d   1       1.548  -2.016   1.369  0.00  0.00     0.078 C 
ATOM      2  C1' OXE d   1       4.222  -1.240   1.016  0.00  0.00     0.078 C 
ATOM      3  C1  OXE d   1       3.925  -2.715   1.119  0.00  0.00    -0.078 A 
ATOM      4  C2  OXE d   1       2.620  -3.083   1.339  0.00  0.00    -0.078 A 
ATOM      5  C3  OXE d   1       2.283  -4.433   1.387  0.00  0.00     0.003 A 
ATOM      6  C4  OXE d   1       3.282  -5.414   1.368  0.00  0.00    -0.002 A 
ATOM      7  C5  OXE d   1       4.623  -5.058   1.185  0.00  0.00    -0.002 A 
ATOM      8  C6  OXE d   1       4.956  -3.719   1.017  0.00  0.00     0.003 A 
ENDROOT
TORSDOF 0
ENDMDL
