MODEL 1
REMARK minimizedAffinity 4.1219964
REMARK minimizedRMSD -1
REMARK  0 active torsions:
REMARK  status: ('A' for Active; 'I' for Inactive)
ROOT
ATOM      1  C2' OXE d   1       2.985  -1.875  -0.213  0.00  0.00     0.078 C 
ATOM      2  C1' OXE d   1       1.940  -4.336   0.644  0.00  0.00     0.078 C 
ATOM      3  C1  OXE d   1       1.377  -3.079   1.260  0.00  0.00    -0.078 A 
ATOM      4  C2  OXE d   1       1.926  -1.882   0.869  0.00  0.00    -0.078 A 
ATOM      5  C3  OXE d   1       1.407  -0.690   1.365  0.00  0.00     0.003 A 
ATOM      6  C4  OXE d   1       0.435  -0.706   2.372  0.00  0.00    -0.002 A 
ATOM      7  C5  OXE d   1      -0.111  -1.916   2.814  0.00  0.00    -0.002 A 
ATOM      8  C6  OXE d   1       0.318  -3.107   2.238  0.00  0.00     0.003 A 
ENDROOT
TORSDOF 0
ENDMDL
