MODEL 1
REMARK minimizedAffinity 8.13602257
REMARK minimizedRMSD -1
REMARK  0 active torsions:
REMARK  status: ('A' for Active; 'I' for Inactive)
ROOT
ATOM      1  C2' OXE d   1      -3.068  -1.170   0.468  0.00  0.00     0.078 C 
ATOM      2  C1' OXE d   1      -3.202   0.686   2.570  0.00  0.00     0.078 C 
ATOM      3  C1  OXE d   1      -1.941  -0.130   2.431  0.00  0.00    -0.078 A 
ATOM      4  C2  OXE d   1      -1.902  -1.068   1.428  0.00  0.00    -0.078 A 
ATOM      5  C3  OXE d   1      -0.742  -1.809   1.222  0.00  0.00     0.003 A 
ATOM      6  C4  OXE d   1       0.328  -1.716   2.120  0.00  0.00    -0.002 A 
ATOM      7  C5  OXE d   1       0.293  -0.795   3.172  0.00  0.00    -0.002 A 
ATOM      8  C6  OXE d   1      -0.814   0.034   3.316  0.00  0.00     0.003 A 
ENDROOT
TORSDOF 0
ENDMDL
