MODEL 1
REMARK minimizedAffinity 5.39689255
REMARK minimizedRMSD -1
REMARK  0 active torsions:
REMARK  status: ('A' for Active; 'I' for Inactive)
ROOT
ATOM      1  C2' OXE d   1      -1.217   1.704  -3.246  0.00  0.00     0.078 C 
ATOM      2  C1' OXE d   1      -0.554   1.212  -5.929  0.00  0.00     0.078 C 
ATOM      3  C1  OXE d   1       0.269   2.227  -5.176  0.00  0.00    -0.078 A 
ATOM      4  C2  OXE d   1      -0.092   2.496  -3.878  0.00  0.00    -0.078 A 
ATOM      5  C3  OXE d   1       0.667   3.384  -3.120  0.00  0.00     0.003 A 
ATOM      6  C4  OXE d   1       1.699   4.119  -3.715  0.00  0.00    -0.002 A 
ATOM      7  C5  OXE d   1       2.058   3.890  -5.048  0.00  0.00    -0.002 A 
ATOM      8  C6  OXE d   1       1.382   2.919  -5.778  0.00  0.00     0.003 A 
ENDROOT
TORSDOF 0
ENDMDL
