MODEL 1
REMARK minimizedAffinity 13.1374044
REMARK minimizedRMSD -1
REMARK  0 active torsions:
REMARK  status: ('A' for Active; 'I' for Inactive)
ROOT
ATOM      1  C2' OXE d   1      -3.059  -0.428  -1.798  0.00  0.00     0.078 C 
ATOM      2  C1' OXE d   1      -0.256  -0.300  -1.696  0.00  0.00     0.078 C 
ATOM      3  C1  OXE d   1      -1.007   0.966  -2.026  0.00  0.00    -0.078 A 
ATOM      4  C2  OXE d   1      -2.375   0.884  -2.120  0.00  0.00    -0.078 A 
ATOM      5  C3  OXE d   1      -3.120   2.034  -2.367  0.00  0.00     0.003 A 
ATOM      6  C4  OXE d   1      -2.479   3.241  -2.673  0.00  0.00    -0.002 A 
ATOM      7  C5  OXE d   1      -1.085   3.337  -2.622  0.00  0.00    -0.002 A 
ATOM      8  C6  OXE d   1      -0.337   2.222  -2.259  0.00  0.00     0.003 A 
ENDROOT
TORSDOF 0
ENDMDL
