MODEL 1
REMARK minimizedAffinity -2.46699715
REMARK minimizedRMSD -1
REMARK  1 active torsions:
REMARK  status: ('A' for Active; 'I' for Inactive)
REMARK    1  A    between atoms: C1_2  and  C2_3 
ROOT
ATOM      1  C2  UNL d   1       0.848  -0.262  -2.463  0.00  0.00    -0.073 A 
ATOM      2  C3  UNL d   1       1.840   0.658  -2.823  0.00  0.00    -0.002 A 
ATOM      3  C4  UNL d   1       1.874   1.190  -4.112  0.00  0.00     0.004 A 
ATOM      4  C5  UNL d   1       0.916   0.813  -5.053  0.00  0.00    -0.004 A 
ATOM      5  C6  UNL d   1      -0.090  -0.096  -4.710  0.00  0.00    -0.075 A 
ATOM      6  C7  UNL d   1      -1.128  -0.513  -5.710  0.00  0.00     0.076 C 
ATOM      7  C8  UNL d   1      -0.117  -0.627  -3.413  0.00  0.00     0.001 A 
ENDROOT
BRANCH   1   8
ATOM      8  C1  UNL d   1       0.803  -0.834  -1.070  0.00  0.00     0.053 C 
ATOM      9  C   UNL d   1       0.759   0.254  -0.009  0.00  0.00     0.018 C 
ENDBRANCH   1   8
TORSDOF 1
ENDMDL
