MODEL 1
REMARK minimizedAffinity -3.41072106
REMARK minimizedRMSD -1
REMARK  1 active torsions:
REMARK  status: ('A' for Active; 'I' for Inactive)
REMARK    1  A    between atoms: C1_2  and  C2_3 
ROOT
ATOM      1  C2  UNL d   1       0.079   0.030   0.128  0.00  0.00    -0.073 A 
ATOM      2  C3  UNL d   1       0.691   1.215   0.553  0.00  0.00    -0.002 A 
ATOM      3  C4  UNL d   1       0.328   1.800   1.767  0.00  0.00     0.004 A 
ATOM      4  C5  UNL d   1      -0.645   1.204   2.570  0.00  0.00    -0.004 A 
ATOM      5  C6  UNL d   1      -1.259   0.014   2.169  0.00  0.00    -0.075 A 
ATOM      6  C7  UNL d   1      -2.308  -0.639   3.020  0.00  0.00     0.076 C 
ATOM      7  C8  UNL d   1      -0.891  -0.566   0.947  0.00  0.00     0.001 A 
ENDROOT
BRANCH   1   8
ATOM      8  C1  UNL d   1       0.472  -0.609  -1.178  0.00  0.00     0.053 C 
ATOM      9  C   UNL d   1       0.422   0.379  -2.334  0.00  0.00     0.018 C 
ENDBRANCH   1   8
TORSDOF 1
ENDMDL
