MODEL 1
REMARK minimizedAffinity -2.81787181
REMARK minimizedRMSD -1
REMARK  1 active torsions:
REMARK  status: ('A' for Active; 'I' for Inactive)
REMARK    1  A    between atoms: C1_2  and  C2_3 
ROOT
ATOM      1  C2  UNL d   1       1.243   0.182  -1.736  0.00  0.00    -0.073 A 
ATOM      2  C3  UNL d   1       2.361   0.875  -2.212  0.00  0.00    -0.002 A 
ATOM      3  C4  UNL d   1       2.393   1.345  -3.526  0.00  0.00     0.004 A 
ATOM      4  C5  UNL d   1       1.305   1.133  -4.373  0.00  0.00    -0.004 A 
ATOM      5  C6  UNL d   1       0.174   0.453  -3.912  0.00  0.00    -0.075 A 
ATOM      6  C7  UNL d   1      -1.004   0.215  -4.812  0.00  0.00     0.076 C 
ATOM      7  C8  UNL d   1       0.151  -0.018  -2.592  0.00  0.00     0.001 A 
ENDROOT
BRANCH   1   8
ATOM      8  C1  UNL d   1       1.202  -0.322  -0.316  0.00  0.00     0.053 C 
ATOM      9  C   UNL d   1       0.079   0.318   0.484  0.00  0.00     0.018 C 
ENDBRANCH   1   8
TORSDOF 1
ENDMDL
