MODEL 1
REMARK minimizedAffinity -0.0967057273
REMARK minimizedRMSD -1
REMARK  1 active torsions:
REMARK  status: ('A' for Active; 'I' for Inactive)
REMARK    1  A    between atoms: C1_2  and  C2_3 
ROOT
ATOM      1  C2  UNL d   1       1.129  -0.120   0.846  0.00  0.00    -0.073 A 
ATOM      2  C3  UNL d   1       0.217  -0.360  -0.189  0.00  0.00    -0.002 A 
ATOM      3  C4  UNL d   1      -1.109   0.058  -0.070  0.00  0.00     0.004 A 
ATOM      4  C5  UNL d   1      -1.535   0.725   1.079  0.00  0.00    -0.004 A 
ATOM      5  C6  UNL d   1      -0.635   0.984   2.118  0.00  0.00    -0.075 A 
ATOM      6  C7  UNL d   1      -1.078   1.698   3.361  0.00  0.00     0.076 C 
ATOM      7  C8  UNL d   1       0.694   0.559   1.993  0.00  0.00     0.001 A 
ENDROOT
BRANCH   1   8
ATOM      8  C1  UNL d   1       2.564  -0.564   0.719  0.00  0.00     0.053 C 
ATOM      9  C   UNL d   1       3.307  -0.472   2.042  0.00  0.00     0.018 C 
ENDBRANCH   1   8
TORSDOF 1
ENDMDL
