MODEL 1
REMARK minimizedAffinity -4.26027203
REMARK minimizedRMSD -1
REMARK  1 active torsions:
REMARK  status: ('A' for Active; 'I' for Inactive)
REMARK    1  A    between atoms: C1_2  and  C2_3 
ROOT
ATOM      1  C2  UNL d   1       0.494   0.026  -2.034  0.00  0.00    -0.073 A 
ATOM      2  C3  UNL d   1       1.619   0.792  -2.362  0.00  0.00    -0.002 A 
ATOM      3  C4  UNL d   1       1.845   1.181  -3.683  0.00  0.00     0.004 A 
ATOM      4  C5  UNL d   1       0.947   0.816  -4.686  0.00  0.00    -0.004 A 
ATOM      5  C6  UNL d   1      -0.189   0.061  -4.376  0.00  0.00    -0.075 A 
ATOM      6  C7  UNL d   1      -1.163  -0.341  -5.444  0.00  0.00     0.076 C 
ATOM      7  C8  UNL d   1      -0.407  -0.328  -3.048  0.00  0.00     0.001 A 
ENDROOT
BRANCH   1   8
ATOM      8  C1  UNL d   1       0.242  -0.391  -0.608  0.00  0.00     0.053 C 
ATOM      9  C   UNL d   1      -0.231   0.771   0.251  0.00  0.00     0.018 C 
ENDBRANCH   1   8
TORSDOF 1
ENDMDL
