MODEL 1
REMARK minimizedAffinity -1.29856694
REMARK minimizedRMSD -1
REMARK  0 active torsions:
REMARK  status: ('A' for Active; 'I' for Inactive)
ROOT
ATOM      1  C   UNL d   1       0.608  -0.690  -0.809  0.00  0.00     0.172 C 
ATOM      2  N   UNL d   1       0.300  -2.028  -1.255  0.00  0.00    -0.070 N 
ATOM      3  C1  UNL d   1      -0.679  -2.365  -2.152  0.00  0.00    -0.004 A 
ATOM      4  C2  UNL d   1      -0.653  -3.733  -2.311  0.00  0.00    -0.047 A 
ATOM      5  C3  UNL d   1       0.377  -4.237  -1.481  0.00  0.00    -0.047 A 
ATOM      6  C4  UNL d   1       0.950  -3.159  -0.839  0.00  0.00    -0.004 A 
ENDROOT
TORSDOF 0
ENDMDL
