MODEL 1
REMARK minimizedAffinity -1.00492537
REMARK minimizedRMSD -1
REMARK  0 active torsions:
REMARK  status: ('A' for Active; 'I' for Inactive)
ROOT
ATOM      1  C   UNL d   1       0.200  -1.243  -0.364  0.00  0.00     0.172 C 
ATOM      2  N   UNL d   1       0.196   0.042   0.294  0.00  0.00    -0.070 N 
ATOM      3  C1  UNL d   1      -0.113   1.240  -0.294  0.00  0.00    -0.004 A 
ATOM      4  C2  UNL d   1      -0.001   2.222   0.666  0.00  0.00    -0.047 A 
ATOM      5  C3  UNL d   1       0.389   1.594   1.872  0.00  0.00    -0.047 A 
ATOM      6  C4  UNL d   1       0.504   0.244   1.614  0.00  0.00    -0.004 A 
ENDROOT
TORSDOF 0
ENDMDL
