MODEL 1
REMARK minimizedAffinity -2.50198793
REMARK minimizedRMSD -1
REMARK  0 active torsions:
REMARK  status: ('A' for Active; 'I' for Inactive)
ROOT
ATOM      1  C   UNL d   1       0.420  -0.463  -0.787  0.00  0.00     0.172 C 
ATOM      2  N   UNL d   1       0.347  -1.904  -0.856  0.00  0.00    -0.070 N 
ATOM      3  C1  UNL d   1       1.417  -2.757  -0.898  0.00  0.00    -0.004 A 
ATOM      4  C2  UNL d   1       0.930  -4.044  -0.959  0.00  0.00    -0.047 A 
ATOM      5  C3  UNL d   1      -0.483  -3.962  -0.955  0.00  0.00    -0.047 A 
ATOM      6  C4  UNL d   1      -0.817  -2.626  -0.890  0.00  0.00    -0.004 A 
ENDROOT
TORSDOF 0
ENDMDL
