MODEL 1
REMARK minimizedAffinity -2.30949855
REMARK minimizedRMSD -1
REMARK  0 active torsions:
REMARK  status: ('A' for Active; 'I' for Inactive)
ROOT
ATOM      1  C   UNL d   1       0.399  -2.242  -1.119  0.00  0.00     0.172 C 
ATOM      2  N   UNL d   1       0.419  -1.069  -0.277  0.00  0.00    -0.070 N 
ATOM      3  C1  UNL d   1       0.702   0.205  -0.690  0.00  0.00    -0.004 A 
ATOM      4  C2  UNL d   1       0.618   1.033   0.409  0.00  0.00    -0.047 A 
ATOM      5  C3  UNL d   1       0.273   0.228   1.521  0.00  0.00    -0.047 A 
ATOM      6  C4  UNL d   1       0.157  -1.069   1.068  0.00  0.00    -0.004 A 
ENDROOT
TORSDOF 0
ENDMDL
