MODEL 1
REMARK minimizedAffinity -3.76290989
REMARK minimizedRMSD -1
REMARK  0 active torsions:
REMARK  status: ('A' for Active; 'I' for Inactive)
ROOT
ATOM      1  C   UNL d   1       0.354  -0.561  -0.658  0.00  0.00     0.172 C 
ATOM      2  N   UNL d   1      -0.157   0.387   0.304  0.00  0.00    -0.070 N 
ATOM      3  C1  UNL d   1      -0.028   0.292   1.664  0.00  0.00    -0.004 A 
ATOM      4  C2  UNL d   1      -0.648   1.388   2.224  0.00  0.00    -0.047 A 
ATOM      5  C3  UNL d   1      -1.169   2.168   1.165  0.00  0.00    -0.047 A 
ATOM      6  C4  UNL d   1      -0.851   1.525  -0.013  0.00  0.00    -0.004 A 
ENDROOT
TORSDOF 0
ENDMDL
