MODEL 1
REMARK minimizedAffinity -2.41677904
REMARK minimizedRMSD -1
REMARK  0 active torsions:
REMARK  status: ('A' for Active; 'I' for Inactive)
ROOT
ATOM      1  C   UNL d   1      -0.212  -3.601  -1.805  0.00  0.00     0.172 C 
ATOM      2  N   UNL d   1      -0.061  -2.378  -1.051  0.00  0.00    -0.070 N 
ATOM      3  C1  UNL d   1      -0.967  -1.876  -0.155  0.00  0.00    -0.004 A 
ATOM      4  C2  UNL d   1      -0.455  -0.700   0.349  0.00  0.00    -0.047 A 
ATOM      5  C3  UNL d   1       0.802  -0.488  -0.266  0.00  0.00    -0.047 A 
ATOM      6  C4  UNL d   1       1.021  -1.542  -1.127  0.00  0.00    -0.004 A 
ENDROOT
TORSDOF 0
ENDMDL
