MODEL 1
REMARK minimizedAffinity -2.76660752
REMARK minimizedRMSD -1
REMARK  0 active torsions:
REMARK  status: ('A' for Active; 'I' for Inactive)
ROOT
ATOM      1  C   UNL d   1      -0.626   3.762  -1.287  0.00  0.00     0.172 C 
ATOM      2  N   UNL d   1      -0.457   2.950  -0.105  0.00  0.00    -0.070 N 
ATOM      3  C1  UNL d   1      -0.536   3.395   1.187  0.00  0.00    -0.004 A 
ATOM      4  C2  UNL d   1      -0.318   2.318   2.019  0.00  0.00    -0.047 A 
ATOM      5  C3  UNL d   1      -0.098   1.187   1.198  0.00  0.00    -0.047 A 
ATOM      6  C4  UNL d   1      -0.189   1.606  -0.112  0.00  0.00    -0.004 A 
ENDROOT
TORSDOF 0
ENDMDL
