MODEL 1
REMARK minimizedAffinity -0.604975641
REMARK minimizedRMSD -1
REMARK  0 active torsions:
REMARK  status: ('A' for Active; 'I' for Inactive)
ROOT
ATOM      1  C   UNL d   1       0.084   1.068  -1.826  0.00  0.00     0.172 C 
ATOM      2  N   UNL d   1       0.290   0.826  -0.417  0.00  0.00    -0.070 N 
ATOM      3  C1  UNL d   1       0.797  -0.322   0.130  0.00  0.00    -0.004 A 
ATOM      4  C2  UNL d   1       0.835  -0.156   1.498  0.00  0.00    -0.047 A 
ATOM      5  C3  UNL d   1       0.333   1.136   1.782  0.00  0.00    -0.047 A 
ATOM      6  C4  UNL d   1       0.003   1.722   0.579  0.00  0.00    -0.004 A 
ENDROOT
TORSDOF 0
ENDMDL
