MODEL 1
REMARK minimizedAffinity -0.65024811
REMARK minimizedRMSD -1
REMARK  0 active torsions:
REMARK  status: ('A' for Active; 'I' for Inactive)
ROOT
ATOM      1  C   UNL d   1       0.486  -0.508  -0.803  0.00  0.00     0.172 C 
ATOM      2  N   UNL d   1       0.223  -0.120   0.563  0.00  0.00    -0.070 N 
ATOM      3  C1  UNL d   1       0.105  -0.975   1.627  0.00  0.00    -0.004 A 
ATOM      4  C2  UNL d   1      -0.143  -0.218   2.751  0.00  0.00    -0.047 A 
ATOM      5  C3  UNL d   1      -0.176   1.139   2.349  0.00  0.00    -0.047 A 
ATOM      6  C4  UNL d   1       0.054   1.170   0.990  0.00  0.00    -0.004 A 
ENDROOT
TORSDOF 0
ENDMDL
