MODEL 1
REMARK minimizedAffinity -3.50094104
REMARK minimizedRMSD -1
REMARK  0 active torsions:
REMARK  status: ('A' for Active; 'I' for Inactive)
ROOT
ATOM      1  C   UNL d   1       0.335  -0.389   0.078  0.00  0.00     0.172 C 
ATOM      2  N   UNL d   1       0.105  -1.491  -0.826  0.00  0.00    -0.070 N 
ATOM      3  C1  UNL d   1       0.767  -1.708  -2.005  0.00  0.00    -0.004 A 
ATOM      4  C2  UNL d   1       0.259  -2.858  -2.569  0.00  0.00    -0.047 A 
ATOM      5  C3  UNL d   1      -0.743  -3.350  -1.699  0.00  0.00    -0.047 A 
ATOM      6  C4  UNL d   1      -0.817  -2.485  -0.628  0.00  0.00    -0.004 A 
ENDROOT
TORSDOF 0
ENDMDL
