MODEL 1
REMARK minimizedAffinity -5.70253372
REMARK minimizedRMSD -1
REMARK  1 active torsions:
REMARK  status: ('A' for Active; 'I' for Inactive)
REMARK    1  A    between atoms: C1_2  and  C2_3 
ROOT
ATOM      1  C2  UNL d   1      -0.312   0.342  -0.119  0.00  0.00    -0.073 A 
ATOM      2  C3  UNL d   1      -1.072  -0.419   0.776  0.00  0.00    -0.002 A 
ATOM      3  C4  UNL d   1      -0.497  -1.500   1.446  0.00  0.00     0.004 A 
ATOM      4  C5  UNL d   1       0.842  -1.827   1.233  0.00  0.00    -0.004 A 
ATOM      5  C6  UNL d   1       1.621  -1.071   0.351  0.00  0.00    -0.075 A 
ATOM      6  C7  UNL d   1       3.062  -1.411   0.109  0.00  0.00     0.076 C 
ATOM      7  C8  UNL d   1       1.036   0.012  -0.320  0.00  0.00     0.001 A 
ENDROOT
BRANCH   1   8
ATOM      8  C1  UNL d   1      -0.926   1.514  -0.840  0.00  0.00     0.053 C 
ATOM      9  C   UNL d   1      -1.677   1.085  -2.091  0.00  0.00     0.018 C 
ENDBRANCH   1   8
TORSDOF 1
ENDMDL
