MODEL 1
REMARK minimizedAffinity -2.68866611
REMARK minimizedRMSD -1
REMARK  1 active torsions:
REMARK  status: ('A' for Active; 'I' for Inactive)
REMARK    1  A    between atoms: C1_2  and  C2_3 
ROOT
ATOM      1  C2  UNL d   1      -0.517   0.393  -0.942  0.00  0.00    -0.073 A 
ATOM      2  C3  UNL d   1       0.277   0.534  -2.087  0.00  0.00    -0.002 A 
ATOM      3  C4  UNL d   1      -0.288   0.966  -3.287  0.00  0.00     0.004 A 
ATOM      4  C5  UNL d   1      -1.648   1.268  -3.355  0.00  0.00    -0.004 A 
ATOM      5  C6  UNL d   1      -2.455   1.145  -2.219  0.00  0.00    -0.075 A 
ATOM      6  C7  UNL d   1      -3.920   1.463  -2.276  0.00  0.00     0.076 C 
ATOM      7  C8  UNL d   1      -1.881   0.707  -1.018  0.00  0.00     0.001 A 
ENDROOT
BRANCH   1   8
ATOM      8  C1  UNL d   1       0.090  -0.067   0.358  0.00  0.00     0.053 C 
ATOM      9  C   UNL d   1       1.500  -0.605   0.170  0.00  0.00     0.018 C 
ENDBRANCH   1   8
TORSDOF 1
ENDMDL
