MODEL 1
REMARK minimizedAffinity -5.87049294
REMARK minimizedRMSD -1
REMARK  1 active torsions:
REMARK  status: ('A' for Active; 'I' for Inactive)
REMARK    1  A    between atoms: C1_2  and  C2_3 
ROOT
ATOM      1  C2  UNL d   1       0.487  -1.072   1.331  0.00  0.00    -0.073 A 
ATOM      2  C3  UNL d   1       1.416  -0.749   0.335  0.00  0.00    -0.002 A 
ATOM      3  C4  UNL d   1       1.270   0.420  -0.413  0.00  0.00     0.004 A 
ATOM      4  C5  UNL d   1       0.199   1.280  -0.169  0.00  0.00    -0.004 A 
ATOM      5  C6  UNL d   1      -0.733   0.980   0.830  0.00  0.00    -0.075 A 
ATOM      6  C7  UNL d   1      -1.892   1.894   1.103  0.00  0.00     0.076 C 
ATOM      7  C8  UNL d   1      -0.580  -0.197   1.575  0.00  0.00     0.001 A 
ENDROOT
BRANCH   1   8
ATOM      8  C1  UNL d   1       0.645  -2.330   2.146  0.00  0.00     0.053 C 
ATOM      9  C   UNL d   1       1.960  -3.036   1.855  0.00  0.00     0.018 C 
ENDBRANCH   1   8
TORSDOF 1
ENDMDL
