MODEL 1
REMARK minimizedAffinity -5.1248641
REMARK minimizedRMSD -1
REMARK  1 active torsions:
REMARK  status: ('A' for Active; 'I' for Inactive)
REMARK    1  A    between atoms: C1_2  and  C2_3 
ROOT
ATOM      1  C2  UNL d   1      -0.633   0.129  -0.227  0.00  0.00    -0.073 A 
ATOM      2  C3  UNL d   1      -1.370  -0.612   0.704  0.00  0.00    -0.002 A 
ATOM      3  C4  UNL d   1      -0.740  -1.569   1.500  0.00  0.00     0.004 A 
ATOM      4  C5  UNL d   1       0.632  -1.791   1.379  0.00  0.00    -0.004 A 
ATOM      5  C6  UNL d   1       1.387  -1.052   0.463  0.00  0.00    -0.075 A 
ATOM      6  C7  UNL d   1       2.863  -1.280   0.318  0.00  0.00     0.076 C 
ATOM      7  C8  UNL d   1       0.747  -0.094  -0.335  0.00  0.00     0.001 A 
ENDROOT
BRANCH   1   8
ATOM      8  C1  UNL d   1      -1.308   1.169  -1.084  0.00  0.00     0.053 C 
ATOM      9  C   UNL d   1      -2.316   0.553  -2.041  0.00  0.00     0.018 C 
ENDBRANCH   1   8
TORSDOF 1
ENDMDL
