MODEL 1
REMARK minimizedAffinity -2.60049105
REMARK minimizedRMSD -1
REMARK  1 active torsions:
REMARK  status: ('A' for Active; 'I' for Inactive)
REMARK    1  A    between atoms: C1_2  and  C2_3 
ROOT
ATOM      1  C2  UNL d   1       1.016  -0.648   0.746  0.00  0.00    -0.073 A 
ATOM      2  C3  UNL d   1       0.169  -0.696   1.858  0.00  0.00    -0.002 A 
ATOM      3  C4  UNL d   1      -1.042  -0.002   1.852  0.00  0.00     0.004 A 
ATOM      4  C5  UNL d   1      -1.421   0.739   0.733  0.00  0.00    -0.004 A 
ATOM      5  C6  UNL d   1      -0.594   0.789  -0.393  0.00  0.00    -0.075 A 
ATOM      6  C7  UNL d   1      -0.986   1.583  -1.604  0.00  0.00     0.076 C 
ATOM      7  C8  UNL d   1       0.622   0.092  -0.378  0.00  0.00     0.001 A 
ENDROOT
BRANCH   1   8
ATOM      8  C1  UNL d   1       2.322  -1.400   0.745  0.00  0.00     0.053 C 
ATOM      9  C   UNL d   1       2.112  -2.906   0.699  0.00  0.00     0.018 C 
ENDBRANCH   1   8
TORSDOF 1
ENDMDL
