MODEL 1
REMARK minimizedAffinity -5.69670582
REMARK minimizedRMSD -1
REMARK  1 active torsions:
REMARK  status: ('A' for Active; 'I' for Inactive)
REMARK    1  A    between atoms: C1_2  and  C2_3 
ROOT
ATOM      1  C2  UNL d   1       0.128  -0.228   0.382  0.00  0.00    -0.073 A 
ATOM      2  C3  UNL d   1       0.476  -1.374   1.104  0.00  0.00    -0.002 A 
ATOM      3  C4  UNL d   1       1.763  -1.905   1.007  0.00  0.00     0.004 A 
ATOM      4  C5  UNL d   1       2.715  -1.292   0.192  0.00  0.00    -0.004 A 
ATOM      5  C6  UNL d   1       2.390  -0.139  -0.529  0.00  0.00    -0.075 A 
ATOM      6  C7  UNL d   1       3.402   0.531  -1.411  0.00  0.00     0.076 C 
ATOM      7  C8  UNL d   1       1.094   0.386  -0.427  0.00  0.00     0.001 A 
ENDROOT
BRANCH   1   8
ATOM      8  C1  UNL d   1      -1.259   0.353   0.489  0.00  0.00     0.053 C 
ATOM      9  C   UNL d   1      -1.779   0.325   1.917  0.00  0.00     0.018 C 
ENDBRANCH   1   8
TORSDOF 1
ENDMDL
