MODEL 1
REMARK minimizedAffinity -4.80287075
REMARK minimizedRMSD -1
REMARK  1 active torsions:
REMARK  status: ('A' for Active; 'I' for Inactive)
REMARK    1  A    between atoms: C1_2  and  C2_3 
ROOT
ATOM      1  C2  UNL d   1       0.003   0.060   0.223  0.00  0.00    -0.073 A 
ATOM      2  C3  UNL d   1      -0.597  -1.039   0.847  0.00  0.00    -0.002 A 
ATOM      3  C4  UNL d   1       0.154  -2.179   1.141  0.00  0.00     0.004 A 
ATOM      4  C5  UNL d   1       1.510  -2.228   0.820  0.00  0.00    -0.004 A 
ATOM      5  C6  UNL d   1       2.130  -1.135   0.206  0.00  0.00    -0.075 A 
ATOM      6  C7  UNL d   1       3.588  -1.173  -0.148  0.00  0.00     0.076 C 
ATOM      7  C8  UNL d   1       1.369   0.005  -0.088  0.00  0.00     0.001 A 
ENDROOT
BRANCH   1   8
ATOM      8  C1  UNL d   1      -0.802   1.295  -0.090  0.00  0.00     0.053 C 
ATOM      9  C   UNL d   1      -1.437   1.227  -1.470  0.00  0.00     0.018 C 
ENDBRANCH   1   8
TORSDOF 1
ENDMDL
