MODEL 1
REMARK minimizedAffinity 9.44061375
REMARK minimizedRMSD -1
REMARK  0 active torsions:
REMARK  status: ('A' for Active; 'I' for Inactive)
ROOT
ATOM      1  C   UNL d   1       0.284  -2.905   5.111  0.00  0.00     0.023 A 
ATOM      2  C1  UNL d   1       0.531  -4.275   5.200  0.00  0.00     0.003 A 
ATOM      3  C2  UNL d   1       1.001  -4.975   4.086  0.00  0.00     0.048 A 
ATOM      4  C3  UNL d   1       1.224  -4.298   2.888  0.00  0.00     0.023 A 
ATOM      5  C4  UNL d   1       0.980  -2.926   2.795  0.00  0.00     0.048 A 
ATOM      6  C5  UNL d   1       0.509  -2.232   3.911  0.00  0.00     0.003 A 
ATOM      7  I   UNL d   1       1.924  -5.336   1.229  0.00  0.00    -0.146 I 
ENDROOT
TORSDOF 0
ENDMDL
