MODEL 1
REMARK minimizedAffinity 8.99322128
REMARK minimizedRMSD -1
REMARK  0 active torsions:
REMARK  status: ('A' for Active; 'I' for Inactive)
ROOT
ATOM      1  C   UNL d   1       3.121  -0.042  -0.578  0.00  0.00     0.023 A 
ATOM      2  C1  UNL d   1       3.286   0.942   0.396  0.00  0.00     0.003 A 
ATOM      3  C2  UNL d   1       3.137   2.290   0.061  0.00  0.00     0.048 A 
ATOM      4  C3  UNL d   1       2.821   2.646  -1.250  0.00  0.00     0.023 A 
ATOM      5  C4  UNL d   1       2.654   1.664  -2.228  0.00  0.00     0.048 A 
ATOM      6  C5  UNL d   1       2.805   0.318  -1.888  0.00  0.00     0.003 A 
ATOM      7  I   UNL d   1       2.599   4.650  -1.751  0.00  0.00    -0.146 I 
ENDROOT
TORSDOF 0
ENDMDL
