MODEL 1
REMARK minimizedAffinity 2.04104042
REMARK minimizedRMSD -1
REMARK  0 active torsions:
REMARK  status: ('A' for Active; 'I' for Inactive)
ROOT
ATOM      1  C4' PXY d   1      -5.999   0.632  -5.605  0.00  0.00     0.077 C 
ATOM      2  C1' PXY d   1      -5.874   5.554  -2.577  0.00  0.00     0.077 C 
ATOM      3  C1  PXY d   1      -5.902   4.257  -3.361  0.00  0.00    -0.082 A 
ATOM      4  C2  PXY d   1      -5.861   4.290  -4.683  0.00  0.00     0.003 A 
ATOM      5  C3  PXY d   1      -5.917   3.128  -5.408  0.00  0.00     0.003 A 
ATOM      6  C4  PXY d   1      -5.964   1.916  -4.773  0.00  0.00    -0.082 A 
ATOM      7  C5  PXY d   1      -5.996   1.873  -3.424  0.00  0.00     0.003 A 
ATOM      8  C6  PXY d   1      -5.979   3.066  -2.707  0.00  0.00     0.003 A 
ENDROOT
TORSDOF 0
ENDMDL
