MODEL 1
REMARK minimizedAffinity -0.104883134
REMARK minimizedRMSD -1
REMARK  0 active torsions:
REMARK  status: ('A' for Active; 'I' for Inactive)
ROOT
ATOM      1  C4' PXY d   1      -0.016   5.013  -0.627  0.00  0.00     0.077 C 
ATOM      2  C1' PXY d   1      -1.382  -0.480  -1.802  0.00  0.00     0.077 C 
ATOM      3  C1  PXY d   1      -1.022   0.957  -1.481  0.00  0.00    -0.082 A 
ATOM      4  C2  PXY d   1      -1.488   1.934  -2.242  0.00  0.00     0.003 A 
ATOM      5  C3  PXY d   1      -1.146   3.237  -1.986  0.00  0.00     0.003 A 
ATOM      6  C4  PXY d   1      -0.362   3.548  -0.908  0.00  0.00    -0.082 A 
ATOM      7  C5  PXY d   1       0.109   2.558  -0.120  0.00  0.00     0.003 A 
ATOM      8  C6  PXY d   1      -0.216   1.239  -0.422  0.00  0.00     0.003 A 
ENDROOT
TORSDOF 0
ENDMDL
