MODEL 1
REMARK minimizedAffinity 7.68797207
REMARK minimizedRMSD -1
REMARK  0 active torsions:
REMARK  status: ('A' for Active; 'I' for Inactive)
ROOT
ATOM      1  C4' PXY d   1       0.511   2.635   1.659  0.00  0.00     0.077 C 
ATOM      2  C1' PXY d   1      -1.490   6.000  -2.594  0.00  0.00     0.077 C 
ATOM      3  C1  PXY d   1      -0.962   5.109  -1.488  0.00  0.00    -0.082 A 
ATOM      4  C2  PXY d   1      -1.445   5.231  -0.262  0.00  0.00     0.003 A 
ATOM      5  C3  PXY d   1      -0.956   4.455   0.757  0.00  0.00     0.003 A 
ATOM      6  C4  PXY d   1       0.000   3.507   0.509  0.00  0.00    -0.082 A 
ATOM      7  C5  PXY d   1       0.491   3.369  -0.741  0.00  0.00     0.003 A 
ATOM      8  C6  PXY d   1       0.011   4.195  -1.753  0.00  0.00     0.003 A 
ENDROOT
TORSDOF 0
ENDMDL
