MODEL 1
REMARK minimizedAffinity -0.269767553
REMARK minimizedRMSD -1
REMARK  0 active torsions:
REMARK  status: ('A' for Active; 'I' for Inactive)
ROOT
ATOM      1  C4' PXY d   1      -0.958   0.046  -2.456  0.00  0.00     0.077 C 
ATOM      2  C1' PXY d   1      -1.194   5.396  -0.278  0.00  0.00     0.077 C 
ATOM      3  C1  PXY d   1      -1.145   3.992  -0.848  0.00  0.00    -0.082 A 
ATOM      4  C2  PXY d   1      -0.035   3.280  -0.740  0.00  0.00     0.003 A 
ATOM      5  C3  PXY d   1       0.037   2.021  -1.278  0.00  0.00     0.003 A 
ATOM      6  C4  PXY d   1      -1.056   1.464  -1.886  0.00  0.00    -0.082 A 
ATOM      7  C5  PXY d   1      -2.196   2.180  -1.992  0.00  0.00     0.003 A 
ATOM      8  C6  PXY d   1      -2.235   3.472  -1.475  0.00  0.00     0.003 A 
ENDROOT
TORSDOF 0
ENDMDL
