MODEL 1
REMARK minimizedAffinity 3.46607399
REMARK minimizedRMSD -1
REMARK  0 active torsions:
REMARK  status: ('A' for Active; 'I' for Inactive)
ROOT
ATOM      1  C4' PXY d   1      -1.898   5.269  -2.245  0.00  0.00     0.077 C 
ATOM      2  C1' PXY d   1       0.967   2.321   1.819  0.00  0.00     0.077 C 
ATOM      3  C1  PXY d   1       0.226   3.101   0.750  0.00  0.00    -0.082 A 
ATOM      4  C2  PXY d   1      -1.078   3.292   0.864  0.00  0.00     0.003 A 
ATOM      5  C3  PXY d   1      -1.768   3.966  -0.109  0.00  0.00     0.003 A 
ATOM      6  C4  PXY d   1      -1.108   4.497  -1.185  0.00  0.00    -0.082 A 
ATOM      7  C5  PXY d   1       0.224   4.315  -1.304  0.00  0.00     0.003 A 
ATOM      8  C6  PXY d   1       0.900   3.592  -0.326  0.00  0.00     0.003 A 
ENDROOT
TORSDOF 0
ENDMDL
