MODEL 1
REMARK minimizedAffinity 3.41580391
REMARK minimizedRMSD -1
REMARK  0 active torsions:
REMARK  status: ('A' for Active; 'I' for Inactive)
ROOT
ATOM      1  C4' PXY d   1       2.546   2.528   3.309  0.00  0.00     0.077 C 
ATOM      2  C1' PXY d   1      -0.282   3.918  -1.537  0.00  0.00     0.077 C 
ATOM      3  C1  PXY d   1       0.448   3.551  -0.260  0.00  0.00    -0.082 A 
ATOM      4  C2  PXY d   1       1.679   3.993  -0.061  0.00  0.00     0.003 A 
ATOM      5  C3  PXY d   1       2.366   3.645   1.073  0.00  0.00     0.003 A 
ATOM      6  C4  PXY d   1       1.767   2.880   2.039  0.00  0.00    -0.082 A 
ATOM      7  C5  PXY d   1       0.507   2.435   1.848  0.00  0.00     0.003 A 
ATOM      8  C6  PXY d   1      -0.158   2.765   0.671  0.00  0.00     0.003 A 
ENDROOT
TORSDOF 0
ENDMDL
