MODEL 1
REMARK minimizedAffinity 2.4842422
REMARK minimizedRMSD -1
REMARK  0 active torsions:
REMARK  status: ('A' for Active; 'I' for Inactive)
ROOT
ATOM      1  C4' PXY d   1      -0.549   2.685   3.474  0.00  0.00     0.077 C 
ATOM      2  C1' PXY d   1      -0.633   4.596  -1.981  0.00  0.00     0.077 C 
ATOM      3  C1  PXY d   1      -0.604   4.105  -0.547  0.00  0.00    -0.082 A 
ATOM      4  C2  PXY d   1      -0.782   2.819  -0.292  0.00  0.00     0.003 A 
ATOM      5  C3  PXY d   1      -0.791   2.363   1.001  0.00  0.00     0.003 A 
ATOM      6  C4  PXY d   1      -0.561   3.224   2.041  0.00  0.00    -0.082 A 
ATOM      7  C5  PXY d   1      -0.367   4.536   1.788  0.00  0.00     0.003 A 
ATOM      8  C6  PXY d   1      -0.404   4.985   0.472  0.00  0.00     0.003 A 
ENDROOT
TORSDOF 0
ENDMDL
