MODEL 1
REMARK minimizedAffinity 2.59352899
REMARK minimizedRMSD -1
REMARK  0 active torsions:
REMARK  status: ('A' for Active; 'I' for Inactive)
ROOT
ATOM      1  C4' PXY d   1       2.225  -2.256   0.294  0.00  0.00     0.077 C 
ATOM      2  C1' PXY d   1      -2.080  -3.730  -3.270  0.00  0.00     0.077 C 
ATOM      3  C1  PXY d   1      -0.952  -3.331  -2.340  0.00  0.00    -0.082 A 
ATOM      4  C2  PXY d   1      -0.098  -4.249  -1.917  0.00  0.00     0.003 A 
ATOM      5  C3  PXY d   1       0.910  -3.912  -1.050  0.00  0.00     0.003 A 
ATOM      6  C4  PXY d   1       1.076  -2.612  -0.654  0.00  0.00    -0.082 A 
ATOM      7  C5  PXY d   1       0.216  -1.668  -1.090  0.00  0.00     0.003 A 
ATOM      8  C6  PXY d   1      -0.825  -2.038  -1.937  0.00  0.00     0.003 A 
ENDROOT
TORSDOF 0
ENDMDL
