MODEL 1
REMARK minimizedAffinity 2.11128116
REMARK minimizedRMSD -1
REMARK  0 active torsions:
REMARK  status: ('A' for Active; 'I' for Inactive)
ROOT
ATOM      1  C4' PXY d   1      -0.161   4.023   0.342  0.00  0.00     0.077 C 
ATOM      2  C1' PXY d   1       0.372  -0.006   4.453  0.00  0.00     0.077 C 
ATOM      3  C1  PXY d   1       0.220   1.046   3.373  0.00  0.00    -0.082 A 
ATOM      4  C2  PXY d   1       1.298   1.549   2.794  0.00  0.00     0.003 A 
ATOM      5  C3  PXY d   1       1.180   2.525   1.837  0.00  0.00     0.003 A 
ATOM      6  C4  PXY d   1      -0.056   2.951   1.431  0.00  0.00    -0.082 A 
ATOM      7  C5  PXY d   1      -1.161   2.435   2.010  0.00  0.00     0.003 A 
ATOM      8  C6  PXY d   1      -1.018   1.476   3.008  0.00  0.00     0.003 A 
ENDROOT
TORSDOF 0
ENDMDL
