MODEL 1
REMARK minimizedAffinity 2.06969047
REMARK minimizedRMSD -1
REMARK  0 active torsions:
REMARK  status: ('A' for Active; 'I' for Inactive)
ROOT
ATOM      1  C4' PXY d   1       0.157   2.134   3.203  0.00  0.00     0.077 C 
ATOM      2  C1' PXY d   1      -0.550   4.183  -2.155  0.00  0.00     0.077 C 
ATOM      3  C1  PXY d   1      -0.377   3.642  -0.750  0.00  0.00    -0.082 A 
ATOM      4  C2  PXY d   1       0.563   4.145   0.034  0.00  0.00     0.003 A 
ATOM      5  C3  PXY d   1       0.754   3.645   1.296  0.00  0.00     0.003 A 
ATOM      6  C4  PXY d   1      -0.060   2.657   1.780  0.00  0.00    -0.082 A 
ATOM      7  C5  PXY d   1      -1.029   2.146   0.991  0.00  0.00     0.003 A 
ATOM      8  C6  PXY d   1      -1.180   2.638  -0.302  0.00  0.00     0.003 A 
ENDROOT
TORSDOF 0
ENDMDL
