MODEL 1
REMARK minimizedAffinity -1.83185816
REMARK minimizedRMSD -1
REMARK  1 active torsions:
REMARK  status: ('A' for Active; 'I' for Inactive)
REMARK    1  A    between atoms: C1_2  and  C2_3 
ROOT
ATOM      1  C2  UNL d   1       1.771  -0.605  -0.281  0.00  0.00    -0.076 A 
ATOM      2  C3  UNL d   1       2.704  -1.614  -0.575  0.00  0.00     0.004 A 
ATOM      3  C4  UNL d   1       3.879  -1.326  -1.268  0.00  0.00    -0.003 A 
ATOM      4  C5  UNL d   1       4.139  -0.023  -1.679  0.00  0.00     0.000 A 
ATOM      5  C6  UNL d   1       3.233   0.994  -1.381  0.00  0.00     0.000 A 
ATOM      6  C7  UNL d   1       2.052   0.723  -0.668  0.00  0.00    -0.073 A 
ATOM      7  C8  UNL d   1       1.107   1.857  -0.379  0.00  0.00     0.078 C 
ENDROOT
BRANCH   1   8
ATOM      8  C1  UNL d   1       0.502  -0.981   0.450  0.00  0.00     0.053 C 
ATOM      9  C   UNL d   1       0.334  -0.220   1.756  0.00  0.00     0.018 C 
ENDBRANCH   1   8
TORSDOF 1
ENDMDL
