MODEL 1
REMARK minimizedAffinity -2.79636455
REMARK minimizedRMSD -1
REMARK  1 active torsions:
REMARK  status: ('A' for Active; 'I' for Inactive)
REMARK    1  A    between atoms: C1_2  and  C2_3 
ROOT
ATOM      1  C2  UNL d   1       2.374  -0.885  -0.773  0.00  0.00    -0.076 A 
ATOM      2  C3  UNL d   1       1.955  -2.002  -0.028  0.00  0.00     0.004 A 
ATOM      3  C4  UNL d   1       1.148  -1.851   1.098  0.00  0.00    -0.003 A 
ATOM      4  C5  UNL d   1       0.746  -0.581   1.497  0.00  0.00     0.000 A 
ATOM      5  C6  UNL d   1       1.137   0.536   0.760  0.00  0.00     0.000 A 
ATOM      6  C7  UNL d   1       1.938   0.400  -0.387  0.00  0.00    -0.073 A 
ATOM      7  C8  UNL d   1       2.335   1.639  -1.141  0.00  0.00     0.078 C 
ENDROOT
BRANCH   1   8
ATOM      8  C1  UNL d   1       3.272  -1.108  -1.969  0.00  0.00     0.053 C 
ATOM      9  C   UNL d   1       4.632  -0.448  -1.808  0.00  0.00     0.018 C 
ENDBRANCH   1   8
TORSDOF 1
ENDMDL
