MODEL 1
REMARK minimizedAffinity -2.62906337
REMARK minimizedRMSD -1
REMARK  1 active torsions:
REMARK  status: ('A' for Active; 'I' for Inactive)
REMARK    1  A    between atoms: C1_2  and  C2_3 
ROOT
ATOM      1  C2  UNL d   1       2.076  -0.843  -0.480  0.00  0.00    -0.076 A 
ATOM      2  C3  UNL d   1       1.295  -1.874   0.071  0.00  0.00     0.004 A 
ATOM      3  C4  UNL d   1       0.373  -1.612   1.084  0.00  0.00    -0.003 A 
ATOM      4  C5  UNL d   1       0.217  -0.316   1.561  0.00  0.00     0.000 A 
ATOM      5  C6  UNL d   1       0.971   0.722   1.014  0.00  0.00     0.000 A 
ATOM      6  C7  UNL d   1       1.893   0.478  -0.018  0.00  0.00    -0.073 A 
ATOM      7  C8  UNL d   1       2.684   1.634  -0.567  0.00  0.00     0.078 C 
ENDROOT
BRANCH   1   8
ATOM      8  C1  UNL d   1       3.079  -1.190  -1.556  0.00  0.00     0.053 C 
ATOM      9  C   UNL d   1       4.449  -0.584  -1.294  0.00  0.00     0.018 C 
ENDBRANCH   1   8
TORSDOF 1
ENDMDL
