MODEL 1
REMARK minimizedAffinity 4.25832891
REMARK minimizedRMSD -1
REMARK  1 active torsions:
REMARK  status: ('A' for Active; 'I' for Inactive)
REMARK    1  A    between atoms: C1_2  and  C2_3 
ROOT
ATOM      1  C2  UNL d   1       2.214   0.092  -0.459  0.00  0.00    -0.076 A 
ATOM      2  C3  UNL d   1       1.040  -0.150   0.274  0.00  0.00     0.004 A 
ATOM      3  C4  UNL d   1       0.544  -1.444   0.427  0.00  0.00    -0.003 A 
ATOM      4  C5  UNL d   1       1.215  -2.516  -0.150  0.00  0.00     0.000 A 
ATOM      5  C6  UNL d   1       2.391  -2.296  -0.866  0.00  0.00     0.000 A 
ATOM      6  C7  UNL d   1       2.913  -1.000  -1.016  0.00  0.00    -0.073 A 
ATOM      7  C8  UNL d   1       4.182  -0.820  -1.803  0.00  0.00     0.078 C 
ENDROOT
BRANCH   1   8
ATOM      8  C1  UNL d   1       2.690   1.519  -0.615  0.00  0.00     0.053 C 
ATOM      9  C   UNL d   1       2.365   2.377   0.599  0.00  0.00     0.018 C 
ENDBRANCH   1   8
TORSDOF 1
ENDMDL
