MODEL 1
REMARK minimizedAffinity -1.52709901
REMARK minimizedRMSD -1
REMARK  1 active torsions:
REMARK  status: ('A' for Active; 'I' for Inactive)
REMARK    1  A    between atoms: C1_2  and  C2_3 
ROOT
ATOM      1  C2  UNL d   1       1.597  -0.373   0.064  0.00  0.00    -0.076 A 
ATOM      2  C3  UNL d   1       0.421  -0.357   0.833  0.00  0.00     0.004 A 
ATOM      3  C4  UNL d   1      -0.012  -1.498   1.506  0.00  0.00    -0.003 A 
ATOM      4  C5  UNL d   1       0.725  -2.674   1.421  0.00  0.00     0.000 A 
ATOM      5  C6  UNL d   1       1.904  -2.703   0.677  0.00  0.00     0.000 A 
ATOM      6  C7  UNL d   1       2.363  -1.557   0.006  0.00  0.00    -0.073 A 
ATOM      7  C8  UNL d   1       3.638  -1.647  -0.788  0.00  0.00     0.078 C 
ENDROOT
BRANCH   1   8
ATOM      8  C1  UNL d   1       2.003   0.888  -0.666  0.00  0.00     0.053 C 
ATOM      9  C   UNL d   1       2.419   2.002   0.282  0.00  0.00     0.018 C 
ENDBRANCH   1   8
TORSDOF 1
ENDMDL
