MODEL 1
REMARK minimizedAffinity -4.09553003
REMARK minimizedRMSD -1
REMARK  1 active torsions:
REMARK  status: ('A' for Active; 'I' for Inactive)
REMARK    1  A    between atoms: C1_2  and  C2_3 
ROOT
ATOM      1  C2  UNL d   1       1.475  -0.560   0.917  0.00  0.00    -0.076 A 
ATOM      2  C3  UNL d   1       2.026  -1.785   0.502  0.00  0.00     0.004 A 
ATOM      3  C4  UNL d   1       2.809  -1.866  -0.648  0.00  0.00    -0.003 A 
ATOM      4  C5  UNL d   1       3.055  -0.724  -1.402  0.00  0.00     0.000 A 
ATOM      5  C6  UNL d   1       2.531   0.503  -0.996  0.00  0.00     0.000 A 
ATOM      6  C7  UNL d   1       1.752   0.605   0.170  0.00  0.00    -0.073 A 
ATOM      7  C8  UNL d   1       1.207   1.953   0.558  0.00  0.00     0.078 C 
ENDROOT
BRANCH   1   8
ATOM      8  C1  UNL d   1       0.611  -0.537   2.157  0.00  0.00     0.053 C 
ATOM      9  C   UNL d   1      -0.818  -0.980   1.881  0.00  0.00     0.018 C 
ENDBRANCH   1   8
TORSDOF 1
ENDMDL
