MODEL 1
REMARK minimizedAffinity -2.08491707
REMARK minimizedRMSD -1
REMARK  1 active torsions:
REMARK  status: ('A' for Active; 'I' for Inactive)
REMARK    1  A    between atoms: C1_2  and  C2_3 
ROOT
ATOM      1  C2  UNL d   1       2.755  -0.734  -0.540  0.00  0.00    -0.076 A 
ATOM      2  C3  UNL d   1       2.950  -2.025  -1.061  0.00  0.00     0.004 A 
ATOM      3  C4  UNL d   1       2.143  -3.089  -0.663  0.00  0.00    -0.003 A 
ATOM      4  C5  UNL d   1       1.126  -2.879   0.262  0.00  0.00     0.000 A 
ATOM      5  C6  UNL d   1       0.907  -1.601   0.776  0.00  0.00     0.000 A 
ATOM      6  C7  UNL d   1       1.702  -0.514   0.373  0.00  0.00    -0.073 A 
ATOM      7  C8  UNL d   1       1.425   0.841   0.964  0.00  0.00     0.078 C 
ENDROOT
BRANCH   1   8
ATOM      8  C1  UNL d   1       3.679   0.376  -0.989  0.00  0.00     0.053 C 
ATOM      9  C   UNL d   1       4.844  -0.137  -1.822  0.00  0.00     0.018 C 
ENDBRANCH   1   8
TORSDOF 1
ENDMDL
