MODEL 1
REMARK minimizedAffinity -1.4406718
REMARK minimizedRMSD -1
REMARK  1 active torsions:
REMARK  status: ('A' for Active; 'I' for Inactive)
REMARK    1  A    between atoms: C1_2  and  C2_3 
ROOT
ATOM      1  C2  UNL d   1       2.059  -0.957   0.109  0.00  0.00    -0.076 A 
ATOM      2  C3  UNL d   1       2.840  -1.775  -0.727  0.00  0.00     0.004 A 
ATOM      3  C4  UNL d   1       3.511  -1.243  -1.827  0.00  0.00    -0.003 A 
ATOM      4  C5  UNL d   1       3.412   0.115  -2.109  0.00  0.00     0.000 A 
ATOM      5  C6  UNL d   1       2.656   0.944  -1.280  0.00  0.00     0.000 A 
ATOM      6  C7  UNL d   1       1.987   0.427  -0.158  0.00  0.00    -0.073 A 
ATOM      7  C8  UNL d   1       1.181   1.365   0.698  0.00  0.00     0.078 C 
ENDROOT
BRANCH   1   8
ATOM      8  C1  UNL d   1       1.333  -1.595   1.272  0.00  0.00     0.053 C 
ATOM      9  C   UNL d   1      -0.179  -1.507   1.133  0.00  0.00     0.018 C 
ENDBRANCH   1   8
TORSDOF 1
ENDMDL
