MODEL 1
REMARK minimizedAffinity -5.17850685
REMARK minimizedRMSD -1
REMARK  1 active torsions:
REMARK  status: ('A' for Active; 'I' for Inactive)
REMARK    1  A    between atoms: C1_2  and  C2_3 
ROOT
ATOM      1  C2  UNL d   1       2.233   0.648  -0.852  0.00  0.00    -0.076 A 
ATOM      2  C3  UNL d   1       3.349   0.992  -1.633  0.00  0.00     0.004 A 
ATOM      3  C4  UNL d   1       4.335   0.052  -1.929  0.00  0.00    -0.003 A 
ATOM      4  C5  UNL d   1       4.220  -1.248  -1.448  0.00  0.00     0.000 A 
ATOM      5  C6  UNL d   1       3.110  -1.611  -0.686  0.00  0.00     0.000 A 
ATOM      6  C7  UNL d   1       2.099  -0.680  -0.393  0.00  0.00    -0.073 A 
ATOM      7  C8  UNL d   1       0.927  -1.125   0.438  0.00  0.00     0.078 C 
ENDROOT
BRANCH   1   8
ATOM      8  C1  UNL d   1       1.209   1.716  -0.541  0.00  0.00     0.053 C 
ATOM      9  C   UNL d   1       1.470   2.404   0.790  0.00  0.00     0.018 C 
ENDBRANCH   1   8
TORSDOF 1
ENDMDL
