MODEL 1
REMARK minimizedAffinity -0.44747889
REMARK minimizedRMSD -1
REMARK  2 active torsions:
REMARK  status: ('A' for Active; 'I' for Inactive)
REMARK    1  A    between atoms: C1_2  and  C2_3 
REMARK    2  A    between atoms: C2_3  and  C3_4 
ROOT
ATOM      1  C3  UNL d   1      -4.256   5.535   3.443  0.00  0.00    -0.075 A 
ATOM      2  C4  UNL d   1      -5.522   5.987   3.044  0.00  0.00     0.002 A 
ATOM      3  C5  UNL d   1      -5.885   5.979   1.697  0.00  0.00     0.002 A 
ATOM      4  C6  UNL d   1      -4.985   5.529   0.733  0.00  0.00    -0.004 A 
ATOM      5  C7  UNL d   1      -3.719   5.094   1.116  0.00  0.00     0.002 A 
ATOM      6  C8  UNL d   1      -3.354   5.097   2.464  0.00  0.00     0.002 A 
ENDROOT
BRANCH   1   7
ATOM      7  C2  UNL d   1      -3.867   5.514   4.902  0.00  0.00     0.056 C 
BRANCH   7   8
ATOM      8  C1  UNL d   1      -5.052   5.645   5.865  0.00  0.00     0.007 C 
ATOM      9  C   UNL d   1      -5.994   4.449   5.825  0.00  0.00     0.009 C 
ENDBRANCH   7   8
ENDBRANCH   1   7
TORSDOF 2
ENDMDL
