MODEL 1
REMARK minimizedAffinity 2.34234977
REMARK minimizedRMSD -1
REMARK  2 active torsions:
REMARK  status: ('A' for Active; 'I' for Inactive)
REMARK    1  A    between atoms: C1_2  and  C2_3 
REMARK    2  A    between atoms: C2_3  and  C3_4 
ROOT
ATOM      1  C3  UNL d   1      -5.090   5.497   3.263  0.00  0.00    -0.075 A 
ATOM      2  C4  UNL d   1      -5.993   5.153   4.279  0.00  0.00     0.002 A 
ATOM      3  C5  UNL d   1      -5.619   5.245   5.620  0.00  0.00     0.002 A 
ATOM      4  C6  UNL d   1      -4.337   5.671   5.961  0.00  0.00    -0.004 A 
ATOM      5  C7  UNL d   1      -3.426   5.999   4.960  0.00  0.00     0.002 A 
ATOM      6  C8  UNL d   1      -3.799   5.913   3.617  0.00  0.00     0.002 A 
ENDROOT
BRANCH   1   7
ATOM      7  C2  UNL d   1      -5.498   5.429   1.811  0.00  0.00     0.056 C 
BRANCH   7   8
ATOM      8  C1  UNL d   1      -4.400   5.860   0.833  0.00  0.00     0.007 C 
ATOM      9  C   UNL d   1      -4.137   4.836  -0.263  0.00  0.00     0.009 C 
ENDBRANCH   7   8
ENDBRANCH   1   7
TORSDOF 2
ENDMDL
