MODEL 1
REMARK minimizedAffinity 3.57641435
REMARK minimizedRMSD -1
REMARK  2 active torsions:
REMARK  status: ('A' for Active; 'I' for Inactive)
REMARK    1  A    between atoms: C1_2  and  C2_3 
REMARK    2  A    between atoms: C2_3  and  C3_4 
ROOT
ATOM      1  C3  UNL d   1       1.820  -2.096  -0.629  0.00  0.00    -0.075 A 
ATOM      2  C4  UNL d   1       0.895  -2.012  -1.680  0.00  0.00     0.002 A 
ATOM      3  C5  UNL d   1      -0.051  -3.019  -1.874  0.00  0.00     0.002 A 
ATOM      4  C6  UNL d   1      -0.079  -4.125  -1.027  0.00  0.00    -0.004 A 
ATOM      5  C7  UNL d   1       0.845  -4.227   0.010  0.00  0.00     0.002 A 
ATOM      6  C8  UNL d   1       1.791  -3.219   0.209  0.00  0.00     0.002 A 
ENDROOT
BRANCH   1   7
ATOM      7  C2  UNL d   1       2.827  -0.996  -0.396  0.00  0.00     0.056 C 
BRANCH   7   8
ATOM      8  C1  UNL d   1       2.206   0.397  -0.249  0.00  0.00     0.007 C 
ATOM      9  C   UNL d   1       3.237   1.519  -0.267  0.00  0.00     0.009 C 
ENDBRANCH   7   8
ENDBRANCH   1   7
TORSDOF 2
ENDMDL
