MODEL 1
REMARK minimizedAffinity 0.342003286
REMARK minimizedRMSD -1
REMARK  2 active torsions:
REMARK  status: ('A' for Active; 'I' for Inactive)
REMARK    1  A    between atoms: C1_2  and  C2_3 
REMARK    2  A    between atoms: C2_3  and  C3_4 
ROOT
ATOM      1  C3  UNL d   1      -3.986   5.958   3.441  0.00  0.00    -0.075 A 
ATOM      2  C4  UNL d   1      -3.218   5.989   4.615  0.00  0.00     0.002 A 
ATOM      3  C5  UNL d   1      -3.837   6.000   5.865  0.00  0.00     0.002 A 
ATOM      4  C6  UNL d   1      -5.227   5.989   5.959  0.00  0.00    -0.004 A 
ATOM      5  C7  UNL d   1      -5.999   5.975   4.799  0.00  0.00     0.002 A 
ATOM      6  C8  UNL d   1      -5.383   5.960   3.547  0.00  0.00     0.002 A 
ENDROOT
BRANCH   1   7
ATOM      7  C2  UNL d   1      -3.323   5.917   2.085  0.00  0.00     0.056 C 
BRANCH   7   8
ATOM      8  C1  UNL d   1      -4.097   5.112   1.036  0.00  0.00     0.007 C 
ATOM      9  C   UNL d   1      -4.925   5.984   0.102  0.00  0.00     0.009 C 
ENDBRANCH   7   8
ENDBRANCH   1   7
TORSDOF 2
ENDMDL
