MODEL 1
REMARK minimizedAffinity -1.81134021
REMARK minimizedRMSD -1
REMARK  2 active torsions:
REMARK  status: ('A' for Active; 'I' for Inactive)
REMARK    1  A    between atoms: C1_2  and  C2_3 
REMARK    2  A    between atoms: C2_3  and  C3_4 
ROOT
ATOM      1  C3  UNL d   1      -4.265   5.748   3.180  0.00  0.00    -0.075 A 
ATOM      2  C4  UNL d   1      -5.597   5.470   3.522  0.00  0.00     0.002 A 
ATOM      3  C5  UNL d   1      -5.999   5.466   4.858  0.00  0.00     0.002 A 
ATOM      4  C6  UNL d   1      -5.076   5.729   5.867  0.00  0.00    -0.004 A 
ATOM      5  C7  UNL d   1      -3.747   5.990   5.541  0.00  0.00     0.002 A 
ATOM      6  C8  UNL d   1      -3.343   5.999   4.205  0.00  0.00     0.002 A 
ENDROOT
BRANCH   1   7
ATOM      7  C2  UNL d   1      -3.829   5.783   1.735  0.00  0.00     0.056 C 
BRANCH   7   8
ATOM      8  C1  UNL d   1      -4.977   5.998   0.743  0.00  0.00     0.007 C 
ATOM      9  C   UNL d   1      -4.574   5.750  -0.705  0.00  0.00     0.009 C 
ENDBRANCH   7   8
ENDBRANCH   1   7
TORSDOF 2
ENDMDL
