MODEL 1
REMARK minimizedAffinity 5.61268997
REMARK minimizedRMSD -1
REMARK  2 active torsions:
REMARK  status: ('A' for Active; 'I' for Inactive)
REMARK    1  A    between atoms: C1_2  and  C2_3 
REMARK    2  A    between atoms: C2_3  and  C3_4 
ROOT
ATOM      1  C3  UNL d   1      -4.889   4.200   1.408  0.00  0.00    -0.075 A 
ATOM      2  C4  UNL d   1      -3.836   5.107   1.596  0.00  0.00     0.002 A 
ATOM      3  C5  UNL d   1      -3.851   5.997   2.671  0.00  0.00     0.002 A 
ATOM      4  C6  UNL d   1      -4.922   5.999   3.562  0.00  0.00    -0.004 A 
ATOM      5  C7  UNL d   1      -5.981   5.114   3.375  0.00  0.00     0.002 A 
ATOM      6  C8  UNL d   1      -5.966   4.219   2.303  0.00  0.00     0.002 A 
ENDROOT
BRANCH   1   7
ATOM      7  C2  UNL d   1      -4.864   3.214   0.264  0.00  0.00     0.056 C 
BRANCH   7   8
ATOM      8  C1  UNL d   1      -4.920   1.747   0.704  0.00  0.00     0.007 C 
ATOM      9  C   UNL d   1      -4.411   0.782  -0.358  0.00  0.00     0.009 C 
ENDBRANCH   7   8
ENDBRANCH   1   7
TORSDOF 2
ENDMDL
