MODEL 1
REMARK minimizedAffinity 9.50684166
REMARK minimizedRMSD -1
REMARK  2 active torsions:
REMARK  status: ('A' for Active; 'I' for Inactive)
REMARK    1  A    between atoms: C1_2  and  C2_3 
REMARK    2  A    between atoms: C2_3  and  C3_4 
ROOT
ATOM      1  C3  UNL d   1       3.911   2.503  -0.040  0.00  0.00    -0.075 A 
ATOM      2  C4  UNL d   1       2.703   2.703   0.644  0.00  0.00     0.002 A 
ATOM      3  C5  UNL d   1       1.764   1.675   0.736  0.00  0.00     0.002 A 
ATOM      4  C6  UNL d   1       2.014   0.442   0.140  0.00  0.00    -0.004 A 
ATOM      5  C7  UNL d   1       3.204   0.237  -0.556  0.00  0.00     0.002 A 
ATOM      6  C8  UNL d   1       4.148   1.262  -0.646  0.00  0.00     0.002 A 
ENDROOT
BRANCH   1   7
ATOM      7  C2  UNL d   1       4.945   3.601  -0.119  0.00  0.00     0.056 C 
BRANCH   7   8
ATOM      8  C1  UNL d   1       4.363   4.984  -0.430  0.00  0.00     0.007 C 
ATOM      9  C   UNL d   1       5.382   5.941  -1.035  0.00  0.00     0.009 C 
ENDBRANCH   7   8
ENDBRANCH   1   7
TORSDOF 2
ENDMDL
