MODEL 1
REMARK minimizedAffinity 3.46072698
REMARK minimizedRMSD -1
REMARK  2 active torsions:
REMARK  status: ('A' for Active; 'I' for Inactive)
REMARK    1  A    between atoms: C1_2  and  C2_3 
REMARK    2  A    between atoms: C2_3  and  C3_4 
ROOT
ATOM      1  C3  UNL d   1      -1.444  -4.970   3.321  0.00  0.00    -0.075 A 
ATOM      2  C4  UNL d   1      -0.592  -3.973   3.819  0.00  0.00     0.002 A 
ATOM      3  C5  UNL d   1      -0.174  -3.999   5.150  0.00  0.00     0.002 A 
ATOM      4  C6  UNL d   1      -0.609  -5.014   6.000  0.00  0.00    -0.004 A 
ATOM      5  C7  UNL d   1      -1.468  -6.000   5.520  0.00  0.00     0.002 A 
ATOM      6  C8  UNL d   1      -1.884  -5.978   4.187  0.00  0.00     0.002 A 
ENDROOT
BRANCH   1   7
ATOM      7  C2  UNL d   1      -1.876  -4.963   1.874  0.00  0.00     0.056 C 
BRANCH   7   8
ATOM      8  C1  UNL d   1      -0.951  -5.755   0.943  0.00  0.00     0.007 C 
ATOM      9  C   UNL d   1      -0.004  -4.870   0.144  0.00  0.00     0.009 C 
ENDBRANCH   7   8
ENDBRANCH   1   7
TORSDOF 2
ENDMDL
