MODEL 1
REMARK minimizedAffinity 1.88135171
REMARK minimizedRMSD -1
REMARK  1 active torsions:
REMARK  status: ('A' for Active; 'I' for Inactive)
REMARK    1  A    between atoms: C1_2  and  C2_3 
ROOT
ATOM      1  C2  UNL d   1      -5.556   2.819  -3.269  0.00  0.00    -0.077 A 
ATOM      2  C3  UNL d   1      -5.629   3.806  -4.262  0.00  0.00     0.002 A 
ATOM      3  C4  UNL d   1      -5.265   3.513  -5.578  0.00  0.00     0.002 A 
ATOM      4  C5  UNL d   1      -4.831   2.232  -5.913  0.00  0.00    -0.004 A 
ATOM      5  C6  UNL d   1      -4.753   1.244  -4.932  0.00  0.00     0.002 A 
ATOM      6  C7  UNL d   1      -5.115   1.536  -3.617  0.00  0.00     0.002 A 
ENDROOT
BRANCH   1   7
ATOM      7  C1  UNL d   1      -5.995   3.120  -1.860  0.00  0.00     0.055 C 
ATOM      8  C   UNL d   1      -5.626   4.540  -1.456  0.00  0.00     0.019 C 
ENDBRANCH   1   7
TORSDOF 1
ENDMDL
