MODEL 1
REMARK minimizedAffinity -1.96087337
REMARK minimizedRMSD -1
REMARK  1 active torsions:
REMARK  status: ('A' for Active; 'I' for Inactive)
REMARK    1  A    between atoms: C1_2  and  C2_3 
ROOT
ATOM      1  C2  UNL d   1      -0.106  -1.649   1.435  0.00  0.00    -0.077 A 
ATOM      2  C3  UNL d   1      -0.493  -2.966   1.153  0.00  0.00     0.002 A 
ATOM      3  C4  UNL d   1      -1.550  -3.219   0.276  0.00  0.00     0.002 A 
ATOM      4  C5  UNL d   1      -2.225  -2.161  -0.328  0.00  0.00    -0.004 A 
ATOM      5  C6  UNL d   1      -1.848  -0.847  -0.052  0.00  0.00     0.002 A 
ATOM      6  C7  UNL d   1      -0.793  -0.592   0.824  0.00  0.00     0.002 A 
ENDROOT
BRANCH   1   7
ATOM      7  C1  UNL d   1       1.066  -1.375   2.342  0.00  0.00     0.055 C 
ATOM      8  C   UNL d   1       1.085  -2.332   3.525  0.00  0.00     0.019 C 
ENDBRANCH   1   7
TORSDOF 1
ENDMDL
