MODEL 1
REMARK minimizedAffinity 12.1578112
REMARK minimizedRMSD -1
REMARK  1 active torsions:
REMARK  status: ('A' for Active; 'I' for Inactive)
REMARK    1  A    between atoms: C1_2  and  C2_3 
ROOT
ATOM      1  C2  UNL d   1      -5.656   3.597  -4.403  0.00  0.00    -0.077 A 
ATOM      2  C3  UNL d   1      -5.658   3.595  -3.001  0.00  0.00     0.002 A 
ATOM      3  C4  UNL d   1      -5.827   4.787  -2.294  0.00  0.00     0.002 A 
ATOM      4  C5  UNL d   1      -6.000   5.988  -2.979  0.00  0.00    -0.004 A 
ATOM      5  C6  UNL d   1      -5.998   6.000  -4.374  0.00  0.00     0.002 A 
ATOM      6  C7  UNL d   1      -5.828   4.810  -5.082  0.00  0.00     0.002 A 
ENDROOT
BRANCH   1   7
ATOM      7  C1  UNL d   1      -5.523   2.306  -5.167  0.00  0.00     0.055 C 
ATOM      8  C   UNL d   1      -4.510   1.377  -4.514  0.00  0.00     0.019 C 
ENDBRANCH   1   7
TORSDOF 1
ENDMDL
