MODEL 1
REMARK minimizedAffinity 8.1356926
REMARK minimizedRMSD -1
REMARK  1 active torsions:
REMARK  status: ('A' for Active; 'I' for Inactive)
REMARK    1  A    between atoms: C1_2  and  C2_3 
ROOT
ATOM      1  C2  UNL d   1      -0.255  -0.065   1.518  0.00  0.00    -0.077 A 
ATOM      2  C3  UNL d   1      -0.344   1.120   0.775  0.00  0.00     0.002 A 
ATOM      3  C4  UNL d   1      -1.418   1.331  -0.093  0.00  0.00     0.002 A 
ATOM      4  C5  UNL d   1      -2.412   0.363  -0.222  0.00  0.00    -0.004 A 
ATOM      5  C6  UNL d   1      -2.331  -0.820   0.512  0.00  0.00     0.002 A 
ATOM      6  C7  UNL d   1      -1.258  -1.033   1.378  0.00  0.00     0.002 A 
ENDROOT
BRANCH   1   7
ATOM      7  C1  UNL d   1       0.876  -0.273   2.491  0.00  0.00     0.055 C 
ATOM      8  C   UNL d   1       1.796  -1.398   2.038  0.00  0.00     0.019 C 
ENDBRANCH   1   7
TORSDOF 1
ENDMDL
