MODEL 1
REMARK minimizedAffinity -0.227712885
REMARK minimizedRMSD -1
REMARK  1 active torsions:
REMARK  status: ('A' for Active; 'I' for Inactive)
REMARK    1  A    between atoms: C1_2  and  C2_3 
ROOT
ATOM      1  C2  UNL d   1      -2.041  -2.392   0.233  0.00  0.00    -0.077 A 
ATOM      2  C3  UNL d   1      -0.732  -2.840   0.457  0.00  0.00     0.002 A 
ATOM      3  C4  UNL d   1       0.249  -1.956   0.913  0.00  0.00     0.002 A 
ATOM      4  C5  UNL d   1      -0.071  -0.621   1.152  0.00  0.00    -0.004 A 
ATOM      5  C6  UNL d   1      -1.370  -0.166   0.930  0.00  0.00     0.002 A 
ATOM      6  C7  UNL d   1      -2.351  -1.047   0.474  0.00  0.00     0.002 A 
ENDROOT
BRANCH   1   7
ATOM      7  C1  UNL d   1      -3.111  -3.354  -0.211  0.00  0.00     0.055 C 
ATOM      8  C   UNL d   1      -2.726  -4.793   0.101  0.00  0.00     0.019 C 
ENDBRANCH   1   7
TORSDOF 1
ENDMDL
