MODEL 1
REMARK minimizedAffinity 3.01439977
REMARK minimizedRMSD -1
REMARK  1 active torsions:
REMARK  status: ('A' for Active; 'I' for Inactive)
REMARK    1  A    between atoms: C1_2  and  C2_3 
ROOT
ATOM      1  C2  UNL d   1       1.668  -1.614   4.510  0.00  0.00    -0.077 A 
ATOM      2  C3  UNL d   1       1.265  -0.291   4.281  0.00  0.00     0.002 A 
ATOM      3  C4  UNL d   1       1.174   0.204   2.978  0.00  0.00     0.002 A 
ATOM      4  C5  UNL d   1       1.480  -0.618   1.896  0.00  0.00    -0.004 A 
ATOM      5  C6  UNL d   1       1.884  -1.935   2.114  0.00  0.00     0.002 A 
ATOM      6  C7  UNL d   1       1.977  -2.431   3.415  0.00  0.00     0.002 A 
ENDROOT
BRANCH   1   7
ATOM      7  C1  UNL d   1       1.720  -2.164   5.912  0.00  0.00     0.055 C 
ATOM      8  C   UNL d   1       2.646  -3.368   6.000  0.00  0.00     0.019 C 
ENDBRANCH   1   7
TORSDOF 1
ENDMDL
