MODEL 1
REMARK minimizedAffinity 6.08761072
REMARK minimizedRMSD -1
REMARK  0 active torsions:
REMARK  status: ('A' for Active; 'I' for Inactive)
ROOT
ATOM      1  O1  BZF d   1       5.577  -5.399   3.595  0.00  0.00    -0.204 OA
ATOM      2  C2  BZF d   1       5.430  -5.760   4.921  0.00  0.00     0.174 A 
ATOM      3  C3  BZF d   1       4.135  -6.000   5.211  0.00  0.00    -0.012 A 
ATOM      4  C3A BZF d   1       3.440  -5.865   3.968  0.00  0.00    -0.107 A 
ATOM      5  C4  BZF d   1       2.130  -6.000   3.606  0.00  0.00     0.055 A 
ATOM      6  C5  BZF d   1       1.768  -5.728   2.324  0.00  0.00    -0.016 A 
ATOM      7  C6  BZF d   1       2.687  -5.316   1.382  0.00  0.00     0.022 A 
ATOM      8  C7  BZF d   1       3.999  -5.173   1.693  0.00  0.00     0.029 A 
ATOM      9  C7A BZF d   1       4.373  -5.478   2.978  0.00  0.00     0.058 A 
ENDROOT
TORSDOF 0
ENDMDL
