MODEL 1
REMARK minimizedAffinity -0.118266441
REMARK minimizedRMSD -1
REMARK  0 active torsions:
REMARK  status: ('A' for Active; 'I' for Inactive)
ROOT
ATOM      1  O1  BZF d   1       5.659  -5.883   2.505  0.00  0.00    -0.204 OA
ATOM      2  C2  BZF d   1       5.999  -5.990   3.840  0.00  0.00     0.174 A 
ATOM      3  C3  BZF d   1       4.896  -6.000   4.615  0.00  0.00    -0.012 A 
ATOM      4  C3A BZF d   1       3.794  -5.985   3.703  0.00  0.00    -0.107 A 
ATOM      5  C4  BZF d   1       2.439  -6.000   3.867  0.00  0.00     0.055 A 
ATOM      6  C5  BZF d   1       1.640  -5.903   2.772  0.00  0.00    -0.016 A 
ATOM      7  C6  BZF d   1       2.161  -5.785   1.500  0.00  0.00     0.022 A 
ATOM      8  C7  BZF d   1       3.500  -5.771   1.287  0.00  0.00     0.029 A 
ATOM      9  C7A BZF d   1       4.310  -5.902   2.388  0.00  0.00     0.058 A 
ENDROOT
TORSDOF 0
ENDMDL
