MODEL 1
REMARK minimizedAffinity -2.7399509
REMARK minimizedRMSD -1
REMARK  0 active torsions:
REMARK  status: ('A' for Active; 'I' for Inactive)
ROOT
ATOM      1  O1  BZF d   1       2.640  -5.272   1.081  0.00  0.00    -0.204 OA
ATOM      2  C2  BZF d   1       1.550  -5.616   1.858  0.00  0.00     0.174 A 
ATOM      3  C3  BZF d   1       1.943  -6.000   3.089  0.00  0.00    -0.012 A 
ATOM      4  C3A BZF d   1       3.359  -5.801   3.112  0.00  0.00    -0.107 A 
ATOM      5  C4  BZF d   1       4.319  -5.987   4.066  0.00  0.00     0.055 A 
ATOM      6  C5  BZF d   1       5.621  -5.767   3.745  0.00  0.00    -0.016 A 
ATOM      7  C6  BZF d   1       5.999  -5.366   2.481  0.00  0.00     0.022 A 
ATOM      8  C7  BZF d   1       5.083  -5.164   1.503  0.00  0.00     0.029 A 
ATOM      9  C7A BZF d   1       3.764  -5.353   1.833  0.00  0.00     0.058 A 
ENDROOT
TORSDOF 0
ENDMDL
