MODEL 1
REMARK minimizedAffinity 6.92671967
REMARK minimizedRMSD -1
REMARK  0 active torsions:
REMARK  status: ('A' for Active; 'I' for Inactive)
ROOT
ATOM      1  O1  BZF d   1      -0.048  -3.797   0.353  0.00  0.00    -0.204 OA
ATOM      2  C2  BZF d   1      -1.327  -4.137   0.750  0.00  0.00     0.174 A 
ATOM      3  C3  BZF d   1      -1.293  -5.052   1.740  0.00  0.00    -0.012 A 
ATOM      4  C3A BZF d   1       0.094  -5.230   2.041  0.00  0.00    -0.107 A 
ATOM      5  C4  BZF d   1       0.767  -6.000   2.946  0.00  0.00     0.055 A 
ATOM      6  C5  BZF d   1       2.126  -5.999   2.934  0.00  0.00    -0.016 A 
ATOM      7  C6  BZF d   1       2.843  -5.245   2.027  0.00  0.00     0.022 A 
ATOM      8  C7  BZF d   1       2.220  -4.462   1.114  0.00  0.00     0.029 A 
ATOM      9  C7A BZF d   1       0.847  -4.436   1.145  0.00  0.00     0.058 A 
ENDROOT
TORSDOF 0
ENDMDL
