MODEL 1
REMARK minimizedAffinity 1.89757574
REMARK minimizedRMSD -1
REMARK  0 active torsions:
REMARK  status: ('A' for Active; 'I' for Inactive)
ROOT
ATOM      1  O1  BZF d   1      -4.516  -3.618   5.038  0.00  0.00    -0.204 OA
ATOM      2  C2  BZF d   1      -4.191  -2.675   5.994  0.00  0.00     0.174 A 
ATOM      3  C3  BZF d   1      -4.054  -1.456   5.435  0.00  0.00    -0.012 A 
ATOM      4  C3A BZF d   1      -4.400  -1.631   4.058  0.00  0.00    -0.107 A 
ATOM      5  C4  BZF d   1      -4.471  -0.781   2.992  0.00  0.00     0.055 A 
ATOM      6  C5  BZF d   1      -4.769  -1.283   1.765  0.00  0.00    -0.016 A 
ATOM      7  C6  BZF d   1      -4.997  -2.629   1.567  0.00  0.00     0.022 A 
ATOM      8  C7  BZF d   1      -4.942  -3.511   2.595  0.00  0.00     0.029 A 
ATOM      9  C7A BZF d   1      -4.674  -3.002   3.842  0.00  0.00     0.058 A 
ENDROOT
TORSDOF 0
ENDMDL
