MODEL 1
REMARK minimizedAffinity -1.71278775
REMARK minimizedRMSD -1
REMARK  0 active torsions:
REMARK  status: ('A' for Active; 'I' for Inactive)
ROOT
ATOM      1  O1  BZF d   1       4.244  -6.000   5.175  0.00  0.00    -0.204 OA
ATOM      2  C2  BZF d   1       5.204  -5.360   5.935  0.00  0.00     0.174 A 
ATOM      3  C3  BZF d   1       6.000  -4.597   5.158  0.00  0.00    -0.012 A 
ATOM      4  C3A BZF d   1       5.449  -4.700   3.841  0.00  0.00    -0.107 A 
ATOM      5  C4  BZF d   1       5.790  -4.155   2.636  0.00  0.00     0.055 A 
ATOM      6  C5  BZF d   1       5.092  -4.514   1.528  0.00  0.00    -0.016 A 
ATOM      7  C6  BZF d   1       4.051  -5.419   1.586  0.00  0.00     0.022 A 
ATOM      8  C7  BZF d   1       3.673  -5.982   2.760  0.00  0.00     0.029 A 
ATOM      9  C7A BZF d   1       4.356  -5.595   3.887  0.00  0.00     0.058 A 
ENDROOT
TORSDOF 0
ENDMDL
