MODEL 1
REMARK minimizedAffinity 1.18634343
REMARK minimizedRMSD -1
REMARK  0 active torsions:
REMARK  status: ('A' for Active; 'I' for Inactive)
ROOT
ATOM      1  O1  BZF d   1       1.565  -5.948   4.127  0.00  0.00    -0.204 OA
ATOM      2  C2  BZF d   1       1.383  -5.919   2.758  0.00  0.00     0.174 A 
ATOM      3  C3  BZF d   1       2.569  -5.869   2.118  0.00  0.00    -0.012 A 
ATOM      4  C3A BZF d   1       3.557  -5.959   3.150  0.00  0.00    -0.107 A 
ATOM      5  C4  BZF d   1       4.923  -5.978   3.143  0.00  0.00     0.055 A 
ATOM      6  C5  BZF d   1       5.589  -6.000   4.327  0.00  0.00    -0.016 A 
ATOM      7  C6  BZF d   1       4.922  -5.999   5.535  0.00  0.00     0.022 A 
ATOM      8  C7  BZF d   1       3.568  -5.986   5.592  0.00  0.00     0.029 A 
ATOM      9  C7A BZF d   1       2.892  -5.997   4.397  0.00  0.00     0.058 A 
ENDROOT
TORSDOF 0
ENDMDL
