MODEL 1
REMARK minimizedAffinity 0.00329571124
REMARK minimizedRMSD -1
REMARK  0 active torsions:
REMARK  status: ('A' for Active; 'I' for Inactive)
ROOT
ATOM      1  O1  BZF d   1      -3.981   6.000   5.682  0.00  0.00    -0.204 OA
ATOM      2  C2  BZF d   1      -5.344   6.000   5.906  0.00  0.00     0.174 A 
ATOM      3  C3  BZF d   1      -5.999   5.435   4.871  0.00  0.00    -0.012 A 
ATOM      4  C3A BZF d   1      -4.975   4.975   3.984  0.00  0.00    -0.107 A 
ATOM      5  C4  BZF d   1      -4.996   4.316   2.788  0.00  0.00     0.055 A 
ATOM      6  C5  BZF d   1      -3.822   4.079   2.144  0.00  0.00    -0.016 A 
ATOM      7  C6  BZF d   1      -2.613   4.491   2.664  0.00  0.00     0.022 A 
ATOM      8  C7  BZF d   1      -2.542   5.143   3.850  0.00  0.00     0.029 A 
ATOM      9  C7A BZF d   1      -3.723   5.355   4.519  0.00  0.00     0.058 A 
ENDROOT
TORSDOF 0
ENDMDL
