MODEL 1
REMARK minimizedAffinity -1.16722453
REMARK minimizedRMSD -1
REMARK  0 active torsions:
REMARK  status: ('A' for Active; 'I' for Inactive)
ROOT
ATOM      1  O1  BZF d   1       3.168  -5.460   0.758  0.00  0.00    -0.204 OA
ATOM      2  C2  BZF d   1       4.187  -5.786   1.632  0.00  0.00     0.174 A 
ATOM      3  C3  BZF d   1       3.704  -5.997   2.873  0.00  0.00    -0.012 A 
ATOM      4  C3A BZF d   1       2.284  -5.879   2.749  0.00  0.00    -0.107 A 
ATOM      5  C4  BZF d   1       1.251  -6.000   3.634  0.00  0.00     0.055 A 
ATOM      6  C5  BZF d   1      -0.016  -5.753   3.208  0.00  0.00    -0.016 A 
ATOM      7  C6  BZF d   1      -0.285  -5.379   1.908  0.00  0.00     0.022 A 
ATOM      8  C7  BZF d   1       0.706  -5.251   0.993  0.00  0.00     0.029 A 
ATOM      9  C7A BZF d   1       1.984  -5.532   1.412  0.00  0.00     0.058 A 
ENDROOT
TORSDOF 0
ENDMDL
