MODEL 1
REMARK minimizedAffinity 3.04709125
REMARK minimizedRMSD -1
REMARK  0 active torsions:
REMARK  status: ('A' for Active; 'I' for Inactive)
ROOT
ATOM      1  O1  BZF d   1      -2.364  -5.028   1.597  0.00  0.00    -0.204 OA
ATOM      2  C2  BZF d   1      -2.711  -5.995   2.519  0.00  0.00     0.174 A 
ATOM      3  C3  BZF d   1      -4.040  -5.983   2.749  0.00  0.00    -0.012 A 
ATOM      4  C3A BZF d   1      -4.568  -5.004   1.848  0.00  0.00    -0.107 A 
ATOM      5  C4  BZF d   1      -5.829  -4.548   1.592  0.00  0.00     0.055 A 
ATOM      6  C5  BZF d   1      -5.997  -3.533   0.704  0.00  0.00    -0.016 A 
ATOM      7  C6  BZF d   1      -4.927  -2.949   0.059  0.00  0.00     0.022 A 
ATOM      8  C7  BZF d   1      -3.657  -3.371   0.276  0.00  0.00     0.029 A 
ATOM      9  C7A BZF d   1      -3.488  -4.418   1.149  0.00  0.00     0.058 A 
ENDROOT
TORSDOF 0
ENDMDL
