MODEL 1
REMARK minimizedAffinity 5.61070776
REMARK minimizedRMSD -1
REMARK  0 active torsions:
REMARK  status: ('A' for Active; 'I' for Inactive)
ROOT
ATOM      1  O1  BZF d   1      -1.321  -6.000   0.962  0.00  0.00    -0.204 OA
ATOM      2  C2  BZF d   1       0.009  -5.912   1.325  0.00  0.00     0.174 A 
ATOM      3  C3  BZF d   1       0.437  -4.634   1.268  0.00  0.00    -0.012 A 
ATOM      4  C3A BZF d   1      -0.721  -3.864   0.932  0.00  0.00    -0.107 A 
ATOM      5  C4  BZF d   1      -0.939  -2.529   0.746  0.00  0.00     0.055 A 
ATOM      6  C5  BZF d   1      -2.171  -2.109   0.352  0.00  0.00    -0.016 A 
ATOM      7  C6  BZF d   1      -3.204  -2.997   0.131  0.00  0.00     0.022 A 
ATOM      8  C7  BZF d   1      -3.037  -4.330   0.308  0.00  0.00     0.029 A 
ATOM      9  C7A BZF d   1      -1.803  -4.754   0.737  0.00  0.00     0.058 A 
ENDROOT
TORSDOF 0
ENDMDL
