MODEL 1
REMARK minimizedAffinity 11.9793358
REMARK minimizedRMSD -1
REMARK  0 active torsions:
REMARK  status: ('A' for Active; 'I' for Inactive)
ROOT
ATOM      1  O1  BZF d   1       0.910   2.074   2.395  0.00  0.00    -0.204 OA
ATOM      2  C2  BZF d   1       0.718   2.940   3.454  0.00  0.00     0.174 A 
ATOM      3  C3  BZF d   1      -0.596   3.155   3.664  0.00  0.00    -0.012 A 
ATOM      4  C3A BZF d   1      -1.270   2.302   2.734  0.00  0.00    -0.107 A 
ATOM      5  C4  BZF d   1      -2.587   2.057   2.469  0.00  0.00     0.055 A 
ATOM      6  C5  BZF d   1      -2.911   1.222   1.447  0.00  0.00    -0.016 A 
ATOM      7  C6  BZF d   1      -1.945   0.620   0.667  0.00  0.00     0.022 A 
ATOM      8  C7  BZF d   1      -0.626   0.829   0.895  0.00  0.00     0.029 A 
ATOM      9  C7A BZF d   1      -0.295   1.647   1.948  0.00  0.00     0.058 A 
ENDROOT
TORSDOF 0
ENDMDL
