MODEL 1
REMARK minimizedAffinity 10.1319933
REMARK minimizedRMSD -1
REMARK  0 active torsions:
REMARK  status: ('A' for Active; 'I' for Inactive)
ROOT
ATOM      1  O1  BZF d   1      -5.847  -0.477   2.303  0.00  0.00    -0.204 OA
ATOM      2  C2  BZF d   1      -5.880   0.668   1.530  0.00  0.00     0.174 A 
ATOM      3  C3  BZF d   1      -5.985   1.766   2.306  0.00  0.00    -0.012 A 
ATOM      4  C3A BZF d   1      -5.927   1.283   3.652  0.00  0.00    -0.107 A 
ATOM      5  C4  BZF d   1      -5.965   1.896   4.871  0.00  0.00     0.055 A 
ATOM      6  C5  BZF d   1      -5.960   1.132   5.995  0.00  0.00    -0.016 A 
ATOM      7  C6  BZF d   1      -5.923  -0.246   5.936  0.00  0.00     0.022 A 
ATOM      8  C7  BZF d   1      -5.879  -0.899   4.749  0.00  0.00     0.029 A 
ATOM      9  C7A BZF d   1      -5.851  -0.128   3.612  0.00  0.00     0.058 A 
ENDROOT
TORSDOF 0
ENDMDL
