MODEL 1
REMARK minimizedAffinity 7.79106569
REMARK minimizedRMSD -1
REMARK  0 active torsions:
REMARK  status: ('A' for Active; 'I' for Inactive)
ROOT
ATOM      1  O1  BZF d   1      -5.951   0.586   5.906  0.00  0.00    -0.204 OA
ATOM      2  C2  BZF d   1      -5.907   1.965   5.980  0.00  0.00     0.174 A 
ATOM      3  C3  BZF d   1      -5.838   2.509   4.748  0.00  0.00    -0.012 A 
ATOM      4  C3A BZF d   1      -5.931   1.404   3.844  0.00  0.00    -0.107 A 
ATOM      5  C4  BZF d   1      -5.936   1.304   2.482  0.00  0.00     0.055 A 
ATOM      6  C5  BZF d   1      -5.966   0.071   1.911  0.00  0.00    -0.016 A 
ATOM      7  C6  BZF d   1      -5.987  -1.081   2.670  0.00  0.00     0.022 A 
ATOM      8  C7  BZF d   1      -5.988  -1.032   4.024  0.00  0.00     0.029 A 
ATOM      9  C7A BZF d   1      -5.991   0.213   4.604  0.00  0.00     0.058 A 
ENDROOT
TORSDOF 0
ENDMDL
