MODEL 1
REMARK minimizedAffinity 4.58189106
REMARK minimizedRMSD -1
REMARK  0 active torsions:
REMARK  status: ('A' for Active; 'I' for Inactive)
ROOT
ATOM      1  O1  BZF d   1      -1.907   1.441   0.221  0.00  0.00    -0.204 OA
ATOM      2  C2  BZF d   1      -3.003   0.610   0.353  0.00  0.00     0.174 A 
ATOM      3  C3  BZF d   1      -2.690  -0.484   1.077  0.00  0.00    -0.012 A 
ATOM      4  C3A BZF d   1      -1.337  -0.283   1.497  0.00  0.00    -0.107 A 
ATOM      5  C4  BZF d   1      -0.472  -1.015   2.258  0.00  0.00     0.055 A 
ATOM      6  C5  BZF d   1       0.803  -0.572   2.420  0.00  0.00    -0.016 A 
ATOM      7  C6  BZF d   1       1.246   0.594   1.831  0.00  0.00     0.022 A 
ATOM      8  C7  BZF d   1       0.423   1.357   1.072  0.00  0.00     0.029 A 
ATOM      9  C7A BZF d   1      -0.875   0.929   0.935  0.00  0.00     0.058 A 
ENDROOT
TORSDOF 0
ENDMDL
