MODEL 1
REMARK minimizedAffinity 5.63916731
REMARK minimizedRMSD -1
REMARK  0 active torsions:
REMARK  status: ('A' for Active; 'I' for Inactive)
ROOT
ATOM      1  O1  BZF d   1       0.553   2.037   2.588  0.00  0.00    -0.204 OA
ATOM      2  C2  BZF d   1       0.122   2.831   3.633  0.00  0.00     0.174 A 
ATOM      3  C3  BZF d   1      -1.224   2.927   3.637  0.00  0.00    -0.012 A 
ATOM      4  C3A BZF d   1      -1.665   2.069   2.581  0.00  0.00    -0.107 A 
ATOM      5  C4  BZF d   1      -2.897   1.730   2.100  0.00  0.00     0.055 A 
ATOM      6  C5  BZF d   1      -2.982   0.923   1.009  0.00  0.00    -0.016 A 
ATOM      7  C6  BZF d   1      -1.856   0.442   0.373  0.00  0.00     0.022 A 
ATOM      8  C7  BZF d   1      -0.612   0.747   0.816  0.00  0.00     0.029 A 
ATOM      9  C7A BZF d   1      -0.524   1.536   1.938  0.00  0.00     0.058 A 
ENDROOT
TORSDOF 0
ENDMDL
