MODEL 1
REMARK minimizedAffinity 9.95350075
REMARK minimizedRMSD -1
REMARK  0 active torsions:
REMARK  status: ('A' for Active; 'I' for Inactive)
ROOT
ATOM      1  O1  BZF d   1       4.667   1.685   0.349  0.00  0.00    -0.204 OA
ATOM      2  C2  BZF d   1       3.354   1.529   0.751  0.00  0.00     0.174 A 
ATOM      3  C3  BZF d   1       2.701   2.708   0.718  0.00  0.00    -0.012 A 
ATOM      4  C3A BZF d   1       3.640   3.644   0.179  0.00  0.00    -0.107 A 
ATOM      5  C4  BZF d   1       3.576   4.977  -0.111  0.00  0.00     0.055 A 
ATOM      6  C5  BZF d   1       4.692   5.609  -0.559  0.00  0.00    -0.016 A 
ATOM      7  C6  BZF d   1       5.888   4.943  -0.723  0.00  0.00     0.022 A 
ATOM      8  C7  BZF d   1       5.999   3.619  -0.453  0.00  0.00     0.029 A 
ATOM      9  C7A BZF d   1       4.865   2.970  -0.031  0.00  0.00     0.058 A 
ENDROOT
TORSDOF 0
ENDMDL
