MODEL 1
REMARK minimizedAffinity 13.95121
REMARK minimizedRMSD -1
REMARK  0 active torsions:
REMARK  status: ('A' for Active; 'I' for Inactive)
ROOT
ATOM      1  O1  BZF d   1       1.477  -2.253  -3.883  0.00  0.00    -0.204 OA
ATOM      2  C2  BZF d   1       0.843  -2.255  -5.111  0.00  0.00     0.174 A 
ATOM      3  C3  BZF d   1       1.520  -1.499  -5.999  0.00  0.00    -0.012 A 
ATOM      4  C3A BZF d   1       2.697  -1.069  -5.308  0.00  0.00    -0.107 A 
ATOM      5  C4  BZF d   1       3.770  -0.305  -5.667  0.00  0.00     0.055 A 
ATOM      6  C5  BZF d   1       4.714  -0.011  -4.734  0.00  0.00    -0.016 A 
ATOM      7  C6  BZF d   1       4.613  -0.461  -3.434  0.00  0.00     0.022 A 
ATOM      8  C7  BZF d   1       3.570  -1.227  -3.032  0.00  0.00     0.029 A 
ATOM      9  C7A BZF d   1       2.631  -1.552  -3.981  0.00  0.00     0.058 A 
ENDROOT
TORSDOF 0
ENDMDL
