MODEL 1
REMARK minimizedAffinity 19.5152359
REMARK minimizedRMSD -1
REMARK  1 active torsions:
REMARK  status: ('A' for Active; 'I' for Inactive)
REMARK    1  A    between atoms: C1_2  and  C2_3 
ROOT
ATOM      1  C2  UNL d   1       4.060  -0.802   5.209  0.00  0.00    -0.076 A 
ATOM      2  C3  UNL d   1       4.568   0.509   5.183  0.00  0.00     0.004 A 
ATOM      3  C4  UNL d   1       3.933   1.510   4.450  0.00  0.00    -0.003 A 
ATOM      4  C5  UNL d   1       2.779   1.217   3.732  0.00  0.00     0.000 A 
ATOM      5  C6  UNL d   1       2.251  -0.074   3.761  0.00  0.00     0.000 A 
ATOM      6  C7  UNL d   1       2.870  -1.091   4.508  0.00  0.00    -0.073 A 
ATOM      7  C8  UNL d   1       2.261  -2.466   4.498  0.00  0.00     0.078 C 
ENDROOT
BRANCH   1   8
ATOM      8  C1  UNL d   1       4.807  -1.852   6.000  0.00  0.00     0.053 C 
ATOM      9  C   UNL d   1       6.000  -2.414   5.241  0.00  0.00     0.018 C 
ENDBRANCH   1   8
TORSDOF 1
ENDMDL
