MODEL 1
REMARK minimizedAffinity 21.6497517
REMARK minimizedRMSD -1
REMARK  1 active torsions:
REMARK  status: ('A' for Active; 'I' for Inactive)
REMARK    1  A    between atoms: C1_2  and  C2_3 
ROOT
ATOM      1  C2  UNL d   1      -0.036   1.918   4.072  0.00  0.00    -0.076 A 
ATOM      2  C3  UNL d   1       0.933   0.990   4.491  0.00  0.00     0.004 A 
ATOM      3  C4  UNL d   1       1.378  -0.017   3.637  0.00  0.00    -0.003 A 
ATOM      4  C5  UNL d   1       0.862  -0.113   2.350  0.00  0.00     0.000 A 
ATOM      5  C6  UNL d   1      -0.087   0.809   1.911  0.00  0.00     0.000 A 
ATOM      6  C7  UNL d   1      -0.535   1.841   2.754  0.00  0.00    -0.073 A 
ATOM      7  C8  UNL d   1      -1.565   2.805   2.231  0.00  0.00     0.078 C 
ENDROOT
BRANCH   1   8
ATOM      8  C1  UNL d   1      -0.501   2.973   5.051  0.00  0.00     0.053 C 
ATOM      9  C   UNL d   1       0.603   3.414   5.999  0.00  0.00     0.018 C 
ENDBRANCH   1   8
TORSDOF 1
ENDMDL
