MODEL 1
REMARK minimizedAffinity 9.67432117
REMARK minimizedRMSD -1
REMARK  1 active torsions:
REMARK  status: ('A' for Active; 'I' for Inactive)
REMARK    1  A    between atoms: C1_2  and  C2_3 
ROOT
ATOM      1  C2  UNL d   1       0.113   1.235   4.223  0.00  0.00    -0.076 A 
ATOM      2  C3  UNL d   1       0.806   0.046   4.510  0.00  0.00     0.004 A 
ATOM      3  C4  UNL d   1       0.953  -0.949   3.546  0.00  0.00    -0.003 A 
ATOM      4  C5  UNL d   1       0.411  -0.771   2.278  0.00  0.00     0.000 A 
ATOM      5  C6  UNL d   1      -0.264   0.409   1.970  0.00  0.00     0.000 A 
ATOM      6  C7  UNL d   1      -0.407   1.430   2.926  0.00  0.00    -0.073 A 
ATOM      7  C8  UNL d   1      -1.150   2.680   2.541  0.00  0.00     0.078 C 
ENDROOT
BRANCH   1   8
ATOM      8  C1  UNL d   1      -0.038   2.268   5.317  0.00  0.00     0.053 C 
ATOM      9  C   UNL d   1       1.298   2.692   5.907  0.00  0.00     0.018 C 
ENDBRANCH   1   8
TORSDOF 1
ENDMDL
