MODEL 1
REMARK minimizedAffinity 11.6302423
REMARK minimizedRMSD -1
REMARK  1 active torsions:
REMARK  status: ('A' for Active; 'I' for Inactive)
REMARK    1  A    between atoms: C1_2  and  C2_3 
ROOT
ATOM      1  C2  UNL d   1       0.724  -0.311   3.637  0.00  0.00    -0.076 A 
ATOM      2  C3  UNL d   1       1.333  -0.508   4.889  0.00  0.00     0.004 A 
ATOM      3  C4  UNL d   1       1.427  -1.781   5.448  0.00  0.00    -0.003 A 
ATOM      4  C5  UNL d   1       0.915  -2.879   4.764  0.00  0.00     0.000 A 
ATOM      5  C6  UNL d   1       0.323  -2.704   3.514  0.00  0.00     0.000 A 
ATOM      6  C7  UNL d   1       0.235  -1.429   2.928  0.00  0.00    -0.073 A 
ATOM      7  C8  UNL d   1      -0.419  -1.298   1.580  0.00  0.00     0.078 C 
ENDROOT
BRANCH   1   8
ATOM      8  C1  UNL d   1       0.626   1.096   3.093  0.00  0.00     0.053 C 
ATOM      9  C   UNL d   1      -0.379   1.947   3.855  0.00  0.00     0.018 C 
ENDBRANCH   1   8
TORSDOF 1
ENDMDL
