MODEL 1
REMARK minimizedAffinity 13.4036207
REMARK minimizedRMSD -1
REMARK  1 active torsions:
REMARK  status: ('A' for Active; 'I' for Inactive)
REMARK    1  A    between atoms: C1_2  and  C2_3 
ROOT
ATOM      1  C2  UNL d   1       0.799  -1.631  -5.201  0.00  0.00    -0.076 A 
ATOM      2  C3  UNL d   1       2.094  -1.127  -4.990  0.00  0.00     0.004 A 
ATOM      3  C4  UNL d   1       3.220  -1.900  -5.269  0.00  0.00    -0.003 A 
ATOM      4  C5  UNL d   1       3.068  -3.191  -5.763  0.00  0.00     0.000 A 
ATOM      5  C6  UNL d   1       1.791  -3.701  -5.995  0.00  0.00     0.000 A 
ATOM      6  C7  UNL d   1       0.647  -2.928  -5.735  0.00  0.00    -0.073 A 
ATOM      7  C8  UNL d   1      -0.706  -3.531  -5.998  0.00  0.00     0.078 C 
ENDROOT
BRANCH   1   8
ATOM      8  C1  UNL d   1      -0.384  -0.756  -4.855  0.00  0.00     0.053 C 
ATOM      9  C   UNL d   1      -1.210  -1.319  -3.709  0.00  0.00     0.018 C 
ENDBRANCH   1   8
TORSDOF 1
ENDMDL
