MODEL 1
REMARK minimizedAffinity 23.0121403
REMARK minimizedRMSD -1
REMARK  1 active torsions:
REMARK  status: ('A' for Active; 'I' for Inactive)
REMARK    1  A    between atoms: C1_2  and  C2_3 
ROOT
ATOM      1  C2  UNL d   1       1.772  -2.860  -4.801  0.00  0.00    -0.076 A 
ATOM      2  C3  UNL d   1       1.867  -4.125  -5.407  0.00  0.00     0.004 A 
ATOM      3  C4  UNL d   1       0.756  -4.722  -6.000  0.00  0.00    -0.003 A 
ATOM      4  C5  UNL d   1      -0.469  -4.064  -5.997  0.00  0.00     0.000 A 
ATOM      5  C6  UNL d   1      -0.578  -2.801  -5.416  0.00  0.00     0.000 A 
ATOM      6  C7  UNL d   1       0.537  -2.178  -4.828  0.00  0.00    -0.073 A 
ATOM      7  C8  UNL d   1       0.361  -0.818  -4.210  0.00  0.00     0.078 C 
ENDROOT
BRANCH   1   8
ATOM      8  C1  UNL d   1       3.004  -2.274  -4.150  0.00  0.00     0.053 C 
ATOM      9  C   UNL d   1       4.171  -3.250  -4.127  0.00  0.00     0.018 C 
ENDBRANCH   1   8
TORSDOF 1
ENDMDL
