MODEL 1
REMARK minimizedAffinity 8.39845085
REMARK minimizedRMSD -1
REMARK  1 active torsions:
REMARK  status: ('A' for Active; 'I' for Inactive)
REMARK    1  A    between atoms: C1_2  and  C2_3 
ROOT
ATOM      1  C2  UNL d   1       4.784   3.889   2.808  0.00  0.00    -0.076 A 
ATOM      2  C3  UNL d   1       4.945   5.285   2.788  0.00  0.00     0.004 A 
ATOM      3  C4  UNL d   1       4.861   6.000   1.595  0.00  0.00    -0.003 A 
ATOM      4  C5  UNL d   1       4.616   5.330   0.401  0.00  0.00     0.000 A 
ATOM      5  C6  UNL d   1       4.436   3.947   0.405  0.00  0.00     0.000 A 
ATOM      6  C7  UNL d   1       4.501   3.213   1.601  0.00  0.00    -0.073 A 
ATOM      7  C8  UNL d   1       4.306   1.723   1.546  0.00  0.00     0.078 C 
ENDROOT
BRANCH   1   8
ATOM      8  C1  UNL d   1       4.912   3.164   4.129  0.00  0.00     0.053 C 
ATOM      9  C   UNL d   1       6.000   2.101   4.107  0.00  0.00     0.018 C 
ENDBRANCH   1   8
TORSDOF 1
ENDMDL
