MODEL 1
REMARK minimizedAffinity 10.2805853
REMARK minimizedRMSD -1
REMARK  1 active torsions:
REMARK  status: ('A' for Active; 'I' for Inactive)
REMARK    1  A    between atoms: C1_2  and  C2_3 
ROOT
ATOM      1  C2  UNL d   1       3.966   1.656  -5.500  0.00  0.00    -0.076 A 
ATOM      2  C3  UNL d   1       3.995   2.971  -5.997  0.00  0.00     0.004 A 
ATOM      3  C4  UNL d   1       5.003   3.858  -5.623  0.00  0.00    -0.003 A 
ATOM      4  C5  UNL d   1       6.000   3.444  -4.746  0.00  0.00     0.000 A 
ATOM      5  C6  UNL d   1       5.997   2.138  -4.257  0.00  0.00     0.000 A 
ATOM      6  C7  UNL d   1       4.997   1.226  -4.637  0.00  0.00    -0.073 A 
ATOM      7  C8  UNL d   1       5.039  -0.168  -4.074  0.00  0.00     0.078 C 
ENDROOT
BRANCH   1   8
ATOM      8  C1  UNL d   1       2.833   0.748  -5.920  0.00  0.00     0.053 C 
ATOM      9  C   UNL d   1       1.799   0.559  -4.821  0.00  0.00     0.018 C 
ENDBRANCH   1   8
TORSDOF 1
ENDMDL
