MODEL 1
REMARK minimizedAffinity 15.1793261
REMARK minimizedRMSD -1
REMARK  1 active torsions:
REMARK  status: ('A' for Active; 'I' for Inactive)
REMARK    1  A    between atoms: C1_2  and  C2_3 
ROOT
ATOM      1  C2  UNL d   1      -0.911  -1.619  -3.806  0.00  0.00    -0.076 A 
ATOM      2  C3  UNL d   1       0.138  -0.686  -3.740  0.00  0.00     0.004 A 
ATOM      3  C4  UNL d   1       1.154  -0.680  -4.694  0.00  0.00    -0.003 A 
ATOM      4  C5  UNL d   1       1.136  -1.605  -5.731  0.00  0.00     0.000 A 
ATOM      5  C6  UNL d   1       0.093  -2.527  -5.823  0.00  0.00     0.000 A 
ATOM      6  C7  UNL d   1      -0.947  -2.536  -4.878  0.00  0.00    -0.073 A 
ATOM      7  C8  UNL d   1      -2.043  -3.556  -5.022  0.00  0.00     0.078 C 
ENDROOT
BRANCH   1   8
ATOM      8  C1  UNL d   1      -1.970  -1.595  -2.727  0.00  0.00     0.053 C 
ATOM      9  C   UNL d   1      -1.630  -2.506  -1.557  0.00  0.00     0.018 C 
ENDBRANCH   1   8
TORSDOF 1
ENDMDL
