MODEL 1
REMARK minimizedAffinity -3.96675587
REMARK minimizedRMSD -1
REMARK  1 active torsions:
REMARK  status: ('A' for Active; 'I' for Inactive)
REMARK    1  A    between atoms: C1_2  and  C2_3 
ROOT
ATOM      1  C2  UNL d   1       1.061   0.618   0.618  0.00  0.00    -0.077 A 
ATOM      2  C3  UNL d   1      -0.201   0.378   0.058  0.00  0.00     0.002 A 
ATOM      3  C4  UNL d   1      -1.209  -0.221   0.816  0.00  0.00     0.002 A 
ATOM      4  C5  UNL d   1      -0.966  -0.580   2.140  0.00  0.00    -0.004 A 
ATOM      5  C6  UNL d   1       0.286  -0.348   2.706  0.00  0.00     0.002 A 
ATOM      6  C7  UNL d   1       1.295   0.249   1.949  0.00  0.00     0.002 A 
ENDROOT
BRANCH   1   7
ATOM      7  C1  UNL d   1       2.134   1.308  -0.183  0.00  0.00     0.055 C 
ATOM      8  C   UNL d   1       1.974   2.821  -0.135  0.00  0.00     0.019 C 
ENDBRANCH   1   7
TORSDOF 1
ENDMDL
