MODEL 1
REMARK minimizedAffinity -2.52612019
REMARK minimizedRMSD -1
REMARK  1 active torsions:
REMARK  status: ('A' for Active; 'I' for Inactive)
REMARK    1  A    between atoms: C1_2  and  C2_3 
ROOT
ATOM      1  C2  UNL d   1       2.138   1.943   0.223  0.00  0.00    -0.077 A 
ATOM      2  C3  UNL d   1       3.290   2.526   0.768  0.00  0.00     0.002 A 
ATOM      3  C4  UNL d   1       3.709   3.790   0.348  0.00  0.00     0.002 A 
ATOM      4  C5  UNL d   1       2.979   4.483  -0.615  0.00  0.00    -0.004 A 
ATOM      5  C6  UNL d   1       1.833   3.911  -1.165  0.00  0.00     0.002 A 
ATOM      6  C7  UNL d   1       1.413   2.648  -0.748  0.00  0.00     0.002 A 
ENDROOT
BRANCH   1   7
ATOM      7  C1  UNL d   1       1.657   0.602   0.710  0.00  0.00     0.055 C 
ATOM      8  C   UNL d   1       0.408   0.156  -0.037  0.00  0.00     0.019 C 
ENDBRANCH   1   7
TORSDOF 1
ENDMDL
