MODEL 1
REMARK minimizedAffinity -3.52901053
REMARK minimizedRMSD -1
REMARK  1 active torsions:
REMARK  status: ('A' for Active; 'I' for Inactive)
REMARK    1  A    between atoms: C1_2  and  C2_3 
ROOT
ATOM      1  C2  UNL d   1      -0.225   0.027   0.529  0.00  0.00    -0.077 A 
ATOM      2  C3  UNL d   1       1.053   0.600   0.593  0.00  0.00     0.002 A 
ATOM      3  C4  UNL d   1       1.739   0.661   1.808  0.00  0.00     0.002 A 
ATOM      4  C5  UNL d   1       1.157   0.148   2.965  0.00  0.00    -0.004 A 
ATOM      5  C6  UNL d   1      -0.114  -0.422   2.912  0.00  0.00     0.002 A 
ATOM      6  C7  UNL d   1      -0.802  -0.483   1.699  0.00  0.00     0.002 A 
ENDROOT
BRANCH   1   7
ATOM      7  C1  UNL d   1      -0.946  -0.085  -0.789  0.00  0.00     0.055 C 
ATOM      8  C   UNL d   1      -2.337   0.528  -0.713  0.00  0.00     0.019 C 
ENDBRANCH   1   7
TORSDOF 1
ENDMDL
