MODEL 1
REMARK minimizedAffinity -5.58748245
REMARK minimizedRMSD -1
REMARK  1 active torsions:
REMARK  status: ('A' for Active; 'I' for Inactive)
REMARK    1  A    between atoms: C1_2  and  C2_3 
ROOT
ATOM      1  C2  UNL d   1       0.653   0.454   0.253  0.00  0.00    -0.077 A 
ATOM      2  C3  UNL d   1       1.670   0.358   1.212  0.00  0.00     0.002 A 
ATOM      3  C4  UNL d   1       1.423  -0.249   2.445  0.00  0.00     0.002 A 
ATOM      4  C5  UNL d   1       0.162  -0.769   2.728  0.00  0.00    -0.004 A 
ATOM      5  C6  UNL d   1      -0.857  -0.677   1.781  0.00  0.00     0.002 A 
ATOM      6  C7  UNL d   1      -0.613  -0.069   0.548  0.00  0.00     0.002 A 
ENDROOT
BRANCH   1   7
ATOM      7  C1  UNL d   1       0.930   1.064  -1.096  0.00  0.00     0.055 C 
ATOM      8  C   UNL d   1       1.700   2.370  -0.965  0.00  0.00     0.019 C 
ENDBRANCH   1   7
TORSDOF 1
ENDMDL
