MODEL 1
REMARK minimizedAffinity 9.0108757
REMARK minimizedRMSD -1
REMARK  1 active torsions:
REMARK  status: ('A' for Active; 'I' for Inactive)
REMARK    1  A    between atoms: C1_2  and  C2_3 
ROOT
ATOM      1  C2  UNL d   1      -0.382  -1.886  -3.165  0.00  0.00    -0.077 A 
ATOM      2  C3  UNL d   1       0.760  -1.472  -2.465  0.00  0.00     0.002 A 
ATOM      3  C4  UNL d   1       0.689  -0.406  -1.566  0.00  0.00     0.002 A 
ATOM      4  C5  UNL d   1      -0.521   0.251  -1.356  0.00  0.00    -0.004 A 
ATOM      5  C6  UNL d   1      -1.662  -0.152  -2.050  0.00  0.00     0.002 A 
ATOM      6  C7  UNL d   1      -1.593  -1.216  -2.949  0.00  0.00     0.002 A 
ENDROOT
BRANCH   1   7
ATOM      7  C1  UNL d   1      -0.319  -3.067  -4.099  0.00  0.00     0.055 C 
ATOM      8  C   UNL d   1      -1.088  -2.799  -5.384  0.00  0.00     0.019 C 
ENDBRANCH   1   7
TORSDOF 1
ENDMDL
