MODEL 1
REMARK minimizedAffinity 0.517249525
REMARK minimizedRMSD -1
REMARK  1 active torsions:
REMARK  status: ('A' for Active; 'I' for Inactive)
REMARK    1  A    between atoms: C1_2  and  C2_3 
ROOT
ATOM      1  C2  UNL d   1       1.253  -1.485  -2.624  0.00  0.00    -0.077 A 
ATOM      2  C3  UNL d   1       0.068  -1.415  -3.370  0.00  0.00     0.002 A 
ATOM      3  C4  UNL d   1      -0.398  -2.535  -4.061  0.00  0.00     0.002 A 
ATOM      4  C5  UNL d   1       0.311  -3.734  -4.008  0.00  0.00    -0.004 A 
ATOM      5  C6  UNL d   1       1.491  -3.812  -3.270  0.00  0.00     0.002 A 
ATOM      6  C7  UNL d   1       1.960  -2.693  -2.581  0.00  0.00     0.002 A 
ENDROOT
BRANCH   1   7
ATOM      7  C1  UNL d   1       1.732  -0.292  -1.839  0.00  0.00     0.055 C 
ATOM      8  C   UNL d   1       2.388   0.740  -2.745  0.00  0.00     0.019 C 
ENDBRANCH   1   7
TORSDOF 1
ENDMDL
