MODEL 1
REMARK minimizedAffinity -1.26841545
REMARK minimizedRMSD -1
REMARK  1 active torsions:
REMARK  status: ('A' for Active; 'I' for Inactive)
REMARK    1  A    between atoms: C1_2  and  C2_3 
ROOT
ATOM      1  C2  UNL d   1      -3.539   1.812   3.847  0.00  0.00    -0.077 A 
ATOM      2  C3  UNL d   1      -3.829   1.853   5.218  0.00  0.00     0.002 A 
ATOM      3  C4  UNL d   1      -5.054   2.350   5.667  0.00  0.00     0.002 A 
ATOM      4  C5  UNL d   1      -5.999   2.807   4.751  0.00  0.00    -0.004 A 
ATOM      5  C6  UNL d   1      -5.720   2.773   3.385  0.00  0.00     0.002 A 
ATOM      6  C7  UNL d   1      -4.495   2.277   2.936  0.00  0.00     0.002 A 
ENDROOT
BRANCH   1   7
ATOM      7  C1  UNL d   1      -2.238   1.230   3.359  0.00  0.00     0.055 C 
ATOM      8  C   UNL d   1      -1.142   2.285   3.315  0.00  0.00     0.019 C 
ENDBRANCH   1   7
TORSDOF 1
ENDMDL
