MODEL 1
REMARK minimizedAffinity 4.83970547
REMARK minimizedRMSD -1
REMARK  1 active torsions:
REMARK  status: ('A' for Active; 'I' for Inactive)
REMARK    1  A    between atoms: C1_2  and  C2_3 
ROOT
ATOM      1  C2  UNL d   1      -3.675  -5.277   0.304  0.00  0.00    -0.077 A 
ATOM      2  C3  UNL d   1      -3.720  -3.876   0.313  0.00  0.00     0.002 A 
ATOM      3  C4  UNL d   1      -4.879  -3.209   0.714  0.00  0.00     0.002 A 
ATOM      4  C5  UNL d   1      -6.000  -3.934   1.112  0.00  0.00    -0.004 A 
ATOM      5  C6  UNL d   1      -5.966  -5.328   1.105  0.00  0.00     0.002 A 
ATOM      6  C7  UNL d   1      -4.809  -5.997   0.703  0.00  0.00     0.002 A 
ENDROOT
BRANCH   1   7
ATOM      7  C1  UNL d   1      -2.410  -5.998  -0.081  0.00  0.00     0.055 C 
ATOM      8  C   UNL d   1      -1.402  -5.995   1.059  0.00  0.00     0.019 C 
ENDBRANCH   1   7
TORSDOF 1
ENDMDL
