MODEL 1
REMARK minimizedAffinity 1.93877423
REMARK minimizedRMSD -1
REMARK  1 active torsions:
REMARK  status: ('A' for Active; 'I' for Inactive)
REMARK    1  A    between atoms: C1_2  and  C2_3 
ROOT
ATOM      1  C2  UNL d   1      -1.863  -4.838   1.892  0.00  0.00    -0.077 A 
ATOM      2  C3  UNL d   1      -2.647  -6.000   1.864  0.00  0.00     0.002 A 
ATOM      3  C4  UNL d   1      -3.918  -5.980   1.287  0.00  0.00     0.002 A 
ATOM      4  C5  UNL d   1      -4.415  -4.803   0.731  0.00  0.00    -0.004 A 
ATOM      5  C6  UNL d   1      -3.644  -3.642   0.756  0.00  0.00     0.002 A 
ATOM      6  C7  UNL d   1      -2.373  -3.659   1.333  0.00  0.00     0.002 A 
ENDROOT
BRANCH   1   7
ATOM      7  C1  UNL d   1      -0.472  -4.869   2.470  0.00  0.00     0.055 C 
ATOM      8  C   UNL d   1       0.351  -6.000   1.870  0.00  0.00     0.019 C 
ENDBRANCH   1   7
TORSDOF 1
ENDMDL
