MODEL 1
REMARK minimizedAffinity 0.321208
REMARK minimizedRMSD -1
REMARK  1 active torsions:
REMARK  status: ('A' for Active; 'I' for Inactive)
REMARK    1  A    between atoms: C1_2  and  C2_3 
ROOT
ATOM      1  C2  UNL d   1      -3.209  -5.227   0.370  0.00  0.00    -0.077 A 
ATOM      2  C3  UNL d   1      -3.408  -3.893   0.753  0.00  0.00     0.002 A 
ATOM      3  C4  UNL d   1      -4.692  -3.344   0.763  0.00  0.00     0.002 A 
ATOM      4  C5  UNL d   1      -5.787  -4.124   0.395  0.00  0.00    -0.004 A 
ATOM      5  C6  UNL d   1      -5.599  -5.451   0.010  0.00  0.00     0.002 A 
ATOM      6  C7  UNL d   1      -4.316  -6.000  -0.002  0.00  0.00     0.002 A 
ENDROOT
BRANCH   1   7
ATOM      7  C1  UNL d   1      -1.831  -5.834   0.405  0.00  0.00     0.055 C 
ATOM      8  C   UNL d   1      -1.262  -5.998  -0.996  0.00  0.00     0.019 C 
ENDBRANCH   1   7
TORSDOF 1
ENDMDL
