MODEL 1
REMARK minimizedAffinity 2.56006908
REMARK minimizedRMSD -1
REMARK  1 active torsions:
REMARK  status: ('A' for Active; 'I' for Inactive)
REMARK    1  A    between atoms: C1_2  and  C2_3 
ROOT
ATOM      1  C2  UNL d   1       0.077   0.972   2.585  0.00  0.00    -0.077 A 
ATOM      2  C3  UNL d   1       1.331   1.438   3.004  0.00  0.00     0.002 A 
ATOM      3  C4  UNL d   1       1.424   2.447   3.965  0.00  0.00     0.002 A 
ATOM      4  C5  UNL d   1       0.268   2.995   4.516  0.00  0.00    -0.004 A 
ATOM      5  C6  UNL d   1      -0.984   2.540   4.104  0.00  0.00     0.002 A 
ATOM      6  C7  UNL d   1      -1.079   1.532   3.144  0.00  0.00     0.002 A 
ENDROOT
BRANCH   1   7
ATOM      7  C1  UNL d   1      -0.025  -0.150   1.585  0.00  0.00     0.055 C 
ATOM      8  C   UNL d   1       0.261   0.339   0.173  0.00  0.00     0.019 C 
ENDBRANCH   1   7
TORSDOF 1
ENDMDL
