MODEL 1
REMARK minimizedAffinity -3.18310237
REMARK minimizedRMSD -1
REMARK  1 active torsions:
REMARK  status: ('A' for Active; 'I' for Inactive)
REMARK    1  A    between atoms: C1_2  and  C2_3 
ROOT
ATOM      1  C2  UNL d   1      -2.616  -5.265   1.356  0.00  0.00    -0.077 A 
ATOM      2  C3  UNL d   1      -3.791  -5.986   1.104  0.00  0.00     0.002 A 
ATOM      3  C4  UNL d   1      -4.922  -5.340   0.599  0.00  0.00     0.002 A 
ATOM      4  C5  UNL d   1      -4.886  -3.972   0.339  0.00  0.00    -0.004 A 
ATOM      5  C6  UNL d   1      -3.722  -3.245   0.588  0.00  0.00     0.002 A 
ATOM      6  C7  UNL d   1      -2.592  -3.889   1.093  0.00  0.00     0.002 A 
ENDROOT
BRANCH   1   7
ATOM      7  C1  UNL d   1      -1.380  -5.968   1.853  0.00  0.00     0.055 C 
ATOM      8  C   UNL d   1      -0.277  -4.977   2.191  0.00  0.00     0.019 C 
ENDBRANCH   1   7
TORSDOF 1
ENDMDL
