MODEL 1
REMARK minimizedAffinity 0.398481995
REMARK minimizedRMSD -1
REMARK  1 active torsions:
REMARK  status: ('A' for Active; 'I' for Inactive)
REMARK    1  A    between atoms: C1_2  and  C2_3 
ROOT
ATOM      1  C2  UNL d   1      -5.394   2.291  -5.237  0.00  0.00    -0.073 A 
ATOM      2  C3  UNL d   1      -4.334   2.376  -4.327  0.00  0.00    -0.002 A 
ATOM      3  C4  UNL d   1      -3.812   3.619  -3.967  0.00  0.00     0.004 A 
ATOM      4  C5  UNL d   1      -4.347   4.788  -4.507  0.00  0.00    -0.004 A 
ATOM      5  C6  UNL d   1      -5.414   4.725  -5.409  0.00  0.00    -0.075 A 
ATOM      6  C7  UNL d   1      -6.000   5.974  -6.000  0.00  0.00     0.076 C 
ATOM      7  C8  UNL d   1      -5.931   3.473  -5.767  0.00  0.00     0.001 A 
ENDROOT
BRANCH   1   8
ATOM      8  C1  UNL d   1      -5.966   0.952  -5.624  0.00  0.00     0.053 C 
ATOM      9  C   UNL d   1      -5.284  -0.192  -4.890  0.00  0.00     0.018 C 
ENDBRANCH   1   8
TORSDOF 1
ENDMDL
