MODEL 1
REMARK minimizedAffinity 10.4641018
REMARK minimizedRMSD -1
REMARK  1 active torsions:
REMARK  status: ('A' for Active; 'I' for Inactive)
REMARK    1  A    between atoms: C1_2  and  C2_3 
ROOT
ATOM      1  C2  UNL d   1       0.018   2.281   1.631  0.00  0.00    -0.073 A 
ATOM      2  C3  UNL d   1       0.240   1.032   2.223  0.00  0.00    -0.002 A 
ATOM      3  C4  UNL d   1       0.681   0.948   3.545  0.00  0.00     0.004 A 
ATOM      4  C5  UNL d   1       0.896   2.108   4.288  0.00  0.00    -0.004 A 
ATOM      5  C6  UNL d   1       0.669   3.364   3.718  0.00  0.00    -0.075 A 
ATOM      6  C7  UNL d   1       0.898   4.622   4.503  0.00  0.00     0.076 C 
ATOM      7  C8  UNL d   1       0.229   3.441   2.389  0.00  0.00     0.001 A 
ENDROOT
BRANCH   1   8
ATOM      8  C1  UNL d   1      -0.464   2.377   0.206  0.00  0.00     0.053 C 
ATOM      9  C   UNL d   1      -1.970   2.198   0.100  0.00  0.00     0.018 C 
ENDBRANCH   1   8
TORSDOF 1
ENDMDL
