MODEL 1
REMARK minimizedAffinity -2.98899412
REMARK minimizedRMSD -1
REMARK  1 active torsions:
REMARK  status: ('A' for Active; 'I' for Inactive)
REMARK    1  A    between atoms: C1_2  and  C2_3 
ROOT
ATOM      1  C2  UNL d   1      -5.269   3.367  -4.429  0.00  0.00    -0.073 A 
ATOM      2  C3  UNL d   1      -4.473   2.220  -4.511  0.00  0.00    -0.002 A 
ATOM      3  C4  UNL d   1      -4.166   1.491  -3.360  0.00  0.00     0.004 A 
ATOM      4  C5  UNL d   1      -4.657   1.898  -2.120  0.00  0.00    -0.004 A 
ATOM      5  C6  UNL d   1      -5.464   3.036  -2.020  0.00  0.00    -0.075 A 
ATOM      6  C7  UNL d   1      -5.998   3.488  -0.693  0.00  0.00     0.076 C 
ATOM      7  C8  UNL d   1      -5.766   3.763  -3.179  0.00  0.00     0.001 A 
ENDROOT
BRANCH   1   8
ATOM      8  C1  UNL d   1      -5.608   4.153  -5.669  0.00  0.00     0.053 C 
ATOM      9  C   UNL d   1      -4.542   5.185  -6.000  0.00  0.00     0.018 C 
ENDBRANCH   1   8
TORSDOF 1
ENDMDL
