MODEL 1
REMARK minimizedAffinity 1.74656773
REMARK minimizedRMSD -1
REMARK  1 active torsions:
REMARK  status: ('A' for Active; 'I' for Inactive)
REMARK    1  A    between atoms: C1_2  and  C2_3 
ROOT
ATOM      1  C2  UNL d   1       3.635  -3.985  -2.308  0.00  0.00    -0.073 A 
ATOM      2  C3  UNL d   1       4.019  -3.753  -3.634  0.00  0.00    -0.002 A 
ATOM      3  C4  UNL d   1       3.059  -3.687  -4.645  0.00  0.00     0.004 A 
ATOM      4  C5  UNL d   1       1.707  -3.846  -4.340  0.00  0.00    -0.004 A 
ATOM      5  C6  UNL d   1       1.303  -4.067  -3.019  0.00  0.00    -0.075 A 
ATOM      6  C7  UNL d   1      -0.147  -4.242  -2.675  0.00  0.00     0.076 C 
ATOM      7  C8  UNL d   1       2.273  -4.134  -2.010  0.00  0.00     0.001 A 
ENDROOT
BRANCH   1   8
ATOM      8  C1  UNL d   1       4.668  -4.051  -1.213  0.00  0.00     0.053 C 
ATOM      9  C   UNL d   1       5.637  -2.881  -1.273  0.00  0.00     0.018 C 
ENDBRANCH   1   8
TORSDOF 1
ENDMDL
