MODEL 1
REMARK minimizedAffinity -1.05109763
REMARK minimizedRMSD -1
REMARK  1 active torsions:
REMARK  status: ('A' for Active; 'I' for Inactive)
REMARK    1  A    between atoms: C1_2  and  C2_3 
ROOT
ATOM      1  C2  UNL d   1      -5.302   2.155  -2.262  0.00  0.00    -0.073 A 
ATOM      2  C3  UNL d   1      -5.992   3.090  -3.042  0.00  0.00    -0.002 A 
ATOM      3  C4  UNL d   1      -5.995   2.982  -4.433  0.00  0.00     0.004 A 
ATOM      4  C5  UNL d   1      -5.315   1.938  -5.058  0.00  0.00    -0.004 A 
ATOM      5  C6  UNL d   1      -4.629   0.987  -4.296  0.00  0.00    -0.075 A 
ATOM      6  C7  UNL d   1      -3.890  -0.142  -4.953  0.00  0.00     0.076 C 
ATOM      7  C8  UNL d   1      -4.628   1.103  -2.899  0.00  0.00     0.001 A 
ENDROOT
BRANCH   1   8
ATOM      8  C1  UNL d   1      -5.302   2.262  -0.759  0.00  0.00     0.053 C 
ATOM      9  C   UNL d   1      -4.981   0.934  -0.093  0.00  0.00     0.018 C 
ENDBRANCH   1   8
TORSDOF 1
ENDMDL
