MODEL 1
REMARK minimizedAffinity 1.40309227
REMARK minimizedRMSD -1
REMARK  1 active torsions:
REMARK  status: ('A' for Active; 'I' for Inactive)
REMARK    1  A    between atoms: C1_2  and  C2_3 
ROOT
ATOM      1  C2  UNL d   1      -4.078   2.492  -3.785  0.00  0.00    -0.073 A 
ATOM      2  C3  UNL d   1      -4.424   1.268  -4.368  0.00  0.00    -0.002 A 
ATOM      3  C4  UNL d   1      -5.282   1.228  -5.467  0.00  0.00     0.004 A 
ATOM      4  C5  UNL d   1      -5.797   2.410  -6.000  0.00  0.00    -0.004 A 
ATOM      5  C6  UNL d   1      -5.453   3.644  -5.439  0.00  0.00    -0.075 A 
ATOM      6  C7  UNL d   1      -6.000   4.925  -5.999  0.00  0.00     0.076 C 
ATOM      7  C8  UNL d   1      -4.593   3.676  -4.333  0.00  0.00     0.001 A 
ENDROOT
BRANCH   1   8
ATOM      8  C1  UNL d   1      -3.146   2.541  -2.602  0.00  0.00     0.053 C 
ATOM      9  C   UNL d   1      -3.760   1.902  -1.366  0.00  0.00     0.018 C 
ENDBRANCH   1   8
TORSDOF 1
ENDMDL
