MODEL 1
REMARK minimizedAffinity -1.2933085
REMARK minimizedRMSD -1
REMARK  1 active torsions:
REMARK  status: ('A' for Active; 'I' for Inactive)
REMARK    1  A    between atoms: C1_2  and  C2_3 
ROOT
ATOM      1  C2  UNL d   1       0.418   2.936   0.753  0.00  0.00    -0.073 A 
ATOM      2  C3  UNL d   1       0.443   4.181   0.114  0.00  0.00    -0.002 A 
ATOM      3  C4  UNL d   1       0.674   5.346   0.848  0.00  0.00     0.004 A 
ATOM      4  C5  UNL d   1       0.889   5.277   2.224  0.00  0.00    -0.004 A 
ATOM      5  C6  UNL d   1       0.879   4.041   2.879  0.00  0.00    -0.075 A 
ATOM      6  C7  UNL d   1       1.105   3.950   4.359  0.00  0.00     0.076 C 
ATOM      7  C8  UNL d   1       0.643   2.877   2.136  0.00  0.00     0.001 A 
ENDROOT
BRANCH   1   8
ATOM      8  C1  UNL d   1       0.175   1.676  -0.036  0.00  0.00     0.053 C 
ATOM      9  C   UNL d   1       0.890   1.697  -1.378  0.00  0.00     0.018 C 
ENDBRANCH   1   8
TORSDOF 1
ENDMDL
