MODEL 1
REMARK minimizedAffinity 5.9066515
REMARK minimizedRMSD -1
REMARK  1 active torsions:
REMARK  status: ('A' for Active; 'I' for Inactive)
REMARK    1  A    between atoms: C1_2  and  C2_3 
ROOT
ATOM      1  C2  UNL d   1      -1.334   1.410  -1.310  0.00  0.00    -0.073 A 
ATOM      2  C3  UNL d   1      -0.291   1.350  -2.241  0.00  0.00    -0.002 A 
ATOM      3  C4  UNL d   1       0.995   0.991  -1.837  0.00  0.00     0.004 A 
ATOM      4  C5  UNL d   1       1.250   0.682  -0.501  0.00  0.00    -0.004 A 
ATOM      5  C6  UNL d   1       0.219   0.724   0.443  0.00  0.00    -0.075 A 
ATOM      6  C7  UNL d   1       0.477   0.397   1.884  0.00  0.00     0.076 C 
ATOM      7  C8  UNL d   1      -1.070   1.088   0.029  0.00  0.00     0.001 A 
ENDROOT
BRANCH   1   8
ATOM      8  C1  UNL d   1      -2.726   1.790  -1.743  0.00  0.00     0.053 C 
ATOM      9  C   UNL d   1      -2.781   3.200  -2.311  0.00  0.00     0.018 C 
ENDBRANCH   1   8
TORSDOF 1
ENDMDL
