MODEL 1
REMARK minimizedAffinity 6.81238699
REMARK minimizedRMSD -1
REMARK  1 active torsions:
REMARK  status: ('A' for Active; 'I' for Inactive)
REMARK    1  A    between atoms: C1_2  and  C2_3 
ROOT
ATOM      1  C2  UNL d   1      -4.618   1.854  -2.498  0.00  0.00    -0.073 A 
ATOM      2  C3  UNL d   1      -4.050   0.644  -2.912  0.00  0.00    -0.002 A 
ATOM      3  C4  UNL d   1      -4.119   0.255  -4.251  0.00  0.00     0.004 A 
ATOM      4  C5  UNL d   1      -4.749   1.073  -5.188  0.00  0.00    -0.004 A 
ATOM      5  C6  UNL d   1      -5.312   2.291  -4.796  0.00  0.00    -0.075 A 
ATOM      6  C7  UNL d   1      -5.995   3.182  -5.791  0.00  0.00     0.076 C 
ATOM      7  C8  UNL d   1      -5.241   2.674  -3.449  0.00  0.00     0.001 A 
ENDROOT
BRANCH   1   8
ATOM      8  C1  UNL d   1      -4.540   2.281  -1.055  0.00  0.00     0.053 C 
ATOM      9  C   UNL d   1      -3.938   1.200  -0.172  0.00  0.00     0.018 C 
ENDBRANCH   1   8
TORSDOF 1
ENDMDL
