MODEL 1
REMARK minimizedAffinity -2.48633885
REMARK minimizedRMSD -1
REMARK  0 active torsions:
REMARK  status: ('A' for Active; 'I' for Inactive)
ROOT
ATOM      1  C   UNL d   1       0.757  -0.744  -1.547  0.00  0.00     0.172 C 
ATOM      2  N   UNL d   1       0.287  -0.037  -0.379  0.00  0.00    -0.070 N 
ATOM      3  C1  UNL d   1      -1.018   0.063   0.022  0.00  0.00    -0.004 A 
ATOM      4  C2  UNL d   1      -1.049   0.815   1.177  0.00  0.00    -0.047 A 
ATOM      5  C3  UNL d   1       0.285   1.180   1.480  0.00  0.00    -0.047 A 
ATOM      6  C4  UNL d   1       1.091   0.639   0.501  0.00  0.00    -0.004 A 
ENDROOT
TORSDOF 0
ENDMDL
