MODEL 1
REMARK minimizedAffinity -2.79004836
REMARK minimizedRMSD -1
REMARK  0 active torsions:
REMARK  status: ('A' for Active; 'I' for Inactive)
ROOT
ATOM      1  C   UNL d   1      -0.229   0.052  -0.536  0.00  0.00     0.172 C 
ATOM      2  N   UNL d   1      -0.614   0.464   0.794  0.00  0.00    -0.070 N 
ATOM      3  C1  UNL d   1       0.028   1.403   1.556  0.00  0.00    -0.004 A 
ATOM      4  C2  UNL d   1      -0.646   1.507   2.753  0.00  0.00    -0.047 A 
ATOM      5  C3  UNL d   1      -1.730   0.599   2.709  0.00  0.00    -0.047 A 
ATOM      6  C4  UNL d   1      -1.686  -0.034   1.485  0.00  0.00    -0.004 A 
ENDROOT
TORSDOF 0
ENDMDL
