MODEL 1
REMARK minimizedAffinity -3.804245
REMARK minimizedRMSD -1
REMARK  0 active torsions:
REMARK  status: ('A' for Active; 'I' for Inactive)
ROOT
ATOM      1  C   UNL d   1      -1.194   1.163   2.289  0.00  0.00     0.172 C 
ATOM      2  N   UNL d   1      -0.636   0.408   1.192  0.00  0.00    -0.070 N 
ATOM      3  C1  UNL d   1      -1.339  -0.097   0.131  0.00  0.00    -0.004 A 
ATOM      4  C2  UNL d   1      -0.448  -0.750  -0.693  0.00  0.00    -0.047 A 
ATOM      5  C3  UNL d   1       0.835  -0.633  -0.107  0.00  0.00    -0.047 A 
ATOM      6  C4  UNL d   1       0.690   0.088   1.059  0.00  0.00    -0.004 A 
ENDROOT
TORSDOF 0
ENDMDL
