MODEL 1
REMARK minimizedAffinity -2.2639451
REMARK minimizedRMSD -1
REMARK  0 active torsions:
REMARK  status: ('A' for Active; 'I' for Inactive)
ROOT
ATOM      1  C   UNL d   1       0.590  -0.829  -1.216  0.00  0.00     0.172 C 
ATOM      2  N   UNL d   1       0.209  -0.181   0.017  0.00  0.00    -0.070 N 
ATOM      3  C1  UNL d   1       1.053   0.134   1.047  0.00  0.00    -0.004 A 
ATOM      4  C2  UNL d   1       0.306   0.740   2.035  0.00  0.00    -0.047 A 
ATOM      5  C3  UNL d   1      -1.034   0.789   1.582  0.00  0.00    -0.047 A 
ATOM      6  C4  UNL d   1      -1.066   0.212   0.330  0.00  0.00    -0.004 A 
ENDROOT
TORSDOF 0
ENDMDL
