MODEL 1
REMARK minimizedAffinity -3.41244078
REMARK minimizedRMSD -1
REMARK  0 active torsions:
REMARK  status: ('A' for Active; 'I' for Inactive)
ROOT
ATOM      1  C   UNL d   1       1.855  -0.014   1.801  0.00  0.00     0.172 C 
ATOM      2  N   UNL d   1       0.492   0.355   1.498  0.00  0.00    -0.070 N 
ATOM      3  C1  UNL d   1      -0.151   0.129   0.310  0.00  0.00    -0.004 A 
ATOM      4  C2  UNL d   1      -1.431   0.627   0.422  0.00  0.00    -0.047 A 
ATOM      5  C3  UNL d   1      -1.562   1.171   1.722  0.00  0.00    -0.047 A 
ATOM      6  C4  UNL d   1      -0.357   0.989   2.366  0.00  0.00    -0.004 A 
ENDROOT
TORSDOF 0
ENDMDL
