MODEL 1
REMARK minimizedAffinity -3.10803413
REMARK minimizedRMSD -1
REMARK  0 active torsions:
REMARK  status: ('A' for Active; 'I' for Inactive)
ROOT
ATOM      1  C   UNL d   1       0.108  -0.234  -1.037  0.00  0.00     0.172 C 
ATOM      2  N   UNL d   1       0.009   0.295   0.303  0.00  0.00    -0.070 N 
ATOM      3  C1  UNL d   1       1.028   0.355   1.215  0.00  0.00    -0.004 A 
ATOM      4  C2  UNL d   1       0.531   0.924   2.368  0.00  0.00    -0.047 A 
ATOM      5  C3  UNL d   1      -0.835   1.215   2.141  0.00  0.00    -0.047 A 
ATOM      6  C4  UNL d   1      -1.132   0.815   0.855  0.00  0.00    -0.004 A 
ENDROOT
TORSDOF 0
ENDMDL
