MODEL 1
REMARK minimizedAffinity -4.15584612
REMARK minimizedRMSD -1
REMARK  0 active torsions:
REMARK  status: ('A' for Active; 'I' for Inactive)
ROOT
ATOM      1  C   UNL d   1       0.017  -0.178  -0.012  0.00  0.00     0.172 C 
ATOM      2  N   UNL d   1       0.386   0.050   1.366  0.00  0.00    -0.070 N 
ATOM      3  C1  UNL d   1       1.517  -0.420   1.978  0.00  0.00    -0.004 A 
ATOM      4  C2  UNL d   1       1.501   0.013   3.286  0.00  0.00    -0.047 A 
ATOM      5  C3  UNL d   1       0.319   0.770   3.466  0.00  0.00    -0.047 A 
ATOM      6  C4  UNL d   1      -0.353   0.777   2.262  0.00  0.00    -0.004 A 
ENDROOT
TORSDOF 0
ENDMDL
