MODEL 1
REMARK minimizedAffinity -3.61943793
REMARK minimizedRMSD -1
REMARK  0 active torsions:
REMARK  status: ('A' for Active; 'I' for Inactive)
ROOT
ATOM      1  C   UNL d   1       0.451  -0.401  -0.477  0.00  0.00     0.172 C 
ATOM      2  N   UNL d   1       0.039  -0.104   0.875  0.00  0.00    -0.070 N 
ATOM      3  C1  UNL d   1      -1.127   0.517   1.236  0.00  0.00    -0.004 A 
ATOM      4  C2  UNL d   1      -1.146   0.613   2.611  0.00  0.00    -0.047 A 
ATOM      5  C3  UNL d   1       0.050   0.031   3.092  0.00  0.00    -0.047 A 
ATOM      6  C4  UNL d   1       0.765  -0.404   1.997  0.00  0.00    -0.004 A 
ENDROOT
TORSDOF 0
ENDMDL
