MODEL 1
REMARK minimizedAffinity -2.68555164
REMARK minimizedRMSD -1
REMARK  0 active torsions:
REMARK  status: ('A' for Active; 'I' for Inactive)
ROOT
ATOM      1  C   UNL d   1      -0.180  -0.099  -1.023  0.00  0.00     0.172 C 
ATOM      2  N   UNL d   1      -0.431   0.383   0.315  0.00  0.00    -0.070 N 
ATOM      3  C1  UNL d   1       0.492   0.976   1.136  0.00  0.00    -0.004 A 
ATOM      4  C2  UNL d   1      -0.138   1.291   2.320  0.00  0.00    -0.047 A 
ATOM      5  C3  UNL d   1      -1.485   0.872   2.208  0.00  0.00    -0.047 A 
ATOM      6  C4  UNL d   1      -1.639   0.314   0.957  0.00  0.00    -0.004 A 
ENDROOT
TORSDOF 0
ENDMDL
