MODEL 1
REMARK minimizedAffinity 3.55608869
REMARK minimizedRMSD -1
REMARK  2 active torsions:
REMARK  status: ('A' for Active; 'I' for Inactive)
REMARK    1  A    between atoms: C1_2  and  C2_3 
REMARK    2  A    between atoms: C2_3  and  C3_4 
ROOT
ATOM      1  C3  UNL d   1       3.886  -4.733  -3.788  0.00  0.00    -0.075 A 
ATOM      2  C4  UNL d   1       3.529  -3.971  -4.910  0.00  0.00     0.002 A 
ATOM      3  C5  UNL d   1       4.393  -3.866  -6.000  0.00  0.00     0.002 A 
ATOM      4  C6  UNL d   1       5.627  -4.511  -5.979  0.00  0.00    -0.004 A 
ATOM      5  C7  UNL d   1       6.000  -5.258  -4.863  0.00  0.00     0.002 A 
ATOM      6  C8  UNL d   1       5.135  -5.369  -3.773  0.00  0.00     0.002 A 
ENDROOT
BRANCH   1   7
ATOM      7  C2  UNL d   1       2.943  -4.876  -2.618  0.00  0.00     0.056 C 
BRANCH   7   8
ATOM      8  C1  UNL d   1       1.784  -3.873  -2.626  0.00  0.00     0.007 C 
ATOM      9  C   UNL d   1       0.764  -4.126  -1.523  0.00  0.00     0.009 C 
ENDBRANCH   7   8
ENDBRANCH   1   7
TORSDOF 2
ENDMDL
