MODEL 1
REMARK minimizedAffinity 9.0882082
REMARK minimizedRMSD -1
REMARK  2 active torsions:
REMARK  status: ('A' for Active; 'I' for Inactive)
REMARK    1  A    between atoms: C1_2  and  C2_3 
REMARK    2  A    between atoms: C2_3  and  C3_4 
ROOT
ATOM      1  C3  UNL d   1      -0.356  -0.046   2.001  0.00  0.00    -0.075 A 
ATOM      2  C4  UNL d   1      -0.956   0.729   0.998  0.00  0.00     0.002 A 
ATOM      3  C5  UNL d   1      -0.498   0.663  -0.318  0.00  0.00     0.002 A 
ATOM      4  C6  UNL d   1       0.570  -0.170  -0.646  0.00  0.00    -0.004 A 
ATOM      5  C7  UNL d   1       1.184  -0.932   0.346  0.00  0.00     0.002 A 
ATOM      6  C8  UNL d   1       0.725  -0.871   1.663  0.00  0.00     0.002 A 
ENDROOT
BRANCH   1   7
ATOM      7  C2  UNL d   1      -0.866  -0.000   3.422  0.00  0.00     0.056 C 
BRANCH   7   8
ATOM      8  C1  UNL d   1      -2.342  -0.383   3.567  0.00  0.00     0.007 C 
ATOM      9  C   UNL d   1      -2.554  -1.670   4.354  0.00  0.00     0.009 C 
ENDBRANCH   7   8
ENDBRANCH   1   7
TORSDOF 2
ENDMDL
