MODEL 1
REMARK minimizedAffinity 13.2578278
REMARK minimizedRMSD -1
REMARK  2 active torsions:
REMARK  status: ('A' for Active; 'I' for Inactive)
REMARK    1  A    between atoms: C1_2  and  C2_3 
REMARK    2  A    between atoms: C2_3  and  C3_4 
ROOT
ATOM      1  C3  UNL d   1      -0.119   2.737   2.184  0.00  0.00    -0.075 A 
ATOM      2  C4  UNL d   1       0.072   1.707   3.116  0.00  0.00     0.002 A 
ATOM      3  C5  UNL d   1      -0.368   0.412   2.841  0.00  0.00     0.002 A 
ATOM      4  C6  UNL d   1      -1.013   0.133   1.638  0.00  0.00    -0.004 A 
ATOM      5  C7  UNL d   1      -1.223   1.152   0.712  0.00  0.00     0.002 A 
ATOM      6  C8  UNL d   1      -0.779   2.448   0.983  0.00  0.00     0.002 A 
ENDROOT
BRANCH   1   7
ATOM      7  C2  UNL d   1       0.382   4.134   2.463  0.00  0.00     0.056 C 
BRANCH   7   8
ATOM      8  C1  UNL d   1      -0.732   5.156   2.717  0.00  0.00     0.007 C 
ATOM      9  C   UNL d   1      -0.567   5.909   4.031  0.00  0.00     0.009 C 
ENDBRANCH   7   8
ENDBRANCH   1   7
TORSDOF 2
ENDMDL
