MODEL 1
REMARK minimizedAffinity 2.58039761
REMARK minimizedRMSD -1
REMARK  2 active torsions:
REMARK  status: ('A' for Active; 'I' for Inactive)
REMARK    1  A    between atoms: C1_2  and  C2_3 
REMARK    2  A    between atoms: C2_3  and  C3_4 
ROOT
ATOM      1  C3  UNL d   1      -2.207  -3.328  -1.528  0.00  0.00    -0.075 A 
ATOM      2  C4  UNL d   1      -1.967  -4.680  -1.816  0.00  0.00     0.002 A 
ATOM      3  C5  UNL d   1      -2.932  -5.647  -1.533  0.00  0.00     0.002 A 
ATOM      4  C6  UNL d   1      -4.142  -5.278  -0.950  0.00  0.00    -0.004 A 
ATOM      5  C7  UNL d   1      -4.385  -3.941  -0.644  0.00  0.00     0.002 A 
ATOM      6  C8  UNL d   1      -3.423  -2.970  -0.931  0.00  0.00     0.002 A 
ENDROOT
BRANCH   1   7
ATOM      7  C2  UNL d   1      -1.179  -2.273  -1.859  0.00  0.00     0.056 C 
BRANCH   7   8
ATOM      8  C1  UNL d   1      -0.322  -1.841  -0.665  0.00  0.00     0.007 C 
ATOM      9  C   UNL d   1      -0.546  -0.390  -0.259  0.00  0.00     0.009 C 
ENDBRANCH   7   8
ENDBRANCH   1   7
TORSDOF 2
ENDMDL
