MODEL 1
REMARK minimizedAffinity 8.57071209
REMARK minimizedRMSD -1
REMARK  2 active torsions:
REMARK  status: ('A' for Active; 'I' for Inactive)
REMARK    1  A    between atoms: C1_2  and  C2_3 
REMARK    2  A    between atoms: C2_3  and  C3_4 
ROOT
ATOM      1  C3  UNL d   1       2.820   3.864  -0.760  0.00  0.00    -0.075 A 
ATOM      2  C4  UNL d   1       1.762   3.122  -1.305  0.00  0.00     0.002 A 
ATOM      3  C5  UNL d   1       1.980   2.265  -2.384  0.00  0.00     0.002 A 
ATOM      4  C6  UNL d   1       3.252   2.145  -2.937  0.00  0.00    -0.004 A 
ATOM      5  C7  UNL d   1       4.308   2.890  -2.415  0.00  0.00     0.002 A 
ATOM      6  C8  UNL d   1       4.094   3.746  -1.332  0.00  0.00     0.002 A 
ENDROOT
BRANCH   1   7
ATOM      7  C2  UNL d   1       2.597   4.772   0.426  0.00  0.00     0.056 C 
BRANCH   7   8
ATOM      8  C1  UNL d   1       1.607   4.219   1.456  0.00  0.00     0.007 C 
ATOM      9  C   UNL d   1       0.870   5.309   2.225  0.00  0.00     0.009 C 
ENDBRANCH   7   8
ENDBRANCH   1   7
TORSDOF 2
ENDMDL
