MODEL 1
REMARK minimizedAffinity 10.4936495
REMARK minimizedRMSD -1
REMARK  2 active torsions:
REMARK  status: ('A' for Active; 'I' for Inactive)
REMARK    1  A    between atoms: C1_2  and  C2_3 
REMARK    2  A    between atoms: C2_3  and  C3_4 
ROOT
ATOM      1  C3  UNL d   1       3.579  -3.942  -5.740  0.00  0.00    -0.075 A 
ATOM      2  C4  UNL d   1       3.713  -5.313  -5.998  0.00  0.00     0.002 A 
ATOM      3  C5  UNL d   1       4.914  -5.970  -5.732  0.00  0.00     0.002 A 
ATOM      4  C6  UNL d   1       5.998  -5.264  -5.216  0.00  0.00    -0.004 A 
ATOM      5  C7  UNL d   1       5.882  -3.898  -4.971  0.00  0.00     0.002 A 
ATOM      6  C8  UNL d   1       4.679  -3.239  -5.232  0.00  0.00     0.002 A 
ENDROOT
BRANCH   1   7
ATOM      7  C2  UNL d   1       2.272  -3.231  -5.998  0.00  0.00     0.056 C 
BRANCH   7   8
ATOM      8  C1  UNL d   1       1.037  -4.126  -5.858  0.00  0.00     0.007 C 
ATOM      9  C   UNL d   1      -0.145  -3.423  -5.204  0.00  0.00     0.009 C 
ENDBRANCH   7   8
ENDBRANCH   1   7
TORSDOF 2
ENDMDL
