MODEL 1
REMARK minimizedAffinity 4.08646154
REMARK minimizedRMSD -1
REMARK  2 active torsions:
REMARK  status: ('A' for Active; 'I' for Inactive)
REMARK    1  A    between atoms: C1_2  and  C2_3 
REMARK    2  A    between atoms: C2_3  and  C3_4 
ROOT
ATOM      1  C3  UNL d   1       0.503  -0.167  -0.055  0.00  0.00    -0.075 A 
ATOM      2  C4  UNL d   1       1.619  -0.103  -0.903  0.00  0.00     0.002 A 
ATOM      3  C5  UNL d   1       1.669   0.831  -1.938  0.00  0.00     0.002 A 
ATOM      4  C6  UNL d   1       0.603   1.703  -2.146  0.00  0.00    -0.004 A 
ATOM      5  C7  UNL d   1      -0.518   1.637  -1.320  0.00  0.00     0.002 A 
ATOM      6  C8  UNL d   1      -0.568   0.707  -0.280  0.00  0.00     0.002 A 
ENDROOT
BRANCH   1   7
ATOM      7  C2  UNL d   1       0.456  -1.156   1.085  0.00  0.00     0.056 C 
BRANCH   7   8
ATOM      8  C1  UNL d   1       0.106  -0.530   2.439  0.00  0.00     0.007 C 
ATOM      9  C   UNL d   1      -1.213  -1.033   3.010  0.00  0.00     0.009 C 
ENDBRANCH   7   8
ENDBRANCH   1   7
TORSDOF 2
ENDMDL
