MODEL 1
REMARK minimizedAffinity -0.626432896
REMARK minimizedRMSD -1
REMARK  2 active torsions:
REMARK  status: ('A' for Active; 'I' for Inactive)
REMARK    1  A    between atoms: C1_2  and  C2_3 
REMARK    2  A    between atoms: C2_3  and  C3_4 
ROOT
ATOM      1  C3  UNL d   1       4.650  -3.472  -4.776  0.00  0.00    -0.075 A 
ATOM      2  C4  UNL d   1       5.875  -4.154  -4.758  0.00  0.00     0.002 A 
ATOM      3  C5  UNL d   1       6.000  -5.403  -5.366  0.00  0.00     0.002 A 
ATOM      4  C6  UNL d   1       4.901  -5.990  -5.990  0.00  0.00    -0.004 A 
ATOM      5  C7  UNL d   1       3.675  -5.330  -6.000  0.00  0.00     0.002 A 
ATOM      6  C8  UNL d   1       3.549  -4.077  -5.396  0.00  0.00     0.002 A 
ENDROOT
BRANCH   1   7
ATOM      7  C2  UNL d   1       4.516  -2.106  -4.146  0.00  0.00     0.056 C 
BRANCH   7   8
ATOM      8  C1  UNL d   1       4.122  -2.139  -2.665  0.00  0.00     0.007 C 
ATOM      9  C   UNL d   1       5.320  -2.185  -1.726  0.00  0.00     0.009 C 
ENDBRANCH   7   8
ENDBRANCH   1   7
TORSDOF 2
ENDMDL
