MODEL 1
REMARK minimizedAffinity 5.2568574
REMARK minimizedRMSD -1
REMARK  2 active torsions:
REMARK  status: ('A' for Active; 'I' for Inactive)
REMARK    1  A    between atoms: C1_2  and  C2_3 
REMARK    2  A    between atoms: C2_3  and  C3_4 
ROOT
ATOM      1  C3  UNL d   1       4.866  -4.424  -5.374  0.00  0.00    -0.075 A 
ATOM      2  C4  UNL d   1       3.486  -4.607  -5.547  0.00  0.00     0.002 A 
ATOM      3  C5  UNL d   1       2.661  -3.526  -5.856  0.00  0.00     0.002 A 
ATOM      4  C6  UNL d   1       3.202  -2.248  -5.987  0.00  0.00    -0.004 A 
ATOM      5  C7  UNL d   1       4.569  -2.052  -5.801  0.00  0.00     0.002 A 
ATOM      6  C8  UNL d   1       5.397  -3.134  -5.496  0.00  0.00     0.002 A 
ENDROOT
BRANCH   1   7
ATOM      7  C2  UNL d   1       5.768  -5.596  -5.068  0.00  0.00     0.056 C 
BRANCH   7   8
ATOM      8  C1  UNL d   1       5.978  -5.847  -3.571  0.00  0.00     0.007 C 
ATOM      9  C   UNL d   1       4.706  -5.683  -2.750  0.00  0.00     0.009 C 
ENDBRANCH   7   8
ENDBRANCH   1   7
TORSDOF 2
ENDMDL
