MODEL 1
REMARK minimizedAffinity 4.41870308
REMARK minimizedRMSD -1
REMARK  2 active torsions:
REMARK  status: ('A' for Active; 'I' for Inactive)
REMARK    1  A    between atoms: C1_2  and  C2_3 
REMARK    2  A    between atoms: C2_3  and  C3_4 
ROOT
ATOM      1  C3  UNL d   1       4.687  -4.574  -5.130  0.00  0.00    -0.075 A 
ATOM      2  C4  UNL d   1       4.567  -3.184  -5.276  0.00  0.00     0.002 A 
ATOM      3  C5  UNL d   1       3.367  -2.617  -5.704  0.00  0.00     0.002 A 
ATOM      4  C6  UNL d   1       2.275  -3.431  -6.000  0.00  0.00    -0.004 A 
ATOM      5  C7  UNL d   1       2.387  -4.814  -5.874  0.00  0.00     0.002 A 
ATOM      6  C8  UNL d   1       3.586  -5.383  -5.442  0.00  0.00     0.002 A 
ENDROOT
BRANCH   1   7
ATOM      7  C2  UNL d   1       5.974  -5.191  -4.639  0.00  0.00     0.056 C 
BRANCH   7   8
ATOM      8  C1  UNL d   1       6.000  -5.465  -3.131  0.00  0.00     0.007 C 
ATOM      9  C   UNL d   1       4.626  -5.783  -2.556  0.00  0.00     0.009 C 
ENDBRANCH   7   8
ENDBRANCH   1   7
TORSDOF 2
ENDMDL
