MODEL 1
REMARK minimizedAffinity 3.46340156
REMARK minimizedRMSD -1
REMARK  2 active torsions:
REMARK  status: ('A' for Active; 'I' for Inactive)
REMARK    1  A    between atoms: C1_2  and  C2_3 
REMARK    2  A    between atoms: C2_3  and  C3_4 
ROOT
ATOM      1  C3  UNL d   1       5.370  -3.570  -3.832  0.00  0.00    -0.075 A 
ATOM      2  C4  UNL d   1       4.665  -3.451  -5.038  0.00  0.00     0.002 A 
ATOM      3  C5  UNL d   1       4.555  -4.539  -5.905  0.00  0.00     0.002 A 
ATOM      4  C6  UNL d   1       5.156  -5.754  -5.582  0.00  0.00    -0.004 A 
ATOM      5  C7  UNL d   1       5.873  -5.879  -4.395  0.00  0.00     0.002 A 
ATOM      6  C8  UNL d   1       5.981  -4.793  -3.523  0.00  0.00     0.002 A 
ENDROOT
BRANCH   1   7
ATOM      7  C2  UNL d   1       5.468  -2.406  -2.875  0.00  0.00     0.056 C 
BRANCH   7   8
ATOM      8  C1  UNL d   1       6.000  -2.781  -1.488  0.00  0.00     0.007 C 
ATOM      9  C   UNL d   1       5.947  -1.629  -0.493  0.00  0.00     0.009 C 
ENDBRANCH   7   8
ENDBRANCH   1   7
TORSDOF 2
ENDMDL
