MODEL 1
REMARK minimizedAffinity 9.90990639
REMARK minimizedRMSD -1
REMARK  2 active torsions:
REMARK  status: ('A' for Active; 'I' for Inactive)
REMARK    1  A    between atoms: C1_2  and  C2_3 
REMARK    2  A    between atoms: C2_3  and  C3_4 
ROOT
ATOM      1  C3  UNL d   1       3.884  -4.331  -4.104  0.00  0.00    -0.075 A 
ATOM      2  C4  UNL d   1       4.583  -5.276  -3.338  0.00  0.00     0.002 A 
ATOM      3  C5  UNL d   1       5.638  -5.999  -3.896  0.00  0.00     0.002 A 
ATOM      4  C6  UNL d   1       6.000  -5.795  -5.225  0.00  0.00    -0.004 A 
ATOM      5  C7  UNL d   1       5.302  -4.871  -6.000  0.00  0.00     0.002 A 
ATOM      6  C8  UNL d   1       4.249  -4.143  -5.443  0.00  0.00     0.002 A 
ENDROOT
BRANCH   1   7
ATOM      7  C2  UNL d   1       2.760  -3.525  -3.497  0.00  0.00     0.056 C 
BRANCH   7   8
ATOM      8  C1  UNL d   1       1.946  -4.283  -2.443  0.00  0.00     0.007 C 
ATOM      9  C   UNL d   1       0.508  -3.794  -2.330  0.00  0.00     0.009 C 
ENDBRANCH   7   8
ENDBRANCH   1   7
TORSDOF 2
ENDMDL
