MODEL 1
REMARK minimizedAffinity 5.23371696
REMARK minimizedRMSD -1
REMARK  2 active torsions:
REMARK  status: ('A' for Active; 'I' for Inactive)
REMARK    1  A    between atoms: C1_2  and  C2_3 
REMARK    2  A    between atoms: C2_3  and  C3_4 
ROOT
ATOM      1  C3  UNL d   1       4.418  -3.659  -5.211  0.00  0.00    -0.075 A 
ATOM      2  C4  UNL d   1       4.259  -4.840  -5.951  0.00  0.00     0.002 A 
ATOM      3  C5  UNL d   1       4.944  -6.000  -5.589  0.00  0.00     0.002 A 
ATOM      4  C6  UNL d   1       5.804  -5.992  -4.493  0.00  0.00    -0.004 A 
ATOM      5  C7  UNL d   1       5.983  -4.819  -3.762  0.00  0.00     0.002 A 
ATOM      6  C8  UNL d   1       5.295  -3.658  -4.118  0.00  0.00     0.002 A 
ENDROOT
BRANCH   1   7
ATOM      7  C2  UNL d   1       3.657  -2.408  -5.580  0.00  0.00     0.056 C 
BRANCH   7   8
ATOM      8  C1  UNL d   1       3.563  -1.379  -4.448  0.00  0.00     0.007 C 
ATOM      9  C   UNL d   1       3.038  -1.967  -3.145  0.00  0.00     0.009 C 
ENDBRANCH   7   8
ENDBRANCH   1   7
TORSDOF 2
ENDMDL
