MODEL 1
REMARK minimizedAffinity 10.307991
REMARK minimizedRMSD -1
REMARK  2 active torsions:
REMARK  status: ('A' for Active; 'I' for Inactive)
REMARK    1  A    between atoms: C1_2  and  C2_3 
REMARK    2  A    between atoms: C2_3  and  C3_4 
ROOT
ATOM      1  C3  UNL d   1       3.991  -4.170  -4.020  0.00  0.00    -0.075 A 
ATOM      2  C4  UNL d   1       4.621  -5.281  -3.442  0.00  0.00     0.002 A 
ATOM      3  C5  UNL d   1       5.623  -5.965  -4.131  0.00  0.00     0.002 A 
ATOM      4  C6  UNL d   1       5.999  -5.555  -5.408  0.00  0.00    -0.004 A 
ATOM      5  C7  UNL d   1       5.368  -4.462  -5.999  0.00  0.00     0.002 A 
ATOM      6  C8  UNL d   1       4.369  -3.773  -5.310  0.00  0.00     0.002 A 
ENDROOT
BRANCH   1   7
ATOM      7  C2  UNL d   1       2.926  -3.407  -3.268  0.00  0.00     0.056 C 
BRANCH   7   8
ATOM      8  C1  UNL d   1       1.905  -4.300  -2.556  0.00  0.00     0.007 C 
ATOM      9  C   UNL d   1       0.650  -3.552  -2.125  0.00  0.00     0.009 C 
ENDBRANCH   7   8
ENDBRANCH   1   7
TORSDOF 2
ENDMDL
