MODEL 1
REMARK minimizedAffinity -5.5945611
REMARK minimizedRMSD -1
REMARK  2 active torsions:
REMARK  status: ('A' for Active; 'I' for Inactive)
REMARK    1  A    between atoms: C1_2  and  C2_3 
REMARK    2  A    between atoms: C2_3  and  C3_4 
ROOT
ATOM      1  C3  UNL d   1      -0.514  -0.203  -0.973  0.00  0.00    -0.075 A 
ATOM      2  C4  UNL d   1      -1.524  -0.135  -1.944  0.00  0.00     0.002 A 
ATOM      3  C5  UNL d   1      -2.315   1.008  -2.065  0.00  0.00     0.002 A 
ATOM      4  C6  UNL d   1      -2.114   2.091  -1.213  0.00  0.00    -0.004 A 
ATOM      5  C7  UNL d   1      -1.124   2.028  -0.234  0.00  0.00     0.002 A 
ATOM      6  C8  UNL d   1      -0.329   0.888  -0.113  0.00  0.00     0.002 A 
ENDROOT
BRANCH   1   7
ATOM      7  C2  UNL d   1       0.365  -1.425  -0.856  0.00  0.00     0.056 C 
BRANCH   7   8
ATOM      8  C1  UNL d   1       1.309  -1.401   0.350  0.00  0.00     0.007 C 
ATOM      9  C   UNL d   1       1.695  -2.791   0.839  0.00  0.00     0.009 C 
ENDBRANCH   7   8
ENDBRANCH   1   7
TORSDOF 2
ENDMDL
