MODEL 1
REMARK minimizedAffinity -3.53452277
REMARK minimizedRMSD -1
REMARK  2 active torsions:
REMARK  status: ('A' for Active; 'I' for Inactive)
REMARK    1  A    between atoms: C1_2  and  C2_3 
REMARK    2  A    between atoms: C2_3  and  C3_4 
ROOT
ATOM      1  C3  UNL d   1      -0.182  -0.148  -0.191  0.00  0.00    -0.075 A 
ATOM      2  C4  UNL d   1       1.037   0.492  -0.457  0.00  0.00     0.002 A 
ATOM      3  C5  UNL d   1       2.243  -0.095  -0.075  0.00  0.00     0.002 A 
ATOM      4  C6  UNL d   1       2.246  -1.321   0.586  0.00  0.00    -0.004 A 
ATOM      5  C7  UNL d   1       1.040  -1.958   0.871  0.00  0.00     0.002 A 
ATOM      6  C8  UNL d   1      -0.168  -1.375   0.485  0.00  0.00     0.002 A 
ENDROOT
BRANCH   1   7
ATOM      7  C2  UNL d   1      -1.490   0.468  -0.628  0.00  0.00     0.056 C 
BRANCH   7   8
ATOM      8  C1  UNL d   1      -1.341   1.547  -1.706  0.00  0.00     0.007 C 
ATOM      9  C   UNL d   1      -2.559   1.660  -2.614  0.00  0.00     0.009 C 
ENDBRANCH   7   8
ENDBRANCH   1   7
TORSDOF 2
ENDMDL
