MODEL 1
REMARK minimizedAffinity -4.23099709
REMARK minimizedRMSD -1
REMARK  2 active torsions:
REMARK  status: ('A' for Active; 'I' for Inactive)
REMARK    1  A    between atoms: C1_2  and  C2_3 
REMARK    2  A    between atoms: C2_3  and  C3_4 
ROOT
ATOM      1  C3  UNL d   1       0.779  -0.325  -0.396  0.00  0.00    -0.075 A 
ATOM      2  C4  UNL d   1       1.990  -0.375   0.311  0.00  0.00     0.002 A 
ATOM      3  C5  UNL d   1       2.305  -1.483   1.098  0.00  0.00     0.002 A 
ATOM      4  C6  UNL d   1       1.413  -2.548   1.197  0.00  0.00    -0.004 A 
ATOM      5  C7  UNL d   1       0.200  -2.502   0.512  0.00  0.00     0.002 A 
ATOM      6  C8  UNL d   1      -0.116  -1.397  -0.279  0.00  0.00     0.002 A 
ENDROOT
BRANCH   1   7
ATOM      7  C2  UNL d   1       0.445   0.858  -1.272  0.00  0.00     0.056 C 
BRANCH   7   8
ATOM      8  C1  UNL d   1      -0.977   1.395  -1.079  0.00  0.00     0.007 C 
ATOM      9  C   UNL d   1      -1.371   2.437  -2.117  0.00  0.00     0.009 C 
ENDBRANCH   7   8
ENDBRANCH   1   7
TORSDOF 2
ENDMDL
