MODEL 1
REMARK minimizedAffinity -4.38051605
REMARK minimizedRMSD -1
REMARK  2 active torsions:
REMARK  status: ('A' for Active; 'I' for Inactive)
REMARK    1  A    between atoms: C1_2  and  C2_3 
REMARK    2  A    between atoms: C2_3  and  C3_4 
ROOT
ATOM      1  C3  UNL d   1      -0.726   1.069  -0.399  0.00  0.00    -0.075 A 
ATOM      2  C4  UNL d   1       0.346   0.260  -0.803  0.00  0.00     0.002 A 
ATOM      3  C5  UNL d   1       0.712  -0.857  -0.051  0.00  0.00     0.002 A 
ATOM      4  C6  UNL d   1       0.020  -1.173   1.115  0.00  0.00    -0.004 A 
ATOM      5  C7  UNL d   1      -1.037  -0.367   1.534  0.00  0.00     0.002 A 
ATOM      6  C8  UNL d   1      -1.408   0.749   0.782  0.00  0.00     0.002 A 
ENDROOT
BRANCH   1   7
ATOM      7  C2  UNL d   1      -1.146   2.262  -1.224  0.00  0.00     0.056 C 
BRANCH   7   8
ATOM      8  C1  UNL d   1      -1.611   1.909  -2.641  0.00  0.00     0.007 C 
ATOM      9  C   UNL d   1      -3.124   1.778  -2.761  0.00  0.00     0.009 C 
ENDBRANCH   7   8
ENDBRANCH   1   7
TORSDOF 2
ENDMDL
