MODEL 1
REMARK minimizedAffinity -3.34148574
REMARK minimizedRMSD -1
REMARK  2 active torsions:
REMARK  status: ('A' for Active; 'I' for Inactive)
REMARK    1  A    between atoms: C1_2  and  C2_3 
REMARK    2  A    between atoms: C2_3  and  C3_4 
ROOT
ATOM      1  C3  UNL d   1      -0.205  -0.046  -0.047  0.00  0.00    -0.075 A 
ATOM      2  C4  UNL d   1      -0.571  -0.982   0.932  0.00  0.00     0.002 A 
ATOM      3  C5  UNL d   1       0.330  -1.961   1.348  0.00  0.00     0.002 A 
ATOM      4  C6  UNL d   1       1.603  -2.025   0.786  0.00  0.00    -0.004 A 
ATOM      5  C7  UNL d   1       1.972  -1.111  -0.199  0.00  0.00     0.002 A 
ATOM      6  C8  UNL d   1       1.074  -0.127  -0.615  0.00  0.00     0.002 A 
ENDROOT
BRANCH   1   7
ATOM      7  C2  UNL d   1      -1.166   1.035  -0.481  0.00  0.00     0.056 C 
BRANCH   7   8
ATOM      8  C1  UNL d   1      -1.817   0.780  -1.844  0.00  0.00     0.007 C 
ATOM      9  C   UNL d   1      -2.115   2.060  -2.615  0.00  0.00     0.009 C 
ENDBRANCH   7   8
ENDBRANCH   1   7
TORSDOF 2
ENDMDL
