MODEL 1
REMARK minimizedAffinity -2.94889736
REMARK minimizedRMSD -1
REMARK  2 active torsions:
REMARK  status: ('A' for Active; 'I' for Inactive)
REMARK    1  A    between atoms: C1_2  and  C2_3 
REMARK    2  A    between atoms: C2_3  and  C3_4 
ROOT
ATOM      1  C3  UNL d   1       1.127  -0.540  -0.039  0.00  0.00    -0.075 A 
ATOM      2  C4  UNL d   1       0.943  -1.581  -0.961  0.00  0.00     0.002 A 
ATOM      3  C5  UNL d   1       1.317  -2.886  -0.641  0.00  0.00     0.002 A 
ATOM      4  C6  UNL d   1       1.889  -3.165   0.599  0.00  0.00    -0.004 A 
ATOM      5  C7  UNL d   1       2.091  -2.137   1.516  0.00  0.00     0.002 A 
ATOM      6  C8  UNL d   1       1.714  -0.831   1.200  0.00  0.00     0.002 A 
ENDROOT
BRANCH   1   7
ATOM      7  C2  UNL d   1       0.697   0.869  -0.368  0.00  0.00     0.056 C 
BRANCH   7   8
ATOM      8  C1  UNL d   1      -0.822   1.072  -0.376  0.00  0.00     0.007 C 
ATOM      9  C   UNL d   1      -1.493   0.633   0.919  0.00  0.00     0.009 C 
ENDBRANCH   7   8
ENDBRANCH   1   7
TORSDOF 2
ENDMDL
