MODEL 1
REMARK minimizedAffinity -3.80835772
REMARK minimizedRMSD -1
REMARK  2 active torsions:
REMARK  status: ('A' for Active; 'I' for Inactive)
REMARK    1  A    between atoms: C1_2  and  C2_3 
REMARK    2  A    between atoms: C2_3  and  C3_4 
ROOT
ATOM      1  C3  UNL d   1       0.343   0.244  -0.185  0.00  0.00    -0.075 A 
ATOM      2  C4  UNL d   1      -0.156  -0.461   0.920  0.00  0.00     0.002 A 
ATOM      3  C5  UNL d   1       0.626  -1.425   1.557  0.00  0.00     0.002 A 
ATOM      4  C6  UNL d   1       1.909  -1.704   1.092  0.00  0.00    -0.004 A 
ATOM      5  C7  UNL d   1       2.409  -1.021  -0.015  0.00  0.00     0.002 A 
ATOM      6  C8  UNL d   1       1.631  -0.053  -0.651  0.00  0.00     0.002 A 
ENDROOT
BRANCH   1   7
ATOM      7  C2  UNL d   1      -0.487   1.309  -0.861  0.00  0.00     0.056 C 
BRANCH   7   8
ATOM      8  C1  UNL d   1      -1.561   0.758  -1.805  0.00  0.00     0.007 C 
ATOM      9  C   UNL d   1      -1.928   1.723  -2.924  0.00  0.00     0.009 C 
ENDBRANCH   7   8
ENDBRANCH   1   7
TORSDOF 2
ENDMDL
