MODEL 1
REMARK minimizedAffinity -3.90619802
REMARK minimizedRMSD -1
REMARK  2 active torsions:
REMARK  status: ('A' for Active; 'I' for Inactive)
REMARK    1  A    between atoms: C1_2  and  C2_3 
REMARK    2  A    between atoms: C2_3  and  C3_4 
ROOT
ATOM      1  C3  UNL d   1      -0.148  -0.145  -0.457  0.00  0.00    -0.075 A 
ATOM      2  C4  UNL d   1       0.168  -0.554   0.846  0.00  0.00     0.002 A 
ATOM      3  C5  UNL d   1       1.072  -1.595   1.063  0.00  0.00     0.002 A 
ATOM      4  C6  UNL d   1       1.662  -2.245  -0.019  0.00  0.00    -0.004 A 
ATOM      5  C7  UNL d   1       1.343  -1.858  -1.319  0.00  0.00     0.002 A 
ATOM      6  C8  UNL d   1       0.442  -0.814  -1.538  0.00  0.00     0.002 A 
ENDROOT
BRANCH   1   7
ATOM      7  C2  UNL d   1      -1.102   1.001  -0.697  0.00  0.00     0.056 C 
BRANCH   7   8
ATOM      8  C1  UNL d   1      -2.210   0.687  -1.709  0.00  0.00     0.007 C 
ATOM      9  C   UNL d   1      -2.051   1.438  -3.025  0.00  0.00     0.009 C 
ENDBRANCH   7   8
ENDBRANCH   1   7
TORSDOF 2
ENDMDL
