MODEL 1
REMARK minimizedAffinity -4.04752016
REMARK minimizedRMSD -1
REMARK  2 active torsions:
REMARK  status: ('A' for Active; 'I' for Inactive)
REMARK    1  A    between atoms: C1_2  and  C2_3 
REMARK    2  A    between atoms: C2_3  and  C3_4 
ROOT
ATOM      1  C3  UNL d   1       0.875  -0.445  -0.459  0.00  0.00    -0.075 A 
ATOM      2  C4  UNL d   1       0.996  -1.757   0.021  0.00  0.00     0.002 A 
ATOM      3  C5  UNL d   1       2.013  -2.093   0.914  0.00  0.00     0.002 A 
ATOM      4  C6  UNL d   1       2.926  -1.128   1.331  0.00  0.00    -0.004 A 
ATOM      5  C7  UNL d   1       2.826   0.175   0.848  0.00  0.00     0.002 A 
ATOM      6  C8  UNL d   1       1.806   0.516  -0.043  0.00  0.00     0.002 A 
ENDROOT
BRANCH   1   7
ATOM      7  C2  UNL d   1      -0.241  -0.067  -1.403  0.00  0.00     0.056 C 
BRANCH   7   8
ATOM      8  C1  UNL d   1      -0.941   1.249  -1.048  0.00  0.00     0.007 C 
ATOM      9  C   UNL d   1      -1.755   1.826  -2.198  0.00  0.00     0.009 C 
ENDBRANCH   7   8
ENDBRANCH   1   7
TORSDOF 2
ENDMDL
