MODEL 1
REMARK minimizedAffinity -4.35045052
REMARK minimizedRMSD -1
REMARK  2 active torsions:
REMARK  status: ('A' for Active; 'I' for Inactive)
REMARK    1  A    between atoms: C1_2  and  C2_3 
REMARK    2  A    between atoms: C2_3  and  C3_4 
ROOT
ATOM      1  C3  UNL d   1       0.542  -1.017   0.379  0.00  0.00    -0.075 A 
ATOM      2  C4  UNL d   1      -0.320  -0.931   1.482  0.00  0.00     0.002 A 
ATOM      3  C5  UNL d   1      -0.232  -1.854   2.524  0.00  0.00     0.002 A 
ATOM      4  C6  UNL d   1       0.711  -2.879   2.473  0.00  0.00    -0.004 A 
ATOM      5  C7  UNL d   1       1.561  -2.984   1.374  0.00  0.00     0.002 A 
ATOM      6  C8  UNL d   1       1.478  -2.059   0.332  0.00  0.00     0.002 A 
ENDROOT
BRANCH   1   7
ATOM      7  C2  UNL d   1       0.471  -0.004  -0.738  0.00  0.00     0.056 C 
BRANCH   7   8
ATOM      8  C1  UNL d   1      -0.515   1.141  -0.481  0.00  0.00     0.007 C 
ATOM      9  C   UNL d   1      -1.558   1.293  -1.579  0.00  0.00     0.009 C 
ENDBRANCH   7   8
ENDBRANCH   1   7
TORSDOF 2
ENDMDL
