MODEL 1
REMARK minimizedAffinity -5.00072098
REMARK minimizedRMSD -1
REMARK  2 active torsions:
REMARK  status: ('A' for Active; 'I' for Inactive)
REMARK    1  A    between atoms: C1_2  and  C2_3 
REMARK    2  A    between atoms: C2_3  and  C3_4 
ROOT
ATOM      1  C3  UNL d   1       0.149   0.069  -0.126  0.00  0.00    -0.075 A 
ATOM      2  C4  UNL d   1       0.325  -1.209   0.423  0.00  0.00     0.002 A 
ATOM      3  C5  UNL d   1       1.606  -1.729   0.611  0.00  0.00     0.002 A 
ATOM      4  C6  UNL d   1       2.724  -0.984   0.243  0.00  0.00    -0.004 A 
ATOM      5  C7  UNL d   1       2.561   0.280  -0.318  0.00  0.00     0.002 A 
ATOM      6  C8  UNL d   1       1.280   0.805  -0.503  0.00  0.00     0.002 A 
ENDROOT
BRANCH   1   7
ATOM      7  C2  UNL d   1      -1.233   0.650  -0.304  0.00  0.00     0.056 C 
BRANCH   7   8
ATOM      8  C1  UNL d   1      -1.278   1.892  -1.200  0.00  0.00     0.007 C 
ATOM      9  C   UNL d   1      -2.281   1.774  -2.340  0.00  0.00     0.009 C 
ENDBRANCH   7   8
ENDBRANCH   1   7
TORSDOF 2
ENDMDL
