MODEL 1
REMARK minimizedAffinity -4.42169142
REMARK minimizedRMSD -1
REMARK  2 active torsions:
REMARK  status: ('A' for Active; 'I' for Inactive)
REMARK    1  A    between atoms: C1_2  and  C2_3 
REMARK    2  A    between atoms: C2_3  and  C3_4 
ROOT
ATOM      1  C3  UNL d   1      -0.517  -1.197   0.882  0.00  0.00    -0.075 A 
ATOM      2  C4  UNL d   1       0.300  -0.936  -0.228  0.00  0.00     0.002 A 
ATOM      3  C5  UNL d   1       0.195   0.273  -0.916  0.00  0.00     0.002 A 
ATOM      4  C6  UNL d   1      -0.733   1.229  -0.512  0.00  0.00    -0.004 A 
ATOM      5  C7  UNL d   1      -1.561   0.974   0.578  0.00  0.00     0.002 A 
ATOM      6  C8  UNL d   1      -1.456  -0.233   1.272  0.00  0.00     0.002 A 
ENDROOT
BRANCH   1   7
ATOM      7  C2  UNL d   1      -0.388  -2.491   1.649  0.00  0.00     0.056 C 
BRANCH   7   8
ATOM      8  C1  UNL d   1       1.005  -3.125   1.574  0.00  0.00     0.007 C 
ATOM      9  C   UNL d   1       2.107  -2.217   2.102  0.00  0.00     0.009 C 
ENDBRANCH   7   8
ENDBRANCH   1   7
TORSDOF 2
ENDMDL
