MODEL 1
REMARK minimizedAffinity -5.02287531
REMARK minimizedRMSD -1
REMARK  2 active torsions:
REMARK  status: ('A' for Active; 'I' for Inactive)
REMARK    1  A    between atoms: C1_2  and  C2_3 
REMARK    2  A    between atoms: C2_3  and  C3_4 
ROOT
ATOM      1  C3  UNL d   1       0.654  -0.420  -0.165  0.00  0.00    -0.075 A 
ATOM      2  C4  UNL d   1       1.990  -0.842  -0.095  0.00  0.00     0.002 A 
ATOM      3  C5  UNL d   1       2.321  -2.044   0.532  0.00  0.00     0.002 A 
ATOM      4  C6  UNL d   1       1.325  -2.833   1.103  0.00  0.00    -0.004 A 
ATOM      5  C7  UNL d   1      -0.003  -2.415   1.054  0.00  0.00     0.002 A 
ATOM      6  C8  UNL d   1      -0.338  -1.215   0.424  0.00  0.00     0.002 A 
ENDROOT
BRANCH   1   7
ATOM      7  C2  UNL d   1       0.286   0.865  -0.868  0.00  0.00     0.056 C 
BRANCH   7   8
ATOM      8  C1  UNL d   1      -1.188   1.257  -0.719  0.00  0.00     0.007 C 
ATOM      9  C   UNL d   1      -1.742   1.981  -1.939  0.00  0.00     0.009 C 
ENDBRANCH   7   8
ENDBRANCH   1   7
TORSDOF 2
ENDMDL
