MODEL 1
REMARK minimizedAffinity -1.10188282
REMARK minimizedRMSD -1
REMARK  2 active torsions:
REMARK  status: ('A' for Active; 'I' for Inactive)
REMARK    1  A    between atoms: C1_2  and  C2_3 
REMARK    2  A    between atoms: C2_3  and  C3_4 
ROOT
ATOM      1  C3  UNL d   1       1.578   1.095  -0.386  0.00  0.00    -0.075 A 
ATOM      2  C4  UNL d   1       0.435   1.726   0.123  0.00  0.00     0.002 A 
ATOM      3  C5  UNL d   1      -0.825   1.148  -0.038  0.00  0.00     0.002 A 
ATOM      4  C6  UNL d   1      -0.958  -0.060  -0.718  0.00  0.00    -0.004 A 
ATOM      5  C7  UNL d   1       0.169  -0.688  -1.243  0.00  0.00     0.002 A 
ATOM      6  C8  UNL d   1       1.431  -0.114  -1.079  0.00  0.00     0.002 A 
ENDROOT
BRANCH   1   7
ATOM      7  C2  UNL d   1       2.948   1.700  -0.190  0.00  0.00     0.056 C 
BRANCH   7   8
ATOM      8  C1  UNL d   1       3.776   1.801  -1.475  0.00  0.00     0.007 C 
ATOM      9  C   UNL d   1       4.630   3.059  -1.542  0.00  0.00     0.009 C 
ENDBRANCH   7   8
ENDBRANCH   1   7
TORSDOF 2
ENDMDL
