MODEL 1
REMARK minimizedAffinity -0.0282295886
REMARK minimizedRMSD -1
REMARK  2 active torsions:
REMARK  status: ('A' for Active; 'I' for Inactive)
REMARK    1  A    between atoms: C1_2  and  C2_3 
REMARK    2  A    between atoms: C2_3  and  C3_4 
ROOT
ATOM      1  C3  UNL d   1      -0.617   0.264  -0.281  0.00  0.00    -0.075 A 
ATOM      2  C4  UNL d   1       0.433  -0.646  -0.466  0.00  0.00     0.002 A 
ATOM      3  C5  UNL d   1       0.729  -1.596   0.512  0.00  0.00     0.002 A 
ATOM      4  C6  UNL d   1      -0.013  -1.641   1.690  0.00  0.00    -0.004 A 
ATOM      5  C7  UNL d   1      -1.048  -0.730   1.893  0.00  0.00     0.002 A 
ATOM      6  C8  UNL d   1      -1.349   0.218   0.914  0.00  0.00     0.002 A 
ENDROOT
BRANCH   1   7
ATOM      7  C2  UNL d   1      -0.962   1.275  -1.348  0.00  0.00     0.056 C 
BRANCH   7   8
ATOM      8  C1  UNL d   1      -1.948   0.759  -2.401  0.00  0.00     0.007 C 
ATOM      9  C   UNL d   1      -2.059   1.669  -3.617  0.00  0.00     0.009 C 
ENDBRANCH   7   8
ENDBRANCH   1   7
TORSDOF 2
ENDMDL
