MODEL 1
REMARK minimizedAffinity -4.96661901
REMARK minimizedRMSD -1
REMARK  2 active torsions:
REMARK  status: ('A' for Active; 'I' for Inactive)
REMARK    1  A    between atoms: C1_2  and  C2_3 
REMARK    2  A    between atoms: C2_3  and  C3_4 
ROOT
ATOM      1  C3  UNL d   1      -1.225   0.615  -2.199  0.00  0.00    -0.075 A 
ATOM      2  C4  UNL d   1      -1.444   0.617  -0.814  0.00  0.00     0.002 A 
ATOM      3  C5  UNL d   1      -0.391   0.377   0.070  0.00  0.00     0.002 A 
ATOM      4  C6  UNL d   1       0.888   0.122  -0.419  0.00  0.00    -0.004 A 
ATOM      5  C7  UNL d   1       1.113   0.101  -1.794  0.00  0.00     0.002 A 
ATOM      6  C8  UNL d   1       0.063   0.346  -2.680  0.00  0.00     0.002 A 
ENDROOT
BRANCH   1   7
ATOM      7  C2  UNL d   1      -2.354   0.904  -3.159  0.00  0.00     0.056 C 
BRANCH   7   8
ATOM      8  C1  UNL d   1      -2.202   2.224  -3.922  0.00  0.00     0.007 C 
ATOM      9  C   UNL d   1      -1.864   3.403  -3.019  0.00  0.00     0.009 C 
ENDBRANCH   7   8
ENDBRANCH   1   7
TORSDOF 2
ENDMDL
