MODEL 1
REMARK minimizedAffinity 9.02942657
REMARK minimizedRMSD -1
REMARK  0 active torsions:
REMARK  status: ('A' for Active; 'I' for Inactive)
ROOT
ATOM      1  C   UNL d   1       5.276   1.835  -0.806  0.00  0.00     0.077 C 
ATOM      2  C1  UNL d   1       3.925   1.314  -0.416  0.00  0.00    -0.074 A 
ATOM      3  C2  UNL d   1       2.952   2.166   0.116  0.00  0.00    -0.005 A 
ATOM      4  C3  UNL d   1       1.696   1.670   0.464  0.00  0.00     0.006 A 
ATOM      5  C4  UNL d   1       1.401   0.318   0.285  0.00  0.00    -0.005 A 
ATOM      6  C5  UNL d   1       2.361  -0.550  -0.246  0.00  0.00    -0.074 A 
ATOM      7  C6  UNL d   1       2.056  -2.004  -0.454  0.00  0.00     0.077 C 
ATOM      8  C7  UNL d   1       3.618  -0.042  -0.601  0.00  0.00    -0.001 A 
ENDROOT
TORSDOF 0
ENDMDL
