MODEL 1
REMARK minimizedAffinity 2.67785192
REMARK minimizedRMSD -1
REMARK  0 active torsions:
REMARK  status: ('A' for Active; 'I' for Inactive)
ROOT
ATOM      1  C   UNL d   1      -1.511  -5.248   5.128  0.00  0.00     0.077 C 
ATOM      2  C1  UNL d   1      -0.360  -4.287   5.150  0.00  0.00    -0.074 A 
ATOM      3  C2  UNL d   1       0.733  -4.494   5.998  0.00  0.00    -0.005 A 
ATOM      4  C3  UNL d   1       1.801  -3.597   5.999  0.00  0.00     0.006 A 
ATOM      5  C4  UNL d   1       1.788  -2.486   5.155  0.00  0.00    -0.005 A 
ATOM      6  C5  UNL d   1       0.704  -2.264   4.300  0.00  0.00    -0.074 A 
ATOM      7  C6  UNL d   1       0.677  -1.080   3.379  0.00  0.00     0.077 C 
ATOM      8  C7  UNL d   1      -0.363  -3.173   4.299  0.00  0.00    -0.001 A 
ENDROOT
TORSDOF 0
ENDMDL
