MODEL 1
REMARK minimizedAffinity 1.13814235
REMARK minimizedRMSD -1
REMARK  0 active torsions:
REMARK  status: ('A' for Active; 'I' for Inactive)
ROOT
ATOM      1  C   UNL d   1      -5.999   5.807   4.971  0.00  0.00     0.077 C 
ATOM      2  C1  UNL d   1      -5.264   5.857   3.665  0.00  0.00    -0.074 A 
ATOM      3  C2  UNL d   1      -5.957   5.879   2.451  0.00  0.00    -0.005 A 
ATOM      4  C3  UNL d   1      -5.260   5.935   1.244  0.00  0.00     0.006 A 
ATOM      5  C4  UNL d   1      -3.865   5.971   1.239  0.00  0.00    -0.005 A 
ATOM      6  C5  UNL d   1      -3.155   5.951   2.444  0.00  0.00    -0.074 A 
ATOM      7  C6  UNL d   1      -1.656   5.999   2.457  0.00  0.00     0.077 C 
ATOM      8  C7  UNL d   1      -3.863   5.901   3.652  0.00  0.00    -0.001 A 
ENDROOT
TORSDOF 0
ENDMDL
