MODEL 1
REMARK minimizedAffinity 1.58129036
REMARK minimizedRMSD -1
REMARK  0 active torsions:
REMARK  status: ('A' for Active; 'I' for Inactive)
ROOT
ATOM      1  C   UNL d   1      -2.698   5.952   1.499  0.00  0.00     0.077 C 
ATOM      2  C1  UNL d   1      -3.854   5.399   2.278  0.00  0.00    -0.074 A 
ATOM      3  C2  UNL d   1      -4.628   4.351   1.769  0.00  0.00    -0.005 A 
ATOM      4  C3  UNL d   1      -5.695   3.841   2.509  0.00  0.00     0.006 A 
ATOM      5  C4  UNL d   1      -5.999   4.374   3.762  0.00  0.00    -0.005 A 
ATOM      6  C5  UNL d   1      -5.237   5.422   4.287  0.00  0.00    -0.074 A 
ATOM      7  C6  UNL d   1      -5.544   6.000   5.637  0.00  0.00     0.077 C 
ATOM      8  C7  UNL d   1      -4.162   5.924   3.541  0.00  0.00    -0.001 A 
ENDROOT
TORSDOF 0
ENDMDL
