MODEL 1
REMARK minimizedAffinity 4.26306486
REMARK minimizedRMSD -1
REMARK  0 active torsions:
REMARK  status: ('A' for Active; 'I' for Inactive)
ROOT
ATOM      1  C   UNL d   1       0.630   0.546   4.501  0.00  0.00     0.077 C 
ATOM      2  C1  UNL d   1       0.726  -0.908   4.856  0.00  0.00    -0.074 A 
ATOM      3  C2  UNL d   1       1.762  -1.382   5.668  0.00  0.00    -0.005 A 
ATOM      4  C3  UNL d   1       1.833  -2.736   5.998  0.00  0.00     0.006 A 
ATOM      5  C4  UNL d   1       0.870  -3.627   5.521  0.00  0.00    -0.005 A 
ATOM      6  C5  UNL d   1      -0.173  -3.170   4.709  0.00  0.00    -0.074 A 
ATOM      7  C6  UNL d   1      -1.221  -4.112   4.197  0.00  0.00     0.077 C 
ATOM      8  C7  UNL d   1      -0.241  -1.808   4.388  0.00  0.00    -0.001 A 
ENDROOT
TORSDOF 0
ENDMDL
