MODEL 1
REMARK minimizedAffinity 1.42147481
REMARK minimizedRMSD -1
REMARK  0 active torsions:
REMARK  status: ('A' for Active; 'I' for Inactive)
ROOT
ATOM      1  C   UNL d   1      -5.930   3.466  -4.135  0.00  0.00     0.077 C 
ATOM      2  C1  UNL d   1      -5.133   2.274  -3.696  0.00  0.00    -0.074 A 
ATOM      3  C2  UNL d   1      -4.094   1.774  -4.487  0.00  0.00    -0.005 A 
ATOM      4  C3  UNL d   1      -3.354   0.670  -4.062  0.00  0.00     0.006 A 
ATOM      5  C4  UNL d   1      -3.646   0.057  -2.843  0.00  0.00    -0.005 A 
ATOM      6  C5  UNL d   1      -4.681   0.544  -2.038  0.00  0.00    -0.074 A 
ATOM      7  C6  UNL d   1      -5.001  -0.098  -0.720  0.00  0.00     0.077 C 
ATOM      8  C7  UNL d   1      -5.415   1.657  -2.469  0.00  0.00    -0.001 A 
ENDROOT
TORSDOF 0
ENDMDL
