MODEL 1
REMARK minimizedAffinity -0.137703568
REMARK minimizedRMSD -1
REMARK  1 active torsions:
REMARK  status: ('A' for Active; 'I' for Inactive)
REMARK    1  A    between atoms: C3_4  and  O_7 
ROOT
ATOM      1  C   UNL d   1       5.071  -4.085  -6.000  0.00  0.00    -0.033 A 
ATOM      2  C1  UNL d   1       3.705  -4.262  -5.770  0.00  0.00     0.039 A 
ATOM      3  C2  UNL d   1       3.266  -4.858  -4.586  0.00  0.00    -0.080 A 
ATOM      4  C3  UNL d   1       4.201  -5.271  -3.641  0.00  0.00     0.150 A 
ATOM      5  C4  UNL d   1       5.563  -5.094  -3.862  0.00  0.00    -0.007 A 
ATOM      6  C5  UNL d   1       6.000  -4.499  -5.045  0.00  0.00     0.039 A 
ENDROOT
BRANCH   4   7
ATOM      7  O   UNL d   1       3.821  -5.862  -2.473  0.00  0.00    -0.526 OA
ATOM      8  H5  UNL d   1       2.853  -5.945  -2.471  0.00  0.00     0.418 HD
ENDBRANCH   4   7
TORSDOF 1
ENDMDL
