MODEL 1
REMARK minimizedAffinity -0.561811566
REMARK minimizedRMSD -1
REMARK  1 active torsions:
REMARK  status: ('A' for Active; 'I' for Inactive)
REMARK    1  A    between atoms: C3_4  and  O_7 
ROOT
ATOM      1  C   UNL d   1       5.011  -5.496  -5.982  0.00  0.00    -0.033 A 
ATOM      2  C1  UNL d   1       4.601  -4.161  -6.000  0.00  0.00     0.039 A 
ATOM      3  C2  UNL d   1       4.885  -3.328  -4.916  0.00  0.00    -0.080 A 
ATOM      4  C3  UNL d   1       5.579  -3.840  -3.824  0.00  0.00     0.150 A 
ATOM      5  C4  UNL d   1       5.993  -5.168  -3.801  0.00  0.00    -0.007 A 
ATOM      6  C5  UNL d   1       5.708  -5.999  -4.884  0.00  0.00     0.039 A 
ENDROOT
BRANCH   4   7
ATOM      7  O   UNL d   1       5.875  -3.067  -2.741  0.00  0.00    -0.526 OA
ATOM      8  H5  UNL d   1       5.502  -2.181  -2.884  0.00  0.00     0.418 HD
ENDBRANCH   4   7
TORSDOF 1
ENDMDL
