MODEL 1
REMARK minimizedAffinity 4.50727034
REMARK minimizedRMSD -1
REMARK  1 active torsions:
REMARK  status: ('A' for Active; 'I' for Inactive)
REMARK    1  A    between atoms: C3_4  and  O_7 
ROOT
ATOM      1  C   UNL d   1       2.233  -0.299  -1.234  0.00  0.00    -0.033 A 
ATOM      2  C1  UNL d   1       1.226  -0.743  -0.375  0.00  0.00     0.039 A 
ATOM      3  C2  UNL d   1       0.031  -0.029  -0.268  0.00  0.00    -0.080 A 
ATOM      4  C3  UNL d   1      -0.145   1.125  -1.027  0.00  0.00     0.150 A 
ATOM      5  C4  UNL d   1       0.852   1.571  -1.888  0.00  0.00    -0.007 A 
ATOM      6  C5  UNL d   1       2.045   0.857  -1.992  0.00  0.00     0.039 A 
ENDROOT
BRANCH   4   7
ATOM      7  O   UNL d   1      -1.292   1.858  -0.954  0.00  0.00    -0.526 OA
ATOM      8  H5  UNL d   1      -1.878   1.447  -0.297  0.00  0.00     0.418 HD
ENDBRANCH   4   7
TORSDOF 1
ENDMDL
