MODEL 1
REMARK minimizedAffinity 3.7787137
REMARK minimizedRMSD -1
REMARK  1 active torsions:
REMARK  status: ('A' for Active; 'I' for Inactive)
REMARK    1  A    between atoms: C3_4  and  O_7 
ROOT
ATOM      1  C   UNL d   1       5.956  -2.444   2.067  0.00  0.00    -0.033 A 
ATOM      2  C1  UNL d   1       5.934  -1.186   2.672  0.00  0.00     0.039 A 
ATOM      3  C2  UNL d   1       5.946  -0.031   1.887  0.00  0.00    -0.080 A 
ATOM      4  C3  UNL d   1       5.981  -0.148   0.500  0.00  0.00     0.150 A 
ATOM      5  C4  UNL d   1       6.000  -1.399  -0.109  0.00  0.00    -0.007 A 
ATOM      6  C5  UNL d   1       5.988  -2.550   0.676  0.00  0.00     0.039 A 
ENDROOT
BRANCH   4   7
ATOM      7  O   UNL d   1       5.999   0.950  -0.308  0.00  0.00    -0.526 OA
ATOM      8  H5  UNL d   1       6.012   1.744   0.252  0.00  0.00     0.418 HD
ENDBRANCH   4   7
TORSDOF 1
ENDMDL
