MODEL 1
REMARK minimizedAffinity 0.917030573
REMARK minimizedRMSD -1
REMARK  1 active torsions:
REMARK  status: ('A' for Active; 'I' for Inactive)
REMARK    1  A    between atoms: C3_4  and  O_7 
ROOT
ATOM      1  C   UNL d   1       5.616  -5.928  -3.861  0.00  0.00    -0.033 A 
ATOM      2  C1  UNL d   1       5.999  -4.695  -3.329  0.00  0.00     0.039 A 
ATOM      3  C2  UNL d   1       5.743  -3.519  -4.036  0.00  0.00    -0.080 A 
ATOM      4  C3  UNL d   1       5.104  -3.589  -5.271  0.00  0.00     0.150 A 
ATOM      5  C4  UNL d   1       4.717  -4.814  -5.805  0.00  0.00    -0.007 A 
ATOM      6  C5  UNL d   1       4.974  -5.987  -5.098  0.00  0.00     0.039 A 
ENDROOT
BRANCH   4   7
ATOM      7  O   UNL d   1       4.837  -2.468  -6.000  0.00  0.00    -0.526 OA
ATOM      8  H5  UNL d   1       5.187  -1.699  -5.520  0.00  0.00     0.418 HD
ENDBRANCH   4   7
TORSDOF 1
ENDMDL
