MODEL 1
REMARK minimizedAffinity 3.3761158
REMARK minimizedRMSD -1
REMARK  1 active torsions:
REMARK  status: ('A' for Active; 'I' for Inactive)
REMARK    1  A    between atoms: C3_4  and  O_7 
ROOT
ATOM      1  C   UNL d   1       5.948  -5.283  -3.813  0.00  0.00    -0.033 A 
ATOM      2  C1  UNL d   1       4.717  -5.298  -3.154  0.00  0.00     0.039 A 
ATOM      3  C2  UNL d   1       3.535  -5.118  -3.875  0.00  0.00    -0.080 A 
ATOM      4  C3  UNL d   1       3.598  -4.926  -5.253  0.00  0.00     0.150 A 
ATOM      5  C4  UNL d   1       4.820  -4.914  -5.916  0.00  0.00    -0.007 A 
ATOM      6  C5  UNL d   1       6.000  -5.093  -5.194  0.00  0.00     0.039 A 
ENDROOT
BRANCH   4   7
ATOM      7  O   UNL d   1       2.471  -4.742  -5.998  0.00  0.00    -0.526 OA
ATOM      8  H5  UNL d   1       1.704  -4.745  -5.402  0.00  0.00     0.418 HD
ENDBRANCH   4   7
TORSDOF 1
ENDMDL
