MODEL 1
REMARK minimizedAffinity 0.0186426882
REMARK minimizedRMSD -1
REMARK  1 active torsions:
REMARK  status: ('A' for Active; 'I' for Inactive)
REMARK    1  A    between atoms: C3_4  and  O_7 
ROOT
ATOM      1  C   UNL d   1       4.964  -5.992  -5.676  0.00  0.00    -0.033 A 
ATOM      2  C1  UNL d   1       3.641  -5.577  -5.839  0.00  0.00     0.039 A 
ATOM      3  C2  UNL d   1       3.342  -4.218  -5.950  0.00  0.00    -0.080 A 
ATOM      4  C3  UNL d   1       4.374  -3.285  -5.899  0.00  0.00     0.150 A 
ATOM      5  C4  UNL d   1       5.695  -3.691  -5.742  0.00  0.00    -0.007 A 
ATOM      6  C5  UNL d   1       5.991  -5.049  -5.629  0.00  0.00     0.039 A 
ENDROOT
BRANCH   4   7
ATOM      7  O   UNL d   1       4.131  -1.947  -5.999  0.00  0.00    -0.526 OA
ATOM      8  H5  UNL d   1       3.171  -1.814  -6.075  0.00  0.00     0.418 HD
ENDBRANCH   4   7
TORSDOF 1
ENDMDL
