MODEL 1
REMARK minimizedAffinity 1.52307546
REMARK minimizedRMSD -1
REMARK  1 active torsions:
REMARK  status: ('A' for Active; 'I' for Inactive)
REMARK    1  A    between atoms: C3_4  and  O_7 
ROOT
ATOM      1  C   UNL d   1      -3.966  -5.236  -0.905  0.00  0.00    -0.033 A 
ATOM      2  C1  UNL d   1      -2.767  -5.560  -1.543  0.00  0.00     0.039 A 
ATOM      3  C2  UNL d   1      -1.878  -4.550  -1.917  0.00  0.00    -0.080 A 
ATOM      4  C3  UNL d   1      -2.200  -3.223  -1.648  0.00  0.00     0.150 A 
ATOM      5  C4  UNL d   1      -3.391  -2.893  -1.010  0.00  0.00    -0.007 A 
ATOM      6  C5  UNL d   1      -4.278  -3.902  -0.638  0.00  0.00     0.039 A 
ENDROOT
BRANCH   4   7
ATOM      7  O   UNL d   1      -1.366  -2.202  -1.999  0.00  0.00    -0.526 OA
ATOM      8  H5  UNL d   1      -0.596  -2.578  -2.457  0.00  0.00     0.418 HD
ENDBRANCH   4   7
TORSDOF 1
ENDMDL
