MODEL 1
REMARK minimizedAffinity -0.640622318
REMARK minimizedRMSD -1
REMARK  1 active torsions:
REMARK  status: ('A' for Active; 'I' for Inactive)
REMARK    1  A    between atoms: C3_4  and  O_7 
ROOT
ATOM      1  C   UNL d   1       5.617  -5.893  -4.357  0.00  0.00    -0.033 A 
ATOM      2  C1  UNL d   1       5.895  -4.642  -3.804  0.00  0.00     0.039 A 
ATOM      3  C2  UNL d   1       5.313  -3.493  -4.344  0.00  0.00    -0.080 A 
ATOM      4  C3  UNL d   1       4.456  -3.610  -5.435  0.00  0.00     0.150 A 
ATOM      5  C4  UNL d   1       4.171  -4.854  -5.988  0.00  0.00    -0.007 A 
ATOM      6  C5  UNL d   1       4.754  -6.000  -5.448  0.00  0.00     0.039 A 
ENDROOT
BRANCH   4   7
ATOM      7  O   UNL d   1       3.868  -2.517  -5.999  0.00  0.00    -0.526 OA
ATOM      8  H5  UNL d   1       4.179  -1.724  -5.531  0.00  0.00     0.418 HD
ENDBRANCH   4   7
TORSDOF 1
ENDMDL
