MODEL 1
REMARK minimizedAffinity 0.520814955
REMARK minimizedRMSD -1
REMARK  1 active torsions:
REMARK  status: ('A' for Active; 'I' for Inactive)
REMARK    1  A    between atoms: C3_4  and  O_7 
ROOT
ATOM      1  C   UNL d   1       2.760  -3.377  -5.999  0.00  0.00    -0.033 A 
ATOM      2  C1  UNL d   1       2.783  -4.773  -5.997  0.00  0.00     0.039 A 
ATOM      3  C2  UNL d   1       3.864  -5.454  -5.434  0.00  0.00    -0.080 A 
ATOM      4  C3  UNL d   1       4.914  -4.729  -4.878  0.00  0.00     0.150 A 
ATOM      5  C4  UNL d   1       4.896  -3.338  -4.874  0.00  0.00    -0.007 A 
ATOM      6  C5  UNL d   1       3.817  -2.659  -5.437  0.00  0.00     0.039 A 
ENDROOT
BRANCH   4   7
ATOM      7  O   UNL d   1       5.993  -5.350  -4.322  0.00  0.00    -0.526 OA
ATOM      8  H5  UNL d   1       5.881  -6.310  -4.422  0.00  0.00     0.418 HD
ENDBRANCH   4   7
TORSDOF 1
ENDMDL
