MODEL 1
REMARK minimizedAffinity 0.0334318057
REMARK minimizedRMSD -1
REMARK  1 active torsions:
REMARK  status: ('A' for Active; 'I' for Inactive)
REMARK    1  A    between atoms: C3_4  and  O_7 
ROOT
ATOM      1  C   UNL d   1       5.412  -5.954  -4.335  0.00  0.00    -0.033 A 
ATOM      2  C1  UNL d   1       4.541  -5.925  -5.426  0.00  0.00     0.039 A 
ATOM      3  C2  UNL d   1       4.177  -4.706  -6.000  0.00  0.00    -0.080 A 
ATOM      4  C3  UNL d   1       4.692  -3.523  -5.475  0.00  0.00     0.150 A 
ATOM      5  C4  UNL d   1       5.563  -3.544  -4.391  0.00  0.00    -0.007 A 
ATOM      6  C5  UNL d   1       5.924  -4.763  -3.818  0.00  0.00     0.039 A 
ENDROOT
BRANCH   4   7
ATOM      7  O   UNL d   1       4.362  -2.308  -5.999  0.00  0.00    -0.526 OA
ATOM      8  H5  UNL d   1       3.730  -2.447  -6.724  0.00  0.00     0.418 HD
ENDBRANCH   4   7
TORSDOF 1
ENDMDL
