MODEL 1
REMARK minimizedAffinity -2.1820004
REMARK minimizedRMSD -1
REMARK  1 active torsions:
REMARK  status: ('A' for Active; 'I' for Inactive)
REMARK    1  A    between atoms: C3_4  and  O_7 
ROOT
ATOM      1  C   UNL d   1       5.273  -6.000  -4.555  0.00  0.00    -0.033 A 
ATOM      2  C1  UNL d   1       5.770  -4.793  -4.058  0.00  0.00     0.039 A 
ATOM      3  C2  UNL d   1       5.266  -3.581  -4.533  0.00  0.00    -0.080 A 
ATOM      4  C3  UNL d   1       4.267  -3.589  -5.502  0.00  0.00     0.150 A 
ATOM      5  C4  UNL d   1       3.765  -4.787  -5.999  0.00  0.00    -0.007 A 
ATOM      6  C5  UNL d   1       4.270  -5.997  -5.524  0.00  0.00     0.039 A 
ENDROOT
BRANCH   4   7
ATOM      7  O   UNL d   1       3.747  -2.431  -6.000  0.00  0.00    -0.526 OA
ATOM      8  H5  UNL d   1       4.210  -1.683  -5.586  0.00  0.00     0.418 HD
ENDBRANCH   4   7
TORSDOF 1
ENDMDL
