MODEL 1
REMARK minimizedAffinity -0.715067446
REMARK minimizedRMSD -1
REMARK  1 active torsions:
REMARK  status: ('A' for Active; 'I' for Inactive)
REMARK    1  A    between atoms: C3_4  and  O_7 
ROOT
ATOM      1  C   UNL d   1       5.253  -3.063  -5.982  0.00  0.00    -0.033 A 
ATOM      2  C1  UNL d   1       4.284  -2.842  -5.001  0.00  0.00     0.039 A 
ATOM      3  C2  UNL d   1       4.027  -3.820  -4.039  0.00  0.00    -0.080 A 
ATOM      4  C3  UNL d   1       4.746  -5.012  -4.067  0.00  0.00     0.150 A 
ATOM      5  C4  UNL d   1       5.716  -5.237  -5.039  0.00  0.00    -0.007 A 
ATOM      6  C5  UNL d   1       5.970  -4.260  -6.000  0.00  0.00     0.039 A 
ENDROOT
BRANCH   4   7
ATOM      7  O   UNL d   1       4.527  -5.998  -3.151  0.00  0.00    -0.526 OA
ATOM      8  H5  UNL d   1       3.810  -5.715  -2.560  0.00  0.00     0.418 HD
ENDBRANCH   4   7
TORSDOF 1
ENDMDL
