MODEL 1
REMARK minimizedAffinity -0.864584267
REMARK minimizedRMSD -1
REMARK  1 active torsions:
REMARK  status: ('A' for Active; 'I' for Inactive)
REMARK    1  A    between atoms: C3_4  and  O_7 
ROOT
ATOM      1  C   UNL d   1       3.965  -4.783  -5.961  0.00  0.00    -0.033 A 
ATOM      2  C1  UNL d   1       3.947  -5.544  -4.791  0.00  0.00     0.039 A 
ATOM      3  C2  UNL d   1       4.626  -5.098  -3.655  0.00  0.00    -0.080 A 
ATOM      4  C3  UNL d   1       5.316  -3.890  -3.702  0.00  0.00     0.150 A 
ATOM      5  C4  UNL d   1       5.335  -3.125  -4.863  0.00  0.00    -0.007 A 
ATOM      6  C5  UNL d   1       4.658  -3.572  -5.997  0.00  0.00     0.039 A 
ENDROOT
BRANCH   4   7
ATOM      7  O   UNL d   1       5.997  -3.416  -2.620  0.00  0.00    -0.526 OA
ATOM      8  H5  UNL d   1       5.920  -4.064  -1.900  0.00  0.00     0.418 HD
ENDBRANCH   4   7
TORSDOF 1
ENDMDL
