MODEL 1
REMARK minimizedAffinity -5.83773756
REMARK minimizedRMSD -1
REMARK  3 active torsions:
REMARK  status: ('A' for Active; 'I' for Inactive)
REMARK    1  A    between atoms: C3'_2  and  C2'_3 
REMARK    2  A    between atoms: C2'_3  and  C1'_4 
REMARK    3  A    between atoms: C1'_4  and  C1_5 
ROOT
ATOM      1  C1  N4B d   1      -0.115  -1.744  -1.133  0.00  0.00    -0.075 A 
ATOM      2  C2  N4B d   1       0.573  -2.895  -0.688  0.00  0.00     0.002 A 
ATOM      3  C3  N4B d   1       0.086  -4.144  -0.986  0.00  0.00     0.002 A 
ATOM      4  C4  N4B d   1      -1.091  -4.267  -1.708  0.00  0.00    -0.004 A 
ATOM      5  C5  N4B d   1      -1.736  -3.151  -2.156  0.00  0.00     0.002 A 
ATOM      6  C6  N4B d   1      -1.256  -1.890  -1.868  0.00  0.00     0.002 A 
ENDROOT
BRANCH   1   7
ATOM      7  C1' N4B d   1       0.331  -0.357  -0.759  0.00  0.00     0.057 C 
BRANCH   7   8
ATOM      8  C2' N4B d   1      -0.813   0.363  -0.051  0.00  0.00     0.009 C 
BRANCH   8   9
ATOM      9  C3' N4B d   1      -0.443   0.759   1.368  0.00  0.00     0.004 C 
ATOM     10  C4' N4B d   1      -1.118   2.023   1.813  0.00  0.00     0.003 C 
ENDBRANCH   8   9
ENDBRANCH   7   8
ENDBRANCH   1   7
TORSDOF 3
ENDMDL
