MODEL 1
REMARK minimizedAffinity -5.41644764
REMARK minimizedRMSD -1
REMARK  3 active torsions:
REMARK  status: ('A' for Active; 'I' for Inactive)
REMARK    1  A    between atoms: C3'_2  and  C2'_3 
REMARK    2  A    between atoms: C2'_3  and  C1'_4 
REMARK    3  A    between atoms: C1'_4  and  C1_5 
ROOT
ATOM      1  C1  N4B d   1      -0.000  -0.122  -0.630  0.00  0.00    -0.075 A 
ATOM      2  C2  N4B d   1      -0.713   0.994  -1.121  0.00  0.00     0.002 A 
ATOM      3  C3  N4B d   1      -1.240   1.912  -0.245  0.00  0.00     0.002 A 
ATOM      4  C4  N4B d   1      -1.084   1.724   1.120  0.00  0.00    -0.004 A 
ATOM      5  C5  N4B d   1      -0.373   0.657   1.585  0.00  0.00     0.002 A 
ATOM      6  C6  N4B d   1       0.166  -0.271   0.716  0.00  0.00     0.002 A 
ENDROOT
BRANCH   1   7
ATOM      7  C1' N4B d   1       0.520  -1.197  -1.545  0.00  0.00     0.057 C 
BRANCH   7   8
ATOM      8  C2' N4B d   1      -0.587  -2.215  -1.802  0.00  0.00     0.009 C 
BRANCH   8   9
ATOM      9  C3' N4B d   1      -0.063  -3.641  -1.782  0.00  0.00     0.004 C 
ATOM     10  C4' N4B d   1      -0.635  -4.453  -0.659  0.00  0.00     0.003 C 
ENDBRANCH   8   9
ENDBRANCH   7   8
ENDBRANCH   1   7
TORSDOF 3
ENDMDL
