MODEL 1
REMARK minimizedAffinity -6.48889303
REMARK minimizedRMSD -1
REMARK  3 active torsions:
REMARK  status: ('A' for Active; 'I' for Inactive)
REMARK    1  A    between atoms: C3'_2  and  C2'_3 
REMARK    2  A    between atoms: C2'_3  and  C1'_4 
REMARK    3  A    between atoms: C1'_4  and  C1_5 
ROOT
ATOM      1  C1  N4B d   1      -0.363   0.832   0.518  0.00  0.00    -0.075 A 
ATOM      2  C2  N4B d   1      -0.335   1.388  -0.779  0.00  0.00     0.002 A 
ATOM      3  C3  N4B d   1      -0.704   2.697  -0.973  0.00  0.00     0.002 A 
ATOM      4  C4  N4B d   1      -1.121   3.459   0.107  0.00  0.00    -0.004 A 
ATOM      5  C5  N4B d   1      -1.121   2.922   1.361  0.00  0.00     0.002 A 
ATOM      6  C6  N4B d   1      -0.749   1.609   1.572  0.00  0.00     0.002 A 
ENDROOT
BRANCH   1   7
ATOM      7  C1' N4B d   1      -0.051  -0.619   0.767  0.00  0.00     0.057 C 
BRANCH   7   8
ATOM      8  C2' N4B d   1       0.393  -1.267  -0.541  0.00  0.00     0.009 C 
BRANCH   8   9
ATOM      9  C3' N4B d   1      -0.674  -2.186  -1.111  0.00  0.00     0.004 C 
ATOM     10  C4' N4B d   1      -0.148  -3.549  -1.447  0.00  0.00     0.003 C 
ENDBRANCH   8   9
ENDBRANCH   7   8
ENDBRANCH   1   7
TORSDOF 3
ENDMDL
