MODEL 1
REMARK minimizedAffinity -4.35524702
REMARK minimizedRMSD -1
REMARK  3 active torsions:
REMARK  status: ('A' for Active; 'I' for Inactive)
REMARK    1  A    between atoms: C3'_2  and  C2'_3 
REMARK    2  A    between atoms: C2'_3  and  C1'_4 
REMARK    3  A    between atoms: C1'_4  and  C1_5 
ROOT
ATOM      1  C1  N4B d   1      -0.248   0.168   0.788  0.00  0.00    -0.075 A 
ATOM      2  C2  N4B d   1      -1.563   0.569   0.467  0.00  0.00     0.002 A 
ATOM      3  C3  N4B d   1      -2.077   1.726   1.000  0.00  0.00     0.002 A 
ATOM      4  C4  N4B d   1      -1.305   2.483   1.868  0.00  0.00    -0.004 A 
ATOM      5  C5  N4B d   1      -0.026   2.102   2.153  0.00  0.00     0.002 A 
ATOM      6  C6  N4B d   1       0.505   0.944   1.621  0.00  0.00     0.002 A 
ENDROOT
BRANCH   1   7
ATOM      7  C1' N4B d   1       0.327  -1.133   0.297  0.00  0.00     0.057 C 
BRANCH   7   8
ATOM      8  C2' N4B d   1       0.377  -1.115  -1.227  0.00  0.00     0.009 C 
BRANCH   8   9
ATOM      9  C3' N4B d   1       0.461  -2.516  -1.810  0.00  0.00     0.004 C 
ATOM     10  C4' N4B d   1      -0.778  -3.323  -1.563  0.00  0.00     0.003 C 
ENDBRANCH   8   9
ENDBRANCH   7   8
ENDBRANCH   1   7
TORSDOF 3
ENDMDL
