MODEL 1
REMARK minimizedAffinity -0.49501279
REMARK minimizedRMSD -1
REMARK  3 active torsions:
REMARK  status: ('A' for Active; 'I' for Inactive)
REMARK    1  A    between atoms: C3'_2  and  C2'_3 
REMARK    2  A    between atoms: C2'_3  and  C1'_4 
REMARK    3  A    between atoms: C1'_4  and  C1_5 
ROOT
ATOM      1  C1  N4B d   1      -0.294   0.835   1.396  0.00  0.00    -0.075 A 
ATOM      2  C2  N4B d   1      -1.696   0.691   1.304  0.00  0.00     0.002 A 
ATOM      3  C3  N4B d   1      -2.520   1.701   1.739  0.00  0.00     0.002 A 
ATOM      4  C4  N4B d   1      -1.967   2.850   2.284  0.00  0.00    -0.004 A 
ATOM      5  C5  N4B d   1      -0.611   2.992   2.345  0.00  0.00     0.002 A 
ATOM      6  C6  N4B d   1       0.228   1.987   1.909  0.00  0.00     0.002 A 
ENDROOT
BRANCH   1   7
ATOM      7  C1' N4B d   1       0.645  -0.276   1.013  0.00  0.00     0.057 C 
BRANCH   7   8
ATOM      8  C2' N4B d   1       0.938  -0.192  -0.482  0.00  0.00     0.009 C 
BRANCH   8   9
ATOM      9  C3' N4B d   1      -0.296   0.188  -1.282  0.00  0.00     0.004 C 
ATOM     10  C4' N4B d   1      -0.008   1.204  -2.347  0.00  0.00     0.003 C 
ENDBRANCH   8   9
ENDBRANCH   7   8
ENDBRANCH   1   7
TORSDOF 3
ENDMDL
