MODEL 1
REMARK minimizedAffinity -4.04677868
REMARK minimizedRMSD -1
REMARK  0 active torsions:
REMARK  status: ('A' for Active; 'I' for Inactive)
ROOT
ATOM      1  C   UNL d   1      -0.027  -0.102   0.011  0.00  0.00     0.172 C 
ATOM      2  N   UNL d   1      -0.993  -0.173   1.082  0.00  0.00    -0.070 N 
ATOM      3  C1  UNL d   1      -2.318   0.162   0.985  0.00  0.00    -0.004 A 
ATOM      4  C2  UNL d   1      -2.896  -0.045   2.219  0.00  0.00    -0.047 A 
ATOM      5  C3  UNL d   1      -1.884  -0.519   3.087  0.00  0.00    -0.047 A 
ATOM      6  C4  UNL d   1      -0.716  -0.589   2.358  0.00  0.00    -0.004 A 
ENDROOT
TORSDOF 0
ENDMDL
