MODEL 1
REMARK minimizedAffinity -2.77961421
REMARK minimizedRMSD -1
REMARK  0 active torsions:
REMARK  status: ('A' for Active; 'I' for Inactive)
ROOT
ATOM      1  C   UNL d   1       0.703  -0.204  -1.921  0.00  0.00     0.172 C 
ATOM      2  N   UNL d   1       0.631  -0.229  -0.479  0.00  0.00    -0.070 N 
ATOM      3  C1  UNL d   1      -0.257  -0.960   0.264  0.00  0.00    -0.004 A 
ATOM      4  C2  UNL d   1       0.000  -0.710   1.595  0.00  0.00    -0.047 A 
ATOM      5  C3  UNL d   1       1.079   0.203   1.654  0.00  0.00    -0.047 A 
ATOM      6  C4  UNL d   1       1.450   0.485   0.356  0.00  0.00    -0.004 A 
ENDROOT
TORSDOF 0
ENDMDL
