MODEL 1
REMARK minimizedAffinity -3.22228003
REMARK minimizedRMSD -1
REMARK  0 active torsions:
REMARK  status: ('A' for Active; 'I' for Inactive)
ROOT
ATOM      1  C   UNL d   1       0.008  -0.308   2.681  0.00  0.00     0.172 C 
ATOM      2  N   UNL d   1       0.289  -0.218   1.267  0.00  0.00    -0.070 N 
ATOM      3  C1  UNL d   1       1.490   0.136   0.713  0.00  0.00    -0.004 A 
ATOM      4  C2  UNL d   1       1.349   0.102  -0.657  0.00  0.00    -0.047 A 
ATOM      5  C3  UNL d   1       0.017  -0.285  -0.936  0.00  0.00    -0.047 A 
ATOM      6  C4  UNL d   1      -0.617  -0.477   0.273  0.00  0.00    -0.004 A 
ENDROOT
TORSDOF 0
ENDMDL
