MODEL 1
REMARK minimizedAffinity -2.58604336
REMARK minimizedRMSD -1
REMARK  0 active torsions:
REMARK  status: ('A' for Active; 'I' for Inactive)
ROOT
ATOM      1  C   UNL d   1       0.299  -0.024  -0.680  0.00  0.00     0.172 C 
ATOM      2  N   UNL d   1       0.004  -0.310   0.704  0.00  0.00    -0.070 N 
ATOM      3  C1  UNL d   1      -1.172  -0.026   1.345  0.00  0.00    -0.004 A 
ATOM      4  C2  UNL d   1      -1.056  -0.454   2.649  0.00  0.00    -0.047 A 
ATOM      5  C3  UNL d   1       0.235  -1.013   2.799  0.00  0.00    -0.047 A 
ATOM      6  C4  UNL d   1       0.870  -0.911   1.579  0.00  0.00    -0.004 A 
ENDROOT
TORSDOF 0
ENDMDL
