MODEL 1
REMARK minimizedAffinity -3.51756334
REMARK minimizedRMSD -1
REMARK  0 active torsions:
REMARK  status: ('A' for Active; 'I' for Inactive)
ROOT
ATOM      1  C   UNL d   1      -0.090   0.510  -1.177  0.00  0.00     0.172 C 
ATOM      2  N   UNL d   1       0.469  -0.621  -1.880  0.00  0.00    -0.070 N 
ATOM      3  C1  UNL d   1       0.392  -1.927  -1.478  0.00  0.00    -0.004 A 
ATOM      4  C2  UNL d   1       1.045  -2.697  -2.417  0.00  0.00    -0.047 A 
ATOM      5  C3  UNL d   1       1.531  -1.822  -3.417  0.00  0.00    -0.047 A 
ATOM      6  C4  UNL d   1       1.160  -0.543  -3.060  0.00  0.00    -0.004 A 
ENDROOT
TORSDOF 0
ENDMDL
