MODEL 1
REMARK minimizedAffinity -1.18456864
REMARK minimizedRMSD -1
REMARK  0 active torsions:
REMARK  status: ('A' for Active; 'I' for Inactive)
ROOT
ATOM      1  C   UNL d   1       0.180  -0.085  -0.704  0.00  0.00     0.172 C 
ATOM      2  N   UNL d   1       0.321   0.082   0.723  0.00  0.00    -0.070 N 
ATOM      3  C1  UNL d   1      -0.666  -0.120   1.652  0.00  0.00    -0.004 A 
ATOM      4  C2  UNL d   1      -0.134   0.142   2.896  0.00  0.00    -0.047 A 
ATOM      5  C3  UNL d   1       1.218   0.516   2.708  0.00  0.00    -0.047 A 
ATOM      6  C4  UNL d   1       1.473   0.470   1.354  0.00  0.00    -0.004 A 
ENDROOT
TORSDOF 0
ENDMDL
