MODEL 1
REMARK minimizedAffinity -2.46215391
REMARK minimizedRMSD -1
REMARK  0 active torsions:
REMARK  status: ('A' for Active; 'I' for Inactive)
ROOT
ATOM      1  C   UNL d   1       0.211  -0.092   2.787  0.00  0.00     0.172 C 
ATOM      2  N   UNL d   1       0.373  -0.357   1.376  0.00  0.00    -0.070 N 
ATOM      3  C1  UNL d   1       1.400  -1.064   0.809  0.00  0.00    -0.004 A 
ATOM      4  C2  UNL d   1       1.191  -1.093  -0.553  0.00  0.00    -0.047 A 
ATOM      5  C3  UNL d   1      -0.003  -0.378  -0.813  0.00  0.00    -0.047 A 
ATOM      6  C4  UNL d   1      -0.488   0.067   0.399  0.00  0.00    -0.004 A 
ENDROOT
TORSDOF 0
ENDMDL
