MODEL 1
REMARK minimizedAffinity -1.27021408
REMARK minimizedRMSD -1
REMARK  0 active torsions:
REMARK  status: ('A' for Active; 'I' for Inactive)
ROOT
ATOM      1  C   UNL d   1       0.618  -1.142  -3.561  0.00  0.00     0.172 C 
ATOM      2  N   UNL d   1       0.420  -0.767  -2.181  0.00  0.00    -0.070 N 
ATOM      3  C1  UNL d   1       0.629  -1.576  -1.096  0.00  0.00    -0.004 A 
ATOM      4  C2  UNL d   1       0.329  -0.849   0.036  0.00  0.00    -0.047 A 
ATOM      5  C3  UNL d   1      -0.076   0.440  -0.383  0.00  0.00    -0.047 A 
ATOM      6  C4  UNL d   1      -0.010   0.463  -1.760  0.00  0.00    -0.004 A 
ENDROOT
TORSDOF 0
ENDMDL
