MODEL 1
REMARK minimizedAffinity -2.15585232
REMARK minimizedRMSD -1
REMARK  0 active torsions:
REMARK  status: ('A' for Active; 'I' for Inactive)
ROOT
ATOM      1  C   UNL d   1       0.192  -0.067   2.391  0.00  0.00     0.172 C 
ATOM      2  N   UNL d   1       0.012   0.090   0.967  0.00  0.00    -0.070 N 
ATOM      3  C1  UNL d   1       0.943  -0.206   0.007  0.00  0.00    -0.004 A 
ATOM      4  C2  UNL d   1       0.388   0.081  -1.221  0.00  0.00    -0.047 A 
ATOM      5  C3  UNL d   1      -0.921   0.567  -0.992  0.00  0.00    -0.047 A 
ATOM      6  C4  UNL d   1      -1.128   0.562   0.371  0.00  0.00    -0.004 A 
ENDROOT
TORSDOF 0
ENDMDL
