MODEL 1
REMARK minimizedAffinity -2.37538528
REMARK minimizedRMSD -1
REMARK  0 active torsions:
REMARK  status: ('A' for Active; 'I' for Inactive)
ROOT
ATOM      1  C   UNL d   1       0.125   0.006   2.803  0.00  0.00     0.172 C 
ATOM      2  N   UNL d   1       0.222   0.096   1.365  0.00  0.00    -0.070 N 
ATOM      3  C1  UNL d   1      -0.830   0.065   0.490  0.00  0.00    -0.004 A 
ATOM      4  C2  UNL d   1      -0.322   0.178  -0.786  0.00  0.00    -0.047 A 
ATOM      5  C3  UNL d   1       1.085   0.280  -0.674  0.00  0.00    -0.047 A 
ATOM      6  C4  UNL d   1       1.395   0.226   0.669  0.00  0.00    -0.004 A 
ENDROOT
TORSDOF 0
ENDMDL
