MODEL 1
REMARK minimizedAffinity -1.78130484
REMARK minimizedRMSD -1
REMARK  0 active torsions:
REMARK  status: ('A' for Active; 'I' for Inactive)
ROOT
ATOM      1  C   UNL d   1      -0.342   0.144  -1.541  0.00  0.00     0.172 C 
ATOM      2  N   UNL d   1       0.303  -0.687  -2.531  0.00  0.00    -0.070 N 
ATOM      3  C1  UNL d   1      -0.175  -1.878  -3.007  0.00  0.00    -0.004 A 
ATOM      4  C2  UNL d   1       0.728  -2.355  -3.933  0.00  0.00    -0.047 A 
ATOM      5  C3  UNL d   1       1.785  -1.418  -4.016  0.00  0.00    -0.047 A 
ATOM      6  C4  UNL d   1       1.496  -0.395  -3.137  0.00  0.00    -0.004 A 
ENDROOT
TORSDOF 0
ENDMDL
