MODEL 1
REMARK minimizedAffinity -3.19182563
REMARK minimizedRMSD -1
REMARK  0 active torsions:
REMARK  status: ('A' for Active; 'I' for Inactive)
ROOT
ATOM      1  C   UNL d   1      -0.271  -0.048   3.102  0.00  0.00     0.172 C 
ATOM      2  N   UNL d   1      -0.067   0.024   1.674  0.00  0.00    -0.070 N 
ATOM      3  C1  UNL d   1       1.096   0.393   1.052  0.00  0.00    -0.004 A 
ATOM      4  C2  UNL d   1       0.884   0.333  -0.308  0.00  0.00    -0.047 A 
ATOM      5  C3  UNL d   1      -0.453  -0.086  -0.510  0.00  0.00    -0.047 A 
ATOM      6  C4  UNL d   1      -1.018  -0.270   0.734  0.00  0.00    -0.004 A 
ENDROOT
TORSDOF 0
ENDMDL
