MODEL 1
REMARK minimizedAffinity -2.68966293
REMARK minimizedRMSD -1
REMARK  0 active torsions:
REMARK  status: ('A' for Active; 'I' for Inactive)
ROOT
ATOM      1  C   UNL d   1       0.830  -0.311   2.416  0.00  0.00     0.172 C 
ATOM      2  N   UNL d   1       0.669  -0.153   0.990  0.00  0.00    -0.070 N 
ATOM      3  C1  UNL d   1       0.259  -1.127   0.120  0.00  0.00    -0.004 A 
ATOM      4  C2  UNL d   1       0.234  -0.581  -1.145  0.00  0.00    -0.047 A 
ATOM      5  C3  UNL d   1       0.643   0.769  -1.031  0.00  0.00    -0.047 A 
ATOM      6  C4  UNL d   1       0.906   1.008   0.301  0.00  0.00    -0.004 A 
ENDROOT
TORSDOF 0
ENDMDL
