MODEL 1
REMARK minimizedAffinity -2.96309447
REMARK minimizedRMSD -1
REMARK  0 active torsions:
REMARK  status: ('A' for Active; 'I' for Inactive)
ROOT
ATOM      1  C   UNL d   1       4.151  -0.624  -4.427  0.00  0.00     0.172 C 
ATOM      2  N   UNL d   1       2.804  -0.760  -3.926  0.00  0.00    -0.070 N 
ATOM      3  C1  UNL d   1       2.005  -1.862  -4.072  0.00  0.00    -0.004 A 
ATOM      4  C2  UNL d   1       0.801  -1.596  -3.456  0.00  0.00    -0.047 A 
ATOM      5  C3  UNL d   1       0.879  -0.288  -2.922  0.00  0.00    -0.047 A 
ATOM      6  C4  UNL d   1       2.129   0.207  -3.227  0.00  0.00    -0.004 A 
ENDROOT
TORSDOF 0
ENDMDL
