MODEL 1
REMARK minimizedAffinity -2.85660148
REMARK minimizedRMSD -1
REMARK  0 active torsions:
REMARK  status: ('A' for Active; 'I' for Inactive)
ROOT
ATOM      1  C   UNL d   1       0.172  -0.075  -0.097  0.00  0.00     0.172 C 
ATOM      2  N   UNL d   1       0.427  -0.279  -1.504  0.00  0.00    -0.070 N 
ATOM      3  C1  UNL d   1       0.418   0.695  -2.467  0.00  0.00    -0.004 A 
ATOM      4  C2  UNL d   1       0.707   0.097  -3.674  0.00  0.00    -0.047 A 
ATOM      5  C3  UNL d   1       0.896  -1.284  -3.429  0.00  0.00    -0.047 A 
ATOM      6  C4  UNL d   1       0.717  -1.489  -2.077  0.00  0.00    -0.004 A 
ENDROOT
TORSDOF 0
ENDMDL
