MODEL 1
REMARK minimizedAffinity -1.18699372
REMARK minimizedRMSD -1
REMARK  0 active torsions:
REMARK  status: ('A' for Active; 'I' for Inactive)
ROOT
ATOM      1  C   UNL d   1      -0.306  -0.057   3.026  0.00  0.00     0.172 C 
ATOM      2  N   UNL d   1      -0.124   0.055   1.597  0.00  0.00    -0.070 N 
ATOM      3  C1  UNL d   1       1.012  -0.278   0.909  0.00  0.00    -0.004 A 
ATOM      4  C2  UNL d   1       0.785  -0.028  -0.427  0.00  0.00    -0.047 A 
ATOM      5  C3  UNL d   1      -0.533   0.474  -0.545  0.00  0.00    -0.047 A 
ATOM      6  C4  UNL d   1      -1.073   0.514   0.723  0.00  0.00    -0.004 A 
ENDROOT
TORSDOF 0
ENDMDL
