MODEL 1
REMARK minimizedAffinity -2.98927879
REMARK minimizedRMSD -1
REMARK  0 active torsions:
REMARK  status: ('A' for Active; 'I' for Inactive)
ROOT
ATOM      1  C   UNL d   1      -0.488   0.282   2.909  0.00  0.00     0.172 C 
ATOM      2  N   UNL d   1       0.183  -0.182   1.717  0.00  0.00    -0.070 N 
ATOM      3  C1  UNL d   1      -0.277  -0.039   0.435  0.00  0.00    -0.004 A 
ATOM      4  C2  UNL d   1       0.648  -0.611  -0.411  0.00  0.00    -0.047 A 
ATOM      5  C3  UNL d   1       1.699  -1.116   0.390  0.00  0.00    -0.047 A 
ATOM      6  C4  UNL d   1       1.386  -0.836   1.703  0.00  0.00    -0.004 A 
ENDROOT
TORSDOF 0
ENDMDL
