MODEL 1
REMARK minimizedAffinity -1.88165057
REMARK minimizedRMSD -1
REMARK  3 active torsions:
REMARK  status: ('A' for Active; 'I' for Inactive)
REMARK    1  A    between atoms: C3'_2  and  C2'_3 
REMARK    2  A    between atoms: C2'_3  and  C1'_4 
REMARK    3  A    between atoms: C1'_4  and  C1_5 
ROOT
ATOM      1  C1  N4B d   1      -5.295   5.768  -3.579  0.00  0.00    -0.075 A 
ATOM      2  C2  N4B d   1      -6.000   5.567  -4.786  0.00  0.00     0.002 A 
ATOM      3  C3  N4B d   1      -5.327   5.572  -5.983  0.00  0.00     0.002 A 
ATOM      4  C4  N4B d   1      -3.958   5.794  -6.000  0.00  0.00    -0.004 A 
ATOM      5  C5  N4B d   1      -3.281   5.962  -4.828  0.00  0.00     0.002 A 
ATOM      6  C6  N4B d   1      -3.943   5.955  -3.617  0.00  0.00     0.002 A 
ENDROOT
BRANCH   1   7
ATOM      7  C1' N4B d   1      -6.000   5.856  -2.253  0.00  0.00     0.057 C 
BRANCH   7   8
ATOM      8  C2' N4B d   1      -5.998   4.481  -1.593  0.00  0.00     0.009 C 
BRANCH   8   9
ATOM      9  C3' N4B d   1      -5.719   4.567  -0.102  0.00  0.00     0.004 C 
ATOM     10  C4' N4B d   1      -4.870   3.435   0.396  0.00  0.00     0.003 C 
ENDBRANCH   8   9
ENDBRANCH   7   8
ENDBRANCH   1   7
TORSDOF 3
ENDMDL
