MODEL 1
REMARK minimizedAffinity -0.47156474
REMARK minimizedRMSD -1
REMARK  3 active torsions:
REMARK  status: ('A' for Active; 'I' for Inactive)
REMARK    1  A    between atoms: C3'_2  and  C2'_3 
REMARK    2  A    between atoms: C2'_3  and  C1'_4 
REMARK    3  A    between atoms: C1'_4  and  C1_5 
ROOT
ATOM      1  C1  N4B d   1      -5.677   3.467  -3.853  0.00  0.00    -0.075 A 
ATOM      2  C2  N4B d   1      -5.922   4.779  -3.392  0.00  0.00     0.002 A 
ATOM      3  C3  N4B d   1      -5.549   5.856  -4.158  0.00  0.00     0.002 A 
ATOM      4  C4  N4B d   1      -4.916   5.647  -5.374  0.00  0.00    -0.004 A 
ATOM      5  C5  N4B d   1      -4.705   4.376  -5.823  0.00  0.00     0.002 A 
ATOM      6  C6  N4B d   1      -5.078   3.284  -5.065  0.00  0.00     0.002 A 
ENDROOT
BRANCH   1   7
ATOM      7  C1' N4B d   1      -5.989   2.259  -3.012  0.00  0.00     0.057 C 
BRANCH   7   8
ATOM      8  C2' N4B d   1      -5.141   2.299  -1.744  0.00  0.00     0.009 C 
BRANCH   8   9
ATOM      9  C3' N4B d   1      -5.995   2.279  -0.488  0.00  0.00     0.004 C 
ATOM     10  C4' N4B d   1      -5.999   3.595   0.232  0.00  0.00     0.003 C 
ENDBRANCH   8   9
ENDBRANCH   7   8
ENDBRANCH   1   7
TORSDOF 3
ENDMDL
