MODEL 1
REMARK minimizedAffinity -1.43801475
REMARK minimizedRMSD -1
REMARK  3 active torsions:
REMARK  status: ('A' for Active; 'I' for Inactive)
REMARK    1  A    between atoms: C3'_2  and  C2'_3 
REMARK    2  A    between atoms: C2'_3  and  C1'_4 
REMARK    3  A    between atoms: C1'_4  and  C1_5 
ROOT
ATOM      1  C1  N4B d   1       3.559   1.856  -3.987  0.00  0.00    -0.075 A 
ATOM      2  C2  N4B d   1       4.173   1.142  -2.935  0.00  0.00     0.002 A 
ATOM      3  C3  N4B d   1       5.327   0.433  -3.168  0.00  0.00     0.002 A 
ATOM      4  C4  N4B d   1       5.871   0.409  -4.444  0.00  0.00    -0.004 A 
ATOM      5  C5  N4B d   1       5.285   1.122  -5.448  0.00  0.00     0.002 A 
ATOM      6  C6  N4B d   1       4.128   1.842  -5.227  0.00  0.00     0.002 A 
ENDROOT
BRANCH   1   7
ATOM      7  C1' N4B d   1       2.250   2.574  -3.801  0.00  0.00     0.057 C 
BRANCH   7   8
ATOM      8  C2' N4B d   1       1.731   2.311  -2.390  0.00  0.00     0.009 C 
BRANCH   8   9
ATOM      9  C3' N4B d   1       1.498   3.600  -1.621  0.00  0.00     0.004 C 
ATOM     10  C4' N4B d   1       2.700   4.034  -0.837  0.00  0.00     0.003 C 
ENDBRANCH   8   9
ENDBRANCH   7   8
ENDBRANCH   1   7
TORSDOF 3
ENDMDL
