MODEL 1
REMARK minimizedAffinity -0.774576128
REMARK minimizedRMSD -1
REMARK  3 active torsions:
REMARK  status: ('A' for Active; 'I' for Inactive)
REMARK    1  A    between atoms: C3'_2  and  C2'_3 
REMARK    2  A    between atoms: C2'_3  and  C1'_4 
REMARK    3  A    between atoms: C1'_4  and  C1_5 
ROOT
ATOM      1  C1  N4B d   1      -3.249   5.777  -4.678  0.00  0.00    -0.075 A 
ATOM      2  C2  N4B d   1      -4.035   5.431  -3.556  0.00  0.00     0.002 A 
ATOM      3  C3  N4B d   1      -5.399   5.332  -3.679  0.00  0.00     0.002 A 
ATOM      4  C4  N4B d   1      -5.999   5.592  -4.902  0.00  0.00    -0.004 A 
ATOM      5  C5  N4B d   1      -5.230   5.901  -5.986  0.00  0.00     0.002 A 
ATOM      6  C6  N4B d   1      -3.858   6.000  -5.879  0.00  0.00     0.002 A 
ENDROOT
BRANCH   1   7
ATOM      7  C1' N4B d   1      -1.762   5.982  -4.573  0.00  0.00     0.057 C 
BRANCH   7   8
ATOM      8  C2' N4B d   1      -1.140   5.857  -5.960  0.00  0.00     0.009 C 
BRANCH   8   9
ATOM      9  C3' N4B d   1       0.096   4.975  -5.952  0.00  0.00     0.004 C 
ATOM     10  C4' N4B d   1       0.131   4.035  -4.784  0.00  0.00     0.003 C 
ENDBRANCH   8   9
ENDBRANCH   7   8
ENDBRANCH   1   7
TORSDOF 3
ENDMDL
