MODEL 1
REMARK minimizedAffinity 10.8244524
REMARK minimizedRMSD -1
REMARK  3 active torsions:
REMARK  status: ('A' for Active; 'I' for Inactive)
REMARK    1  A    between atoms: C3'_2  and  C2'_3 
REMARK    2  A    between atoms: C2'_3  and  C1'_4 
REMARK    3  A    between atoms: C1'_4  and  C1_5 
ROOT
ATOM      1  C1  N4B d   1      -0.365   3.309  -4.982  0.00  0.00    -0.075 A 
ATOM      2  C2  N4B d   1      -1.502   3.981  -4.480  0.00  0.00     0.002 A 
ATOM      3  C3  N4B d   1      -1.684   5.316  -4.749  0.00  0.00     0.002 A 
ATOM      4  C4  N4B d   1      -0.738   6.000  -5.498  0.00  0.00    -0.004 A 
ATOM      5  C5  N4B d   1       0.343   5.337  -6.000  0.00  0.00     0.002 A 
ATOM      6  C6  N4B d   1       0.538   3.995  -5.741  0.00  0.00     0.002 A 
ENDROOT
BRANCH   1   7
ATOM      7  C1' N4B d   1      -0.079   1.872  -4.643  0.00  0.00     0.057 C 
BRANCH   7   8
ATOM      8  C2' N4B d   1       1.256   1.787  -3.910  0.00  0.00     0.009 C 
BRANCH   8   9
ATOM      9  C3' N4B d   1       1.510   0.397  -3.351  0.00  0.00     0.004 C 
ATOM     10  C4' N4B d   1       2.689   0.350  -2.425  0.00  0.00     0.003 C 
ENDBRANCH   8   9
ENDBRANCH   7   8
ENDBRANCH   1   7
TORSDOF 3
ENDMDL
