MODEL 1
REMARK minimizedAffinity 9.80258942
REMARK minimizedRMSD -1
REMARK  3 active torsions:
REMARK  status: ('A' for Active; 'I' for Inactive)
REMARK    1  A    between atoms: C3'_2  and  C2'_3 
REMARK    2  A    between atoms: C2'_3  and  C1'_4 
REMARK    3  A    between atoms: C1'_4  and  C1_5 
ROOT
ATOM      1  C1  N4B d   1      -0.354   3.313  -5.033  0.00  0.00    -0.075 A 
ATOM      2  C2  N4B d   1      -1.429   3.872  -4.307  0.00  0.00     0.002 A 
ATOM      3  C3  N4B d   1      -1.731   5.204  -4.444  0.00  0.00     0.002 A 
ATOM      4  C4  N4B d   1      -0.964   5.999  -5.283  0.00  0.00    -0.004 A 
ATOM      5  C5  N4B d   1       0.057   5.446  -6.000  0.00  0.00     0.002 A 
ATOM      6  C6  N4B d   1       0.369   4.107  -5.875  0.00  0.00     0.002 A 
ENDROOT
BRANCH   1   7
ATOM      7  C1' N4B d   1       0.067   1.881  -4.850  0.00  0.00     0.057 C 
BRANCH   7   8
ATOM      8  C2' N4B d   1      -1.112   0.967  -5.168  0.00  0.00     0.009 C 
BRANCH   8   9
ATOM      9  C3' N4B d   1      -1.305  -0.102  -4.106  0.00  0.00     0.004 C 
ATOM     10  C4' N4B d   1      -2.747  -0.317  -3.753  0.00  0.00     0.003 C 
ENDBRANCH   8   9
ENDBRANCH   7   8
ENDBRANCH   1   7
TORSDOF 3
ENDMDL
