MODEL 1
REMARK minimizedAffinity 17.177248
REMARK minimizedRMSD -1
REMARK  3 active torsions:
REMARK  status: ('A' for Active; 'I' for Inactive)
REMARK    1  A    between atoms: C3'_2  and  C2'_3 
REMARK    2  A    between atoms: C2'_3  and  C1'_4 
REMARK    3  A    between atoms: C1'_4  and  C1_5 
ROOT
ATOM      1  C1  N4B d   1       3.293   4.058  -5.868  0.00  0.00    -0.075 A 
ATOM      2  C2  N4B d   1       4.260   3.037  -5.746  0.00  0.00     0.002 A 
ATOM      3  C3  N4B d   1       5.597   3.352  -5.756  0.00  0.00     0.002 A 
ATOM      4  C4  N4B d   1       5.988   4.675  -5.905  0.00  0.00    -0.004 A 
ATOM      5  C5  N4B d   1       5.047   5.658  -5.996  0.00  0.00     0.002 A 
ATOM      6  C6  N4B d   1       3.700   5.356  -5.983  0.00  0.00     0.002 A 
ENDROOT
BRANCH   1   7
ATOM      7  C1' N4B d   1       1.822   3.754  -5.949  0.00  0.00     0.057 C 
BRANCH   7   8
ATOM      8  C2' N4B d   1       1.584   2.314  -5.502  0.00  0.00     0.009 C 
BRANCH   8   9
ATOM      9  C3' N4B d   1       0.379   2.197  -4.584  0.00  0.00     0.004 C 
ATOM     10  C4' N4B d   1       0.727   2.404  -3.140  0.00  0.00     0.003 C 
ENDBRANCH   8   9
ENDBRANCH   7   8
ENDBRANCH   1   7
TORSDOF 3
ENDMDL
