MODEL 1
REMARK minimizedAffinity 6.34214163
REMARK minimizedRMSD -1
REMARK  3 active torsions:
REMARK  status: ('A' for Active; 'I' for Inactive)
REMARK    1  A    between atoms: C3'_2  and  C2'_3 
REMARK    2  A    between atoms: C2'_3  and  C1'_4 
REMARK    3  A    between atoms: C1'_4  and  C1_5 
ROOT
ATOM      1  C1  N4B d   1       1.208  -0.804   0.204  0.00  0.00    -0.075 A 
ATOM      2  C2  N4B d   1       2.315  -1.590   0.591  0.00  0.00     0.002 A 
ATOM      3  C3  N4B d   1       3.155  -2.112  -0.364  0.00  0.00     0.002 A 
ATOM      4  C4  N4B d   1       2.897  -1.877  -1.706  0.00  0.00    -0.004 A 
ATOM      5  C5  N4B d   1       1.840  -1.095  -2.070  0.00  0.00     0.002 A 
ATOM      6  C6  N4B d   1       0.990  -0.562  -1.122  0.00  0.00     0.002 A 
ENDROOT
BRANCH   1   7
ATOM      7  C1' N4B d   1       0.214  -0.285   1.206  0.00  0.00     0.057 C 
BRANCH   7   8
ATOM      8  C2' N4B d   1      -0.832  -1.362   1.479  0.00  0.00     0.009 C 
BRANCH   8   9
ATOM      9  C3' N4B d   1      -2.245  -0.853   1.251  0.00  0.00     0.004 C 
ATOM     10  C4' N4B d   1      -2.689  -0.990  -0.175  0.00  0.00     0.003 C 
ENDBRANCH   8   9
ENDBRANCH   7   8
ENDBRANCH   1   7
TORSDOF 3
ENDMDL
