MODEL 1
REMARK minimizedAffinity 16.4398861
REMARK minimizedRMSD -1
REMARK  1 active torsions:
REMARK  status: ('A' for Active; 'I' for Inactive)
REMARK    1  A    between atoms: N_2  and  C1_3 
ROOT
ATOM      1  C1  UNL d   1       3.410  -2.243   5.313  0.00  0.00     0.143 A 
ATOM      2  C2  UNL d   1       3.080  -2.682   4.026  0.00  0.00    -0.057 A 
ATOM      3  C3  UNL d   1       1.864  -2.328   3.428  0.00  0.00     0.033 A 
ATOM      4  C4  UNL d   1       0.942  -1.551   4.121  0.00  0.00    -0.042 A 
ATOM      5  C5  UNL d   1       1.238  -1.124   5.410  0.00  0.00     0.033 A 
ATOM      6  C6  UNL d   1       2.457  -1.475   6.000  0.00  0.00    -0.057 A 
ENDROOT
BRANCH   1   7
ATOM      7  N   UNL d   1       4.560  -2.642   6.000  0.00  0.00    -0.732 N 
ATOM      8  C   UNL d   1       5.135  -3.951   5.775  0.00  0.00     0.284 C 
ATOM      9  H3  UNL d   1       5.245  -1.894   6.078  0.00  0.00     0.395 HD
ENDBRANCH   1   7
TORSDOF 1
ENDMDL
