MODEL 1
REMARK minimizedAffinity 3.6863656
REMARK minimizedRMSD -1
REMARK  1 active torsions:
REMARK  status: ('A' for Active; 'I' for Inactive)
REMARK    1  A    between atoms: N_2  and  C1_3 
ROOT
ATOM      1  C1  UNL d   1      -1.666   2.013  -1.135  0.00  0.00     0.143 A 
ATOM      2  C2  UNL d   1      -2.428   0.926  -0.694  0.00  0.00    -0.057 A 
ATOM      3  C3  UNL d   1      -3.465   0.401  -1.475  0.00  0.00     0.033 A 
ATOM      4  C4  UNL d   1      -3.778   0.976  -2.703  0.00  0.00    -0.042 A 
ATOM      5  C5  UNL d   1      -3.050   2.074  -3.149  0.00  0.00     0.033 A 
ATOM      6  C6  UNL d   1      -2.012   2.588  -2.367  0.00  0.00    -0.057 A 
ENDROOT
BRANCH   1   7
ATOM      7  N   UNL d   1      -0.687   2.642  -0.361  0.00  0.00    -0.732 N 
ATOM      8  C   UNL d   1      -1.012   3.184   0.941  0.00  0.00     0.284 C 
ATOM      9  H3  UNL d   1       0.207   2.158  -0.398  0.00  0.00     0.395 HD
ENDBRANCH   1   7
TORSDOF 1
ENDMDL
