MODEL 1
REMARK minimizedAffinity 14.4833803
REMARK minimizedRMSD -1
REMARK  1 active torsions:
REMARK  status: ('A' for Active; 'I' for Inactive)
REMARK    1  A    between atoms: N_2  and  C1_3 
ROOT
ATOM      1  C1  UNL d   1      -3.699   0.148  -0.580  0.00  0.00     0.143 A 
ATOM      2  C2  UNL d   1      -4.389   0.325  -1.784  0.00  0.00    -0.057 A 
ATOM      3  C3  UNL d   1      -3.973   1.273  -2.727  0.00  0.00     0.033 A 
ATOM      4  C4  UNL d   1      -2.874   2.085  -2.468  0.00  0.00    -0.042 A 
ATOM      5  C5  UNL d   1      -2.188   1.944  -1.267  0.00  0.00     0.033 A 
ATOM      6  C6  UNL d   1      -2.604   0.991  -0.332  0.00  0.00    -0.057 A 
ENDROOT
BRANCH   1   7
ATOM      7  N   UNL d   1      -4.121  -0.709   0.439  0.00  0.00    -0.732 N 
ATOM      8  C   UNL d   1      -4.505  -0.184   1.732  0.00  0.00     0.284 C 
ATOM      9  H3  UNL d   1      -4.724  -1.453   0.097  0.00  0.00     0.395 HD
ENDBRANCH   1   7
TORSDOF 1
ENDMDL
