MODEL 1
REMARK minimizedAffinity 2.38904691
REMARK minimizedRMSD -1
REMARK  1 active torsions:
REMARK  status: ('A' for Active; 'I' for Inactive)
REMARK    1  A    between atoms: N_2  and  C1_3 
ROOT
ATOM      1  C1  UNL d   1       4.171  -2.594  -2.981  0.00  0.00     0.143 A 
ATOM      2  C2  UNL d   1       5.075  -3.604  -2.637  0.00  0.00    -0.057 A 
ATOM      3  C3  UNL d   1       5.992  -4.106  -3.570  0.00  0.00     0.033 A 
ATOM      4  C4  UNL d   1       5.999  -3.625  -4.875  0.00  0.00    -0.042 A 
ATOM      5  C5  UNL d   1       5.092  -2.638  -5.245  0.00  0.00     0.033 A 
ATOM      6  C6  UNL d   1       4.184  -2.136  -4.308  0.00  0.00    -0.057 A 
ENDROOT
BRANCH   1   7
ATOM      7  N   UNL d   1       3.170  -2.123  -2.127  0.00  0.00    -0.732 N 
ATOM      8  C   UNL d   1       2.574  -2.995  -1.138  0.00  0.00     0.284 C 
ATOM      9  H3  UNL d   1       3.357  -1.180  -1.792  0.00  0.00     0.395 HD
ENDBRANCH   1   7
TORSDOF 1
ENDMDL
