MODEL 1
REMARK minimizedAffinity 2.44584417
REMARK minimizedRMSD -1
REMARK  1 active torsions:
REMARK  status: ('A' for Active; 'I' for Inactive)
REMARK    1  A    between atoms: N_2  and  C1_3 
ROOT
ATOM      1  C1  UNL d   1       0.597   1.487   1.104  0.00  0.00     0.143 A 
ATOM      2  C2  UNL d   1       1.196   2.456   1.916  0.00  0.00    -0.057 A 
ATOM      3  C3  UNL d   1       1.547   3.713   1.409  0.00  0.00     0.033 A 
ATOM      4  C4  UNL d   1       1.330   4.014   0.069  0.00  0.00    -0.042 A 
ATOM      5  C5  UNL d   1       0.758   3.058  -0.763  0.00  0.00     0.033 A 
ATOM      6  C6  UNL d   1       0.404   1.807  -0.250  0.00  0.00    -0.057 A 
ENDROOT
BRANCH   1   7
ATOM      7  N   UNL d   1       0.315   0.185   1.524  0.00  0.00    -0.732 N 
ATOM      8  C   UNL d   1       1.380  -0.700   1.944  0.00  0.00     0.284 C 
ATOM      9  H3  UNL d   1      -0.519   0.136   2.104  0.00  0.00     0.395 HD
ENDBRANCH   1   7
TORSDOF 1
ENDMDL
