MODEL 1
REMARK minimizedAffinity 0.727382004
REMARK minimizedRMSD -1
REMARK  1 active torsions:
REMARK  status: ('A' for Active; 'I' for Inactive)
REMARK    1  A    between atoms: N_2  and  C1_3 
ROOT
ATOM      1  C1  UNL d   1       0.636   2.161   0.324  0.00  0.00     0.143 A 
ATOM      2  C2  UNL d   1       0.796   2.547   1.659  0.00  0.00    -0.057 A 
ATOM      3  C3  UNL d   1       0.620   1.633   2.705  0.00  0.00     0.033 A 
ATOM      4  C4  UNL d   1       0.250   0.320   2.435  0.00  0.00    -0.042 A 
ATOM      5  C5  UNL d   1       0.061  -0.079   1.116  0.00  0.00     0.033 A 
ATOM      6  C6  UNL d   1       0.245   0.836   0.076  0.00  0.00    -0.057 A 
ENDROOT
BRANCH   1   7
ATOM      7  N   UNL d   1       0.701   3.047  -0.754  0.00  0.00    -0.732 N 
ATOM      8  C   UNL d   1       0.442   4.458  -0.566  0.00  0.00     0.284 C 
ATOM      9  H3  UNL d   1       1.482   2.846  -1.375  0.00  0.00     0.395 HD
ENDBRANCH   1   7
TORSDOF 1
ENDMDL
