MODEL 1
REMARK minimizedAffinity 6.4570322
REMARK minimizedRMSD -1
REMARK  1 active torsions:
REMARK  status: ('A' for Active; 'I' for Inactive)
REMARK    1  A    between atoms: N_2  and  C1_3 
ROOT
ATOM      1  C1  UNL d   1      -1.623  -4.132  -4.527  0.00  0.00     0.143 A 
ATOM      2  C2  UNL d   1      -2.967  -3.744  -4.562  0.00  0.00    -0.057 A 
ATOM      3  C3  UNL d   1      -3.917  -4.481  -5.279  0.00  0.00     0.033 A 
ATOM      4  C4  UNL d   1      -3.534  -5.607  -6.000  0.00  0.00    -0.042 A 
ATOM      5  C5  UNL d   1      -2.199  -5.997  -5.999  0.00  0.00     0.033 A 
ATOM      6  C6  UNL d   1      -1.256  -5.261  -5.276  0.00  0.00    -0.057 A 
ENDROOT
BRANCH   1   7
ATOM      7  N   UNL d   1      -0.614  -3.386  -3.914  0.00  0.00    -0.732 N 
ATOM      8  C   UNL d   1      -0.444  -3.417  -2.477  0.00  0.00     0.284 C 
ATOM      9  H3  UNL d   1       0.259  -3.410  -4.437  0.00  0.00     0.395 HD
ENDBRANCH   1   7
TORSDOF 1
ENDMDL
