MODEL 1
REMARK minimizedAffinity -4.59190989
REMARK minimizedRMSD -1
REMARK  0 active torsions:
REMARK  status: ('A' for Active; 'I' for Inactive)
ROOT
ATOM      1  C   UNL d   1      -2.962  -1.644   0.011  0.00  0.00     0.023 A 
ATOM      2  C1  UNL d   1      -2.634  -0.600  -0.854  0.00  0.00     0.003 A 
ATOM      3  C2  UNL d   1      -1.368  -0.013  -0.794  0.00  0.00     0.048 A 
ATOM      4  C3  UNL d   1      -0.434  -0.477   0.132  0.00  0.00     0.023 A 
ATOM      5  C4  UNL d   1      -0.757  -1.523   0.998  0.00  0.00     0.048 A 
ATOM      6  C5  UNL d   1      -2.025  -2.105   0.936  0.00  0.00     0.003 A 
ATOM      7  I   UNL d   1       1.451   0.394   0.222  0.00  0.00    -0.146 I 
ENDROOT
TORSDOF 0
ENDMDL
