MODEL 1
REMARK minimizedAffinity -5.19877863
REMARK minimizedRMSD -1
REMARK  0 active torsions:
REMARK  status: ('A' for Active; 'I' for Inactive)
ROOT
ATOM      1  C   UNL d   1      -3.360  -1.365  -0.015  0.00  0.00     0.023 A 
ATOM      2  C1  UNL d   1      -2.880  -0.484  -0.984  0.00  0.00     0.003 A 
ATOM      3  C2  UNL d   1      -1.536  -0.104  -0.980  0.00  0.00     0.048 A 
ATOM      4  C3  UNL d   1      -0.678  -0.610  -0.005  0.00  0.00     0.023 A 
ATOM      5  C4  UNL d   1      -1.154  -1.492   0.967  0.00  0.00     0.048 A 
ATOM      6  C5  UNL d   1      -2.498  -1.868   0.959  0.00  0.00     0.003 A 
ATOM      7  I   UNL d   1       1.323  -0.047   0.004  0.00  0.00    -0.146 I 
ENDROOT
TORSDOF 0
ENDMDL
