MODEL 1
REMARK minimizedAffinity -2.81510711
REMARK minimizedRMSD -1
REMARK  0 active torsions:
REMARK  status: ('A' for Active; 'I' for Inactive)
ROOT
ATOM      1  C   UNL d   1      -2.380  -1.060  -0.639  0.00  0.00     0.023 A 
ATOM      2  C1  UNL d   1      -1.864  -1.299   0.635  0.00  0.00     0.003 A 
ATOM      3  C2  UNL d   1      -0.641  -0.739   1.010  0.00  0.00     0.048 A 
ATOM      4  C3  UNL d   1       0.060   0.059   0.107  0.00  0.00     0.023 A 
ATOM      5  C4  UNL d   1      -0.453   0.302  -1.168  0.00  0.00     0.048 A 
ATOM      6  C5  UNL d   1      -1.675  -0.261  -1.539  0.00  0.00     0.003 A 
ATOM      7  I   UNL d   1       1.881   0.893   0.664  0.00  0.00    -0.146 I 
ENDROOT
TORSDOF 0
ENDMDL
