MODEL 1
REMARK minimizedAffinity -2.18956733
REMARK minimizedRMSD -1
REMARK  0 active torsions:
REMARK  status: ('A' for Active; 'I' for Inactive)
ROOT
ATOM      1  C   UNL d   1      -2.383  -0.984  -0.932  0.00  0.00     0.023 A 
ATOM      2  C1  UNL d   1      -1.952  -1.054   0.393  0.00  0.00     0.003 A 
ATOM      3  C2  UNL d   1      -0.702  -0.544   0.749  0.00  0.00     0.048 A 
ATOM      4  C3  UNL d   1       0.111   0.036  -0.224  0.00  0.00     0.023 A 
ATOM      5  C4  UNL d   1      -0.317   0.109  -1.550  0.00  0.00     0.048 A 
ATOM      6  C5  UNL d   1      -1.567  -0.403  -1.902  0.00  0.00     0.003 A 
ATOM      7  I   UNL d   1       1.972   0.797   0.305  0.00  0.00    -0.146 I 
ENDROOT
TORSDOF 0
ENDMDL
