MODEL 1
REMARK minimizedAffinity 0.00504516251
REMARK minimizedRMSD -1
REMARK  0 active torsions:
REMARK  status: ('A' for Active; 'I' for Inactive)
ROOT
ATOM      1  C   UNL d   1      -0.796  -0.770  -0.502  0.00  0.00     0.023 A 
ATOM      2  C1  UNL d   1      -0.299  -0.808   0.801  0.00  0.00     0.003 A 
ATOM      3  C2  UNL d   1       0.726   0.059   1.184  0.00  0.00     0.048 A 
ATOM      4  C3  UNL d   1       1.249   0.962   0.259  0.00  0.00     0.023 A 
ATOM      5  C4  UNL d   1       0.755   1.005  -1.045  0.00  0.00     0.048 A 
ATOM      6  C5  UNL d   1      -0.270   0.135  -1.424  0.00  0.00     0.003 A 
ATOM      7  I   UNL d   1       2.775   2.254   0.827  0.00  0.00    -0.146 I 
ENDROOT
TORSDOF 0
ENDMDL
