MODEL 1
REMARK minimizedAffinity -2.97658539
REMARK minimizedRMSD -1
REMARK  0 active torsions:
REMARK  status: ('A' for Active; 'I' for Inactive)
ROOT
ATOM      1  C   UNL d   1      -3.187  -1.652  -0.049  0.00  0.00     0.023 A 
ATOM      2  C1  UNL d   1      -2.960  -0.515  -0.824  0.00  0.00     0.003 A 
ATOM      3  C2  UNL d   1      -1.699   0.084  -0.834  0.00  0.00     0.048 A 
ATOM      4  C3  UNL d   1      -0.668  -0.460  -0.069  0.00  0.00     0.023 A 
ATOM      5  C4  UNL d   1      -0.890  -1.599   0.707  0.00  0.00     0.048 A 
ATOM      6  C5  UNL d   1      -2.153  -2.194   0.715  0.00  0.00     0.003 A 
ATOM      7  I   UNL d   1       1.210   0.429  -0.083  0.00  0.00    -0.146 I 
ENDROOT
TORSDOF 0
ENDMDL
