MODEL 1
REMARK minimizedAffinity -3.94106984
REMARK minimizedRMSD -1
REMARK  0 active torsions:
REMARK  status: ('A' for Active; 'I' for Inactive)
ROOT
ATOM      1  C   UNL d   1      -3.262  -1.943   0.428  0.00  0.00     0.023 A 
ATOM      2  C1  UNL d   1      -3.112  -0.758  -0.294  0.00  0.00     0.003 A 
ATOM      3  C2  UNL d   1      -1.909  -0.052  -0.237  0.00  0.00     0.048 A 
ATOM      4  C3  UNL d   1      -0.860  -0.535   0.544  0.00  0.00     0.023 A 
ATOM      5  C4  UNL d   1      -1.005  -1.720   1.267  0.00  0.00     0.048 A 
ATOM      6  C5  UNL d   1      -2.209  -2.423   1.208  0.00  0.00     0.003 A 
ATOM      7  I   UNL d   1       0.932   0.515   0.631  0.00  0.00    -0.146 I 
ENDROOT
TORSDOF 0
ENDMDL
