MODEL 1
REMARK minimizedAffinity -2.96174026
REMARK minimizedRMSD -1
REMARK  0 active torsions:
REMARK  status: ('A' for Active; 'I' for Inactive)
ROOT
ATOM      1  C   UNL d   1      -3.057  -0.773  -1.541  0.00  0.00     0.023 A 
ATOM      2  C1  UNL d   1      -2.468  -1.641  -0.622  0.00  0.00     0.003 A 
ATOM      3  C2  UNL d   1      -1.188  -1.375  -0.130  0.00  0.00     0.048 A 
ATOM      4  C3  UNL d   1      -0.504  -0.239  -0.561  0.00  0.00     0.023 A 
ATOM      5  C4  UNL d   1      -1.090   0.633  -1.480  0.00  0.00     0.048 A 
ATOM      6  C5  UNL d   1      -2.369   0.362  -1.969  0.00  0.00     0.003 A 
ATOM      7  I   UNL d   1       1.401   0.158   0.170  0.00  0.00    -0.146 I 
ENDROOT
TORSDOF 0
ENDMDL
