MODEL 1
REMARK minimizedAffinity -5.08836174
REMARK minimizedRMSD -1
REMARK  0 active torsions:
REMARK  status: ('A' for Active; 'I' for Inactive)
ROOT
ATOM      1  C   UNL d   1      -3.301  -2.222   0.844  0.00  0.00     0.023 A 
ATOM      2  C1  UNL d   1      -3.204  -1.019   0.144  0.00  0.00     0.003 A 
ATOM      3  C2  UNL d   1      -1.954  -0.436  -0.075  0.00  0.00     0.048 A 
ATOM      4  C3  UNL d   1      -0.805  -1.063   0.407  0.00  0.00     0.023 A 
ATOM      5  C4  UNL d   1      -0.897  -2.267   1.106  0.00  0.00     0.048 A 
ATOM      6  C5  UNL d   1      -2.149  -2.845   1.324  0.00  0.00     0.003 A 
ATOM      7  I   UNL d   1       1.057  -0.198   0.081  0.00  0.00    -0.146 I 
ENDROOT
TORSDOF 0
ENDMDL
