MODEL 1
REMARK minimizedAffinity -3.98728299
REMARK minimizedRMSD -1
REMARK  0 active torsions:
REMARK  status: ('A' for Active; 'I' for Inactive)
ROOT
ATOM      1  C   UNL d   1      -2.855  -1.842   0.134  0.00  0.00     0.023 A 
ATOM      2  C1  UNL d   1      -1.977  -2.392   1.069  0.00  0.00     0.003 A 
ATOM      3  C2  UNL d   1      -0.715  -1.827   1.261  0.00  0.00     0.048 A 
ATOM      4  C3  UNL d   1      -0.337  -0.710   0.515  0.00  0.00     0.023 A 
ATOM      5  C4  UNL d   1      -1.212  -0.156  -0.420  0.00  0.00     0.048 A 
ATOM      6  C5  UNL d   1      -2.473  -0.726  -0.609  0.00  0.00     0.003 A 
ATOM      7  I   UNL d   1       1.541   0.134   0.799  0.00  0.00    -0.146 I 
ENDROOT
TORSDOF 0
ENDMDL
