MODEL 1
REMARK minimizedAffinity -4.80265379
REMARK minimizedRMSD -1
REMARK  0 active torsions:
REMARK  status: ('A' for Active; 'I' for Inactive)
ROOT
ATOM      1  C   UNL d   1      -2.965  -2.934   0.842  0.00  0.00     0.023 A 
ATOM      2  C1  UNL d   1      -1.688  -3.031   1.395  0.00  0.00     0.003 A 
ATOM      3  C2  UNL d   1      -0.718  -2.075   1.086  0.00  0.00     0.048 A 
ATOM      4  C3  UNL d   1      -1.032  -1.024   0.225  0.00  0.00     0.023 A 
ATOM      5  C4  UNL d   1      -2.309  -0.923  -0.330  0.00  0.00     0.048 A 
ATOM      6  C5  UNL d   1      -3.275  -1.881  -0.020  0.00  0.00     0.003 A 
ATOM      7  I   UNL d   1       0.410   0.400  -0.236  0.00  0.00    -0.146 I 
ENDROOT
TORSDOF 0
ENDMDL
