MODEL 1
REMARK minimizedAffinity -2.6788044
REMARK minimizedRMSD -1
REMARK  0 active torsions:
REMARK  status: ('A' for Active; 'I' for Inactive)
ROOT
ATOM      1  C   UNL d   1       1.336   0.865  -0.517  0.00  0.00     0.023 A 
ATOM      2  C1  UNL d   1       0.430   1.058  -1.561  0.00  0.00     0.003 A 
ATOM      3  C2  UNL d   1      -0.817   0.431  -1.529  0.00  0.00     0.048 A 
ATOM      4  C3  UNL d   1      -1.153  -0.387  -0.450  0.00  0.00     0.023 A 
ATOM      5  C4  UNL d   1      -0.250  -0.582   0.597  0.00  0.00     0.048 A 
ATOM      6  C5  UNL d   1       0.996   0.047   0.560  0.00  0.00     0.003 A 
ATOM      7  I   UNL d   1      -3.009  -1.321  -0.400  0.00  0.00    -0.146 I 
ENDROOT
TORSDOF 0
ENDMDL
