MODEL 1
REMARK minimizedAffinity -4.64155817
REMARK minimizedRMSD -1
REMARK  0 active torsions:
REMARK  status: ('A' for Active; 'I' for Inactive)
ROOT
ATOM      1  C   UNL d   1       1.424  -2.376   1.501  0.00  0.00    -0.002 A 
ATOM      2  C1  UNL d   1       0.098  -2.452   1.901  0.00  0.00     0.010 A 
ATOM      3  C2  UNL d   1      -0.832  -1.507   1.461  0.00  0.00     0.041 A 
ATOM      4  C3  UNL d   1      -0.402  -0.476   0.603  0.00  0.00    -0.075 A 
ATOM      5  S   UNL d   1      -1.364   0.791  -0.062  0.00  0.00     0.015 SA
ATOM      6  C4  UNL d   1      -0.036   1.463  -0.894  0.00  0.00     0.022 A 
ATOM      7  C5  UNL d   1       1.120   0.751  -0.680  0.00  0.00     0.026 A 
ATOM      8  C6  UNL d   1       0.928  -0.379   0.186  0.00  0.00    -0.082 A 
ATOM      9  C7  UNL d   1       1.847  -1.351   0.650  0.00  0.00     0.045 A 
ENDROOT
TORSDOF 0
ENDMDL
