MODEL 1
REMARK minimizedAffinity -2.01285625
REMARK minimizedRMSD -1
REMARK  0 active torsions:
REMARK  status: ('A' for Active; 'I' for Inactive)
ROOT
ATOM      1  C   UNL d   1       2.234  -2.041  -0.083  0.00  0.00    -0.002 A 
ATOM      2  C1  UNL d   1       1.397  -2.482   0.933  0.00  0.00     0.010 A 
ATOM      3  C2  UNL d   1       0.293  -1.722   1.323  0.00  0.00     0.041 A 
ATOM      4  C3  UNL d   1       0.040  -0.500   0.668  0.00  0.00    -0.075 A 
ATOM      5  S   UNL d   1      -1.253   0.597   0.976  0.00  0.00     0.015 SA
ATOM      6  C4  UNL d   1      -0.725   1.676  -0.233  0.00  0.00     0.022 A 
ATOM      7  C5  UNL d   1       0.408   1.226  -0.866  0.00  0.00     0.026 A 
ATOM      8  C6  UNL d   1       0.868  -0.036  -0.358  0.00  0.00    -0.082 A 
ATOM      9  C7  UNL d   1       1.980  -0.829  -0.730  0.00  0.00     0.045 A 
ENDROOT
TORSDOF 0
ENDMDL
