MODEL 1
REMARK minimizedAffinity -1.51251686
REMARK minimizedRMSD -1
REMARK  0 active torsions:
REMARK  status: ('A' for Active; 'I' for Inactive)
ROOT
ATOM      1  C   UNL d   1      -1.102   4.611  -4.493  0.00  0.00    -0.002 A 
ATOM      2  C1  UNL d   1      -0.189   4.502  -3.454  0.00  0.00     0.010 A 
ATOM      3  C2  UNL d   1      -0.328   3.505  -2.487  0.00  0.00     0.041 A 
ATOM      4  C3  UNL d   1      -1.411   2.608  -2.584  0.00  0.00    -0.075 A 
ATOM      5  S   UNL d   1      -1.782   1.307  -1.515  0.00  0.00     0.015 SA
ATOM      6  C4  UNL d   1      -3.161   0.864  -2.414  0.00  0.00     0.022 A 
ATOM      7  C5  UNL d   1      -3.349   1.679  -3.505  0.00  0.00     0.026 A 
ATOM      8  C6  UNL d   1      -2.343   2.697  -3.622  0.00  0.00    -0.082 A 
ATOM      9  C7  UNL d   1      -2.174   3.720  -4.586  0.00  0.00     0.045 A 
ENDROOT
TORSDOF 0
ENDMDL
