MODEL 1
REMARK minimizedAffinity 1.87192416
REMARK minimizedRMSD -1
REMARK  0 active torsions:
REMARK  status: ('A' for Active; 'I' for Inactive)
ROOT
ATOM      1  C   UNL d   1      -0.814   0.866  -0.607  0.00  0.00    -0.002 A 
ATOM      2  C1  UNL d   1       0.352   1.578  -0.363  0.00  0.00     0.010 A 
ATOM      3  C2  UNL d   1       1.479   0.938   0.158  0.00  0.00     0.041 A 
ATOM      4  C3  UNL d   1       1.414  -0.443   0.430  0.00  0.00    -0.075 A 
ATOM      5  S   UNL d   1       2.669  -1.436   1.070  0.00  0.00     0.015 SA
ATOM      6  C4  UNL d   1       1.688  -2.829   1.033  0.00  0.00     0.022 A 
ATOM      7  C5  UNL d   1       0.430  -2.561   0.547  0.00  0.00     0.026 A 
ATOM      8  C6  UNL d   1       0.251  -1.181   0.192  0.00  0.00    -0.082 A 
ATOM      9  C7  UNL d   1      -0.874  -0.504  -0.336  0.00  0.00     0.045 A 
ENDROOT
TORSDOF 0
ENDMDL
