MODEL 1
REMARK minimizedAffinity -3.2676208
REMARK minimizedRMSD -1
REMARK  0 active torsions:
REMARK  status: ('A' for Active; 'I' for Inactive)
ROOT
ATOM      1  C   UNL d   1       1.747  -2.197   0.938  0.00  0.00    -0.002 A 
ATOM      2  C1  UNL d   1       0.399  -2.500   0.817  0.00  0.00     0.010 A 
ATOM      3  C2  UNL d   1      -0.511  -1.531   0.389  0.00  0.00     0.041 A 
ATOM      4  C3  UNL d   1      -0.038  -0.240   0.081  0.00  0.00    -0.075 A 
ATOM      5  S   UNL d   1      -0.968   1.106  -0.461  0.00  0.00     0.015 SA
ATOM      6  C4  UNL d   1       0.404   2.115  -0.546  0.00  0.00     0.022 A 
ATOM      7  C5  UNL d   1       1.552   1.457  -0.172  0.00  0.00     0.026 A 
ATOM      8  C6  UNL d   1       1.316   0.088   0.195  0.00  0.00    -0.082 A 
ATOM      9  C7  UNL d   1       2.213  -0.916   0.631  0.00  0.00     0.045 A 
ENDROOT
TORSDOF 0
ENDMDL
