MODEL 1
REMARK minimizedAffinity -3.59024239
REMARK minimizedRMSD -1
REMARK  0 active torsions:
REMARK  status: ('A' for Active; 'I' for Inactive)
ROOT
ATOM      1  C   UNL d   1       1.567  -2.665   1.201  0.00  0.00    -0.002 A 
ATOM      2  C1  UNL d   1       0.253  -2.883   1.592  0.00  0.00     0.010 A 
ATOM      3  C2  UNL d   1      -0.725  -1.914   1.365  0.00  0.00     0.041 A 
ATOM      4  C3  UNL d   1      -0.359  -0.710   0.731  0.00  0.00    -0.075 A 
ATOM      5  S   UNL d   1      -1.389   0.619   0.350  0.00  0.00     0.015 SA
ATOM      6  C4  UNL d   1      -0.109   1.508  -0.342  0.00  0.00     0.022 A 
ATOM      7  C5  UNL d   1       1.081   0.822  -0.292  0.00  0.00     0.026 A 
ATOM      8  C6  UNL d   1       0.957  -0.468   0.327  0.00  0.00    -0.082 A 
ATOM      9  C7  UNL d   1       1.927  -1.470   0.572  0.00  0.00     0.045 A 
ENDROOT
TORSDOF 0
ENDMDL
