MODEL 1
REMARK minimizedAffinity -1.8175441
REMARK minimizedRMSD -1
REMARK  0 active torsions:
REMARK  status: ('A' for Active; 'I' for Inactive)
ROOT
ATOM      1  C   UNL d   1       1.361  -2.506   0.788  0.00  0.00    -0.002 A 
ATOM      2  C1  UNL d   1       0.047  -2.929   0.642  0.00  0.00     0.010 A 
ATOM      3  C2  UNL d   1      -0.936  -2.049   0.187  0.00  0.00     0.041 A 
ATOM      4  C3  UNL d   1      -0.573  -0.724  -0.125  0.00  0.00    -0.075 A 
ATOM      5  S   UNL d   1      -1.608   0.529  -0.701  0.00  0.00     0.015 SA
ATOM      6  C4  UNL d   1      -0.331   1.655  -0.768  0.00  0.00     0.022 A 
ATOM      7  C5  UNL d   1       0.863   1.106  -0.365  0.00  0.00     0.026 A 
ATOM      8  C6  UNL d   1       0.743  -0.275   0.012  0.00  0.00    -0.082 A 
ATOM      9  C7  UNL d   1       1.717  -1.191   0.477  0.00  0.00     0.045 A 
ENDROOT
TORSDOF 0
ENDMDL
