MODEL 1
REMARK minimizedAffinity 0.304441631
REMARK minimizedRMSD -1
REMARK  0 active torsions:
REMARK  status: ('A' for Active; 'I' for Inactive)
ROOT
ATOM      1  C   UNL d   1       1.497  -2.469   1.710  0.00  0.00    -0.002 A 
ATOM      2  C1  UNL d   1       0.153  -2.807   1.645  0.00  0.00     0.010 A 
ATOM      3  C2  UNL d   1      -0.775  -1.924   1.088  0.00  0.00     0.041 A 
ATOM      4  C3  UNL d   1      -0.325  -0.685   0.592  0.00  0.00    -0.075 A 
ATOM      5  S   UNL d   1      -1.279   0.554  -0.133  0.00  0.00     0.015 SA
ATOM      6  C4  UNL d   1       0.075   1.560  -0.373  0.00  0.00     0.022 A 
ATOM      7  C5  UNL d   1       1.235   0.981   0.083  0.00  0.00     0.026 A 
ATOM      8  C6  UNL d   1       1.024  -0.322   0.647  0.00  0.00    -0.082 A 
ATOM      9  C7  UNL d   1       1.940  -1.239   1.218  0.00  0.00     0.045 A 
ENDROOT
TORSDOF 0
ENDMDL
