MODEL 1
REMARK minimizedAffinity -0.234105036
REMARK minimizedRMSD -1
REMARK  0 active torsions:
REMARK  status: ('A' for Active; 'I' for Inactive)
ROOT
ATOM      1  C   UNL d   1       1.402  -2.652   1.213  0.00  0.00    -0.002 A 
ATOM      2  C1  UNL d   1       2.328  -1.722   0.761  0.00  0.00     0.010 A 
ATOM      3  C2  UNL d   1       1.907  -0.512   0.205  0.00  0.00     0.041 A 
ATOM      4  C3  UNL d   1       0.526  -0.249   0.113  0.00  0.00    -0.075 A 
ATOM      5  S   UNL d   1      -0.221   1.166  -0.529  0.00  0.00     0.015 SA
ATOM      6  C4  UNL d   1      -1.787   0.571  -0.217  0.00  0.00     0.022 A 
ATOM      7  C5  UNL d   1      -1.759  -0.676   0.362  0.00  0.00     0.026 A 
ATOM      8  C6  UNL d   1      -0.425  -1.168   0.563  0.00  0.00    -0.082 A 
ATOM      9  C7  UNL d   1       0.033  -2.386   1.120  0.00  0.00     0.045 A 
ENDROOT
TORSDOF 0
ENDMDL
