MODEL 1
REMARK minimizedAffinity -3.30184007
REMARK minimizedRMSD -1
REMARK  0 active torsions:
REMARK  status: ('A' for Active; 'I' for Inactive)
ROOT
ATOM      1  C   UNL d   1      -0.994   0.873  -0.152  0.00  0.00    -0.002 A 
ATOM      2  C1  UNL d   1       0.192   1.518  -0.474  0.00  0.00     0.010 A 
ATOM      3  C2  UNL d   1       1.419   0.868  -0.318  0.00  0.00     0.041 A 
ATOM      4  C3  UNL d   1       1.432  -0.453   0.170  0.00  0.00    -0.075 A 
ATOM      5  S   UNL d   1       2.815  -1.447   0.441  0.00  0.00     0.015 SA
ATOM      6  C4  UNL d   1       1.864  -2.750   0.990  0.00  0.00     0.022 A 
ATOM      7  C5  UNL d   1       0.522  -2.452   0.974  0.00  0.00     0.026 A 
ATOM      8  C6  UNL d   1       0.251  -1.124   0.500  0.00  0.00    -0.082 A 
ATOM      9  C7  UNL d   1      -0.976  -0.438   0.332  0.00  0.00     0.045 A 
ENDROOT
TORSDOF 0
ENDMDL
