MODEL 1
REMARK minimizedAffinity -3.96549129
REMARK minimizedRMSD -1
REMARK  0 active torsions:
REMARK  status: ('A' for Active; 'I' for Inactive)
ROOT
ATOM      1  C   UNL d   1       1.716  -2.656   0.685  0.00  0.00    -0.002 A 
ATOM      2  C1  UNL d   1       0.572  -2.813   1.455  0.00  0.00     0.010 A 
ATOM      3  C2  UNL d   1      -0.375  -1.789   1.537  0.00  0.00     0.041 A 
ATOM      4  C3  UNL d   1      -0.151  -0.595   0.824  0.00  0.00    -0.075 A 
ATOM      5  S   UNL d   1      -1.172   0.793   0.774  0.00  0.00     0.015 SA
ATOM      6  C4  UNL d   1      -0.114   1.627  -0.270  0.00  0.00     0.022 A 
ATOM      7  C5  UNL d   1       0.997   0.879  -0.583  0.00  0.00     0.026 A 
ATOM      8  C6  UNL d   1       0.994  -0.414   0.042  0.00  0.00    -0.082 A 
ATOM      9  C7  UNL d   1       1.935  -1.470  -0.020  0.00  0.00     0.045 A 
ENDROOT
TORSDOF 0
ENDMDL
