MODEL 1
REMARK minimizedAffinity -0.060492333
REMARK minimizedRMSD -1
REMARK  0 active torsions:
REMARK  status: ('A' for Active; 'I' for Inactive)
ROOT
ATOM      1  C   UNL d   1      -4.284   0.520   0.554  0.00  0.00     0.023 A 
ATOM      2  C1  UNL d   1      -3.607   0.283  -0.643  0.00  0.00     0.003 A 
ATOM      3  C2  UNL d   1      -2.238   0.541  -0.735  0.00  0.00     0.048 A 
ATOM      4  C3  UNL d   1      -1.552   1.037   0.374  0.00  0.00     0.023 A 
ATOM      5  C4  UNL d   1      -2.225   1.275   1.573  0.00  0.00     0.048 A 
ATOM      6  C5  UNL d   1      -3.594   1.016   1.660  0.00  0.00     0.003 A 
ATOM      7  I   UNL d   1       0.486   1.422   0.239  0.00  0.00    -0.146 I 
ENDROOT
TORSDOF 0
ENDMDL
