MODEL 1
REMARK minimizedAffinity -4.41366863
REMARK minimizedRMSD -1
REMARK  0 active torsions:
REMARK  status: ('A' for Active; 'I' for Inactive)
ROOT
ATOM      1  C   UNL d   1       3.489  -0.251   0.636  0.00  0.00     0.023 A 
ATOM      2  C1  UNL d   1       2.616  -1.311   0.884  0.00  0.00     0.003 A 
ATOM      3  C2  UNL d   1       1.239  -1.133   0.731  0.00  0.00     0.048 A 
ATOM      4  C3  UNL d   1       0.743   0.106   0.329  0.00  0.00     0.023 A 
ATOM      5  C4  UNL d   1       1.612   1.169   0.080  0.00  0.00     0.048 A 
ATOM      6  C5  UNL d   1       2.988   0.987   0.235  0.00  0.00     0.003 A 
ATOM      7  I   UNL d   1      -1.306   0.373   0.100  0.00  0.00    -0.146 I 
ENDROOT
TORSDOF 0
ENDMDL
