MODEL 1
REMARK minimizedAffinity -0.927998781
REMARK minimizedRMSD -1
REMARK  0 active torsions:
REMARK  status: ('A' for Active; 'I' for Inactive)
ROOT
ATOM      1  C   UNL d   1       2.307  -1.613   0.122  0.00  0.00     0.023 A 
ATOM      2  C1  UNL d   1       1.932  -0.676   1.084  0.00  0.00     0.003 A 
ATOM      3  C2  UNL d   1       0.677  -0.067   1.016  0.00  0.00     0.048 A 
ATOM      4  C3  UNL d   1      -0.199  -0.401  -0.016  0.00  0.00     0.023 A 
ATOM      5  C4  UNL d   1       0.172  -1.339  -0.981  0.00  0.00     0.048 A 
ATOM      6  C5  UNL d   1       1.428  -1.945  -0.910  0.00  0.00     0.003 A 
ATOM      7  I   UNL d   1      -2.067   0.503  -0.119  0.00  0.00    -0.146 I 
ENDROOT
TORSDOF 0
ENDMDL
