MODEL 1
REMARK minimizedAffinity -5.40869188
REMARK minimizedRMSD -1
REMARK  0 active torsions:
REMARK  status: ('A' for Active; 'I' for Inactive)
ROOT
ATOM      1  C   UNL d   1       3.450  -0.089   0.915  0.00  0.00     0.023 A 
ATOM      2  C1  UNL d   1       3.033   1.142   0.410  0.00  0.00     0.003 A 
ATOM      3  C2  UNL d   1       1.681   1.367   0.141  0.00  0.00     0.048 A 
ATOM      4  C3  UNL d   1       0.751   0.356   0.382  0.00  0.00     0.023 A 
ATOM      5  C4  UNL d   1       1.164  -0.877   0.889  0.00  0.00     0.048 A 
ATOM      6  C5  UNL d   1       2.516  -1.098   1.155  0.00  0.00     0.003 A 
ATOM      7  I   UNL d   1      -1.261   0.688  -0.016  0.00  0.00    -0.146 I 
ENDROOT
TORSDOF 0
ENDMDL
