MODEL 1
REMARK minimizedAffinity -0.929453015
REMARK minimizedRMSD -1
REMARK  0 active torsions:
REMARK  status: ('A' for Active; 'I' for Inactive)
ROOT
ATOM      1  C   UNL d   1       1.775   0.916   0.008  0.00  0.00     0.023 A 
ATOM      2  C1  UNL d   1       0.968   1.905  -0.555  0.00  0.00     0.003 A 
ATOM      3  C2  UNL d   1      -0.420   1.758  -0.557  0.00  0.00     0.048 A 
ATOM      4  C3  UNL d   1      -0.996   0.620   0.006  0.00  0.00     0.023 A 
ATOM      5  C4  UNL d   1      -0.193  -0.372   0.571  0.00  0.00     0.048 A 
ATOM      6  C5  UNL d   1       1.194  -0.221   0.571  0.00  0.00     0.003 A 
ATOM      7  I   UNL d   1      -3.063   0.399   0.003  0.00  0.00    -0.146 I 
ENDROOT
TORSDOF 0
ENDMDL
