MODEL 1
REMARK minimizedAffinity -4.68841028
REMARK minimizedRMSD -1
REMARK  0 active torsions:
REMARK  status: ('A' for Active; 'I' for Inactive)
ROOT
ATOM      1  C   UNL d   1       2.278  -1.486   0.209  0.00  0.00     0.023 A 
ATOM      2  C1  UNL d   1       2.138  -0.254   0.848  0.00  0.00     0.003 A 
ATOM      3  C2  UNL d   1       0.973   0.496   0.674  0.00  0.00     0.048 A 
ATOM      4  C3  UNL d   1      -0.049   0.008  -0.138  0.00  0.00     0.023 A 
ATOM      5  C4  UNL d   1       0.086  -1.225  -0.779  0.00  0.00     0.048 A 
ATOM      6  C5  UNL d   1       1.253  -1.971  -0.603  0.00  0.00     0.003 A 
ATOM      7  I   UNL d   1      -1.784   1.122  -0.398  0.00  0.00    -0.146 I 
ENDROOT
TORSDOF 0
ENDMDL
