MODEL 1
REMARK minimizedAffinity -1.29930007
REMARK minimizedRMSD -1
REMARK  0 active torsions:
REMARK  status: ('A' for Active; 'I' for Inactive)
ROOT
ATOM      1  C   UNL d   1       2.995   0.609   1.475  0.00  0.00     0.023 A 
ATOM      2  C1  UNL d   1       1.887   1.242   0.910  0.00  0.00     0.003 A 
ATOM      3  C2  UNL d   1       0.968   0.506   0.160  0.00  0.00     0.048 A 
ATOM      4  C3  UNL d   1       1.161  -0.863  -0.020  0.00  0.00     0.023 A 
ATOM      5  C4  UNL d   1       2.267  -1.501   0.543  0.00  0.00     0.048 A 
ATOM      6  C5  UNL d   1       3.184  -0.761   1.292  0.00  0.00     0.003 A 
ATOM      7  I   UNL d   1      -0.206  -1.961  -1.136  0.00  0.00    -0.146 I 
ENDROOT
TORSDOF 0
ENDMDL
