MODEL 1
REMARK minimizedAffinity -4.90986633
REMARK minimizedRMSD -1
REMARK  0 active torsions:
REMARK  status: ('A' for Active; 'I' for Inactive)
ROOT
ATOM      1  C   UNL d   1       2.624  -1.416   0.660  0.00  0.00     0.023 A 
ATOM      2  C1  UNL d   1       2.459  -0.062   0.952  0.00  0.00     0.003 A 
ATOM      3  C2  UNL d   1       1.196   0.526   0.853  0.00  0.00     0.048 A 
ATOM      4  C3  UNL d   1       0.102  -0.247   0.465  0.00  0.00     0.023 A 
ATOM      5  C4  UNL d   1       0.262  -1.602   0.173  0.00  0.00     0.048 A 
ATOM      6  C5  UNL d   1       1.527  -2.185   0.272  0.00  0.00     0.003 A 
ATOM      7  I   UNL d   1      -1.779   0.626   0.318  0.00  0.00    -0.146 I 
ENDROOT
TORSDOF 0
ENDMDL
