MODEL 1
REMARK minimizedAffinity 12.9303865
REMARK minimizedRMSD -1
REMARK  0 active torsions:
REMARK  status: ('A' for Active; 'I' for Inactive)
ROOT
ATOM      1  C   UNL d   1       4.437  -0.639   0.957  0.00  0.00     0.124 A 
ATOM      2  C1  UNL d   1       4.738  -0.787  -0.390  0.00  0.00     0.062 A 
ATOM      3  C2  UNL d   1       4.341   0.182  -1.307  0.00  0.00     0.162 A 
ATOM      4  C3  UNL d   1       3.639   1.309  -0.880  0.00  0.00    -0.034 A 
ATOM      5  C4  UNL d   1       3.339   1.451   0.476  0.00  0.00     0.162 A 
ATOM      6  C5  UNL d   1       3.738   0.479   1.388  0.00  0.00     0.062 A 
ATOM      7  F   UNL d   1       3.446   0.625   2.689  0.00  0.00    -0.097 F 
ATOM      8  F1  UNL d   1       2.665   2.522   0.920  0.00  0.00    -0.096 F 
ATOM      9  I   UNL d   1       3.044   2.760  -2.248  0.00  0.00    -0.060 I 
ATOM     10  F2  UNL d   1       4.646   0.012  -2.602  0.00  0.00    -0.096 F 
ATOM     11  F3  UNL d   1       5.413  -1.867  -0.810  0.00  0.00    -0.097 F 
ATOM     12  F4  UNL d   1       4.820  -1.573   1.837  0.00  0.00    -0.092 F 
ENDROOT
TORSDOF 0
ENDMDL
