MODEL 1
REMARK minimizedAffinity 27.3988132
REMARK minimizedRMSD -1
REMARK  0 active torsions:
REMARK  status: ('A' for Active; 'I' for Inactive)
ROOT
ATOM      1  C   UNL d   1       1.567   2.389  -2.529  0.00  0.00     0.124 A 
ATOM      2  C1  UNL d   1       1.153   3.705  -2.374  0.00  0.00     0.062 A 
ATOM      3  C2  UNL d   1       2.087   4.737  -2.373  0.00  0.00     0.162 A 
ATOM      4  C3  UNL d   1       3.445   4.458  -2.529  0.00  0.00    -0.034 A 
ATOM      5  C4  UNL d   1       3.854   3.132  -2.684  0.00  0.00     0.162 A 
ATOM      6  C5  UNL d   1       2.917   2.104  -2.684  0.00  0.00     0.062 A 
ATOM      7  F   UNL d   1       3.319   0.834  -2.834  0.00  0.00    -0.097 F 
ATOM      8  F1  UNL d   1       5.151   2.829  -2.836  0.00  0.00    -0.096 F 
ATOM      9  I   UNL d   1       4.844   5.999  -2.528  0.00  0.00    -0.060 I 
ATOM     10  F2  UNL d   1       1.658   5.999  -2.221  0.00  0.00    -0.096 F 
ATOM     11  F3  UNL d   1      -0.150   3.983  -2.224  0.00  0.00    -0.097 F 
ATOM     12  F4  UNL d   1       0.667   1.398  -2.529  0.00  0.00    -0.092 F 
ENDROOT
TORSDOF 0
ENDMDL
