MODEL 1
REMARK minimizedAffinity 22.6493149
REMARK minimizedRMSD -1
REMARK  0 active torsions:
REMARK  status: ('A' for Active; 'I' for Inactive)
ROOT
ATOM      1  C   UNL d   1      -1.551  -2.327   1.978  0.00  0.00     0.124 A 
ATOM      2  C1  UNL d   1      -1.536  -3.343   1.033  0.00  0.00     0.062 A 
ATOM      3  C2  UNL d   1      -0.326  -3.813   0.530  0.00  0.00     0.162 A 
ATOM      4  C3  UNL d   1       0.879  -3.266   0.971  0.00  0.00    -0.034 A 
ATOM      5  C4  UNL d   1       0.856  -2.244   1.921  0.00  0.00     0.162 A 
ATOM      6  C5  UNL d   1      -0.356  -1.778   2.421  0.00  0.00     0.062 A 
ATOM      7  F   UNL d   1      -0.369  -0.796   3.334  0.00  0.00    -0.097 F 
ATOM      8  F1  UNL d   1       1.996  -1.696   2.367  0.00  0.00    -0.096 F 
ATOM      9  I   UNL d   1       2.690  -3.965   0.220  0.00  0.00    -0.060 I 
ATOM     10  F2  UNL d   1      -0.341  -4.796  -0.383  0.00  0.00    -0.096 F 
ATOM     11  F3  UNL d   1      -2.689  -3.874   0.603  0.00  0.00    -0.097 F 
ATOM     12  F4  UNL d   1      -2.717  -1.877   2.460  0.00  0.00    -0.092 F 
ENDROOT
TORSDOF 0
ENDMDL
