MODEL 1
REMARK minimizedAffinity 3.88354754
REMARK minimizedRMSD -1
REMARK  0 active torsions:
REMARK  status: ('A' for Active; 'I' for Inactive)
ROOT
ATOM      1  C   UNL d   1       3.034  -2.209  -0.886  0.00  0.00     0.124 A 
ATOM      2  C1  UNL d   1       4.119  -1.979  -0.051  0.00  0.00     0.062 A 
ATOM      3  C2  UNL d   1       4.958  -3.029   0.311  0.00  0.00     0.162 A 
ATOM      4  C3  UNL d   1       4.717  -4.319  -0.164  0.00  0.00    -0.034 A 
ATOM      5  C4  UNL d   1       3.624  -4.542  -1.002  0.00  0.00     0.162 A 
ATOM      6  C5  UNL d   1       2.788  -3.489  -1.361  0.00  0.00     0.062 A 
ATOM      7  F   UNL d   1       1.740  -3.713  -2.168  0.00  0.00    -0.097 F 
ATOM      8  F1  UNL d   1       3.363  -5.769  -1.477  0.00  0.00    -0.096 F 
ATOM      9  I   UNL d   1       5.970  -5.891   0.374  0.00  0.00    -0.060 I 
ATOM     10  F2  UNL d   1       5.999  -2.778   1.119  0.00  0.00    -0.096 F 
ATOM     11  F3  UNL d   1       4.358  -0.743   0.410  0.00  0.00    -0.097 F 
ATOM     12  F4  UNL d   1       2.227  -1.197  -1.231  0.00  0.00    -0.092 F 
ENDROOT
TORSDOF 0
ENDMDL
