MODEL 1
REMARK minimizedAffinity 0.644745886
REMARK minimizedRMSD -1
REMARK  0 active torsions:
REMARK  status: ('A' for Active; 'I' for Inactive)
ROOT
ATOM      1  C   UNL d   1       2.017  -2.625  -0.223  0.00  0.00     0.124 A 
ATOM      2  C1  UNL d   1       2.930  -2.349  -1.231  0.00  0.00     0.062 A 
ATOM      3  C2  UNL d   1       4.068  -3.137  -1.381  0.00  0.00     0.162 A 
ATOM      4  C3  UNL d   1       4.299  -4.210  -0.520  0.00  0.00    -0.034 A 
ATOM      5  C4  UNL d   1       3.376  -4.481   0.492  0.00  0.00     0.162 A 
ATOM      6  C5  UNL d   1       2.241  -3.691   0.638  0.00  0.00     0.062 A 
ATOM      7  F   UNL d   1       1.360  -3.959   1.612  0.00  0.00    -0.097 F 
ATOM      8  F1  UNL d   1       3.567  -5.505   1.337  0.00  0.00    -0.096 F 
ATOM      9  I   UNL d   1       5.998  -5.391  -0.741  0.00  0.00    -0.060 I 
ATOM     10  F2  UNL d   1       4.933  -2.847  -2.364  0.00  0.00    -0.096 F 
ATOM     11  F3  UNL d   1       2.717  -1.319  -2.063  0.00  0.00    -0.097 F 
ATOM     12  F4  UNL d   1       0.924  -1.864  -0.080  0.00  0.00    -0.092 F 
ENDROOT
TORSDOF 0
ENDMDL
