MODEL 1
REMARK minimizedAffinity 1.81488788
REMARK minimizedRMSD -1
REMARK  0 active torsions:
REMARK  status: ('A' for Active; 'I' for Inactive)
ROOT
ATOM      1  C   UNL d   1       2.982  -2.223  -1.724  0.00  0.00     0.124 A 
ATOM      2  C1  UNL d   1       2.501  -2.865  -0.592  0.00  0.00     0.062 A 
ATOM      3  C2  UNL d   1       3.194  -3.944  -0.050  0.00  0.00     0.162 A 
ATOM      4  C3  UNL d   1       4.378  -4.387  -0.640  0.00  0.00    -0.034 A 
ATOM      5  C4  UNL d   1       4.856  -3.736  -1.779  0.00  0.00     0.162 A 
ATOM      6  C5  UNL d   1       4.159  -2.659  -2.317  0.00  0.00     0.062 A 
ATOM      7  F   UNL d   1       4.626  -2.040  -3.411  0.00  0.00    -0.097 F 
ATOM      8  F1  UNL d   1       5.991  -4.136  -2.371  0.00  0.00    -0.096 F 
ATOM      9  I   UNL d   1       5.418  -5.999   0.167  0.00  0.00    -0.060 I 
ATOM     10  F2  UNL d   1       2.705  -4.545   1.044  0.00  0.00    -0.096 F 
ATOM     11  F3  UNL d   1       1.363  -2.447  -0.018  0.00  0.00    -0.097 F 
ATOM     12  F4  UNL d   1       2.312  -1.186  -2.244  0.00  0.00    -0.092 F 
ENDROOT
TORSDOF 0
ENDMDL
