MODEL 1
REMARK minimizedAffinity -2.64375997
REMARK minimizedRMSD -1
REMARK  0 active torsions:
REMARK  status: ('A' for Active; 'I' for Inactive)
ROOT
ATOM      1  C   UNL d   1       1.883  -2.990  -0.193  0.00  0.00     0.124 A 
ATOM      2  C1  UNL d   1       2.047  -4.128   0.585  0.00  0.00     0.062 A 
ATOM      3  C2  UNL d   1       3.194  -4.906   0.454  0.00  0.00     0.162 A 
ATOM      4  C3  UNL d   1       4.187  -4.548  -0.458  0.00  0.00    -0.034 A 
ATOM      5  C4  UNL d   1       4.014  -3.403  -1.238  0.00  0.00     0.162 A 
ATOM      6  C5  UNL d   1       2.866  -2.629  -1.103  0.00  0.00     0.062 A 
ATOM      7  F   UNL d   1       2.709  -1.530  -1.856  0.00  0.00    -0.097 F 
ATOM      8  F1  UNL d   1       4.949  -3.031  -2.125  0.00  0.00    -0.096 F 
ATOM      9  I   UNL d   1       5.903  -5.709  -0.657  0.00  0.00    -0.060 I 
ATOM     10  F2  UNL d   1       3.326  -6.000   1.219  0.00  0.00    -0.096 F 
ATOM     11  F3  UNL d   1       1.098  -4.479   1.465  0.00  0.00    -0.097 F 
ATOM     12  F4  UNL d   1       0.778  -2.244  -0.066  0.00  0.00    -0.092 F 
ENDROOT
TORSDOF 0
ENDMDL
