MODEL 1
REMARK minimizedAffinity -1.34692156
REMARK minimizedRMSD -1
REMARK  0 active torsions:
REMARK  status: ('A' for Active; 'I' for Inactive)
ROOT
ATOM      1  C   UNL d   1       1.646  -2.959  -0.214  0.00  0.00     0.124 A 
ATOM      2  C1  UNL d   1       2.059  -4.042   0.550  0.00  0.00     0.062 A 
ATOM      3  C2  UNL d   1       3.289  -4.644   0.304  0.00  0.00     0.162 A 
ATOM      4  C3  UNL d   1       4.117  -4.164  -0.711  0.00  0.00    -0.034 A 
ATOM      5  C4  UNL d   1       3.695  -3.075  -1.476  0.00  0.00     0.162 A 
ATOM      6  C5  UNL d   1       2.464  -2.477  -1.226  0.00  0.00     0.062 A 
ATOM      7  F   UNL d   1       2.067  -1.431  -1.966  0.00  0.00    -0.097 F 
ATOM      8  F1  UNL d   1       4.466  -2.588  -2.460  0.00  0.00    -0.096 F 
ATOM      9  I   UNL d   1       5.958  -5.061  -1.082  0.00  0.00    -0.060 I 
ATOM     10  F2  UNL d   1       3.663  -5.688   1.058  0.00  0.00    -0.096 F 
ATOM     11  F3  UNL d   1       1.270  -4.510   1.528  0.00  0.00    -0.097 F 
ATOM     12  F4  UNL d   1       0.461  -2.382   0.024  0.00  0.00    -0.092 F 
ENDROOT
TORSDOF 0
ENDMDL
