MODEL 1
REMARK minimizedAffinity 18.3273106
REMARK minimizedRMSD -1
REMARK  0 active torsions:
REMARK  status: ('A' for Active; 'I' for Inactive)
ROOT
ATOM      1  C   UNL d   1      -0.297  -3.395   0.850  0.00  0.00     0.124 A 
ATOM      2  C1  UNL d   1      -1.675  -3.237   0.911  0.00  0.00     0.062 A 
ATOM      3  C2  UNL d   1      -2.222  -2.046   1.379  0.00  0.00     0.162 A 
ATOM      4  C3  UNL d   1      -1.392  -1.003   1.789  0.00  0.00    -0.034 A 
ATOM      5  C4  UNL d   1      -0.007  -1.170   1.725  0.00  0.00     0.162 A 
ATOM      6  C5  UNL d   1       0.535  -2.362   1.257  0.00  0.00     0.062 A 
ATOM      7  F   UNL d   1       1.866  -2.514   1.198  0.00  0.00    -0.097 F 
ATOM      8  F1  UNL d   1       0.820  -0.187   2.111  0.00  0.00    -0.096 F 
ATOM      9  I   UNL d   1      -2.206   0.780   2.489  0.00  0.00    -0.060 I 
ATOM     10  F2  UNL d   1      -3.557  -1.920   1.427  0.00  0.00    -0.096 F 
ATOM     11  F3  UNL d   1      -2.481  -4.234   0.519  0.00  0.00    -0.097 F 
ATOM     12  F4  UNL d   1       0.227  -4.543   0.400  0.00  0.00    -0.092 F 
ENDROOT
TORSDOF 0
ENDMDL
