MODEL 1
REMARK minimizedAffinity -0.688430786
REMARK minimizedRMSD -1
REMARK  0 active torsions:
REMARK  status: ('A' for Active; 'I' for Inactive)
ROOT
ATOM      1  C   UNL d   1       4.930  -4.312  -1.424  0.00  0.00     0.124 A 
ATOM      2  C1  UNL d   1       4.584  -4.967  -0.250  0.00  0.00     0.062 A 
ATOM      3  C2  UNL d   1       3.474  -4.554   0.481  0.00  0.00     0.162 A 
ATOM      4  C3  UNL d   1       2.700  -3.480   0.039  0.00  0.00    -0.034 A 
ATOM      5  C4  UNL d   1       3.055  -2.826  -1.142  0.00  0.00     0.162 A 
ATOM      6  C5  UNL d   1       4.166  -3.243  -1.869  0.00  0.00     0.062 A 
ATOM      7  F   UNL d   1       4.498  -2.609  -3.003  0.00  0.00    -0.097 F 
ATOM      8  F1  UNL d   1       2.333  -1.791  -1.596  0.00  0.00    -0.096 F 
ATOM      9  I   UNL d   1       1.039  -2.860   1.128  0.00  0.00    -0.060 I 
ATOM     10  F2  UNL d   1       3.162  -5.205   1.611  0.00  0.00    -0.096 F 
ATOM     11  F3  UNL d   1       5.322  -5.999   0.182  0.00  0.00    -0.097 F 
ATOM     12  F4  UNL d   1       6.000  -4.711  -2.124  0.00  0.00    -0.092 F 
ENDROOT
TORSDOF 0
ENDMDL
