MODEL 1
REMARK minimizedAffinity 2.5048604
REMARK minimizedRMSD -1
REMARK  0 active torsions:
REMARK  status: ('A' for Active; 'I' for Inactive)
ROOT
ATOM      1  C   UNL d   1       1.681  -2.637  -0.195  0.00  0.00     0.124 A 
ATOM      2  C1  UNL d   1       2.637  -2.256  -1.126  0.00  0.00     0.062 A 
ATOM      3  C2  UNL d   1       3.653  -3.136  -1.488  0.00  0.00     0.162 A 
ATOM      4  C3  UNL d   1       3.717  -4.408  -0.919  0.00  0.00    -0.034 A 
ATOM      5  C4  UNL d   1       2.753  -4.784   0.017  0.00  0.00     0.162 A 
ATOM      6  C5  UNL d   1       1.740  -3.901   0.375  0.00  0.00     0.062 A 
ATOM      7  F   UNL d   1       0.817  -4.271   1.275  0.00  0.00    -0.097 F 
ATOM      8  F1  UNL d   1       2.785  -6.000   0.584  0.00  0.00    -0.096 F 
ATOM      9  I   UNL d   1       5.234  -5.727  -1.457  0.00  0.00    -0.060 I 
ATOM     10  F2  UNL d   1       4.563  -2.740  -2.390  0.00  0.00    -0.096 F 
ATOM     11  F3  UNL d   1       2.583  -1.035  -1.678  0.00  0.00    -0.097 F 
ATOM     12  F4  UNL d   1       0.706  -1.788   0.152  0.00  0.00    -0.092 F 
ENDROOT
TORSDOF 0
ENDMDL
