MODEL 1
REMARK minimizedAffinity -0.0112621607
REMARK minimizedRMSD -1
REMARK  0 active torsions:
REMARK  status: ('A' for Active; 'I' for Inactive)
ROOT
ATOM      1  C   UNL d   1       1.395  -2.524   0.035  0.00  0.00     0.124 A 
ATOM      2  C1  UNL d   1       1.558  -3.745   0.675  0.00  0.00     0.062 A 
ATOM      3  C2  UNL d   1       2.660  -4.546   0.385  0.00  0.00     0.162 A 
ATOM      4  C3  UNL d   1       3.607  -4.127  -0.549  0.00  0.00    -0.034 A 
ATOM      5  C4  UNL d   1       3.436  -2.898  -1.189  0.00  0.00     0.162 A 
ATOM      6  C5  UNL d   1       2.333  -2.102  -0.896  0.00  0.00     0.062 A 
ATOM      7  F   UNL d   1       2.177  -0.922  -1.514  0.00  0.00    -0.097 F 
ATOM      8  F1  UNL d   1       4.328  -2.465  -2.092  0.00  0.00    -0.096 F 
ATOM      9  I   UNL d   1       5.255  -5.321  -0.985  0.00  0.00    -0.060 I 
ATOM     10  F2  UNL d   1       2.792  -5.721   1.018  0.00  0.00    -0.096 F 
ATOM     11  F3  UNL d   1       0.652  -4.156   1.574  0.00  0.00    -0.097 F 
ATOM     12  F4  UNL d   1       0.334  -1.757   0.315  0.00  0.00    -0.092 F 
ENDROOT
TORSDOF 0
ENDMDL
