MODEL 1
REMARK minimizedAffinity 9.80257702
REMARK minimizedRMSD -1
REMARK  0 active torsions:
REMARK  status: ('A' for Active; 'I' for Inactive)
ROOT
ATOM      1  C   UNL d   1      -2.402  -0.018   0.915  0.00  0.00     0.124 A 
ATOM      2  C1  UNL d   1      -1.958  -0.756   2.003  0.00  0.00     0.062 A 
ATOM      3  C2  UNL d   1      -1.284  -1.957   1.805  0.00  0.00     0.162 A 
ATOM      4  C3  UNL d   1      -1.050  -2.429   0.514  0.00  0.00    -0.034 A 
ATOM      5  C4  UNL d   1      -1.501  -1.682  -0.576  0.00  0.00     0.162 A 
ATOM      6  C5  UNL d   1      -2.174  -0.481  -0.373  0.00  0.00     0.062 A 
ATOM      7  F   UNL d   1      -2.603   0.230  -1.426  0.00  0.00    -0.097 F 
ATOM      8  F1  UNL d   1      -1.293  -2.106  -1.831  0.00  0.00    -0.096 F 
ATOM      9  I   UNL d   1      -0.043  -4.226   0.214  0.00  0.00    -0.060 I 
ATOM     10  F2  UNL d   1      -0.865  -2.650   2.875  0.00  0.00    -0.096 F 
ATOM     11  F3  UNL d   1      -2.178  -0.310   3.248  0.00  0.00    -0.097 F 
ATOM     12  F4  UNL d   1      -3.051   1.138   1.108  0.00  0.00    -0.092 F 
ENDROOT
TORSDOF 0
ENDMDL
