MODEL 1
REMARK minimizedAffinity 22.2942905
REMARK minimizedRMSD -1
REMARK  0 active torsions:
REMARK  status: ('A' for Active; 'I' for Inactive)
ROOT
ATOM      1  C   UNL d   1      -2.629   5.262  -1.968  0.00  0.00     0.124 A 
ATOM      2  C1  UNL d   1      -3.257   5.531  -3.176  0.00  0.00     0.062 A 
ATOM      3  C2  UNL d   1      -2.502   5.742  -4.326  0.00  0.00     0.162 A 
ATOM      4  C3  UNL d   1      -1.109   5.684  -4.274  0.00  0.00    -0.034 A 
ATOM      5  C4  UNL d   1      -0.484   5.414  -3.055  0.00  0.00     0.162 A 
ATOM      6  C5  UNL d   1      -1.244   5.204  -1.909  0.00  0.00     0.062 A 
ATOM      7  F   UNL d   1      -0.635   4.944  -0.742  0.00  0.00    -0.097 F 
ATOM      8  F1  UNL d   1       0.853   5.352  -2.969  0.00  0.00    -0.096 F 
ATOM      9  I   UNL d   1       0.024   6.000  -5.991  0.00  0.00    -0.060 I 
ATOM     10  F2  UNL d   1      -3.136   6.000  -5.480  0.00  0.00    -0.096 F 
ATOM     11  F3  UNL d   1      -4.595   5.588  -3.236  0.00  0.00    -0.097 F 
ATOM     12  F4  UNL d   1      -3.358   5.060  -0.863  0.00  0.00    -0.092 F 
ENDROOT
TORSDOF 0
ENDMDL
