MODEL 1
REMARK minimizedAffinity 17.1512775
REMARK minimizedRMSD -1
REMARK  0 active torsions:
REMARK  status: ('A' for Active; 'I' for Inactive)
ROOT
ATOM      1  C   UNL d   1       1.281   3.140  -0.892  0.00  0.00     0.124 A 
ATOM      2  C1  UNL d   1       0.435   4.204  -0.610  0.00  0.00     0.062 A 
ATOM      3  C2  UNL d   1      -0.089   4.974  -1.645  0.00  0.00     0.162 A 
ATOM      4  C3  UNL d   1       0.230   4.682  -2.971  0.00  0.00    -0.034 A 
ATOM      5  C4  UNL d   1       1.083   3.611  -3.246  0.00  0.00     0.162 A 
ATOM      6  C5  UNL d   1       1.604   2.845  -2.209  0.00  0.00     0.062 A 
ATOM      7  F   UNL d   1       2.421   1.817  -2.482  0.00  0.00    -0.097 F 
ATOM      8  F1  UNL d   1       1.410   3.303  -4.509  0.00  0.00    -0.096 F 
ATOM      9  I   UNL d   1      -0.552   5.830  -4.520  0.00  0.00    -0.060 I 
ATOM     10  F2  UNL d   1      -0.904   5.996  -1.344  0.00  0.00    -0.096 F 
ATOM     11  F3  UNL d   1       0.123   4.492   0.661  0.00  0.00    -0.097 F 
ATOM     12  F4  UNL d   1       1.785   2.402   0.106  0.00  0.00    -0.092 F 
ENDROOT
TORSDOF 0
ENDMDL
