MODEL 1
REMARK minimizedAffinity 6.4905653
REMARK minimizedRMSD -1
REMARK  0 active torsions:
REMARK  status: ('A' for Active; 'I' for Inactive)
ROOT
ATOM      1  C   UNL d   1       1.384  -2.530   0.509  0.00  0.00     0.124 A 
ATOM      2  C1  UNL d   1       1.378  -3.876   0.169  0.00  0.00     0.062 A 
ATOM      3  C2  UNL d   1       2.574  -4.537  -0.094  0.00  0.00     0.162 A 
ATOM      4  C3  UNL d   1       3.787  -3.853  -0.017  0.00  0.00    -0.034 A 
ATOM      5  C4  UNL d   1       3.785  -2.500   0.324  0.00  0.00     0.162 A 
ATOM      6  C5  UNL d   1       2.587  -1.844   0.587  0.00  0.00     0.062 A 
ATOM      7  F   UNL d   1       2.595  -0.543   0.915  0.00  0.00    -0.097 F 
ATOM      8  F1  UNL d   1       4.934  -1.812   0.407  0.00  0.00    -0.096 F 
ATOM      9  I   UNL d   1       5.578  -4.838  -0.410  0.00  0.00    -0.060 I 
ATOM     10  F2  UNL d   1       2.538  -5.837  -0.421  0.00  0.00    -0.096 F 
ATOM     11  F3  UNL d   1       0.216  -4.541   0.093  0.00  0.00    -0.097 F 
ATOM     12  F4  UNL d   1       0.231  -1.897   0.761  0.00  0.00    -0.092 F 
ENDROOT
TORSDOF 0
ENDMDL
