MODEL 1
REMARK minimizedAffinity 12.2594948
REMARK minimizedRMSD -1
REMARK  0 active torsions:
REMARK  status: ('A' for Active; 'I' for Inactive)
ROOT
ATOM      1  C   UNL d   1       4.491   4.770   0.494  0.00  0.00     0.124 A 
ATOM      2  C1  UNL d   1       3.834   4.141  -0.554  0.00  0.00     0.062 A 
ATOM      3  C2  UNL d   1       2.443   4.124  -0.599  0.00  0.00     0.162 A 
ATOM      4  C3  UNL d   1       1.698   4.739   0.408  0.00  0.00    -0.034 A 
ATOM      5  C4  UNL d   1       2.366   5.369   1.459  0.00  0.00     0.162 A 
ATOM      6  C5  UNL d   1       3.757   5.383   1.499  0.00  0.00     0.062 A 
ATOM      7  F   UNL d   1       4.390   5.991   2.513  0.00  0.00    -0.097 F 
ATOM      8  F1  UNL d   1       1.682   5.970   2.444  0.00  0.00    -0.096 F 
ATOM      9  I   UNL d   1      -0.382   4.715   0.345  0.00  0.00    -0.060 I 
ATOM     10  F2  UNL d   1       1.834   3.508  -1.624  0.00  0.00    -0.096 F 
ATOM     11  F3  UNL d   1       4.540   3.547  -1.527  0.00  0.00    -0.097 F 
ATOM     12  F4  UNL d   1       5.829   4.784   0.535  0.00  0.00    -0.092 F 
ENDROOT
TORSDOF 0
ENDMDL
