MODEL 1
REMARK minimizedAffinity 0.163585737
REMARK minimizedRMSD -1
REMARK  2 active torsions:
REMARK  status: ('A' for Active; 'I' for Inactive)
REMARK    1  A    between atoms: C1_2  and  C2_3 
REMARK    2  A    between atoms: C2_3  and  C3_4 
ROOT
ATOM      1  C3  UNL d   1      -0.531  -5.214  -3.337  0.00  0.00    -0.075 A 
ATOM      2  C4  UNL d   1      -1.006  -5.999  -4.398  0.00  0.00     0.002 A 
ATOM      3  C5  UNL d   1      -1.623  -5.403  -5.498  0.00  0.00     0.002 A 
ATOM      4  C6  UNL d   1      -1.783  -4.020  -5.547  0.00  0.00    -0.004 A 
ATOM      5  C7  UNL d   1      -1.329  -3.232  -4.491  0.00  0.00     0.002 A 
ATOM      6  C8  UNL d   1      -0.707  -3.825  -3.391  0.00  0.00     0.002 A 
ENDROOT
BRANCH   1   7
ATOM      7  C2  UNL d   1       0.165  -5.850  -2.157  0.00  0.00     0.056 C 
BRANCH   7   8
ATOM      8  C1  UNL d   1       1.179  -4.935  -1.463  0.00  0.00     0.007 C 
ATOM      9  C   UNL d   1       1.036  -4.920   0.053  0.00  0.00     0.009 C 
ENDBRANCH   7   8
ENDBRANCH   1   7
TORSDOF 2
ENDMDL
