MODEL 1
REMARK minimizedAffinity -2.79578876
REMARK minimizedRMSD -1
REMARK  2 active torsions:
REMARK  status: ('A' for Active; 'I' for Inactive)
REMARK    1  A    between atoms: C1_2  and  C2_3 
REMARK    2  A    between atoms: C2_3  and  C3_4 
ROOT
ATOM      1  C3  UNL d   1       3.576  -3.092  -1.671  0.00  0.00    -0.075 A 
ATOM      2  C4  UNL d   1       4.038  -1.861  -2.157  0.00  0.00     0.002 A 
ATOM      3  C5  UNL d   1       5.241  -1.785  -2.860  0.00  0.00     0.002 A 
ATOM      4  C6  UNL d   1       5.999  -2.933  -3.077  0.00  0.00    -0.004 A 
ATOM      5  C7  UNL d   1       5.557  -4.159  -2.583  0.00  0.00     0.002 A 
ATOM      6  C8  UNL d   1       4.352  -4.239  -1.883  0.00  0.00     0.002 A 
ENDROOT
BRANCH   1   7
ATOM      7  C2  UNL d   1       2.260  -3.187  -0.934  0.00  0.00     0.056 C 
BRANCH   7   8
ATOM      8  C1  UNL d   1       1.960  -4.580  -0.371  0.00  0.00     0.007 C 
ATOM      9  C   UNL d   1       0.475  -4.919  -0.367  0.00  0.00     0.009 C 
ENDBRANCH   7   8
ENDBRANCH   1   7
TORSDOF 2
ENDMDL
