MODEL 1
REMARK minimizedAffinity -1.04325914
REMARK minimizedRMSD -1
REMARK  2 active torsions:
REMARK  status: ('A' for Active; 'I' for Inactive)
REMARK    1  A    between atoms: C1_2  and  C2_3 
REMARK    2  A    between atoms: C2_3  and  C3_4 
ROOT
ATOM      1  C3  UNL d   1      -2.187   1.880  -1.841  0.00  0.00    -0.075 A 
ATOM      2  C4  UNL d   1      -2.947   0.711  -2.000  0.00  0.00     0.002 A 
ATOM      3  C5  UNL d   1      -4.213   0.763  -2.584  0.00  0.00     0.002 A 
ATOM      4  C6  UNL d   1      -4.739   1.982  -3.006  0.00  0.00    -0.004 A 
ATOM      5  C7  UNL d   1      -4.000   3.151  -2.838  0.00  0.00     0.002 A 
ATOM      6  C8  UNL d   1      -2.731   3.102  -2.258  0.00  0.00     0.002 A 
ENDROOT
BRANCH   1   7
ATOM      7  C2  UNL d   1      -0.805   1.826  -1.237  0.00  0.00     0.056 C 
BRANCH   7   8
ATOM      8  C1  UNL d   1      -0.517   2.950  -0.236  0.00  0.00     0.007 C 
ATOM      9  C   UNL d   1       0.289   4.095  -0.834  0.00  0.00     0.009 C 
ENDBRANCH   7   8
ENDBRANCH   1   7
TORSDOF 2
ENDMDL
