MODEL 1
REMARK minimizedAffinity 6.27552176
REMARK minimizedRMSD -1
REMARK  2 active torsions:
REMARK  status: ('A' for Active; 'I' for Inactive)
REMARK    1  A    between atoms: C1_2  and  C2_3 
REMARK    2  A    between atoms: C2_3  and  C3_4 
ROOT
ATOM      1  C3  UNL d   1       3.764  -3.719  -1.467  0.00  0.00    -0.075 A 
ATOM      2  C4  UNL d   1       3.686  -3.385  -2.827  0.00  0.00     0.002 A 
ATOM      3  C5  UNL d   1       4.246  -4.220  -3.795  0.00  0.00     0.002 A 
ATOM      4  C6  UNL d   1       4.898  -5.391  -3.416  0.00  0.00    -0.004 A 
ATOM      5  C7  UNL d   1       4.995  -5.725  -2.066  0.00  0.00     0.002 A 
ATOM      6  C8  UNL d   1       4.433  -4.893  -1.097  0.00  0.00     0.002 A 
ENDROOT
BRANCH   1   7
ATOM      7  C2  UNL d   1       3.135  -2.835  -0.417  0.00  0.00     0.056 C 
BRANCH   7   8
ATOM      8  C1  UNL d   1       1.947  -3.476   0.308  0.00  0.00     0.007 C 
ATOM      9  C   UNL d   1       1.164  -4.448  -0.565  0.00  0.00     0.009 C 
ENDBRANCH   7   8
ENDBRANCH   1   7
TORSDOF 2
ENDMDL
