MODEL 1
REMARK minimizedAffinity -0.852876008
REMARK minimizedRMSD -1
REMARK  2 active torsions:
REMARK  status: ('A' for Active; 'I' for Inactive)
REMARK    1  A    between atoms: C1_2  and  C2_3 
REMARK    2  A    between atoms: C2_3  and  C3_4 
ROOT
ATOM      1  C3  UNL d   1       3.799  -4.244  -1.869  0.00  0.00    -0.075 A 
ATOM      2  C4  UNL d   1       4.992  -4.638  -1.245  0.00  0.00     0.002 A 
ATOM      3  C5  UNL d   1       5.779  -3.705  -0.570  0.00  0.00     0.002 A 
ATOM      4  C6  UNL d   1       5.391  -2.368  -0.519  0.00  0.00    -0.004 A 
ATOM      5  C7  UNL d   1       4.217  -1.962  -1.150  0.00  0.00     0.002 A 
ATOM      6  C8  UNL d   1       3.425  -2.894  -1.822  0.00  0.00     0.002 A 
ENDROOT
BRANCH   1   7
ATOM      7  C2  UNL d   1       2.927  -5.254  -2.576  0.00  0.00     0.056 C 
BRANCH   7   8
ATOM      8  C1  UNL d   1       1.960  -6.000  -1.650  0.00  0.00     0.007 C 
ATOM      9  C   UNL d   1       1.046  -5.071  -0.863  0.00  0.00     0.009 C 
ENDBRANCH   7   8
ENDBRANCH   1   7
TORSDOF 2
ENDMDL
