MODEL 1
REMARK minimizedAffinity 3.19960141
REMARK minimizedRMSD -1
REMARK  2 active torsions:
REMARK  status: ('A' for Active; 'I' for Inactive)
REMARK    1  A    between atoms: C1_2  and  C2_3 
REMARK    2  A    between atoms: C2_3  and  C3_4 
ROOT
ATOM      1  C3  UNL d   1       0.444   2.757   2.015  0.00  0.00    -0.075 A 
ATOM      2  C4  UNL d   1       1.700   3.125   2.520  0.00  0.00     0.002 A 
ATOM      3  C5  UNL d   1       2.442   4.135   1.906  0.00  0.00     0.002 A 
ATOM      4  C6  UNL d   1       1.944   4.781   0.777  0.00  0.00    -0.004 A 
ATOM      5  C7  UNL d   1       0.705   4.413   0.257  0.00  0.00     0.002 A 
ATOM      6  C8  UNL d   1      -0.042   3.406   0.872  0.00  0.00     0.002 A 
ENDROOT
BRANCH   1   7
ATOM      7  C2  UNL d   1      -0.377   1.686   2.691  0.00  0.00     0.056 C 
BRANCH   7   8
ATOM      8  C1  UNL d   1       0.164   0.266   2.493  0.00  0.00     0.007 C 
ATOM      9  C   UNL d   1       0.540  -0.036   1.048  0.00  0.00     0.009 C 
ENDBRANCH   7   8
ENDBRANCH   1   7
TORSDOF 2
ENDMDL
