MODEL 1
REMARK minimizedAffinity -2.02667665
REMARK minimizedRMSD -1
REMARK  0 active torsions:
REMARK  status: ('A' for Active; 'I' for Inactive)
ROOT
ATOM      1  C1  BNZ d   1       1.661  -3.046   3.755  0.00  0.00     0.000 A 
ATOM      2  C2  BNZ d   1       2.208  -1.791   3.746  0.00  0.00     0.000 A 
ATOM      3  C3  BNZ d   1       2.142  -1.007   2.628  0.00  0.00     0.000 A 
ATOM      4  C4  BNZ d   1       1.566  -1.493   1.510  0.00  0.00     0.000 A 
ATOM      5  C5  BNZ d   1       1.018  -2.760   1.501  0.00  0.00     0.000 A 
ATOM      6  C6  BNZ d   1       1.052  -3.532   2.639  0.00  0.00     0.000 A 
ENDROOT
TORSDOF 0
ENDMDL
