MODEL 1
REMARK minimizedAffinity 3.56417394
REMARK minimizedRMSD -1
REMARK  0 active torsions:
REMARK  status: ('A' for Active; 'I' for Inactive)
ROOT
ATOM      1  C1  BNZ d   1      -5.162   3.037   2.175  0.00  0.00     0.000 A 
ATOM      2  C2  BNZ d   1      -3.895   2.518   2.222  0.00  0.00     0.000 A 
ATOM      3  C3  BNZ d   1      -3.035   2.675   1.172  0.00  0.00     0.000 A 
ATOM      4  C4  BNZ d   1      -3.454   3.314   0.061  0.00  0.00     0.000 A 
ATOM      5  C5  BNZ d   1      -4.731   3.835  -0.006  0.00  0.00     0.000 A 
ATOM      6  C6  BNZ d   1      -5.581   3.709   1.069  0.00  0.00     0.000 A 
ENDROOT
TORSDOF 0
ENDMDL
