MODEL 1
REMARK minimizedAffinity -1.66908705
REMARK minimizedRMSD -1
REMARK  0 active torsions:
REMARK  status: ('A' for Active; 'I' for Inactive)
ROOT
ATOM      1  C1  BNZ d   1       4.924  -2.266   4.736  0.00  0.00     0.000 A 
ATOM      2  C2  BNZ d   1       4.412  -1.965   3.502  0.00  0.00     0.000 A 
ATOM      3  C3  BNZ d   1       3.106  -1.585   3.361  0.00  0.00     0.000 A 
ATOM      4  C4  BNZ d   1       2.306  -1.546   4.445  0.00  0.00     0.000 A 
ATOM      5  C5  BNZ d   1       2.806  -1.856   5.695  0.00  0.00     0.000 A 
ATOM      6  C6  BNZ d   1       4.130  -2.200   5.839  0.00  0.00     0.000 A 
ENDROOT
TORSDOF 0
ENDMDL
