MODEL 1
REMARK minimizedAffinity -0.625053644
REMARK minimizedRMSD -1
REMARK  0 active torsions:
REMARK  status: ('A' for Active; 'I' for Inactive)
ROOT
ATOM      1  C1  BNZ d   1       0.788   2.606   0.929  0.00  0.00     0.000 A 
ATOM      2  C2  BNZ d   1       1.558   1.626   1.497  0.00  0.00     0.000 A 
ATOM      3  C3  BNZ d   1       2.852   1.436   1.101  0.00  0.00     0.000 A 
ATOM      4  C4  BNZ d   1       3.361   2.197   0.111  0.00  0.00     0.000 A 
ATOM      5  C5  BNZ d   1       2.595   3.182  -0.478  0.00  0.00     0.000 A 
ATOM      6  C6  BNZ d   1       1.305   3.397  -0.050  0.00  0.00     0.000 A 
ENDROOT
TORSDOF 0
ENDMDL
