MODEL 1
REMARK minimizedAffinity 2.4756031
REMARK minimizedRMSD -1
REMARK  0 active torsions:
REMARK  status: ('A' for Active; 'I' for Inactive)
ROOT
ATOM      1  C1  BNZ d   1       4.005  -2.250   4.552  0.00  0.00     0.000 A 
ATOM      2  C2  BNZ d   1       4.149  -1.154   3.744  0.00  0.00     0.000 A 
ATOM      3  C3  BNZ d   1       3.097  -0.681   3.011  0.00  0.00     0.000 A 
ATOM      4  C4  BNZ d   1       1.914  -1.327   3.057  0.00  0.00     0.000 A 
ATOM      5  C5  BNZ d   1       1.755  -2.438   3.860  0.00  0.00     0.000 A 
ATOM      6  C6  BNZ d   1       2.806  -2.889   4.626  0.00  0.00     0.000 A 
ENDROOT
TORSDOF 0
ENDMDL
