MODEL 1
REMARK minimizedAffinity -0.414044619
REMARK minimizedRMSD -1
REMARK  0 active torsions:
REMARK  status: ('A' for Active; 'I' for Inactive)
ROOT
ATOM      1  C1  BNZ d   1       5.934  -2.624   5.556  0.00  0.00     0.000 A 
ATOM      2  C2  BNZ d   1       4.738  -3.123   6.000  0.00  0.00     0.000 A 
ATOM      3  C3  BNZ d   1       3.589  -2.922   5.287  0.00  0.00     0.000 A 
ATOM      4  C4  BNZ d   1       3.630  -2.191   4.155  0.00  0.00     0.000 A 
ATOM      5  C5  BNZ d   1       4.826  -1.674   3.699  0.00  0.00     0.000 A 
ATOM      6  C6  BNZ d   1       5.988  -1.911   4.399  0.00  0.00     0.000 A 
ENDROOT
TORSDOF 0
ENDMDL
