MODEL 1
REMARK minimizedAffinity 9.24263954
REMARK minimizedRMSD -1
REMARK  0 active torsions:
REMARK  status: ('A' for Active; 'I' for Inactive)
ROOT
ATOM      1  C1  BNZ d   1       5.990  -1.830   3.039  0.00  0.00     0.000 A 
ATOM      2  C2  BNZ d   1       4.800  -2.164   3.629  0.00  0.00     0.000 A 
ATOM      3  C3  BNZ d   1       3.611  -1.789   3.067  0.00  0.00     0.000 A 
ATOM      4  C4  BNZ d   1       3.614  -1.048   1.941  0.00  0.00     0.000 A 
ATOM      5  C5  BNZ d   1       4.806  -0.695   1.339  0.00  0.00     0.000 A 
ATOM      6  C6  BNZ d   1       6.000  -1.107   1.886  0.00  0.00     0.000 A 
ENDROOT
TORSDOF 0
ENDMDL
