MODEL 1
REMARK minimizedAffinity -0.279014528
REMARK minimizedRMSD -1
REMARK  0 active torsions:
REMARK  status: ('A' for Active; 'I' for Inactive)
ROOT
ATOM      1  C1  BNZ d   1      -5.996   2.113  -3.505  0.00  0.00     0.000 A 
ATOM      2  C2  BNZ d   1      -5.997   0.769  -3.244  0.00  0.00     0.000 A 
ATOM      3  C3  BNZ d   1      -5.663  -0.133  -4.215  0.00  0.00     0.000 A 
ATOM      4  C4  BNZ d   1      -5.369   0.307  -5.455  0.00  0.00     0.000 A 
ATOM      5  C5  BNZ d   1      -5.373   1.658  -5.737  0.00  0.00     0.000 A 
ATOM      6  C6  BNZ d   1      -5.671   2.566  -4.747  0.00  0.00     0.000 A 
ENDROOT
TORSDOF 0
ENDMDL
