MODEL 1
REMARK minimizedAffinity -1.75583112
REMARK minimizedRMSD -1
REMARK  0 active torsions:
REMARK  status: ('A' for Active; 'I' for Inactive)
ROOT
ATOM      1  C1  BNZ d   1       5.093  -0.920  -3.821  0.00  0.00     0.000 A 
ATOM      2  C2  BNZ d   1       4.882   0.433  -3.831  0.00  0.00     0.000 A 
ATOM      3  C3  BNZ d   1       5.202   1.184  -4.927  0.00  0.00     0.000 A 
ATOM      4  C4  BNZ d   1       5.770   0.588  -5.996  0.00  0.00     0.000 A 
ATOM      5  C5  BNZ d   1       5.998  -0.774  -5.998  0.00  0.00     0.000 A 
ATOM      6  C6  BNZ d   1       5.638  -1.532  -4.907  0.00  0.00     0.000 A 
ENDROOT
TORSDOF 0
ENDMDL
