MODEL 1
REMARK minimizedAffinity 4.70770311
REMARK minimizedRMSD -1
REMARK  1 active torsions:
REMARK  status: ('A' for Active; 'I' for Inactive)
REMARK    1  A    between atoms: C1_2  and  C2_3 
ROOT
ATOM      1  C2  UNL d   1       4.083   0.444   4.049  0.00  0.00    -0.081 A 
ATOM      2  C3  UNL d   1       4.530   0.464   2.722  0.00  0.00     0.006 A 
ATOM      3  C4  UNL d   1       3.623   0.626   1.672  0.00  0.00     0.002 A 
ATOM      4  C5  UNL d   1       2.257   0.779   1.930  0.00  0.00    -0.080 A 
ATOM      5  C6  UNL d   1       1.277   0.984   0.814  0.00  0.00     0.076 C 
ATOM      6  C7  UNL d   1       1.808   0.742   3.255  0.00  0.00     0.002 A 
ATOM      7  C8  UNL d   1       2.714   0.579   4.306  0.00  0.00     0.006 A 
ENDROOT
BRANCH   1   8
ATOM      8  C1  UNL d   1       5.065   0.334   5.187  0.00  0.00     0.054 C 
ATOM      9  C   UNL d   1       5.864   1.619   5.354  0.00  0.00     0.018 C 
ENDBRANCH   1   8
TORSDOF 1
ENDMDL
