MODEL 1
REMARK minimizedAffinity 2.00786376
REMARK minimizedRMSD -1
REMARK  1 active torsions:
REMARK  status: ('A' for Active; 'I' for Inactive)
REMARK    1  A    between atoms: C1_2  and  C2_3 
ROOT
ATOM      1  C2  UNL d   1       4.032   0.214   4.284  0.00  0.00    -0.081 A 
ATOM      2  C3  UNL d   1       4.749  -0.206   3.157  0.00  0.00     0.006 A 
ATOM      3  C4  UNL d   1       4.178  -0.125   1.884  0.00  0.00     0.002 A 
ATOM      4  C5  UNL d   1       2.886   0.383   1.717  0.00  0.00    -0.080 A 
ATOM      5  C6  UNL d   1       2.274   0.503   0.353  0.00  0.00     0.076 C 
ATOM      6  C7  UNL d   1       2.163   0.787   2.844  0.00  0.00     0.002 A 
ATOM      7  C8  UNL d   1       2.732   0.706   4.117  0.00  0.00     0.006 A 
ENDROOT
BRANCH   1   8
ATOM      8  C1  UNL d   1       4.668   0.189   5.650  0.00  0.00     0.054 C 
ATOM      9  C   UNL d   1       5.633   1.352   5.833  0.00  0.00     0.018 C 
ENDBRANCH   1   8
TORSDOF 1
ENDMDL
