MODEL 1
REMARK minimizedAffinity -0.571863174
REMARK minimizedRMSD -1
REMARK  1 active torsions:
REMARK  status: ('A' for Active; 'I' for Inactive)
REMARK    1  A    between atoms: C1_2  and  C2_3 
ROOT
ATOM      1  C2  UNL d   1      -0.814   5.953  -4.325  0.00  0.00    -0.081 A 
ATOM      2  C3  UNL d   1      -0.092   5.968  -3.125  0.00  0.00     0.006 A 
ATOM      3  C4  UNL d   1      -0.758   5.994  -1.898  0.00  0.00     0.002 A 
ATOM      4  C5  UNL d   1      -2.156   5.997  -1.849  0.00  0.00    -0.080 A 
ATOM      5  C6  UNL d   1      -2.884   5.994  -0.538  0.00  0.00     0.076 C 
ATOM      6  C7  UNL d   1      -2.878   6.000  -3.048  0.00  0.00     0.002 A 
ATOM      7  C8  UNL d   1      -2.212   5.975  -4.276  0.00  0.00     0.006 A 
ENDROOT
BRANCH   1   8
ATOM      8  C1  UNL d   1      -0.098   5.860  -5.649  0.00  0.00     0.054 C 
ATOM      9  C   UNL d   1       1.391   5.615  -5.456  0.00  0.00     0.018 C 
ENDBRANCH   1   8
TORSDOF 1
ENDMDL
