MODEL 1
REMARK minimizedAffinity -1.37445176
REMARK minimizedRMSD -1
REMARK  1 active torsions:
REMARK  status: ('A' for Active; 'I' for Inactive)
REMARK    1  A    between atoms: C1_2  and  C2_3 
ROOT
ATOM      1  C2  UNL d   1      -1.079   5.999  -4.503  0.00  0.00    -0.081 A 
ATOM      2  C3  UNL d   1      -0.738   6.000  -3.145  0.00  0.00     0.006 A 
ATOM      3  C4  UNL d   1      -1.734   5.990  -2.165  0.00  0.00     0.002 A 
ATOM      4  C5  UNL d   1      -3.085   5.972  -2.527  0.00  0.00    -0.080 A 
ATOM      5  C6  UNL d   1      -4.164   5.931  -1.485  0.00  0.00     0.076 C 
ATOM      6  C7  UNL d   1      -3.426   5.989  -3.884  0.00  0.00     0.002 A 
ATOM      7  C8  UNL d   1      -2.431   6.000  -4.864  0.00  0.00     0.006 A 
ENDROOT
BRANCH   1   8
ATOM      8  C1  UNL d   1      -0.007   5.944  -5.562  0.00  0.00     0.054 C 
ATOM      9  C   UNL d   1       1.161   5.074  -5.122  0.00  0.00     0.018 C 
ENDBRANCH   1   8
TORSDOF 1
ENDMDL
