MODEL 1
REMARK minimizedAffinity 9.29661274
REMARK minimizedRMSD -1
REMARK  1 active torsions:
REMARK  status: ('A' for Active; 'I' for Inactive)
REMARK    1  A    between atoms: C1_2  and  C2_3 
ROOT
ATOM      1  C2  UNL d   1      -0.178  -1.702   0.963  0.00  0.00    -0.081 A 
ATOM      2  C3  UNL d   1       0.894  -1.287   0.163  0.00  0.00     0.006 A 
ATOM      3  C4  UNL d   1       1.280   0.055   0.136  0.00  0.00     0.002 A 
ATOM      4  C5  UNL d   1       0.606   1.003   0.914  0.00  0.00    -0.080 A 
ATOM      5  C6  UNL d   1       1.030   2.442   0.918  0.00  0.00     0.076 C 
ATOM      6  C7  UNL d   1      -0.476   0.592   1.700  0.00  0.00     0.002 A 
ATOM      7  C8  UNL d   1      -0.862  -0.750   1.727  0.00  0.00     0.006 A 
ENDROOT
BRANCH   1   8
ATOM      8  C1  UNL d   1      -0.555  -3.159   1.044  0.00  0.00     0.054 C 
ATOM      9  C   UNL d   1      -1.799  -3.455   0.219  0.00  0.00     0.018 C 
ENDBRANCH   1   8
TORSDOF 1
ENDMDL
