MODEL 1
REMARK minimizedAffinity -0.958754778
REMARK minimizedRMSD -1
REMARK  1 active torsions:
REMARK  status: ('A' for Active; 'I' for Inactive)
REMARK    1  A    between atoms: C1_2  and  C2_3 
ROOT
ATOM      1  C2  UNL d   1       0.364   0.334   0.263  0.00  0.00    -0.081 A 
ATOM      2  C3  UNL d   1       1.482  -0.442  -0.067  0.00  0.00     0.006 A 
ATOM      3  C4  UNL d   1       2.741   0.149  -0.195  0.00  0.00     0.002 A 
ATOM      4  C5  UNL d   1       2.905   1.523   0.014  0.00  0.00    -0.080 A 
ATOM      5  C6  UNL d   1       4.257   2.164  -0.090  0.00  0.00     0.076 C 
ATOM      6  C7  UNL d   1       1.786   2.301   0.327  0.00  0.00     0.002 A 
ATOM      7  C8  UNL d   1       0.526   1.711   0.454  0.00  0.00     0.006 A 
ENDROOT
BRANCH   1   8
ATOM      8  C1  UNL d   1      -0.984  -0.310   0.465  0.00  0.00     0.054 C 
ATOM      9  C   UNL d   1      -0.844  -1.777   0.846  0.00  0.00     0.018 C 
ENDBRANCH   1   8
TORSDOF 1
ENDMDL
