MODEL 1
REMARK minimizedAffinity 7.98773718
REMARK minimizedRMSD -1
REMARK  1 active torsions:
REMARK  status: ('A' for Active; 'I' for Inactive)
REMARK    1  A    between atoms: C1_2  and  C2_3 
ROOT
ATOM      1  C2  UNL d   1       1.152   0.379  -1.177  0.00  0.00    -0.081 A 
ATOM      2  C3  UNL d   1       1.508   1.551  -0.499  0.00  0.00     0.006 A 
ATOM      3  C4  UNL d   1       1.153   1.731   0.840  0.00  0.00     0.002 A 
ATOM      4  C5  UNL d   1       0.444   0.739   1.525  0.00  0.00    -0.080 A 
ATOM      5  C6  UNL d   1       0.083   0.906   2.972  0.00  0.00     0.076 C 
ATOM      6  C7  UNL d   1       0.073  -0.425   0.843  0.00  0.00     0.002 A 
ATOM      7  C8  UNL d   1       0.426  -0.605  -0.496  0.00  0.00     0.006 A 
ENDROOT
BRANCH   1   8
ATOM      8  C1  UNL d   1       1.589   0.155  -2.602  0.00  0.00     0.054 C 
ATOM      9  C   UNL d   1       1.899  -1.313  -2.861  0.00  0.00     0.018 C 
ENDBRANCH   1   8
TORSDOF 1
ENDMDL
