MODEL 1
REMARK minimizedAffinity -0.847632825
REMARK minimizedRMSD -1
REMARK  1 active torsions:
REMARK  status: ('A' for Active; 'I' for Inactive)
REMARK    1  A    between atoms: C1_2  and  C2_3 
ROOT
ATOM      1  C2  UNL d   1      -0.021   5.946  -5.232  0.00  0.00    -0.081 A 
ATOM      2  C3  UNL d   1      -0.018   6.000  -3.833  0.00  0.00     0.006 A 
ATOM      3  C4  UNL d   1      -1.220   5.995  -3.121  0.00  0.00     0.002 A 
ATOM      4  C5  UNL d   1      -2.444   5.929  -3.795  0.00  0.00    -0.080 A 
ATOM      5  C6  UNL d   1      -3.740   5.893  -3.042  0.00  0.00     0.076 C 
ATOM      6  C7  UNL d   1      -2.448   5.894  -5.194  0.00  0.00     0.002 A 
ATOM      7  C8  UNL d   1      -1.246   5.899  -5.906  0.00  0.00     0.006 A 
ENDROOT
BRANCH   1   8
ATOM      8  C1  UNL d   1       1.275   5.886  -6.000  0.00  0.00     0.054 C 
ATOM      9  C   UNL d   1       2.230   4.867  -5.394  0.00  0.00     0.018 C 
ENDBRANCH   1   8
TORSDOF 1
ENDMDL
