MODEL 1
REMARK minimizedAffinity 3.1059773
REMARK minimizedRMSD -1
REMARK  1 active torsions:
REMARK  status: ('A' for Active; 'I' for Inactive)
REMARK    1  A    between atoms: C1_2  and  C2_3 
ROOT
ATOM      1  C2  UNL d   1       4.110   5.024  -4.945  0.00  0.00    -0.081 A 
ATOM      2  C3  UNL d   1       3.270   4.300  -4.091  0.00  0.00     0.006 A 
ATOM      3  C4  UNL d   1       1.882   4.420  -4.192  0.00  0.00     0.002 A 
ATOM      4  C5  UNL d   1       1.311   5.260  -5.155  0.00  0.00    -0.080 A 
ATOM      5  C6  UNL d   1      -0.178   5.375  -5.295  0.00  0.00     0.076 C 
ATOM      6  C7  UNL d   1       2.150   5.997  -5.997  0.00  0.00     0.002 A 
ATOM      7  C8  UNL d   1       3.538   5.878  -5.895  0.00  0.00     0.006 A 
ENDROOT
BRANCH   1   8
ATOM      8  C1  UNL d   1       5.605   4.848  -4.881  0.00  0.00     0.054 C 
ATOM      9  C   UNL d   1       5.978   3.423  -4.496  0.00  0.00     0.018 C 
ENDBRANCH   1   8
TORSDOF 1
ENDMDL
