MODEL 1
REMARK minimizedAffinity 10.3866949
REMARK minimizedRMSD -1
REMARK  0 active torsions:
REMARK  status: ('A' for Active; 'I' for Inactive)
ROOT
ATOM      1  C   UNL d   1       4.119   1.224   2.840  0.00  0.00    -0.002 A 
ATOM      2  C1  UNL d   1       4.051   1.864   4.069  0.00  0.00     0.010 A 
ATOM      3  C2  UNL d   1       4.053   3.258   4.146  0.00  0.00     0.041 A 
ATOM      4  C3  UNL d   1       4.123   4.006   2.954  0.00  0.00    -0.075 A 
ATOM      5  S   UNL d   1       4.138   5.723   2.803  0.00  0.00     0.015 SA
ATOM      6  C4  UNL d   1       4.234   5.648   1.103  0.00  0.00     0.022 A 
ATOM      7  C5  UNL d   1       4.255   4.352   0.645  0.00  0.00     0.026 A 
ATOM      8  C6  UNL d   1       4.191   3.384   1.704  0.00  0.00    -0.082 A 
ATOM      9  C7  UNL d   1       4.188   1.969   1.660  0.00  0.00     0.045 A 
ENDROOT
TORSDOF 0
ENDMDL
