MODEL 1
REMARK minimizedAffinity 21.8374462
REMARK minimizedRMSD -1
REMARK  0 active torsions:
REMARK  status: ('A' for Active; 'I' for Inactive)
ROOT
ATOM      1  C   UNL d   1       3.473   2.623   1.097  0.00  0.00    -0.002 A 
ATOM      2  C1  UNL d   1       3.738   1.819   2.197  0.00  0.00     0.010 A 
ATOM      3  C2  UNL d   1       4.397   2.339   3.313  0.00  0.00     0.041 A 
ATOM      4  C3  UNL d   1       4.787   3.692   3.306  0.00  0.00    -0.075 A 
ATOM      5  S   UNL d   1       5.605   4.545   4.561  0.00  0.00     0.015 SA
ATOM      6  C4  UNL d   1       5.621   5.996   3.667  0.00  0.00     0.022 A 
ATOM      7  C5  UNL d   1       5.021   5.852   2.439  0.00  0.00     0.026 A 
ATOM      8  C6  UNL d   1       4.530   4.521   2.210  0.00  0.00    -0.082 A 
ATOM      9  C7  UNL d   1       3.861   3.965   1.093  0.00  0.00     0.045 A 
ENDROOT
TORSDOF 0
ENDMDL
