MODEL 1
REMARK minimizedAffinity 18.8779545
REMARK minimizedRMSD -1
REMARK  0 active torsions:
REMARK  status: ('A' for Active; 'I' for Inactive)
ROOT
ATOM      1  C   UNL d   1       1.115  -0.362   2.643  0.00  0.00    -0.002 A 
ATOM      2  C1  UNL d   1       0.591   0.870   3.010  0.00  0.00     0.010 A 
ATOM      3  C2  UNL d   1      -0.755   1.164   2.784  0.00  0.00     0.041 A 
ATOM      4  C3  UNL d   1      -1.574   0.190   2.180  0.00  0.00    -0.075 A 
ATOM      5  S   UNL d   1      -3.251   0.328   1.807  0.00  0.00     0.015 SA
ATOM      6  C4  UNL d   1      -3.312  -1.245   1.153  0.00  0.00     0.022 A 
ATOM      7  C5  UNL d   1      -2.091  -1.874   1.210  0.00  0.00     0.026 A 
ATOM      8  C6  UNL d   1      -1.069  -1.058   1.803  0.00  0.00    -0.082 A 
ATOM      9  C7  UNL d   1       0.300  -1.325   2.044  0.00  0.00     0.045 A 
ENDROOT
TORSDOF 0
ENDMDL
