MODEL 1
REMARK minimizedAffinity 10.6985044
REMARK minimizedRMSD -1
REMARK  0 active torsions:
REMARK  status: ('A' for Active; 'I' for Inactive)
ROOT
ATOM      1  C   UNL d   1      -0.691  -0.025   2.445  0.00  0.00    -0.002 A 
ATOM      2  C1  UNL d   1       0.400   0.809   2.645  0.00  0.00     0.010 A 
ATOM      3  C2  UNL d   1       1.501   0.373   3.384  0.00  0.00     0.041 A 
ATOM      4  C3  UNL d   1       1.488  -0.928   3.924  0.00  0.00    -0.075 A 
ATOM      5  S   UNL d   1       2.725  -1.677   4.862  0.00  0.00     0.015 SA
ATOM      6  C4  UNL d   1       1.835  -3.122   5.020  0.00  0.00     0.022 A 
ATOM      7  C5  UNL d   1       0.621  -3.052   4.378  0.00  0.00     0.026 A 
ATOM      8  C6  UNL d   1       0.401  -1.787   3.736  0.00  0.00    -0.082 A 
ATOM      9  C7  UNL d   1      -0.701  -1.315   2.982  0.00  0.00     0.045 A 
ENDROOT
TORSDOF 0
ENDMDL
