MODEL 1
REMARK minimizedAffinity -5.74299908
REMARK minimizedRMSD -1
REMARK  2 active torsions:
REMARK  status: ('A' for Active; 'I' for Inactive)
REMARK    1  A    between atoms: C1_2  and  C2_3 
REMARK    2  A    between atoms: C2_3  and  C3_4 
ROOT
ATOM      1  C3  UNL d   1      -0.187  -1.082   0.036  0.00  0.00    -0.075 A 
ATOM      2  C4  UNL d   1       0.496  -1.149  -1.188  0.00  0.00     0.002 A 
ATOM      3  C5  UNL d   1       0.609  -2.360  -1.870  0.00  0.00     0.002 A 
ATOM      4  C6  UNL d   1       0.052  -3.519  -1.335  0.00  0.00    -0.004 A 
ATOM      5  C7  UNL d   1      -0.614  -3.468  -0.113  0.00  0.00     0.002 A 
ATOM      6  C8  UNL d   1      -0.733  -2.256   0.570  0.00  0.00     0.002 A 
ENDROOT
BRANCH   1   7
ATOM      7  C2  UNL d   1      -0.339   0.232   0.765  0.00  0.00     0.056 C 
BRANCH   7   8
ATOM      8  C1  UNL d   1      -0.082   1.464  -0.109  0.00  0.00     0.007 C 
ATOM      9  C   UNL d   1       1.142   2.261   0.322  0.00  0.00     0.009 C 
ENDBRANCH   7   8
ENDBRANCH   1   7
TORSDOF 2
ENDMDL
