MODEL 1
REMARK minimizedAffinity -4.79027414
REMARK minimizedRMSD -1
REMARK  2 active torsions:
REMARK  status: ('A' for Active; 'I' for Inactive)
REMARK    1  A    between atoms: C1_2  and  C2_3 
REMARK    2  A    between atoms: C2_3  and  C3_4 
ROOT
ATOM      1  C3  UNL d   1       0.961   3.551   0.606  0.00  0.00    -0.075 A 
ATOM      2  C4  UNL d   1       2.233   4.143   0.583  0.00  0.00     0.002 A 
ATOM      3  C5  UNL d   1       2.475   5.328   1.280  0.00  0.00     0.002 A 
ATOM      4  C6  UNL d   1       1.450   5.939   1.998  0.00  0.00    -0.004 A 
ATOM      5  C7  UNL d   1       0.179   5.369   2.014  0.00  0.00     0.002 A 
ATOM      6  C8  UNL d   1      -0.065   4.182   1.322  0.00  0.00     0.002 A 
ENDROOT
BRANCH   1   7
ATOM      7  C2  UNL d   1       0.700   2.254  -0.121  0.00  0.00     0.056 C 
BRANCH   7   8
ATOM      8  C1  UNL d   1       0.337   1.085   0.800  0.00  0.00     0.007 C 
ATOM      9  C   UNL d   1       0.288  -0.255   0.078  0.00  0.00     0.009 C 
ENDBRANCH   7   8
ENDBRANCH   1   7
TORSDOF 2
ENDMDL
