MODEL 1
REMARK minimizedAffinity -6.14702034
REMARK minimizedRMSD -1
REMARK  2 active torsions:
REMARK  status: ('A' for Active; 'I' for Inactive)
REMARK    1  A    between atoms: C1_2  and  C2_3 
REMARK    2  A    between atoms: C2_3  and  C3_4 
ROOT
ATOM      1  C3  UNL d   1       0.050  -0.074  -0.198  0.00  0.00    -0.075 A 
ATOM      2  C4  UNL d   1      -0.886  -0.371   0.803  0.00  0.00     0.002 A 
ATOM      3  C5  UNL d   1      -0.971  -1.658   1.335  0.00  0.00     0.002 A 
ATOM      4  C6  UNL d   1      -0.129  -2.665   0.867  0.00  0.00    -0.004 A 
ATOM      5  C7  UNL d   1       0.794  -2.386  -0.138  0.00  0.00     0.002 A 
ATOM      6  C8  UNL d   1       0.883  -1.098  -0.669  0.00  0.00     0.002 A 
ENDROOT
BRANCH   1   7
ATOM      7  C2  UNL d   1       0.166   1.323  -0.757  0.00  0.00     0.056 C 
BRANCH   7   8
ATOM      8  C1  UNL d   1       0.396   2.403   0.306  0.00  0.00     0.007 C 
ATOM      9  C   UNL d   1       1.834   2.905   0.351  0.00  0.00     0.009 C 
ENDBRANCH   7   8
ENDBRANCH   1   7
TORSDOF 2
ENDMDL
