MODEL 1
REMARK minimizedAffinity -4.90312004
REMARK minimizedRMSD -1
REMARK  2 active torsions:
REMARK  status: ('A' for Active; 'I' for Inactive)
REMARK    1  A    between atoms: C1_2  and  C2_3 
REMARK    2  A    between atoms: C2_3  and  C3_4 
ROOT
ATOM      1  C3  UNL d   1       0.016   0.234  -0.005  0.00  0.00    -0.075 A 
ATOM      2  C4  UNL d   1      -0.606  -0.503   1.013  0.00  0.00     0.002 A 
ATOM      3  C5  UNL d   1      -0.650  -1.896   0.954  0.00  0.00     0.002 A 
ATOM      4  C6  UNL d   1      -0.084  -2.568  -0.127  0.00  0.00    -0.004 A 
ATOM      5  C7  UNL d   1       0.521  -1.846  -1.153  0.00  0.00     0.002 A 
ATOM      6  C8  UNL d   1       0.571  -0.452  -1.093  0.00  0.00     0.002 A 
ENDROOT
BRANCH   1   7
ATOM      7  C2  UNL d   1       0.093   1.740   0.068  0.00  0.00     0.056 C 
BRANCH   7   8
ATOM      8  C1  UNL d   1       1.523   2.291   0.099  0.00  0.00     0.007 C 
ATOM      9  C   UNL d   1       1.626   3.656   0.765  0.00  0.00     0.009 C 
ENDBRANCH   7   8
ENDBRANCH   1   7
TORSDOF 2
ENDMDL
