MODEL 1
REMARK minimizedAffinity -5.85622311
REMARK minimizedRMSD -1
REMARK  2 active torsions:
REMARK  status: ('A' for Active; 'I' for Inactive)
REMARK    1  A    between atoms: C1_2  and  C2_3 
REMARK    2  A    between atoms: C2_3  and  C3_4 
ROOT
ATOM      1  C3  UNL d   1       0.130   0.328  -0.058  0.00  0.00    -0.075 A 
ATOM      2  C4  UNL d   1       0.791  -0.831  -0.490  0.00  0.00     0.002 A 
ATOM      3  C5  UNL d   1       0.483  -2.072   0.068  0.00  0.00     0.002 A 
ATOM      4  C6  UNL d   1      -0.480  -2.169   1.070  0.00  0.00    -0.004 A 
ATOM      5  C7  UNL d   1      -1.131  -1.022   1.519  0.00  0.00     0.002 A 
ATOM      6  C8  UNL d   1      -0.828   0.221   0.959  0.00  0.00     0.002 A 
ENDROOT
BRANCH   1   7
ATOM      7  C2  UNL d   1       0.437   1.669  -0.679  0.00  0.00     0.056 C 
BRANCH   7   8
ATOM      8  C1  UNL d   1       1.777   2.269  -0.238  0.00  0.00     0.007 C 
ATOM      9  C   UNL d   1       1.633   3.623   0.444  0.00  0.00     0.009 C 
ENDBRANCH   7   8
ENDBRANCH   1   7
TORSDOF 2
ENDMDL
