MODEL 1
REMARK minimizedAffinity -6.01044798
REMARK minimizedRMSD -1
REMARK  2 active torsions:
REMARK  status: ('A' for Active; 'I' for Inactive)
REMARK    1  A    between atoms: C1_2  and  C2_3 
REMARK    2  A    between atoms: C2_3  and  C3_4 
ROOT
ATOM      1  C3  UNL d   1      -0.362   0.366  -0.071  0.00  0.00    -0.075 A 
ATOM      2  C4  UNL d   1       0.259  -0.778  -0.593  0.00  0.00     0.002 A 
ATOM      3  C5  UNL d   1       0.057  -2.025  -0.002  0.00  0.00     0.002 A 
ATOM      4  C6  UNL d   1      -0.757  -2.144   1.121  0.00  0.00    -0.004 A 
ATOM      5  C7  UNL d   1      -1.366  -1.011   1.659  0.00  0.00     0.002 A 
ATOM      6  C8  UNL d   1      -1.169   0.238   1.067  0.00  0.00     0.002 A 
ENDROOT
BRANCH   1   7
ATOM      7  C2  UNL d   1      -0.171   1.715  -0.723  0.00  0.00     0.056 C 
BRANCH   7   8
ATOM      8  C1  UNL d   1       0.236   2.826   0.250  0.00  0.00     0.007 C 
ATOM      9  C   UNL d   1       1.653   3.336   0.021  0.00  0.00     0.009 C 
ENDBRANCH   7   8
ENDBRANCH   1   7
TORSDOF 2
ENDMDL
