MODEL 1
REMARK minimizedAffinity -4.37325287
REMARK minimizedRMSD -1
REMARK  2 active torsions:
REMARK  status: ('A' for Active; 'I' for Inactive)
REMARK    1  A    between atoms: C1_2  and  C2_3 
REMARK    2  A    between atoms: C2_3  and  C3_4 
ROOT
ATOM      1  C3  UNL d   1      -0.137   0.050   0.164  0.00  0.00    -0.075 A 
ATOM      2  C4  UNL d   1       0.797  -0.805  -0.438  0.00  0.00     0.002 A 
ATOM      3  C5  UNL d   1       0.659  -2.189  -0.337  0.00  0.00     0.002 A 
ATOM      4  C6  UNL d   1      -0.407  -2.736   0.374  0.00  0.00    -0.004 A 
ATOM      5  C7  UNL d   1      -1.332  -1.896   0.991  0.00  0.00     0.002 A 
ATOM      6  C8  UNL d   1      -1.198  -0.510   0.888  0.00  0.00     0.002 A 
ENDROOT
BRANCH   1   7
ATOM      7  C2  UNL d   1      -0.009   1.549   0.034  0.00  0.00     0.056 C 
BRANCH   7   8
ATOM      8  C1  UNL d   1       1.425   2.068   0.180  0.00  0.00     0.007 C 
ATOM      9  C   UNL d   1       1.497   3.486   0.731  0.00  0.00     0.009 C 
ENDBRANCH   7   8
ENDBRANCH   1   7
TORSDOF 2
ENDMDL
