MODEL 1
REMARK minimizedAffinity -3.22903395
REMARK minimizedRMSD -1
REMARK  2 active torsions:
REMARK  status: ('A' for Active; 'I' for Inactive)
REMARK    1  A    between atoms: C1_2  and  C2_3 
REMARK    2  A    between atoms: C2_3  and  C3_4 
ROOT
ATOM      1  C3  UNL d   1      -0.144  -0.318  -0.198  0.00  0.00    -0.075 A 
ATOM      2  C4  UNL d   1       0.620  -1.276  -0.880  0.00  0.00     0.002 A 
ATOM      3  C5  UNL d   1       0.584  -2.616  -0.494  0.00  0.00     0.002 A 
ATOM      4  C6  UNL d   1      -0.205  -3.013   0.583  0.00  0.00    -0.004 A 
ATOM      5  C7  UNL d   1      -0.956  -2.067   1.278  0.00  0.00     0.002 A 
ATOM      6  C8  UNL d   1      -0.926  -0.727   0.891  0.00  0.00     0.002 A 
ENDROOT
BRANCH   1   7
ATOM      7  C2  UNL d   1      -0.133   1.129  -0.630  0.00  0.00     0.056 C 
BRANCH   7   8
ATOM      8  C1  UNL d   1       0.215   2.112   0.493  0.00  0.00     0.007 C 
ATOM      9  C   UNL d   1       1.539   2.831   0.271  0.00  0.00     0.009 C 
ENDBRANCH   7   8
ENDBRANCH   1   7
TORSDOF 2
ENDMDL
