MODEL 1
REMARK minimizedAffinity -4.36361742
REMARK minimizedRMSD -1
REMARK  2 active torsions:
REMARK  status: ('A' for Active; 'I' for Inactive)
REMARK    1  A    between atoms: C1_2  and  C2_3 
REMARK    2  A    between atoms: C2_3  and  C3_4 
ROOT
ATOM      1  C3  UNL d   1      -0.083  -0.408   0.364  0.00  0.00    -0.075 A 
ATOM      2  C4  UNL d   1       1.024  -0.845   1.107  0.00  0.00     0.002 A 
ATOM      3  C5  UNL d   1       1.045  -2.125   1.660  0.00  0.00     0.002 A 
ATOM      4  C6  UNL d   1      -0.041  -2.980   1.487  0.00  0.00    -0.004 A 
ATOM      5  C7  UNL d   1      -1.153  -2.551   0.765  0.00  0.00     0.002 A 
ATOM      6  C8  UNL d   1      -1.175  -1.272   0.207  0.00  0.00     0.002 A 
ENDROOT
BRANCH   1   7
ATOM      7  C2  UNL d   1      -0.100   0.966  -0.262  0.00  0.00     0.056 C 
BRANCH   7   8
ATOM      8  C1  UNL d   1      -0.353   0.960  -1.773  0.00  0.00     0.007 C 
ATOM      9  C   UNL d   1       0.442  -0.110  -2.511  0.00  0.00     0.009 C 
ENDBRANCH   7   8
ENDBRANCH   1   7
TORSDOF 2
ENDMDL
