MODEL 1
REMARK minimizedAffinity 5.11595201
REMARK minimizedRMSD -1
REMARK  0 active torsions:
REMARK  status: ('A' for Active; 'I' for Inactive)
ROOT
ATOM      1  C2' OXE d   1       4.174  -3.006   4.000  0.00  0.00     0.078 C 
ATOM      2  C1' OXE d   1       1.978  -4.622   4.665  0.00  0.00     0.078 C 
ATOM      3  C1  OXE d   1       1.710  -3.355   3.892  0.00  0.00    -0.078 A 
ATOM      4  C2  OXE d   1       2.786  -2.547   3.612  0.00  0.00    -0.078 A 
ATOM      5  C3  OXE d   1       2.602  -1.393   2.854  0.00  0.00     0.003 A 
ATOM      6  C4  OXE d   1       1.313  -0.970   2.508  0.00  0.00    -0.002 A 
ATOM      7  C5  OXE d   1       0.200  -1.759   2.818  0.00  0.00    -0.002 A 
ATOM      8  C6  OXE d   1       0.385  -2.972   3.471  0.00  0.00     0.003 A 
ENDROOT
TORSDOF 0
ENDMDL
