MODEL 1
REMARK minimizedAffinity 1.70190537
REMARK minimizedRMSD -1
REMARK  0 active torsions:
REMARK  status: ('A' for Active; 'I' for Inactive)
ROOT
ATOM      1  C2' OXE d   1       0.812  -2.583   4.303  0.00  0.00     0.078 C 
ATOM      2  C1' OXE d   1       1.516   0.073   4.878  0.00  0.00     0.078 C 
ATOM      3  C1  OXE d   1       1.321  -0.306   3.431  0.00  0.00    -0.078 A 
ATOM      4  C2  OXE d   1       1.023  -1.619   3.156  0.00  0.00    -0.078 A 
ATOM      5  C3  OXE d   1       0.779  -2.010   1.842  0.00  0.00     0.003 A 
ATOM      6  C4  OXE d   1       0.986  -1.114   0.787  0.00  0.00    -0.002 A 
ATOM      7  C5  OXE d   1       1.329   0.218   1.042  0.00  0.00    -0.002 A 
ATOM      8  C6  OXE d   1       1.458   0.648   2.358  0.00  0.00     0.003 A 
ENDROOT
TORSDOF 0
ENDMDL
