MODEL 1
REMARK minimizedAffinity 0.300447494
REMARK minimizedRMSD -1
REMARK  0 active torsions:
REMARK  status: ('A' for Active; 'I' for Inactive)
ROOT
ATOM      1  C2' OXE d   1      -6.000  -0.216  -1.415  0.00  0.00     0.078 C 
ATOM      2  C1' OXE d   1      -4.252   1.756  -2.382  0.00  0.00     0.078 C 
ATOM      3  C1  OXE d   1      -4.617   1.796  -0.919  0.00  0.00    -0.078 A 
ATOM      4  C2  OXE d   1      -5.510   0.855  -0.465  0.00  0.00    -0.078 A 
ATOM      5  C3  OXE d   1      -5.838   0.813   0.887  0.00  0.00     0.003 A 
ATOM      6  C4  OXE d   1      -5.388   1.814   1.757  0.00  0.00    -0.002 A 
ATOM      7  C5  OXE d   1      -4.510   2.805   1.306  0.00  0.00    -0.002 A 
ATOM      8  C6  OXE d   1      -4.082   2.785  -0.017  0.00  0.00     0.003 A 
ENDROOT
TORSDOF 0
ENDMDL
