MODEL 1
REMARK minimizedAffinity 7.42322636
REMARK minimizedRMSD -1
REMARK  0 active torsions:
REMARK  status: ('A' for Active; 'I' for Inactive)
ROOT
ATOM      1  C2' OXE d   1       0.019  -1.800   0.378  0.00  0.00     0.078 C 
ATOM      2  C1' OXE d   1       0.092  -3.728  -1.661  0.00  0.00     0.078 C 
ATOM      3  C1  OXE d   1       1.280  -2.810  -1.517  0.00  0.00    -0.078 A 
ATOM      4  C2  OXE d   1       1.216  -1.839  -0.547  0.00  0.00    -0.078 A 
ATOM      5  C3  OXE d   1       2.308  -1.002  -0.336  0.00  0.00     0.003 A 
ATOM      6  C4  OXE d   1       3.407  -1.038  -1.203  0.00  0.00    -0.002 A 
ATOM      7  C5  OXE d   1       3.475  -1.993  -2.223  0.00  0.00    -0.002 A 
ATOM      8  C6  OXE d   1       2.442  -2.912  -2.366  0.00  0.00     0.003 A 
ENDROOT
TORSDOF 0
ENDMDL
