MODEL 1
REMARK minimizedAffinity 1.10106432
REMARK minimizedRMSD -1
REMARK  0 active torsions:
REMARK  status: ('A' for Active; 'I' for Inactive)
ROOT
ATOM      1  C2' OXE d   1       0.437  -1.068   1.136  0.00  0.00     0.078 C 
ATOM      2  C1' OXE d   1       0.917  -3.564  -0.057  0.00  0.00     0.078 C 
ATOM      3  C1  OXE d   1       1.314  -3.386   1.387  0.00  0.00    -0.078 A 
ATOM      4  C2  OXE d   1       1.119  -2.148   1.949  0.00  0.00    -0.078 A 
ATOM      5  C3  OXE d   1       1.417  -1.946   3.294  0.00  0.00     0.003 A 
ATOM      6  C4  OXE d   1       2.056  -2.946   4.036  0.00  0.00    -0.002 A 
ATOM      7  C5  OXE d   1       2.301  -4.202   3.471  0.00  0.00    -0.002 A 
ATOM      8  C6  OXE d   1       1.898  -4.452   2.164  0.00  0.00     0.003 A 
ENDROOT
TORSDOF 0
ENDMDL
