MODEL 1
REMARK minimizedAffinity 1.84368336
REMARK minimizedRMSD -1
REMARK  0 active torsions:
REMARK  status: ('A' for Active; 'I' for Inactive)
ROOT
ATOM      1  C2' OXE d   1      -3.369   3.379   1.904  0.00  0.00     0.078 C 
ATOM      2  C1' OXE d   1      -5.001   4.686   0.030  0.00  0.00     0.078 C 
ATOM      3  C1  OXE d   1      -5.092   3.183   0.116  0.00  0.00    -0.078 A 
ATOM      4  C2  OXE d   1      -4.256   2.548   1.003  0.00  0.00    -0.078 A 
ATOM      5  C3  OXE d   1      -4.338   1.167   1.160  0.00  0.00     0.003 A 
ATOM      6  C4  OXE d   1      -5.154   0.405   0.315  0.00  0.00    -0.002 A 
ATOM      7  C5  OXE d   1      -5.985   1.028  -0.622  0.00  0.00    -0.002 A 
ATOM      8  C6  OXE d   1      -5.997   2.416  -0.705  0.00  0.00     0.003 A 
ENDROOT
TORSDOF 0
ENDMDL
