MODEL 1
REMARK minimizedAffinity 4.95792341
REMARK minimizedRMSD -1
REMARK  0 active torsions:
REMARK  status: ('A' for Active; 'I' for Inactive)
ROOT
ATOM      1  C2' OXE d   1      -6.000   4.888   0.107  0.00  0.00     0.078 C 
ATOM      2  C1' OXE d   1      -5.678   3.631   2.597  0.00  0.00     0.078 C 
ATOM      3  C1  OXE d   1      -5.764   2.755   1.372  0.00  0.00    -0.078 A 
ATOM      4  C2  OXE d   1      -5.968   3.376   0.164  0.00  0.00    -0.078 A 
ATOM      5  C3  OXE d   1      -6.000   2.618  -1.004  0.00  0.00     0.003 A 
ATOM      6  C4  OXE d   1      -5.980   1.220  -0.942  0.00  0.00    -0.002 A 
ATOM      7  C5  OXE d   1      -5.812   0.565   0.283  0.00  0.00    -0.002 A 
ATOM      8  C6  OXE d   1      -5.660   1.318   1.442  0.00  0.00     0.003 A 
ENDROOT
TORSDOF 0
ENDMDL
