MODEL 1
REMARK minimizedAffinity 0.911779642
REMARK minimizedRMSD -1
REMARK  0 active torsions:
REMARK  status: ('A' for Active; 'I' for Inactive)
ROOT
ATOM      1  C2' OXE d   1      -6.000   3.007  -2.459  0.00  0.00     0.078 C 
ATOM      2  C1' OXE d   1      -5.980   5.043  -0.527  0.00  0.00     0.078 C 
ATOM      3  C1  OXE d   1      -5.943   3.615  -0.044  0.00  0.00    -0.078 A 
ATOM      4  C2  OXE d   1      -6.000   2.624  -0.995  0.00  0.00    -0.078 A 
ATOM      5  C3  OXE d   1      -5.914   1.290  -0.607  0.00  0.00     0.003 A 
ATOM      6  C4  OXE d   1      -5.924   0.944   0.750  0.00  0.00    -0.002 A 
ATOM      7  C5  OXE d   1      -5.906   1.937   1.736  0.00  0.00    -0.002 A 
ATOM      8  C6  OXE d   1      -5.872   3.274   1.356  0.00  0.00     0.003 A 
ENDROOT
TORSDOF 0
ENDMDL
