MODEL 1
REMARK minimizedAffinity 1.52020442
REMARK minimizedRMSD -1
REMARK  0 active torsions:
REMARK  status: ('A' for Active; 'I' for Inactive)
ROOT
ATOM      1  C2' OXE d   1      -5.997   0.130  -1.200  0.00  0.00     0.078 C 
ATOM      2  C1' OXE d   1      -6.000   2.585  -2.561  0.00  0.00     0.078 C 
ATOM      3  C1  OXE d   1      -5.828   2.611  -1.063  0.00  0.00    -0.078 A 
ATOM      4  C2  OXE d   1      -5.874   1.409  -0.400  0.00  0.00    -0.078 A 
ATOM      5  C3  OXE d   1      -5.666   1.371   0.976  0.00  0.00     0.003 A 
ATOM      6  C4  OXE d   1      -5.563   2.559   1.709  0.00  0.00    -0.002 A 
ATOM      7  C5  OXE d   1      -5.554   3.797   1.058  0.00  0.00    -0.002 A 
ATOM      8  C6  OXE d   1      -5.642   3.838  -0.329  0.00  0.00     0.003 A 
ENDROOT
TORSDOF 0
ENDMDL
