MODEL 1
REMARK minimizedAffinity 5.93234921
REMARK minimizedRMSD -1
REMARK  0 active torsions:
REMARK  status: ('A' for Active; 'I' for Inactive)
ROOT
ATOM      1  C2' OXE d   1      -5.999  -2.830  -2.439  0.00  0.00     0.078 C 
ATOM      2  C1' OXE d   1      -5.370  -1.740  -4.948  0.00  0.00     0.078 C 
ATOM      3  C1  OXE d   1      -5.528  -3.237  -4.851  0.00  0.00    -0.078 A 
ATOM      4  C2  OXE d   1      -5.790  -3.765  -3.610  0.00  0.00    -0.078 A 
ATOM      5  C3  OXE d   1      -5.999  -5.135  -3.474  0.00  0.00     0.003 A 
ATOM      6  C4  OXE d   1      -5.794  -5.994  -4.560  0.00  0.00    -0.002 A 
ATOM      7  C5  OXE d   1      -5.488  -5.480  -5.825  0.00  0.00    -0.002 A 
ATOM      8  C6  OXE d   1      -5.394  -4.103  -5.996  0.00  0.00     0.003 A 
ENDROOT
TORSDOF 0
ENDMDL
