MODEL 1
REMARK minimizedAffinity -1.01813459
REMARK minimizedRMSD -1
REMARK  0 active torsions:
REMARK  status: ('A' for Active; 'I' for Inactive)
ROOT
ATOM      1  C2' OXE d   1      -3.378   2.394  -2.516  0.00  0.00     0.078 C 
ATOM      2  C1' OXE d   1      -5.999   3.399  -2.478  0.00  0.00     0.078 C 
ATOM      3  C1  OXE d   1      -5.311   3.178  -1.154  0.00  0.00    -0.078 A 
ATOM      4  C2  OXE d   1      -4.046   2.642  -1.181  0.00  0.00    -0.078 A 
ATOM      5  C3  OXE d   1      -3.345   2.469   0.010  0.00  0.00     0.003 A 
ATOM      6  C4  OXE d   1      -3.974   2.692   1.241  0.00  0.00    -0.002 A 
ATOM      7  C5  OXE d   1      -5.276   3.200   1.292  0.00  0.00    -0.002 A 
ATOM      8  C6  OXE d   1      -5.942   3.488   0.105  0.00  0.00     0.003 A 
ENDROOT
TORSDOF 0
ENDMDL
