MODEL 1
REMARK minimizedAffinity 2.27151394
REMARK minimizedRMSD -1
REMARK  0 active torsions:
REMARK  status: ('A' for Active; 'I' for Inactive)
ROOT
ATOM      1  C2' OXE d   1      -4.841   4.426   2.232  0.00  0.00     0.078 C 
ATOM      2  C1' OXE d   1      -2.440   3.368   1.235  0.00  0.00     0.078 C 
ATOM      3  C1  OXE d   1      -3.668   3.266   0.365  0.00  0.00    -0.078 A 
ATOM      4  C2  OXE d   1      -4.848   3.744   0.880  0.00  0.00    -0.078 A 
ATOM      5  C3  OXE d   1      -6.000   3.725   0.098  0.00  0.00     0.003 A 
ATOM      6  C4  OXE d   1      -6.000   3.084  -1.147  0.00  0.00    -0.002 A 
ATOM      7  C5  OXE d   1      -4.817   2.554  -1.673  0.00  0.00    -0.002 A 
ATOM      8  C6  OXE d   1      -3.635   2.675  -0.950  0.00  0.00     0.003 A 
ENDROOT
TORSDOF 0
ENDMDL
