MODEL 1
REMARK minimizedAffinity 18.2531548
REMARK minimizedRMSD -1
REMARK  1 active torsions:
REMARK  status: ('A' for Active; 'I' for Inactive)
REMARK    1  A    between atoms: C1_2  and  C2_3 
ROOT
ATOM      1  C2  UNL d   1       3.978  -1.699  -0.942  0.00  0.00    -0.073 A 
ATOM      2  C3  UNL d   1       4.994  -1.170  -1.745  0.00  0.00    -0.002 A 
ATOM      3  C4  UNL d   1       5.998  -1.998  -2.249  0.00  0.00     0.004 A 
ATOM      4  C5  UNL d   1       5.993  -3.363  -1.961  0.00  0.00    -0.004 A 
ATOM      5  C6  UNL d   1       4.979  -3.913  -1.170  0.00  0.00    -0.075 A 
ATOM      6  C7  UNL d   1       4.959  -5.379  -0.850  0.00  0.00     0.076 C 
ATOM      7  C8  UNL d   1       3.975  -3.074  -0.666  0.00  0.00     0.001 A 
ENDROOT
BRANCH   1   8
ATOM      8  C1  UNL d   1       2.888  -0.810  -0.402  0.00  0.00     0.053 C 
ATOM      9  C   UNL d   1       2.187  -0.033  -1.504  0.00  0.00     0.018 C 
ENDBRANCH   1   8
TORSDOF 1
ENDMDL
