MODEL 1
REMARK minimizedAffinity 9.21492481
REMARK minimizedRMSD -1
REMARK  1 active torsions:
REMARK  status: ('A' for Active; 'I' for Inactive)
REMARK    1  A    between atoms: C1_2  and  C2_3 
ROOT
ATOM      1  C2  UNL d   1       2.225  -1.282  -0.342  0.00  0.00    -0.073 A 
ATOM      2  C3  UNL d   1       1.959  -2.257   0.626  0.00  0.00    -0.002 A 
ATOM      3  C4  UNL d   1       2.955  -3.155   1.014  0.00  0.00     0.004 A 
ATOM      4  C5  UNL d   1       4.226  -3.081   0.446  0.00  0.00    -0.004 A 
ATOM      5  C6  UNL d   1       4.515  -2.106  -0.513  0.00  0.00    -0.075 A 
ATOM      6  C7  UNL d   1       5.878  -2.015  -1.135  0.00  0.00     0.076 C 
ATOM      7  C8  UNL d   1       3.509  -1.210  -0.900  0.00  0.00     0.001 A 
ENDROOT
BRANCH   1   8
ATOM      8  C1  UNL d   1       1.155  -0.306  -0.760  0.00  0.00     0.053 C 
ATOM      9  C   UNL d   1       0.042  -0.983  -1.543  0.00  0.00     0.018 C 
ENDBRANCH   1   8
TORSDOF 1
ENDMDL
