MODEL 1
REMARK minimizedAffinity 14.1365538
REMARK minimizedRMSD -1
REMARK  1 active torsions:
REMARK  status: ('A' for Active; 'I' for Inactive)
REMARK    1  A    between atoms: C1_2  and  C2_3 
ROOT
ATOM      1  C2  UNL d   1       1.941   4.605   1.123  0.00  0.00    -0.073 A 
ATOM      2  C3  UNL d   1       1.496   5.708   0.386  0.00  0.00    -0.002 A 
ATOM      3  C4  UNL d   1       0.294   5.646  -0.319  0.00  0.00     0.004 A 
ATOM      4  C5  UNL d   1      -0.478   4.485  -0.291  0.00  0.00    -0.004 A 
ATOM      5  C6  UNL d   1      -0.056   3.375   0.449  0.00  0.00    -0.075 A 
ATOM      6  C7  UNL d   1      -0.874   2.118   0.489  0.00  0.00     0.076 C 
ATOM      7  C8  UNL d   1       1.154   3.445   1.153  0.00  0.00     0.001 A 
ENDROOT
BRANCH   1   8
ATOM      8  C1  UNL d   1       3.235   4.669   1.892  0.00  0.00     0.053 C 
ATOM      9  C   UNL d   1       3.407   6.000   2.608  0.00  0.00     0.018 C 
ENDBRANCH   1   8
TORSDOF 1
ENDMDL
