MODEL 1
REMARK minimizedAffinity 16.4556713
REMARK minimizedRMSD -1
REMARK  1 active torsions:
REMARK  status: ('A' for Active; 'I' for Inactive)
REMARK    1  A    between atoms: C1_2  and  C2_3 
ROOT
ATOM      1  C2  UNL d   1       2.616   0.466   4.051  0.00  0.00    -0.073 A 
ATOM      2  C3  UNL d   1       1.512   0.501   4.910  0.00  0.00    -0.002 A 
ATOM      3  C4  UNL d   1       0.736  -0.642   5.109  0.00  0.00     0.004 A 
ATOM      4  C5  UNL d   1       1.059  -1.832   4.457  0.00  0.00    -0.004 A 
ATOM      5  C6  UNL d   1       2.166  -1.890   3.604  0.00  0.00    -0.075 A 
ATOM      6  C7  UNL d   1       2.526  -3.162   2.894  0.00  0.00     0.076 C 
ATOM      7  C8  UNL d   1       2.939  -0.738   3.408  0.00  0.00     0.001 A 
ENDROOT
BRANCH   1   8
ATOM      8  C1  UNL d   1       3.461   1.695   3.838  0.00  0.00     0.053 C 
ATOM      9  C   UNL d   1       4.035   2.224   5.143  0.00  0.00     0.018 C 
ENDBRANCH   1   8
TORSDOF 1
ENDMDL
