MODEL 1
REMARK minimizedAffinity 7.27854729
REMARK minimizedRMSD -1
REMARK  1 active torsions:
REMARK  status: ('A' for Active; 'I' for Inactive)
REMARK    1  A    between atoms: C1_2  and  C2_3 
ROOT
ATOM      1  C2  UNL d   1       5.111  -3.305  -1.687  0.00  0.00    -0.073 A 
ATOM      2  C3  UNL d   1       4.528  -4.409  -1.054  0.00  0.00    -0.002 A 
ATOM      3  C4  UNL d   1       4.386  -5.618  -1.735  0.00  0.00     0.004 A 
ATOM      4  C5  UNL d   1       4.830  -5.739  -3.052  0.00  0.00    -0.004 A 
ATOM      5  C6  UNL d   1       5.426  -4.652  -3.698  0.00  0.00    -0.075 A 
ATOM      6  C7  UNL d   1       5.907  -4.765  -5.115  0.00  0.00     0.076 C 
ATOM      7  C8  UNL d   1       5.563  -3.439  -3.008  0.00  0.00     0.001 A 
ENDROOT
BRANCH   1   8
ATOM      8  C1  UNL d   1       5.273  -1.999  -0.954  0.00  0.00     0.053 C 
ATOM      9  C   UNL d   1       3.936  -1.416  -0.526  0.00  0.00     0.018 C 
ENDBRANCH   1   8
TORSDOF 1
ENDMDL
