MODEL 1
REMARK minimizedAffinity 16.1856194
REMARK minimizedRMSD -1
REMARK  1 active torsions:
REMARK  status: ('A' for Active; 'I' for Inactive)
REMARK    1  A    between atoms: C1_2  and  C2_3 
ROOT
ATOM      1  C2  UNL d   1      -3.369  -0.108   3.747  0.00  0.00    -0.073 A 
ATOM      2  C3  UNL d   1      -3.426   1.224   3.321  0.00  0.00    -0.002 A 
ATOM      3  C4  UNL d   1      -2.272   2.009   3.306  0.00  0.00     0.004 A 
ATOM      4  C5  UNL d   1      -1.051   1.470   3.711  0.00  0.00    -0.004 A 
ATOM      5  C6  UNL d   1      -0.972   0.138   4.130  0.00  0.00    -0.075 A 
ATOM      6  C7  UNL d   1       0.334  -0.456   4.570  0.00  0.00     0.076 C 
ATOM      7  C8  UNL d   1      -2.135  -0.643   4.144  0.00  0.00     0.001 A 
ENDROOT
BRANCH   1   8
ATOM      8  C1  UNL d   1      -4.610  -0.962   3.758  0.00  0.00     0.053 C 
ATOM      9  C   UNL d   1      -5.855  -0.153   4.087  0.00  0.00     0.018 C 
ENDBRANCH   1   8
TORSDOF 1
ENDMDL
