MODEL 1
REMARK minimizedAffinity 7.81762648
REMARK minimizedRMSD -1
REMARK  1 active torsions:
REMARK  status: ('A' for Active; 'I' for Inactive)
REMARK    1  A    between atoms: C1_2  and  C2_3 
ROOT
ATOM      1  C2  UNL d   1       0.473   3.115   1.450  0.00  0.00    -0.073 A 
ATOM      2  C3  UNL d   1      -0.193   3.357   0.243  0.00  0.00    -0.002 A 
ATOM      3  C4  UNL d   1       0.176   4.436  -0.561  0.00  0.00     0.004 A 
ATOM      4  C5  UNL d   1       1.218   5.278  -0.172  0.00  0.00    -0.004 A 
ATOM      5  C6  UNL d   1       1.903   5.045   1.025  0.00  0.00    -0.075 A 
ATOM      6  C7  UNL d   1       3.024   5.943   1.459  0.00  0.00     0.076 C 
ATOM      7  C8  UNL d   1       1.525   3.961   1.828  0.00  0.00     0.001 A 
ENDROOT
BRANCH   1   8
ATOM      8  C1  UNL d   1       0.083   1.947   2.318  0.00  0.00     0.053 C 
ATOM      9  C   UNL d   1       1.247   1.446   3.158  0.00  0.00     0.018 C 
ENDBRANCH   1   8
TORSDOF 1
ENDMDL
