MODEL 1
REMARK minimizedAffinity 19.6979332
REMARK minimizedRMSD -1
REMARK  1 active torsions:
REMARK  status: ('A' for Active; 'I' for Inactive)
REMARK    1  A    between atoms: C1_2  and  C2_3 
ROOT
ATOM      1  C2  UNL d   1      -0.692   4.687   0.064  0.00  0.00    -0.073 A 
ATOM      2  C3  UNL d   1       0.634   4.282  -0.133  0.00  0.00    -0.002 A 
ATOM      3  C4  UNL d   1       1.183   3.264   0.647  0.00  0.00     0.004 A 
ATOM      4  C5  UNL d   1       0.413   2.637   1.627  0.00  0.00    -0.004 A 
ATOM      5  C6  UNL d   1      -0.916   3.019   1.831  0.00  0.00    -0.075 A 
ATOM      6  C7  UNL d   1      -1.757   2.356   2.881  0.00  0.00     0.076 C 
ATOM      7  C8  UNL d   1      -1.461   4.044   1.044  0.00  0.00     0.001 A 
ENDROOT
BRANCH   1   8
ATOM      8  C1  UNL d   1      -1.291   5.780  -0.781  0.00  0.00     0.053 C 
ATOM      9  C   UNL d   1      -2.343   5.247  -1.741  0.00  0.00     0.018 C 
ENDBRANCH   1   8
TORSDOF 1
ENDMDL
