MODEL 1
REMARK minimizedAffinity -2.80247021
REMARK minimizedRMSD -1
REMARK  1 active torsions:
REMARK  status: ('A' for Active; 'I' for Inactive)
REMARK    1  A    between atoms: C1_2  and  C2_3 
ROOT
ATOM      1  C2  UNL d   1       3.911   0.821   0.798  0.00  0.00    -0.076 A 
ATOM      2  C3  UNL d   1       3.307   0.733  -0.468  0.00  0.00     0.004 A 
ATOM      3  C4  UNL d   1       4.030   1.000  -1.629  0.00  0.00    -0.003 A 
ATOM      4  C5  UNL d   1       5.371   1.360  -1.543  0.00  0.00     0.000 A 
ATOM      5  C6  UNL d   1       5.991   1.435  -0.296  0.00  0.00     0.000 A 
ATOM      6  C7  UNL d   1       5.280   1.152   0.883  0.00  0.00    -0.073 A 
ATOM      7  C8  UNL d   1       5.997   1.255   2.201  0.00  0.00     0.078 C 
ENDROOT
BRANCH   1   8
ATOM      8  C1  UNL d   1       3.069   0.545   2.023  0.00  0.00     0.053 C 
ATOM      9  C   UNL d   1       1.951   1.561   2.202  0.00  0.00     0.018 C 
ENDBRANCH   1   8
TORSDOF 1
ENDMDL
