MODEL 1
REMARK minimizedAffinity 2.35512686
REMARK minimizedRMSD -1
REMARK  1 active torsions:
REMARK  status: ('A' for Active; 'I' for Inactive)
REMARK    1  A    between atoms: C1_2  and  C2_3 
ROOT
ATOM      1  C2  UNL d   1       3.259   1.131  -0.603  0.00  0.00    -0.076 A 
ATOM      2  C3  UNL d   1       4.200   0.089  -0.664  0.00  0.00     0.004 A 
ATOM      3  C4  UNL d   1       4.624  -0.564   0.492  0.00  0.00    -0.003 A 
ATOM      4  C5  UNL d   1       4.112  -0.186   1.729  0.00  0.00     0.000 A 
ATOM      5  C6  UNL d   1       3.164   0.833   1.806  0.00  0.00     0.000 A 
ATOM      6  C7  UNL d   1       2.714   1.491   0.649  0.00  0.00    -0.073 A 
ATOM      7  C8  UNL d   1       1.695   2.587   0.791  0.00  0.00     0.078 C 
ENDROOT
BRANCH   1   8
ATOM      8  C1  UNL d   1       2.857   1.820  -1.887  0.00  0.00     0.053 C 
ATOM      9  C   UNL d   1       4.001   1.904  -2.886  0.00  0.00     0.018 C 
ENDBRANCH   1   8
TORSDOF 1
ENDMDL
