MODEL 1
REMARK minimizedAffinity 11.3246078
REMARK minimizedRMSD -1
REMARK  1 active torsions:
REMARK  status: ('A' for Active; 'I' for Inactive)
REMARK    1  A    between atoms: C1_2  and  C2_3 
ROOT
ATOM      1  C2  UNL d   1      -3.805  -3.301  -2.671  0.00  0.00    -0.076 A 
ATOM      2  C3  UNL d   1      -3.851  -3.130  -1.276  0.00  0.00     0.004 A 
ATOM      3  C4  UNL d   1      -2.721  -2.734  -0.564  0.00  0.00    -0.003 A 
ATOM      4  C5  UNL d   1      -1.525  -2.501  -1.235  0.00  0.00     0.000 A 
ATOM      5  C6  UNL d   1      -1.466  -2.647  -2.621  0.00  0.00     0.000 A 
ATOM      6  C7  UNL d   1      -2.601  -3.031  -3.356  0.00  0.00    -0.073 A 
ATOM      7  C8  UNL d   1      -2.478  -3.180  -4.847  0.00  0.00     0.078 C 
ENDROOT
BRANCH   1   8
ATOM      8  C1  UNL d   1      -5.056  -3.759  -3.387  0.00  0.00     0.053 C 
ATOM      9  C   UNL d   1      -5.955  -4.609  -2.502  0.00  0.00     0.018 C 
ENDBRANCH   1   8
TORSDOF 1
ENDMDL
