MODEL 1
REMARK minimizedAffinity 5.52368116
REMARK minimizedRMSD -1
REMARK  1 active torsions:
REMARK  status: ('A' for Active; 'I' for Inactive)
REMARK    1  A    between atoms: C1_2  and  C2_3 
ROOT
ATOM      1  C2  UNL d   1       3.607   0.776  -0.090  0.00  0.00    -0.076 A 
ATOM      2  C3  UNL d   1       2.295   1.255   0.071  0.00  0.00     0.004 A 
ATOM      3  C4  UNL d   1       1.458   0.736   1.057  0.00  0.00    -0.003 A 
ATOM      4  C5  UNL d   1       1.919  -0.270   1.899  0.00  0.00     0.000 A 
ATOM      5  C6  UNL d   1       3.223  -0.744   1.765  0.00  0.00     0.000 A 
ATOM      6  C7  UNL d   1       4.086  -0.221   0.787  0.00  0.00    -0.073 A 
ATOM      7  C8  UNL d   1       5.481  -0.774   0.683  0.00  0.00     0.078 C 
ENDROOT
BRANCH   1   8
ATOM      8  C1  UNL d   1       4.460   1.358  -1.194  0.00  0.00     0.053 C 
ATOM      9  C   UNL d   1       3.713   1.458  -2.516  0.00  0.00     0.018 C 
ENDBRANCH   1   8
TORSDOF 1
ENDMDL
