MODEL 1
REMARK minimizedAffinity 3.55289626
REMARK minimizedRMSD -1
REMARK  1 active torsions:
REMARK  status: ('A' for Active; 'I' for Inactive)
REMARK    1  A    between atoms: C1_2  and  C2_3 
ROOT
ATOM      1  C2  UNL d   1       3.674   1.206  -1.883  0.00  0.00    -0.076 A 
ATOM      2  C3  UNL d   1       4.329   0.353  -0.979  0.00  0.00     0.004 A 
ATOM      3  C4  UNL d   1       3.752   0.027   0.247  0.00  0.00    -0.003 A 
ATOM      4  C5  UNL d   1       2.509   0.548   0.589  0.00  0.00     0.000 A 
ATOM      5  C6  UNL d   1       1.836   1.382  -0.304  0.00  0.00     0.000 A 
ATOM      6  C7  UNL d   1       2.397   1.707  -1.551  0.00  0.00    -0.073 A 
ATOM      7  C8  UNL d   1       1.630   2.616  -2.472  0.00  0.00     0.078 C 
ENDROOT
BRANCH   1   8
ATOM      8  C1  UNL d   1       4.361   1.546  -3.186  0.00  0.00     0.053 C 
ATOM      9  C   UNL d   1       4.210   0.449  -4.228  0.00  0.00     0.018 C 
ENDBRANCH   1   8
TORSDOF 1
ENDMDL
