MODEL 1
REMARK minimizedAffinity 15.0168686
REMARK minimizedRMSD -1
REMARK  1 active torsions:
REMARK  status: ('A' for Active; 'I' for Inactive)
REMARK    1  A    between atoms: C1_2  and  C2_3 
ROOT
ATOM      1  C2  UNL d   1      -1.403  -2.501  -1.267  0.00  0.00    -0.076 A 
ATOM      2  C3  UNL d   1      -1.452  -2.137  -2.624  0.00  0.00     0.004 A 
ATOM      3  C4  UNL d   1      -2.572  -2.421  -3.403  0.00  0.00    -0.003 A 
ATOM      4  C5  UNL d   1      -3.663  -3.072  -2.838  0.00  0.00     0.000 A 
ATOM      5  C6  UNL d   1      -3.639  -3.425  -1.489  0.00  0.00     0.000 A 
ATOM      6  C7  UNL d   1      -2.524  -3.132  -0.685  0.00  0.00    -0.073 A 
ATOM      7  C8  UNL d   1      -2.550  -3.540   0.762  0.00  0.00     0.078 C 
ENDROOT
BRANCH   1   8
ATOM      8  C1  UNL d   1      -0.151  -2.192  -0.478  0.00  0.00     0.053 C 
ATOM      9  C   UNL d   1       0.954  -3.210  -0.717  0.00  0.00     0.018 C 
ENDBRANCH   1   8
TORSDOF 1
ENDMDL
