MODEL 1
REMARK minimizedAffinity 3.23585439
REMARK minimizedRMSD -1
REMARK  1 active torsions:
REMARK  status: ('A' for Active; 'I' for Inactive)
REMARK    1  A    between atoms: C1_2  and  C2_3 
ROOT
ATOM      1  C2  UNL d   1       4.234   1.979   1.128  0.00  0.00    -0.076 A 
ATOM      2  C3  UNL d   1       5.570   1.741   1.497  0.00  0.00     0.004 A 
ATOM      3  C4  UNL d   1       5.994   0.468   1.875  0.00  0.00    -0.003 A 
ATOM      4  C5  UNL d   1       5.089  -0.587   1.891  0.00  0.00     0.000 A 
ATOM      5  C6  UNL d   1       3.764  -0.373   1.511  0.00  0.00     0.000 A 
ATOM      6  C7  UNL d   1       3.324   0.900   1.111  0.00  0.00    -0.073 A 
ATOM      7  C8  UNL d   1       1.883   1.076   0.718  0.00  0.00     0.078 C 
ENDROOT
BRANCH   1   8
ATOM      8  C1  UNL d   1       3.826   3.386   0.753  0.00  0.00     0.053 C 
ATOM      9  C   UNL d   1       4.876   4.418   1.133  0.00  0.00     0.018 C 
ENDBRANCH   1   8
TORSDOF 1
ENDMDL
