MODEL 1
REMARK minimizedAffinity 16.6768551
REMARK minimizedRMSD -1
REMARK  1 active torsions:
REMARK  status: ('A' for Active; 'I' for Inactive)
REMARK    1  A    between atoms: C1_2  and  C2_3 
ROOT
ATOM      1  C2  UNL d   1      -2.268  -3.414   0.041  0.00  0.00    -0.076 A 
ATOM      2  C3  UNL d   1      -2.999  -4.612  -0.040  0.00  0.00     0.004 A 
ATOM      3  C4  UNL d   1      -2.933  -5.562   0.977  0.00  0.00    -0.003 A 
ATOM      4  C5  UNL d   1      -2.136  -5.330   2.093  0.00  0.00     0.000 A 
ATOM      5  C6  UNL d   1      -1.418  -4.139   2.198  0.00  0.00     0.000 A 
ATOM      6  C7  UNL d   1      -1.486  -3.163   1.189  0.00  0.00    -0.073 A 
ATOM      7  C8  UNL d   1      -0.686  -1.900   1.351  0.00  0.00     0.078 C 
ENDROOT
BRANCH   1   8
ATOM      8  C1  UNL d   1      -2.357  -2.432  -1.106  0.00  0.00     0.053 C 
ATOM      9  C   UNL d   1      -2.807  -3.089  -2.402  0.00  0.00     0.018 C 
ENDBRANCH   1   8
TORSDOF 1
ENDMDL
