MODEL 1
REMARK minimizedAffinity 3.54023218
REMARK minimizedRMSD -1
REMARK  1 active torsions:
REMARK  status: ('A' for Active; 'I' for Inactive)
REMARK    1  A    between atoms: C1_2  and  C2_3 
ROOT
ATOM      1  C2  UNL d   1      -2.397  -3.446  -1.162  0.00  0.00    -0.076 A 
ATOM      2  C3  UNL d   1      -1.539  -2.511  -0.557  0.00  0.00     0.004 A 
ATOM      3  C4  UNL d   1      -0.802  -2.842   0.578  0.00  0.00    -0.003 A 
ATOM      4  C5  UNL d   1      -0.910  -4.115   1.128  0.00  0.00     0.000 A 
ATOM      5  C6  UNL d   1      -1.743  -5.061   0.531  0.00  0.00     0.000 A 
ATOM      6  C7  UNL d   1      -2.480  -4.748  -0.624  0.00  0.00    -0.073 A 
ATOM      7  C8  UNL d   1      -3.367  -5.805  -1.222  0.00  0.00     0.078 C 
ENDROOT
BRANCH   1   8
ATOM      8  C1  UNL d   1      -3.192  -3.021  -2.376  0.00  0.00     0.053 C 
ATOM      9  C   UNL d   1      -2.304  -2.664  -3.558  0.00  0.00     0.018 C 
ENDBRANCH   1   8
TORSDOF 1
ENDMDL
