MODEL 1
REMARK minimizedAffinity 11.953414
REMARK minimizedRMSD -1
REMARK  1 active torsions:
REMARK  status: ('A' for Active; 'I' for Inactive)
REMARK    1  A    between atoms: C1_2  and  C2_3 
ROOT
ATOM      1  C2  UNL d   1       3.940   0.908  -1.341  0.00  0.00    -0.076 A 
ATOM      2  C3  UNL d   1       5.221   0.331  -1.309  0.00  0.00     0.004 A 
ATOM      3  C4  UNL d   1       5.606  -0.505  -0.262  0.00  0.00    -0.003 A 
ATOM      4  C5  UNL d   1       4.715  -0.777   0.770  0.00  0.00     0.000 A 
ATOM      5  C6  UNL d   1       3.434  -0.226   0.746  0.00  0.00     0.000 A 
ATOM      6  C7  UNL d   1       3.024   0.605  -0.311  0.00  0.00    -0.073 A 
ATOM      7  C8  UNL d   1       1.633   1.176  -0.283  0.00  0.00     0.078 C 
ENDROOT
BRANCH   1   8
ATOM      8  C1  UNL d   1       3.588   1.828  -2.489  0.00  0.00     0.053 C 
ATOM      9  C   UNL d   1       3.916   1.220  -3.844  0.00  0.00     0.018 C 
ENDBRANCH   1   8
TORSDOF 1
ENDMDL
