MODEL 1
REMARK minimizedAffinity 0.954275489
REMARK minimizedRMSD -1
REMARK  1 active torsions:
REMARK  status: ('A' for Active; 'I' for Inactive)
REMARK    1  A    between atoms: C1_2  and  C2_3 
ROOT
ATOM      1  C2  UNL d   1      -3.216  -4.495  -1.571  0.00  0.00    -0.076 A 
ATOM      2  C3  UNL d   1      -3.332  -4.921  -0.236  0.00  0.00     0.004 A 
ATOM      3  C4  UNL d   1      -2.713  -4.220   0.797  0.00  0.00    -0.003 A 
ATOM      4  C5  UNL d   1      -1.969  -3.080   0.513  0.00  0.00     0.000 A 
ATOM      5  C6  UNL d   1      -1.859  -2.633  -0.803  0.00  0.00     0.000 A 
ATOM      6  C7  UNL d   1      -2.490  -3.319  -1.855  0.00  0.00    -0.073 A 
ATOM      7  C8  UNL d   1      -2.332  -2.795  -3.256  0.00  0.00     0.078 C 
ENDROOT
BRANCH   1   8
ATOM      8  C1  UNL d   1      -3.887  -5.311  -2.653  0.00  0.00     0.053 C 
ATOM      9  C   UNL d   1      -5.302  -4.839  -2.946  0.00  0.00     0.018 C 
ENDBRANCH   1   8
TORSDOF 1
ENDMDL
