MODEL 1
REMARK minimizedAffinity 3.19413233
REMARK minimizedRMSD -1
REMARK  0 active torsions:
REMARK  status: ('A' for Active; 'I' for Inactive)
ROOT
ATOM      1  C   UNL d   1       1.280  -2.293   0.416  0.00  0.00     0.172 C 
ATOM      2  N   UNL d   1       0.529  -1.617   1.448  0.00  0.00    -0.070 N 
ATOM      3  C1  UNL d   1       1.058  -0.829   2.435  0.00  0.00    -0.004 A 
ATOM      4  C2  UNL d   1       0.017  -0.372   3.214  0.00  0.00    -0.047 A 
ATOM      5  C3  UNL d   1      -1.179  -0.904   2.676  0.00  0.00    -0.047 A 
ATOM      6  C4  UNL d   1      -0.833  -1.671   1.584  0.00  0.00    -0.004 A 
ENDROOT
TORSDOF 0
ENDMDL
