MODEL 1
REMARK minimizedAffinity -0.325364739
REMARK minimizedRMSD -1
REMARK  0 active torsions:
REMARK  status: ('A' for Active; 'I' for Inactive)
ROOT
ATOM      1  C   UNL d   1       5.998   5.900   3.831  0.00  0.00     0.172 C 
ATOM      2  N   UNL d   1       4.733   5.512   4.409  0.00  0.00    -0.070 N 
ATOM      3  C1  UNL d   1       3.854   4.608   3.874  0.00  0.00    -0.004 A 
ATOM      4  C2  UNL d   1       2.773   4.517   4.724  0.00  0.00    -0.047 A 
ATOM      5  C3  UNL d   1       3.010   5.396   5.807  0.00  0.00    -0.047 A 
ATOM      6  C4  UNL d   1       4.230   5.999   5.587  0.00  0.00    -0.004 A 
ENDROOT
TORSDOF 0
ENDMDL
