MODEL 1
REMARK minimizedAffinity 4.89502096
REMARK minimizedRMSD -1
REMARK  0 active torsions:
REMARK  status: ('A' for Active; 'I' for Inactive)
ROOT
ATOM      1  C   UNL d   1       2.569  -4.133  -0.005  0.00  0.00     0.172 C 
ATOM      2  N   UNL d   1       3.945  -4.149  -0.443  0.00  0.00    -0.070 N 
ATOM      3  C1  UNL d   1       4.622  -5.246  -0.907  0.00  0.00    -0.004 A 
ATOM      4  C2  UNL d   1       5.903  -4.848  -1.222  0.00  0.00    -0.047 A 
ATOM      5  C3  UNL d   1       6.000  -3.466  -0.936  0.00  0.00    -0.047 A 
ATOM      6  C4  UNL d   1       4.773  -3.059  -0.456  0.00  0.00    -0.004 A 
ENDROOT
TORSDOF 0
ENDMDL
