MODEL 1
REMARK minimizedAffinity 4.77331066
REMARK minimizedRMSD -1
REMARK  0 active torsions:
REMARK  status: ('A' for Active; 'I' for Inactive)
ROOT
ATOM      1  C   UNL d   1       2.799   4.380   4.788  0.00  0.00     0.172 C 
ATOM      2  N   UNL d   1       4.098   5.009   4.828  0.00  0.00    -0.070 N 
ATOM      3  C1  UNL d   1       4.796   5.470   3.744  0.00  0.00    -0.004 A 
ATOM      4  C2  UNL d   1       5.983   6.000   4.201  0.00  0.00    -0.047 A 
ATOM      5  C3  UNL d   1       6.000   5.851   5.608  0.00  0.00    -0.047 A 
ATOM      6  C4  UNL d   1       4.820   5.235   5.970  0.00  0.00    -0.004 A 
ENDROOT
TORSDOF 0
ENDMDL
