MODEL 1
REMARK minimizedAffinity -2.25379491
REMARK minimizedRMSD -1
REMARK  0 active torsions:
REMARK  status: ('A' for Active; 'I' for Inactive)
ROOT
ATOM      1  C   UNL d   1       5.464   4.951   4.500  0.00  0.00     0.172 C 
ATOM      2  N   UNL d   1       4.070   5.241   4.738  0.00  0.00    -0.070 N 
ATOM      3  C1  UNL d   1       3.030   4.882   3.922  0.00  0.00    -0.004 A 
ATOM      4  C2  UNL d   1       1.865   5.342   4.498  0.00  0.00    -0.047 A 
ATOM      5  C3  UNL d   1       2.217   6.000   5.700  0.00  0.00    -0.047 A 
ATOM      6  C4  UNL d   1       3.588   5.922   5.824  0.00  0.00    -0.004 A 
ENDROOT
TORSDOF 0
ENDMDL
