MODEL 1
REMARK minimizedAffinity -1.74886572
REMARK minimizedRMSD -1
REMARK  0 active torsions:
REMARK  status: ('A' for Active; 'I' for Inactive)
ROOT
ATOM      1  C   UNL d   1       5.999   5.665   4.465  0.00  0.00     0.172 C 
ATOM      2  N   UNL d   1       4.588   5.745   4.762  0.00  0.00    -0.070 N 
ATOM      3  C1  UNL d   1       4.045   6.000   5.993  0.00  0.00    -0.004 A 
ATOM      4  C2  UNL d   1       2.673   5.993   5.858  0.00  0.00    -0.047 A 
ATOM      5  C3  UNL d   1       2.382   5.723   4.500  0.00  0.00    -0.047 A 
ATOM      6  C4  UNL d   1       3.586   5.574   3.844  0.00  0.00    -0.004 A 
ENDROOT
TORSDOF 0
ENDMDL
