MODEL 1
REMARK minimizedAffinity 3.45308638
REMARK minimizedRMSD -1
REMARK  0 active torsions:
REMARK  status: ('A' for Active; 'I' for Inactive)
ROOT
ATOM      1  C   UNL d   1      -5.249   1.170  -4.880  0.00  0.00     0.172 C 
ATOM      2  N   UNL d   1      -5.027   2.544  -5.266  0.00  0.00    -0.070 N 
ATOM      3  C1  UNL d   1      -3.829   3.204  -5.213  0.00  0.00    -0.004 A 
ATOM      4  C2  UNL d   1      -4.035   4.489  -5.665  0.00  0.00    -0.047 A 
ATOM      5  C3  UNL d   1      -5.404   4.606  -6.000  0.00  0.00    -0.047 A 
ATOM      6  C4  UNL d   1      -5.995   3.387  -5.743  0.00  0.00    -0.004 A 
ENDROOT
TORSDOF 0
ENDMDL
