MODEL 1
REMARK minimizedAffinity -0.159314603
REMARK minimizedRMSD -1
REMARK  0 active torsions:
REMARK  status: ('A' for Active; 'I' for Inactive)
ROOT
ATOM      1  C   UNL d   1       2.381   5.797   5.611  0.00  0.00     0.172 C 
ATOM      2  N   UNL d   1       3.753   5.871   5.165  0.00  0.00    -0.070 N 
ATOM      3  C1  UNL d   1       4.165   5.943   3.862  0.00  0.00    -0.004 A 
ATOM      4  C2  UNL d   1       5.542   6.000   3.857  0.00  0.00    -0.047 A 
ATOM      5  C3  UNL d   1       5.972   5.959   5.205  0.00  0.00    -0.047 A 
ATOM      6  C4  UNL d   1       4.844   5.880   5.993  0.00  0.00    -0.004 A 
ENDROOT
TORSDOF 0
ENDMDL
