MODEL 1
REMARK minimizedAffinity 1.90074289
REMARK minimizedRMSD -1
REMARK  0 active torsions:
REMARK  status: ('A' for Active; 'I' for Inactive)
ROOT
ATOM      1  C   UNL d   1      -0.820   4.911  -6.000  0.00  0.00     0.172 C 
ATOM      2  N   UNL d   1      -2.123   4.611  -5.455  0.00  0.00    -0.070 N 
ATOM      3  C1  UNL d   1      -3.038   3.750  -6.000  0.00  0.00    -0.004 A 
ATOM      4  C2  UNL d   1      -4.148   3.741  -5.184  0.00  0.00    -0.047 A 
ATOM      5  C3  UNL d   1      -3.893   4.629  -4.112  0.00  0.00    -0.047 A 
ATOM      6  C4  UNL d   1      -2.633   5.154  -4.305  0.00  0.00    -0.004 A 
ENDROOT
TORSDOF 0
ENDMDL
