MODEL 1
REMARK minimizedAffinity 8.28440666
REMARK minimizedRMSD -1
REMARK  1 active torsions:
REMARK  status: ('A' for Active; 'I' for Inactive)
REMARK    1  A    between atoms: C1_2  and  C2_3 
ROOT
ATOM      1  C2  UNL d   1      -0.398   2.174   1.213  0.00  0.00    -0.073 A 
ATOM      2  C3  UNL d   1      -0.922   3.469   1.278  0.00  0.00    -0.002 A 
ATOM      3  C4  UNL d   1      -0.255   4.465   1.992  0.00  0.00     0.004 A 
ATOM      4  C5  UNL d   1       0.945   4.178   2.642  0.00  0.00    -0.004 A 
ATOM      5  C6  UNL d   1       1.492   2.892   2.579  0.00  0.00    -0.075 A 
ATOM      6  C7  UNL d   1       2.781   2.566   3.274  0.00  0.00     0.076 C 
ATOM      7  C8  UNL d   1       0.814   1.897   1.862  0.00  0.00     0.001 A 
ENDROOT
BRANCH   1   8
ATOM      8  C1  UNL d   1      -1.112   1.097   0.437  0.00  0.00     0.053 C 
ATOM      9  C   UNL d   1      -0.589   0.978  -0.986  0.00  0.00     0.018 C 
ENDBRANCH   1   8
TORSDOF 1
ENDMDL
