MODEL 1
REMARK minimizedAffinity 8.02020931
REMARK minimizedRMSD -1
REMARK  1 active torsions:
REMARK  status: ('A' for Active; 'I' for Inactive)
REMARK    1  A    between atoms: C1_2  and  C2_3 
ROOT
ATOM      1  C2  UNL d   1       4.866   2.422  -0.724  0.00  0.00    -0.073 A 
ATOM      2  C3  UNL d   1       4.954   2.573   0.665  0.00  0.00    -0.002 A 
ATOM      3  C4  UNL d   1       5.385   3.780   1.216  0.00  0.00     0.004 A 
ATOM      4  C5  UNL d   1       5.726   4.849   0.387  0.00  0.00    -0.004 A 
ATOM      5  C6  UNL d   1       5.633   4.721  -1.003  0.00  0.00    -0.075 A 
ATOM      6  C7  UNL d   1       5.998   5.860  -1.908  0.00  0.00     0.076 C 
ATOM      7  C8  UNL d   1       5.202   3.505  -1.549  0.00  0.00     0.001 A 
ENDROOT
BRANCH   1   8
ATOM      8  C1  UNL d   1       4.394   1.122  -1.324  0.00  0.00     0.053 C 
ATOM      9  C   UNL d   1       3.637   0.271  -0.317  0.00  0.00     0.018 C 
ENDBRANCH   1   8
TORSDOF 1
ENDMDL
