MODEL 1
REMARK minimizedAffinity 9.62758064
REMARK minimizedRMSD -1
REMARK  1 active torsions:
REMARK  status: ('A' for Active; 'I' for Inactive)
REMARK    1  A    between atoms: C1_2  and  C2_3 
ROOT
ATOM      1  C2  UNL d   1      -4.250   0.292  -2.799  0.00  0.00    -0.073 A 
ATOM      2  C3  UNL d   1      -3.315  -0.295  -3.659  0.00  0.00    -0.002 A 
ATOM      3  C4  UNL d   1      -2.909   0.369  -4.818  0.00  0.00     0.004 A 
ATOM      4  C5  UNL d   1      -3.428   1.626  -5.125  0.00  0.00    -0.004 A 
ATOM      5  C6  UNL d   1      -4.355   2.235  -4.272  0.00  0.00    -0.075 A 
ATOM      6  C7  UNL d   1      -4.925   3.586  -4.589  0.00  0.00     0.076 C 
ATOM      7  C8  UNL d   1      -4.760   1.561  -3.112  0.00  0.00     0.001 A 
ENDROOT
BRANCH   1   8
ATOM      8  C1  UNL d   1      -4.687  -0.418  -1.544  0.00  0.00     0.053 C 
ATOM      9  C   UNL d   1      -5.999   0.130  -1.006  0.00  0.00     0.018 C 
ENDBRANCH   1   8
TORSDOF 1
ENDMDL
