MODEL 1
REMARK minimizedAffinity 15.6901474
REMARK minimizedRMSD -1
REMARK  1 active torsions:
REMARK  status: ('A' for Active; 'I' for Inactive)
REMARK    1  A    between atoms: C1_2  and  C2_3 
ROOT
ATOM      1  C2  UNL d   1       2.727  -0.731  -1.069  0.00  0.00    -0.073 A 
ATOM      2  C3  UNL d   1       2.934  -1.031   0.283  0.00  0.00    -0.002 A 
ATOM      3  C4  UNL d   1       3.880  -0.323   1.025  0.00  0.00     0.004 A 
ATOM      4  C5  UNL d   1       4.622   0.696   0.428  0.00  0.00    -0.004 A 
ATOM      5  C6  UNL d   1       4.421   1.019  -0.918  0.00  0.00    -0.075 A 
ATOM      6  C7  UNL d   1       5.212   2.111  -1.576  0.00  0.00     0.076 C 
ATOM      7  C8  UNL d   1       3.471   0.301  -1.658  0.00  0.00     0.001 A 
ENDROOT
BRANCH   1   8
ATOM      8  C1  UNL d   1       1.703  -1.489  -1.873  0.00  0.00     0.053 C 
ATOM      9  C   UNL d   1       1.845  -2.993  -1.705  0.00  0.00     0.018 C 
ENDBRANCH   1   8
TORSDOF 1
ENDMDL
