MODEL 1
REMARK minimizedAffinity 9.19242859
REMARK minimizedRMSD -1
REMARK  1 active torsions:
REMARK  status: ('A' for Active; 'I' for Inactive)
REMARK    1  A    between atoms: C1_2  and  C2_3 
ROOT
ATOM      1  C2  UNL d   1       2.763   0.401   0.289  0.00  0.00    -0.073 A 
ATOM      2  C3  UNL d   1       2.401   0.693   1.609  0.00  0.00    -0.002 A 
ATOM      3  C4  UNL d   1       1.082   1.025   1.921  0.00  0.00     0.004 A 
ATOM      4  C5  UNL d   1       0.112   1.061   0.920  0.00  0.00    -0.004 A 
ATOM      5  C6  UNL d   1       0.451   0.760  -0.403  0.00  0.00    -0.075 A 
ATOM      6  C7  UNL d   1      -0.581   0.797  -1.491  0.00  0.00     0.076 C 
ATOM      7  C8  UNL d   1       1.778   0.431  -0.709  0.00  0.00     0.001 A 
ENDROOT
BRANCH   1   8
ATOM      8  C1  UNL d   1       4.185   0.036  -0.053  0.00  0.00     0.053 C 
ATOM      9  C   UNL d   1       4.886   1.139  -0.829  0.00  0.00     0.018 C 
ENDBRANCH   1   8
TORSDOF 1
ENDMDL
