MODEL 1
REMARK minimizedAffinity -1.92115569
REMARK minimizedRMSD -1
REMARK  1 active torsions:
REMARK  status: ('A' for Active; 'I' for Inactive)
REMARK    1  A    between atoms: C1_2  and  C2_3 
ROOT
ATOM      1  C2  UNL d   1      -4.060   1.579  -3.998  0.00  0.00    -0.073 A 
ATOM      2  C3  UNL d   1      -4.602   1.225  -2.757  0.00  0.00    -0.002 A 
ATOM      3  C4  UNL d   1      -5.558   2.040  -2.147  0.00  0.00     0.004 A 
ATOM      4  C5  UNL d   1      -5.985   3.210  -2.773  0.00  0.00    -0.004 A 
ATOM      5  C6  UNL d   1      -5.464   3.574  -4.019  0.00  0.00    -0.075 A 
ATOM      6  C7  UNL d   1      -5.912   4.832  -4.705  0.00  0.00     0.076 C 
ATOM      7  C8  UNL d   1      -4.503   2.753  -4.624  0.00  0.00     0.001 A 
ENDROOT
BRANCH   1   8
ATOM      8  C1  UNL d   1      -3.033   0.700  -4.663  0.00  0.00     0.053 C 
ATOM      9  C   UNL d   1      -2.073   0.083  -3.658  0.00  0.00     0.018 C 
ENDBRANCH   1   8
TORSDOF 1
ENDMDL
