MODEL 1
REMARK minimizedAffinity -2.0377202
REMARK minimizedRMSD -1
REMARK  1 active torsions:
REMARK  status: ('A' for Active; 'I' for Inactive)
REMARK    1  A    between atoms: N_2  and  C1_3 
ROOT
ATOM      1  C1  UNL d   1       0.968  -2.377   2.262  0.00  0.00     0.143 A 
ATOM      2  C2  UNL d   1      -0.135  -2.283   3.118  0.00  0.00    -0.057 A 
ATOM      3  C3  UNL d   1      -0.637  -3.409   3.780  0.00  0.00     0.033 A 
ATOM      4  C4  UNL d   1      -0.062  -4.659   3.575  0.00  0.00    -0.042 A 
ATOM      5  C5  UNL d   1       1.020  -4.780   2.710  0.00  0.00     0.033 A 
ATOM      6  C6  UNL d   1       1.521  -3.650   2.056  0.00  0.00    -0.057 A 
ENDROOT
BRANCH   1   7
ATOM      7  N   UNL d   1       1.453  -1.312   1.498  0.00  0.00    -0.732 N 
ATOM      8  C   UNL d   1       0.542  -0.436   0.792  0.00  0.00     0.284 C 
ATOM      9  H3  UNL d   1       2.226  -0.830   1.950  0.00  0.00     0.395 HD
ENDBRANCH   1   7
TORSDOF 1
ENDMDL
