MODEL 1
REMARK minimizedAffinity -1.70090151
REMARK minimizedRMSD -1
REMARK  1 active torsions:
REMARK  status: ('A' for Active; 'I' for Inactive)
REMARK    1  A    between atoms: N_2  and  C1_3 
ROOT
ATOM      1  C1  UNL d   1      -1.108  -0.733   0.979  0.00  0.00     0.143 A 
ATOM      2  C2  UNL d   1      -0.198  -0.100   0.126  0.00  0.00    -0.057 A 
ATOM      3  C3  UNL d   1       1.168  -0.048   0.429  0.00  0.00     0.033 A 
ATOM      4  C4  UNL d   1       1.645  -0.605   1.611  0.00  0.00    -0.042 A 
ATOM      5  C5  UNL d   1       0.755  -1.218   2.487  0.00  0.00     0.033 A 
ATOM      6  C6  UNL d   1      -0.606  -1.272   2.175  0.00  0.00    -0.057 A 
ENDROOT
BRANCH   1   7
ATOM      7  N   UNL d   1      -2.491  -0.732   0.782  0.00  0.00    -0.732 N 
ATOM      8  C   UNL d   1      -3.097  -1.617  -0.189  0.00  0.00     0.284 C 
ATOM      9  H3  UNL d   1      -3.008  -0.655   1.654  0.00  0.00     0.395 HD
ENDBRANCH   1   7
TORSDOF 1
ENDMDL
