MODEL 1
REMARK minimizedAffinity -1.26821721
REMARK minimizedRMSD -1
REMARK  1 active torsions:
REMARK  status: ('A' for Active; 'I' for Inactive)
REMARK    1  A    between atoms: N_2  and  C1_3 
ROOT
ATOM      1  C1  UNL d   1      -0.028  -0.731   1.752  0.00  0.00     0.143 A 
ATOM      2  C2  UNL d   1       0.945  -0.887   0.760  0.00  0.00    -0.057 A 
ATOM      3  C3  UNL d   1       0.740  -0.411  -0.541  0.00  0.00     0.033 A 
ATOM      4  C4  UNL d   1      -0.459   0.208  -0.880  0.00  0.00    -0.042 A 
ATOM      5  C5  UNL d   1      -1.451   0.353   0.085  0.00  0.00     0.033 A 
ATOM      6  C6  UNL d   1      -1.237  -0.120   1.383  0.00  0.00    -0.057 A 
ENDROOT
BRANCH   1   7
ATOM      7  N   UNL d   1       0.077  -1.270   3.037  0.00  0.00    -0.732 N 
ATOM      8  C   UNL d   1      -0.225  -2.665   3.277  0.00  0.00     0.284 C 
ATOM      9  H3  UNL d   1       0.897  -0.931   3.535  0.00  0.00     0.395 HD
ENDBRANCH   1   7
TORSDOF 1
ENDMDL
