MODEL 1
REMARK minimizedAffinity -3.69523954
REMARK minimizedRMSD -1
REMARK  1 active torsions:
REMARK  status: ('A' for Active; 'I' for Inactive)
REMARK    1  A    between atoms: N_2  and  C1_3 
ROOT
ATOM      1  C1  UNL d   1      -0.640  -0.368  -1.110  0.00  0.00     0.143 A 
ATOM      2  C2  UNL d   1      -0.734  -0.116   0.263  0.00  0.00    -0.057 A 
ATOM      3  C3  UNL d   1       0.372  -0.272   1.107  0.00  0.00     0.033 A 
ATOM      4  C4  UNL d   1       1.588  -0.711   0.596  0.00  0.00    -0.042 A 
ATOM      5  C5  UNL d   1       1.699  -0.992  -0.761  0.00  0.00     0.033 A 
ATOM      6  C6  UNL d   1       0.593  -0.829  -1.600  0.00  0.00    -0.057 A 
ENDROOT
BRANCH   1   7
ATOM      7  N   UNL d   1      -1.728  -0.327  -1.985  0.00  0.00    -0.732 N 
ATOM      8  C   UNL d   1      -2.920  -1.103  -1.717  0.00  0.00     0.284 C 
ATOM      9  H3  UNL d   1      -1.912   0.611  -2.332  0.00  0.00     0.395 HD
ENDBRANCH   1   7
TORSDOF 1
ENDMDL
