MODEL 1
REMARK minimizedAffinity -3.97059345
REMARK minimizedRMSD -1
REMARK  1 active torsions:
REMARK  status: ('A' for Active; 'I' for Inactive)
REMARK    1  A    between atoms: N_2  and  C1_3 
ROOT
ATOM      1  C1  UNL d   1      -0.716  -0.873   0.497  0.00  0.00     0.143 A 
ATOM      2  C2  UNL d   1      -1.248  -1.983   1.162  0.00  0.00    -0.057 A 
ATOM      3  C3  UNL d   1      -2.511  -2.489   0.835  0.00  0.00     0.033 A 
ATOM      4  C4  UNL d   1      -3.280  -1.875  -0.148  0.00  0.00    -0.042 A 
ATOM      5  C5  UNL d   1      -2.782  -0.755  -0.806  0.00  0.00     0.033 A 
ATOM      6  C6  UNL d   1      -1.517  -0.258  -0.478  0.00  0.00    -0.057 A 
ENDROOT
BRANCH   1   7
ATOM      7  N   UNL d   1       0.492  -0.262   0.845  0.00  0.00    -0.732 N 
ATOM      8  C   UNL d   1       1.307   0.385  -0.161  0.00  0.00     0.284 C 
ATOM      9  H3  UNL d   1       0.430   0.249   1.722  0.00  0.00     0.395 HD
ENDBRANCH   1   7
TORSDOF 1
ENDMDL
