MODEL 1
REMARK minimizedAffinity -4.39095354
REMARK minimizedRMSD -1
REMARK  1 active torsions:
REMARK  status: ('A' for Active; 'I' for Inactive)
REMARK    1  A    between atoms: N_2  and  C1_3 
ROOT
ATOM      1  C1  UNL d   1       0.871   0.938   0.417  0.00  0.00     0.143 A 
ATOM      2  C2  UNL d   1       0.381   2.120   0.982  0.00  0.00    -0.057 A 
ATOM      3  C3  UNL d   1       1.248   3.119   1.441  0.00  0.00     0.033 A 
ATOM      4  C4  UNL d   1       2.625   2.940   1.369  0.00  0.00    -0.042 A 
ATOM      5  C5  UNL d   1       3.135   1.762   0.834  0.00  0.00     0.033 A 
ATOM      6  C6  UNL d   1       2.264   0.771   0.371  0.00  0.00    -0.057 A 
ENDROOT
BRANCH   1   7
ATOM      7  N   UNL d   1       0.061  -0.134   0.032  0.00  0.00    -0.732 N 
ATOM      8  C   UNL d   1      -1.048   0.068  -0.874  0.00  0.00     0.284 C 
ATOM      9  H3  UNL d   1       0.597  -0.980  -0.148  0.00  0.00     0.395 HD
ENDBRANCH   1   7
TORSDOF 1
ENDMDL
