MODEL 1
REMARK minimizedAffinity -5.05507183
REMARK minimizedRMSD -1
REMARK  1 active torsions:
REMARK  status: ('A' for Active; 'I' for Inactive)
REMARK    1  A    between atoms: N_2  and  C1_3 
ROOT
ATOM      1  C1  UNL d   1      -1.342  -0.394  -0.074  0.00  0.00     0.143 A 
ATOM      2  C2  UNL d   1      -2.549  -1.090  -0.205  0.00  0.00    -0.057 A 
ATOM      3  C3  UNL d   1      -2.789  -2.269   0.511  0.00  0.00     0.033 A 
ATOM      4  C4  UNL d   1      -1.811  -2.791   1.352  0.00  0.00    -0.042 A 
ATOM      5  C5  UNL d   1      -0.594  -2.130   1.478  0.00  0.00     0.033 A 
ATOM      6  C6  UNL d   1      -0.363  -0.949   0.766  0.00  0.00    -0.057 A 
ENDROOT
BRANCH   1   7
ATOM      7  N   UNL d   1      -1.006   0.729  -0.833  0.00  0.00    -0.732 N 
ATOM      8  C   UNL d   1      -1.105   0.700  -2.276  0.00  0.00     0.284 C 
ATOM      9  H3  UNL d   1      -1.334   1.595  -0.411  0.00  0.00     0.395 HD
ENDBRANCH   1   7
TORSDOF 1
ENDMDL
