MODEL 1
REMARK minimizedAffinity -4.08606672
REMARK minimizedRMSD -1
REMARK  1 active torsions:
REMARK  status: ('A' for Active; 'I' for Inactive)
REMARK    1  A    between atoms: N_2  and  C1_3 
ROOT
ATOM      1  C1  UNL d   1       0.049  -0.023   0.009  0.00  0.00     0.143 A 
ATOM      2  C2  UNL d   1      -0.969  -0.332   0.916  0.00  0.00    -0.057 A 
ATOM      3  C3  UNL d   1      -2.283  -0.555   0.486  0.00  0.00     0.033 A 
ATOM      4  C4  UNL d   1      -2.608  -0.443  -0.862  0.00  0.00    -0.042 A 
ATOM      5  C5  UNL d   1      -1.617  -0.113  -1.779  0.00  0.00     0.033 A 
ATOM      6  C6  UNL d   1      -0.305   0.101  -1.344  0.00  0.00    -0.057 A 
ENDROOT
BRANCH   1   7
ATOM      7  N   UNL d   1       1.354   0.306   0.385  0.00  0.00    -0.732 N 
ATOM      8  C   UNL d   1       1.643   1.583   1.000  0.00  0.00     0.284 C 
ATOM      9  H3  UNL d   1       1.846  -0.479   0.805  0.00  0.00     0.395 HD
ENDBRANCH   1   7
TORSDOF 1
ENDMDL
