MODEL 1
REMARK minimizedAffinity -3.41824055
REMARK minimizedRMSD -1
REMARK  1 active torsions:
REMARK  status: ('A' for Active; 'I' for Inactive)
REMARK    1  A    between atoms: N_2  and  C1_3 
ROOT
ATOM      1  C1  UNL d   1       0.046  -0.100   0.096  0.00  0.00     0.143 A 
ATOM      2  C2  UNL d   1      -0.061   0.034  -1.292  0.00  0.00    -0.057 A 
ATOM      3  C3  UNL d   1      -1.263  -0.234  -1.957  0.00  0.00     0.033 A 
ATOM      4  C4  UNL d   1      -2.376  -0.671  -1.246  0.00  0.00    -0.042 A 
ATOM      5  C5  UNL d   1      -2.286  -0.836   0.131  0.00  0.00     0.033 A 
ATOM      6  C6  UNL d   1      -1.084  -0.560   0.791  0.00  0.00    -0.057 A 
ENDROOT
BRANCH   1   7
ATOM      7  N   UNL d   1       1.240   0.056   0.804  0.00  0.00    -0.732 N 
ATOM      8  C   UNL d   1       1.956   1.313   0.772  0.00  0.00     0.284 C 
ATOM      9  H3  UNL d   1       1.208  -0.381   1.722  0.00  0.00     0.395 HD
ENDBRANCH   1   7
TORSDOF 1
ENDMDL
