MODEL 1
REMARK minimizedAffinity -0.515441835
REMARK minimizedRMSD -1
REMARK  1 active torsions:
REMARK  status: ('A' for Active; 'I' for Inactive)
REMARK    1  A    between atoms: N_2  and  C1_3 
ROOT
ATOM      1  C1  UNL d   1      -3.011  -1.504   5.385  0.00  0.00     0.143 A 
ATOM      2  C2  UNL d   1      -3.721  -0.465   5.997  0.00  0.00    -0.057 A 
ATOM      3  C3  UNL d   1      -3.873   0.778   5.371  0.00  0.00     0.033 A 
ATOM      4  C4  UNL d   1      -3.290   1.014   4.130  0.00  0.00    -0.042 A 
ATOM      5  C5  UNL d   1      -2.558   0.004   3.515  0.00  0.00     0.033 A 
ATOM      6  C6  UNL d   1      -2.416  -1.237   4.142  0.00  0.00    -0.057 A 
ENDROOT
BRANCH   1   7
ATOM      7  N   UNL d   1      -2.742  -2.729   6.000  0.00  0.00    -0.732 N 
ATOM      8  C   UNL d   1      -3.499  -3.912   5.650  0.00  0.00     0.284 C 
ATOM      9  H3  UNL d   1      -1.745  -2.894   6.118  0.00  0.00     0.395 HD
ENDBRANCH   1   7
TORSDOF 1
ENDMDL
