MODEL 1
REMARK minimizedAffinity -4.40841007
REMARK minimizedRMSD -1
REMARK  1 active torsions:
REMARK  status: ('A' for Active; 'I' for Inactive)
REMARK    1  A    between atoms: N_2  and  C1_3 
ROOT
ATOM      1  C1  UNL d   1       0.548  -0.579   0.016  0.00  0.00     0.143 A 
ATOM      2  C2  UNL d   1      -0.140  -0.052  -1.083  0.00  0.00    -0.057 A 
ATOM      3  C3  UNL d   1      -1.463  -0.422  -1.356  0.00  0.00     0.033 A 
ATOM      4  C4  UNL d   1      -2.113  -1.351  -0.551  0.00  0.00    -0.042 A 
ATOM      5  C5  UNL d   1      -1.440  -1.906   0.532  0.00  0.00     0.033 A 
ATOM      6  C6  UNL d   1      -0.121  -1.528   0.804  0.00  0.00    -0.057 A 
ENDROOT
BRANCH   1   7
ATOM      7  N   UNL d   1       1.895  -0.325   0.284  0.00  0.00    -0.732 N 
ATOM      8  C   UNL d   1       2.447   1.000   0.100  0.00  0.00     0.284 C 
ATOM      9  H3  UNL d   1       2.220  -0.798   1.124  0.00  0.00     0.395 HD
ENDBRANCH   1   7
TORSDOF 1
ENDMDL
