MODEL 1
REMARK minimizedAffinity -3.61868525
REMARK minimizedRMSD -1
REMARK  1 active torsions:
REMARK  status: ('A' for Active; 'I' for Inactive)
REMARK    1  A    between atoms: N_2  and  C1_3 
ROOT
ATOM      1  C1  UNL d   1       0.052  -0.299  -0.194  0.00  0.00     0.143 A 
ATOM      2  C2  UNL d   1      -1.057  -0.102  -1.024  0.00  0.00    -0.057 A 
ATOM      3  C3  UNL d   1      -2.194  -0.913  -0.922  0.00  0.00     0.033 A 
ATOM      4  C4  UNL d   1      -2.230  -1.958  -0.004  0.00  0.00    -0.042 A 
ATOM      5  C5  UNL d   1      -1.130  -2.188   0.814  0.00  0.00     0.033 A 
ATOM      6  C6  UNL d   1      -0.000  -1.370   0.712  0.00  0.00    -0.057 A 
ENDROOT
BRANCH   1   7
ATOM      7  N   UNL d   1       1.249   0.411  -0.314  0.00  0.00    -0.732 N 
ATOM      8  C   UNL d   1       1.813   1.103   0.825  0.00  0.00     0.284 C 
ATOM      9  H3  UNL d   1       1.935  -0.078  -0.885  0.00  0.00     0.395 HD
ENDBRANCH   1   7
TORSDOF 1
ENDMDL
