MODEL 1
REMARK minimizedAffinity -3.89791894
REMARK minimizedRMSD -1
REMARK  1 active torsions:
REMARK  status: ('A' for Active; 'I' for Inactive)
REMARK    1  A    between atoms: N_2  and  C1_3 
ROOT
ATOM      1  C1  UNL d   1       0.021  -0.056  -0.170  0.00  0.00     0.143 A 
ATOM      2  C2  UNL d   1      -0.571   0.572  -1.271  0.00  0.00    -0.057 A 
ATOM      3  C3  UNL d   1      -1.939   0.437  -1.535  0.00  0.00     0.033 A 
ATOM      4  C4  UNL d   1      -2.737  -0.355  -0.716  0.00  0.00    -0.042 A 
ATOM      5  C5  UNL d   1      -2.166  -1.009   0.369  0.00  0.00     0.033 A 
ATOM      6  C6  UNL d   1      -0.800  -0.865   0.632  0.00  0.00    -0.057 A 
ENDROOT
BRANCH   1   7
ATOM      7  N   UNL d   1       1.393  -0.041   0.090  0.00  0.00    -0.732 N 
ATOM      8  C   UNL d   1       2.073   1.201   0.391  0.00  0.00     0.284 C 
ATOM      9  H3  UNL d   1       1.689  -0.826   0.665  0.00  0.00     0.395 HD
ENDBRANCH   1   7
TORSDOF 1
ENDMDL
