MODEL 1
REMARK minimizedAffinity -5.74605608
REMARK minimizedRMSD -1
REMARK  1 active torsions:
REMARK  status: ('A' for Active; 'I' for Inactive)
REMARK    1  A    between atoms: N_2  and  C1_3 
ROOT
ATOM      1  C1  UNL d   1      -0.571  -0.398   0.366  0.00  0.00     0.143 A 
ATOM      2  C2  UNL d   1      -1.533  -0.048  -0.586  0.00  0.00    -0.057 A 
ATOM      3  C3  UNL d   1      -2.733  -0.761  -0.702  0.00  0.00     0.033 A 
ATOM      4  C4  UNL d   1      -2.979  -1.858   0.117  0.00  0.00    -0.042 A 
ATOM      5  C5  UNL d   1      -2.025  -2.239   1.054  0.00  0.00     0.033 A 
ATOM      6  C6  UNL d   1      -0.832  -1.519   1.169  0.00  0.00    -0.057 A 
ENDROOT
BRANCH   1   7
ATOM      7  N   UNL d   1       0.683   0.210   0.464  0.00  0.00    -0.732 N 
ATOM      8  C   UNL d   1       1.888  -0.532   0.162  0.00  0.00     0.284 C 
ATOM      9  H3  UNL d   1       0.682   1.163   0.108  0.00  0.00     0.395 HD
ENDBRANCH   1   7
TORSDOF 1
ENDMDL
