MODEL 1
REMARK minimizedAffinity -4.77959347
REMARK minimizedRMSD -1
REMARK  1 active torsions:
REMARK  status: ('A' for Active; 'I' for Inactive)
REMARK    1  A    between atoms: N_2  and  C1_3 
ROOT
ATOM      1  C1  UNL d   1      -0.826  -0.917   0.689  0.00  0.00     0.143 A 
ATOM      2  C2  UNL d   1      -0.785  -1.918   1.665  0.00  0.00    -0.057 A 
ATOM      3  C3  UNL d   1      -1.767  -2.915   1.724  0.00  0.00     0.033 A 
ATOM      4  C4  UNL d   1      -2.827  -2.910   0.823  0.00  0.00    -0.042 A 
ATOM      5  C5  UNL d   1      -2.901  -1.910  -0.140  0.00  0.00     0.033 A 
ATOM      6  C6  UNL d   1      -1.914  -0.921  -0.198  0.00  0.00    -0.057 A 
ENDROOT
BRANCH   1   7
ATOM      7  N   UNL d   1       0.066   0.157   0.640  0.00  0.00    -0.732 N 
ATOM      8  C   UNL d   1       1.314   0.046  -0.083  0.00  0.00     0.284 C 
ATOM      9  H3  UNL d   1      -0.408   1.050   0.518  0.00  0.00     0.395 HD
ENDBRANCH   1   7
TORSDOF 1
ENDMDL
