MODEL 1
REMARK minimizedAffinity -3.48253012
REMARK minimizedRMSD -1
REMARK  1 active torsions:
REMARK  status: ('A' for Active; 'I' for Inactive)
REMARK    1  A    between atoms: N_2  and  C1_3 
ROOT
ATOM      1  C1  UNL d   1       0.082   0.012  -0.175  0.00  0.00     0.143 A 
ATOM      2  C2  UNL d   1      -0.766  -0.252   0.906  0.00  0.00    -0.057 A 
ATOM      3  C3  UNL d   1      -2.115  -0.569   0.710  0.00  0.00     0.033 A 
ATOM      4  C4  UNL d   1      -2.649  -0.598  -0.574  0.00  0.00    -0.042 A 
ATOM      5  C5  UNL d   1      -1.831  -0.314  -1.662  0.00  0.00     0.033 A 
ATOM      6  C6  UNL d   1      -0.483  -0.005  -1.460  0.00  0.00    -0.057 A 
ENDROOT
BRANCH   1   7
ATOM      7  N   UNL d   1       1.408   0.429  -0.039  0.00  0.00    -0.732 N 
ATOM      8  C   UNL d   1       1.726   1.668   0.639  0.00  0.00     0.284 C 
ATOM      9  H3  UNL d   1       2.037  -0.339   0.184  0.00  0.00     0.395 HD
ENDBRANCH   1   7
TORSDOF 1
ENDMDL
