MODEL 1
REMARK minimizedAffinity -5.05611134
REMARK minimizedRMSD -1
REMARK  1 active torsions:
REMARK  status: ('A' for Active; 'I' for Inactive)
REMARK    1  A    between atoms: N_2  and  C1_3 
ROOT
ATOM      1  C1  UNL d   1      -0.099   0.114   0.024  0.00  0.00     0.143 A 
ATOM      2  C2  UNL d   1      -0.973   0.284  -1.055  0.00  0.00    -0.057 A 
ATOM      3  C3  UNL d   1      -2.294  -0.177  -0.998  0.00  0.00     0.033 A 
ATOM      4  C4  UNL d   1      -2.757  -0.844   0.131  0.00  0.00    -0.042 A 
ATOM      5  C5  UNL d   1      -1.898  -1.046   1.206  0.00  0.00     0.033 A 
ATOM      6  C6  UNL d   1      -0.582  -0.578   1.146  0.00  0.00    -0.057 A 
ENDROOT
BRANCH   1   7
ATOM      7  N   UNL d   1       1.253   0.462  -0.008  0.00  0.00    -0.732 N 
ATOM      8  C   UNL d   1       1.794   1.408   0.944  0.00  0.00     0.284 C 
ATOM      9  H3  UNL d   1       1.856  -0.338  -0.188  0.00  0.00     0.395 HD
ENDBRANCH   1   7
TORSDOF 1
ENDMDL
