MODEL 1
REMARK minimizedAffinity -5.50632095
REMARK minimizedRMSD -1
REMARK  0 active torsions:
REMARK  status: ('A' for Active; 'I' for Inactive)
ROOT
ATOM      1  C   UNL d   1       0.276  -3.912  -1.099  0.00  0.00    -0.002 A 
ATOM      2  C1  UNL d   1       0.732  -3.178  -2.186  0.00  0.00     0.010 A 
ATOM      3  C2  UNL d   1       0.740  -1.782  -2.147  0.00  0.00     0.041 A 
ATOM      4  C3  UNL d   1       0.279  -1.130  -0.986  0.00  0.00    -0.075 A 
ATOM      5  S   UNL d   1       0.198   0.570  -0.713  0.00  0.00     0.015 SA
ATOM      6  C4  UNL d   1      -0.443   0.363   0.853  0.00  0.00     0.022 A 
ATOM      7  C5  UNL d   1      -0.597  -0.964   1.175  0.00  0.00     0.026 A 
ATOM      8  C6  UNL d   1      -0.183  -1.847   0.121  0.00  0.00    -0.082 A 
ATOM      9  C7  UNL d   1      -0.180  -3.261   0.050  0.00  0.00     0.045 A 
ENDROOT
TORSDOF 0
ENDMDL
