MODEL 1
REMARK minimizedAffinity -2.76397586
REMARK minimizedRMSD -1
REMARK  0 active torsions:
REMARK  status: ('A' for Active; 'I' for Inactive)
ROOT
ATOM      1  C   UNL d   1       0.504   0.602   0.668  0.00  0.00    -0.002 A 
ATOM      2  C1  UNL d   1      -0.820   0.827   1.015  0.00  0.00     0.010 A 
ATOM      3  C2  UNL d   1      -1.781  -0.170   0.839  0.00  0.00     0.041 A 
ATOM      4  C3  UNL d   1      -1.384  -1.412   0.304  0.00  0.00    -0.075 A 
ATOM      5  S   UNL d   1      -2.387  -2.781   0.001  0.00  0.00     0.015 SA
ATOM      6  C4  UNL d   1      -1.081  -3.699  -0.596  0.00  0.00     0.022 A 
ATOM      7  C5  UNL d   1       0.099  -2.993  -0.572  0.00  0.00     0.026 A 
ATOM      8  C6  UNL d   1      -0.056  -1.663  -0.052  0.00  0.00    -0.082 A 
ATOM      9  C7  UNL d   1       0.894  -0.631   0.137  0.00  0.00     0.045 A 
ENDROOT
TORSDOF 0
ENDMDL
