MODEL 1
REMARK minimizedAffinity -2.71230125
REMARK minimizedRMSD -1
REMARK  0 active torsions:
REMARK  status: ('A' for Active; 'I' for Inactive)
ROOT
ATOM      1  C   UNL d   1      -0.393  -3.218   0.812  0.00  0.00    -0.002 A 
ATOM      2  C1  UNL d   1       0.288  -3.397  -0.384  0.00  0.00     0.010 A 
ATOM      3  C2  UNL d   1       0.621  -2.301  -1.183  0.00  0.00     0.041 A 
ATOM      4  C3  UNL d   1       0.256  -1.010  -0.755  0.00  0.00    -0.075 A 
ATOM      5  S   UNL d   1       0.560   0.480  -1.569  0.00  0.00     0.015 SA
ATOM      6  C4  UNL d   1      -0.207   1.389  -0.348  0.00  0.00     0.022 A 
ATOM      7  C5  UNL d   1      -0.688   0.592   0.664  0.00  0.00     0.026 A 
ATOM      8  C6  UNL d   1      -0.429  -0.804   0.446  0.00  0.00    -0.082 A 
ATOM      9  C7  UNL d   1      -0.753  -1.935   1.233  0.00  0.00     0.045 A 
ENDROOT
TORSDOF 0
ENDMDL
