MODEL 1
REMARK minimizedAffinity -0.650326967
REMARK minimizedRMSD -1
REMARK  0 active torsions:
REMARK  status: ('A' for Active; 'I' for Inactive)
ROOT
ATOM      1  C   UNL d   1      -0.307  -2.412   0.658  0.00  0.00    -0.002 A 
ATOM      2  C1  UNL d   1      -0.329  -2.569  -0.721  0.00  0.00     0.010 A 
ATOM      3  C2  UNL d   1      -0.155  -1.470  -1.564  0.00  0.00     0.041 A 
ATOM      4  C3  UNL d   1       0.045  -0.198  -0.992  0.00  0.00    -0.075 A 
ATOM      5  S   UNL d   1       0.282   1.292  -1.828  0.00  0.00     0.015 SA
ATOM      6  C4  UNL d   1       0.418   2.172  -0.374  0.00  0.00     0.022 A 
ATOM      7  C5  UNL d   1       0.288   1.365   0.731  0.00  0.00     0.026 A 
ATOM      8  C6  UNL d   1       0.072  -0.014   0.393  0.00  0.00    -0.082 A 
ATOM      9  C7  UNL d   1      -0.108  -1.148   1.221  0.00  0.00     0.045 A 
ENDROOT
TORSDOF 0
ENDMDL
