MODEL 1
REMARK minimizedAffinity -3.33444691
REMARK minimizedRMSD -1
REMARK  0 active torsions:
REMARK  status: ('A' for Active; 'I' for Inactive)
ROOT
ATOM      1  C   UNL d   1      -0.243  -3.543  -2.063  0.00  0.00    -0.002 A 
ATOM      2  C1  UNL d   1       0.258  -2.525  -2.862  0.00  0.00     0.010 A 
ATOM      3  C2  UNL d   1       0.341  -1.218  -2.377  0.00  0.00     0.041 A 
ATOM      4  C3  UNL d   1      -0.091  -0.950  -1.063  0.00  0.00    -0.075 A 
ATOM      5  S   UNL d   1      -0.082   0.574  -0.257  0.00  0.00     0.015 SA
ATOM      6  C4  UNL d   1      -0.743  -0.091   1.166  0.00  0.00     0.022 A 
ATOM      7  C5  UNL d   1      -0.972  -1.441   1.047  0.00  0.00     0.026 A 
ATOM      8  C6  UNL d   1      -0.599  -1.959  -0.240  0.00  0.00    -0.082 A 
ATOM      9  C7  UNL d   1      -0.671  -3.273  -0.761  0.00  0.00     0.045 A 
ENDROOT
TORSDOF 0
ENDMDL
