MODEL 1
REMARK minimizedAffinity -5.4663043
REMARK minimizedRMSD -1
REMARK  0 active torsions:
REMARK  status: ('A' for Active; 'I' for Inactive)
ROOT
ATOM      1  C   UNL d   1      -0.006  -3.607   0.172  0.00  0.00    -0.002 A 
ATOM      2  C1  UNL d   1       0.380  -3.386  -1.142  0.00  0.00     0.010 A 
ATOM      3  C2  UNL d   1       0.385  -2.095  -1.673  0.00  0.00     0.041 A 
ATOM      4  C3  UNL d   1      -0.006  -1.019  -0.852  0.00  0.00    -0.075 A 
ATOM      5  S   UNL d   1      -0.076   0.648  -1.286  0.00  0.00     0.015 SA
ATOM      6  C4  UNL d   1      -0.619   1.106   0.263  0.00  0.00     0.022 A 
ATOM      7  C5  UNL d   1      -0.749   0.026   1.104  0.00  0.00     0.026 A 
ATOM      8  C6  UNL d   1      -0.397  -1.216   0.475  0.00  0.00    -0.082 A 
ATOM      9  C7  UNL d   1      -0.392  -2.538   0.984  0.00  0.00     0.045 A 
ENDROOT
TORSDOF 0
ENDMDL
