MODEL 1
REMARK minimizedAffinity -2.00740051
REMARK minimizedRMSD -1
REMARK  0 active torsions:
REMARK  status: ('A' for Active; 'I' for Inactive)
ROOT
ATOM      1  C   UNL d   1      -1.124  -1.351   1.863  0.00  0.00    -0.002 A 
ATOM      2  C1  UNL d   1      -1.190  -2.011   0.644  0.00  0.00     0.010 A 
ATOM      3  C2  UNL d   1      -0.848  -1.353  -0.539  0.00  0.00     0.041 A 
ATOM      4  C3  UNL d   1      -0.433  -0.008  -0.475  0.00  0.00    -0.075 A 
ATOM      5  S   UNL d   1       0.036   0.999  -1.794  0.00  0.00     0.015 SA
ATOM      6  C4  UNL d   1       0.335   2.328  -0.770  0.00  0.00     0.022 A 
ATOM      7  C5  UNL d   1       0.088   2.029   0.549  0.00  0.00     0.026 A 
ATOM      8  C6  UNL d   1      -0.358   0.678   0.740  0.00  0.00    -0.082 A 
ATOM      9  C7  UNL d   1      -0.712  -0.017   1.922  0.00  0.00     0.045 A 
ENDROOT
TORSDOF 0
ENDMDL
