MODEL 1
REMARK minimizedAffinity -5.89400768
REMARK minimizedRMSD -1
REMARK  0 active torsions:
REMARK  status: ('A' for Active; 'I' for Inactive)
ROOT
ATOM      1  C   UNL d   1      -0.086  -3.874  -0.175  0.00  0.00    -0.002 A 
ATOM      2  C1  UNL d   1       0.202  -3.456  -1.467  0.00  0.00     0.010 A 
ATOM      3  C2  UNL d   1       0.268  -2.095  -1.775  0.00  0.00     0.041 A 
ATOM      4  C3  UNL d   1       0.039  -1.153  -0.752  0.00  0.00    -0.075 A 
ATOM      5  S   UNL d   1       0.069   0.565  -0.896  0.00  0.00     0.015 SA
ATOM      6  C4  UNL d   1      -0.298   0.784   0.753  0.00  0.00     0.022 A 
ATOM      7  C5  UNL d   1      -0.444  -0.414   1.413  0.00  0.00     0.026 A 
ATOM      8  C6  UNL d   1      -0.251  -1.550   0.556  0.00  0.00    -0.082 A 
ATOM      9  C7  UNL d   1      -0.312  -2.936   0.836  0.00  0.00     0.045 A 
ENDROOT
TORSDOF 0
ENDMDL
