MODEL 1
REMARK minimizedAffinity -4.56703186
REMARK minimizedRMSD -1
REMARK  0 active torsions:
REMARK  status: ('A' for Active; 'I' for Inactive)
ROOT
ATOM      1  C   UNL d   1      -0.224  -3.529   0.045  0.00  0.00    -0.002 A 
ATOM      2  C1  UNL d   1       0.389  -3.243  -1.166  0.00  0.00     0.010 A 
ATOM      3  C2  UNL d   1       0.655  -1.922  -1.534  0.00  0.00     0.041 A 
ATOM      4  C3  UNL d   1       0.292  -0.884  -0.654  0.00  0.00    -0.075 A 
ATOM      5  S   UNL d   1       0.520   0.808  -0.893  0.00  0.00     0.015 SA
ATOM      6  C4  UNL d   1      -0.191   1.192   0.608  0.00  0.00     0.022 A 
ATOM      7  C5  UNL d   1      -0.598   0.068   1.288  0.00  0.00     0.026 A 
ATOM      8  C6  UNL d   1      -0.326  -1.147   0.572  0.00  0.00    -0.082 A 
ATOM      9  C7  UNL d   1      -0.583  -2.496   0.916  0.00  0.00     0.045 A 
ENDROOT
TORSDOF 0
ENDMDL
