MODEL 1
REMARK minimizedAffinity 5.55384302
REMARK minimizedRMSD -1
REMARK  1 active torsions:
REMARK  status: ('A' for Active; 'I' for Inactive)
REMARK    1  A    between atoms: C1_2  and  C2_3 
ROOT
ATOM      1  C2  UNL d   1       1.057  -2.726   1.246  0.00  0.00    -0.073 A 
ATOM      2  C3  UNL d   1       1.026  -2.545   2.633  0.00  0.00    -0.002 A 
ATOM      3  C4  UNL d   1       1.908  -3.248   3.455  0.00  0.00     0.004 A 
ATOM      4  C5  UNL d   1       2.834  -4.131   2.899  0.00  0.00    -0.004 A 
ATOM      5  C6  UNL d   1       2.889  -4.315   1.514  0.00  0.00    -0.075 A 
ATOM      6  C7  UNL d   1       3.877  -5.263   0.900  0.00  0.00     0.076 C 
ATOM      7  C8  UNL d   1       1.997  -3.609   0.695  0.00  0.00     0.001 A 
ENDROOT
BRANCH   1   8
ATOM      8  C1  UNL d   1       0.111  -1.965   0.353  0.00  0.00     0.053 C 
ATOM      9  C   UNL d   1      -1.132  -2.774   0.019  0.00  0.00     0.018 C 
ENDBRANCH   1   8
TORSDOF 1
ENDMDL
