MODEL 1
REMARK minimizedAffinity 8.38140678
REMARK minimizedRMSD -1
REMARK  1 active torsions:
REMARK  status: ('A' for Active; 'I' for Inactive)
REMARK    1  A    between atoms: C1_2  and  C2_3 
ROOT
ATOM      1  C2  UNL d   1       2.202  -0.091   2.189  0.00  0.00    -0.073 A 
ATOM      2  C3  UNL d   1       2.685   1.211   2.359  0.00  0.00    -0.002 A 
ATOM      3  C4  UNL d   1       3.156   1.938   1.265  0.00  0.00     0.004 A 
ATOM      4  C5  UNL d   1       3.142   1.373  -0.011  0.00  0.00    -0.004 A 
ATOM      5  C6  UNL d   1       2.652   0.078  -0.204  0.00  0.00    -0.075 A 
ATOM      6  C7  UNL d   1       2.632  -0.545  -1.569  0.00  0.00     0.076 C 
ATOM      7  C8  UNL d   1       2.184  -0.647   0.901  0.00  0.00     0.001 A 
ENDROOT
BRANCH   1   8
ATOM      8  C1  UNL d   1       1.687  -0.877   3.367  0.00  0.00     0.053 C 
ATOM      9  C   UNL d   1       1.690  -2.374   3.098  0.00  0.00     0.018 C 
ENDBRANCH   1   8
TORSDOF 1
ENDMDL
