MODEL 1
REMARK minimizedAffinity 4.7957716
REMARK minimizedRMSD -1
REMARK  1 active torsions:
REMARK  status: ('A' for Active; 'I' for Inactive)
REMARK    1  A    between atoms: C1_2  and  C2_3 
ROOT
ATOM      1  C2  UNL d   1       1.381  -4.584   4.238  0.00  0.00    -0.073 A 
ATOM      2  C3  UNL d   1       2.685  -4.815   4.689  0.00  0.00    -0.002 A 
ATOM      3  C4  UNL d   1       3.693  -3.882   4.439  0.00  0.00     0.004 A 
ATOM      4  C5  UNL d   1       3.406  -2.708   3.743  0.00  0.00    -0.004 A 
ATOM      5  C6  UNL d   1       2.105  -2.453   3.296  0.00  0.00    -0.075 A 
ATOM      6  C7  UNL d   1       1.780  -1.196   2.544  0.00  0.00     0.076 C 
ATOM      7  C8  UNL d   1       1.100  -3.396   3.548  0.00  0.00     0.001 A 
ENDROOT
BRANCH   1   8
ATOM      8  C1  UNL d   1       0.288  -5.585   4.512  0.00  0.00     0.053 C 
ATOM      9  C   UNL d   1       0.196  -5.939   5.987  0.00  0.00     0.018 C 
ENDBRANCH   1   8
TORSDOF 1
ENDMDL
