MODEL 1
REMARK minimizedAffinity 5.23264408
REMARK minimizedRMSD -1
REMARK  1 active torsions:
REMARK  status: ('A' for Active; 'I' for Inactive)
REMARK    1  A    between atoms: C1_2  and  C2_3 
ROOT
ATOM      1  C2  UNL d   1       2.046  -3.554   3.205  0.00  0.00    -0.073 A 
ATOM      2  C3  UNL d   1       2.578  -2.377   3.741  0.00  0.00    -0.002 A 
ATOM      3  C4  UNL d   1       2.150  -1.133   3.276  0.00  0.00     0.004 A 
ATOM      4  C5  UNL d   1       1.181  -1.053   2.277  0.00  0.00    -0.004 A 
ATOM      5  C6  UNL d   1       0.627  -2.218   1.736  0.00  0.00    -0.075 A 
ATOM      6  C7  UNL d   1      -0.414  -2.150   0.658  0.00  0.00     0.076 C 
ATOM      7  C8  UNL d   1       1.065  -3.464   2.206  0.00  0.00     0.001 A 
ENDROOT
BRANCH   1   8
ATOM      8  C1  UNL d   1       2.501  -4.900   3.708  0.00  0.00     0.053 C 
ATOM      9  C   UNL d   1       3.437  -4.775   4.900  0.00  0.00     0.018 C 
ENDBRANCH   1   8
TORSDOF 1
ENDMDL
