MODEL 1
REMARK minimizedAffinity -3.38492084
REMARK minimizedRMSD -1
REMARK  1 active torsions:
REMARK  status: ('A' for Active; 'I' for Inactive)
REMARK    1  A    between atoms: C1_2  and  C2_3 
ROOT
ATOM      1  C2  UNL d   1       4.512  -6.000  -3.334  0.00  0.00    -0.073 A 
ATOM      2  C3  UNL d   1       5.439  -5.986  -4.382  0.00  0.00    -0.002 A 
ATOM      3  C4  UNL d   1       5.005  -5.985  -5.708  0.00  0.00     0.004 A 
ATOM      4  C5  UNL d   1       3.641  -5.991  -6.000  0.00  0.00    -0.004 A 
ATOM      5  C6  UNL d   1       2.698  -5.992  -4.967  0.00  0.00    -0.075 A 
ATOM      6  C7  UNL d   1       1.228  -6.000  -5.264  0.00  0.00     0.076 C 
ATOM      7  C8  UNL d   1       3.143  -5.996  -3.638  0.00  0.00     0.001 A 
ENDROOT
BRANCH   1   8
ATOM      8  C1  UNL d   1       4.976  -5.994  -1.901  0.00  0.00     0.053 C 
ATOM      9  C   UNL d   1       3.811  -5.979  -0.924  0.00  0.00     0.018 C 
ENDBRANCH   1   8
TORSDOF 1
ENDMDL
