MODEL 1
REMARK minimizedAffinity 6.28898668
REMARK minimizedRMSD -1
REMARK  1 active torsions:
REMARK  status: ('A' for Active; 'I' for Inactive)
REMARK    1  A    between atoms: C1_2  and  C2_3 
ROOT
ATOM      1  C2  UNL d   1       2.500  -0.069   1.289  0.00  0.00    -0.073 A 
ATOM      2  C3  UNL d   1       1.145  -0.377   1.462  0.00  0.00    -0.002 A 
ATOM      3  C4  UNL d   1       0.764  -1.452   2.266  0.00  0.00     0.004 A 
ATOM      4  C5  UNL d   1       1.731  -2.224   2.910  0.00  0.00    -0.004 A 
ATOM      5  C6  UNL d   1       3.089  -1.925   2.759  0.00  0.00    -0.075 A 
ATOM      6  C7  UNL d   1       4.141  -2.747   3.443  0.00  0.00     0.076 C 
ATOM      7  C8  UNL d   1       3.464  -0.845   1.948  0.00  0.00     0.001 A 
ENDROOT
BRANCH   1   8
ATOM      8  C1  UNL d   1       2.916   1.095   0.427  0.00  0.00     0.053 C 
ATOM      9  C   UNL d   1       2.435   2.423   0.991  0.00  0.00     0.018 C 
ENDBRANCH   1   8
TORSDOF 1
ENDMDL
