MODEL 1
REMARK minimizedAffinity 4.87628508
REMARK minimizedRMSD -1
REMARK  1 active torsions:
REMARK  status: ('A' for Active; 'I' for Inactive)
REMARK    1  A    between atoms: C1_2  and  C2_3 
ROOT
ATOM      1  C2  UNL d   1       3.123  -5.896  -2.873  0.00  0.00    -0.073 A 
ATOM      2  C3  UNL d   1       3.852  -5.922  -1.679  0.00  0.00    -0.002 A 
ATOM      3  C4  UNL d   1       5.246  -5.977  -1.705  0.00  0.00     0.004 A 
ATOM      4  C5  UNL d   1       5.925  -5.999  -2.924  0.00  0.00    -0.004 A 
ATOM      5  C6  UNL d   1       5.214  -5.961  -4.128  0.00  0.00    -0.075 A 
ATOM      6  C7  UNL d   1       5.928  -5.986  -5.447  0.00  0.00     0.076 C 
ATOM      7  C8  UNL d   1       3.814  -5.909  -4.093  0.00  0.00     0.001 A 
ENDROOT
BRANCH   1   8
ATOM      8  C1  UNL d   1       1.617  -5.830  -2.849  0.00  0.00     0.053 C 
ATOM      9  C   UNL d   1       1.017  -5.998  -4.235  0.00  0.00     0.018 C 
ENDBRANCH   1   8
TORSDOF 1
ENDMDL
