MODEL 1
REMARK minimizedAffinity 7.27504158
REMARK minimizedRMSD -1
REMARK  1 active torsions:
REMARK  status: ('A' for Active; 'I' for Inactive)
REMARK    1  A    between atoms: C1_2  and  C2_3 
ROOT
ATOM      1  C2  UNL d   1       2.013  -1.413   3.093  0.00  0.00    -0.073 A 
ATOM      2  C3  UNL d   1       1.947  -1.370   4.491  0.00  0.00    -0.002 A 
ATOM      3  C4  UNL d   1       2.204  -2.517   5.244  0.00  0.00     0.004 A 
ATOM      4  C5  UNL d   1       2.536  -3.713   4.609  0.00  0.00    -0.004 A 
ATOM      5  C6  UNL d   1       2.619  -3.773   3.214  0.00  0.00    -0.075 A 
ATOM      6  C7  UNL d   1       2.973  -5.053   2.516  0.00  0.00     0.076 C 
ATOM      7  C8  UNL d   1       2.356  -2.618   2.465  0.00  0.00     0.001 A 
ENDROOT
BRANCH   1   8
ATOM      8  C1  UNL d   1       1.742  -0.176   2.276  0.00  0.00     0.053 C 
ATOM      9  C   UNL d   1       3.005   0.634   2.032  0.00  0.00     0.018 C 
ENDBRANCH   1   8
TORSDOF 1
ENDMDL
