MODEL 1
REMARK minimizedAffinity 9.14548111
REMARK minimizedRMSD -1
REMARK  1 active torsions:
REMARK  status: ('A' for Active; 'I' for Inactive)
REMARK    1  A    between atoms: C1_2  and  C2_3 
ROOT
ATOM      1  C2  UNL d   1       1.564  -4.680   4.352  0.00  0.00    -0.073 A 
ATOM      2  C3  UNL d   1       0.916  -3.670   3.633  0.00  0.00    -0.002 A 
ATOM      3  C4  UNL d   1       1.555  -2.453   3.395  0.00  0.00     0.004 A 
ATOM      4  C5  UNL d   1       2.850  -2.236   3.866  0.00  0.00    -0.004 A 
ATOM      5  C6  UNL d   1       3.519  -3.239   4.576  0.00  0.00    -0.075 A 
ATOM      6  C7  UNL d   1       4.912  -3.021   5.091  0.00  0.00     0.076 C 
ATOM      7  C8  UNL d   1       2.869  -4.457   4.814  0.00  0.00     0.001 A 
ENDROOT
BRANCH   1   8
ATOM      8  C1  UNL d   1       0.879  -5.998   4.607  0.00  0.00     0.053 C 
ATOM      9  C   UNL d   1       0.115  -5.999   5.921  0.00  0.00     0.018 C 
ENDBRANCH   1   8
TORSDOF 1
ENDMDL
