MODEL 1
REMARK minimizedAffinity -5.91235399
REMARK minimizedRMSD -1
REMARK  1 active torsions:
REMARK  status: ('A' for Active; 'I' for Inactive)
REMARK    1  A    between atoms: C1_2  and  C2_3 
ROOT
ATOM      1  C2  UNL d   1       0.054  -0.494   0.179  0.00  0.00    -0.077 A 
ATOM      2  C3  UNL d   1      -0.763  -1.077   1.158  0.00  0.00     0.002 A 
ATOM      3  C4  UNL d   1      -2.137  -1.209   0.945  0.00  0.00     0.002 A 
ATOM      4  C5  UNL d   1      -2.704  -0.766  -0.247  0.00  0.00    -0.004 A 
ATOM      5  C6  UNL d   1      -1.901  -0.184  -1.227  0.00  0.00     0.002 A 
ATOM      6  C7  UNL d   1      -0.528  -0.049  -1.015  0.00  0.00     0.002 A 
ENDROOT
BRANCH   1   7
ATOM      7  C1  UNL d   1       1.542  -0.395   0.386  0.00  0.00     0.055 C 
ATOM      8  C   UNL d   1       2.053   1.004   0.074  0.00  0.00     0.019 C 
ENDBRANCH   1   7
TORSDOF 1
ENDMDL
