MODEL 1
REMARK minimizedAffinity -1.87220085
REMARK minimizedRMSD -1
REMARK  1 active torsions:
REMARK  status: ('A' for Active; 'I' for Inactive)
REMARK    1  A    between atoms: C1_2  and  C2_3 
ROOT
ATOM      1  C2  UNL d   1      -1.041  -0.861  -0.161  0.00  0.00    -0.077 A 
ATOM      2  C3  UNL d   1      -0.280   0.041  -0.918  0.00  0.00     0.002 A 
ATOM      3  C4  UNL d   1       1.018   0.373  -0.525  0.00  0.00     0.002 A 
ATOM      4  C5  UNL d   1       1.568  -0.195   0.622  0.00  0.00    -0.004 A 
ATOM      5  C6  UNL d   1       0.819  -1.091   1.383  0.00  0.00     0.002 A 
ATOM      6  C7  UNL d   1      -0.479  -1.424   0.993  0.00  0.00     0.002 A 
ENDROOT
BRANCH   1   7
ATOM      7  C1  UNL d   1      -2.423  -1.259  -0.609  0.00  0.00     0.055 C 
ATOM      8  C   UNL d   1      -2.405  -1.819  -2.024  0.00  0.00     0.019 C 
ENDBRANCH   1   7
TORSDOF 1
ENDMDL
