MODEL 1
REMARK minimizedAffinity -5.306602
REMARK minimizedRMSD -1
REMARK  1 active torsions:
REMARK  status: ('A' for Active; 'I' for Inactive)
REMARK    1  A    between atoms: C1_2  and  C2_3 
ROOT
ATOM      1  C2  UNL d   1       0.242  -0.322  -0.200  0.00  0.00    -0.077 A 
ATOM      2  C3  UNL d   1      -0.769  -0.818   0.635  0.00  0.00     0.002 A 
ATOM      3  C4  UNL d   1      -2.101  -0.802   0.218  0.00  0.00     0.002 A 
ATOM      4  C5  UNL d   1      -2.434  -0.294  -1.036  0.00  0.00    -0.004 A 
ATOM      5  C6  UNL d   1      -1.436   0.204  -1.873  0.00  0.00     0.002 A 
ATOM      6  C7  UNL d   1      -0.104   0.190  -1.457  0.00  0.00     0.002 A 
ENDROOT
BRANCH   1   7
ATOM      7  C1  UNL d   1       1.685  -0.384   0.229  0.00  0.00     0.055 C 
ATOM      8  C   UNL d   1       2.220   0.998   0.574  0.00  0.00     0.019 C 
ENDBRANCH   1   7
TORSDOF 1
ENDMDL
