MODEL 1
REMARK minimizedAffinity -5.16022444
REMARK minimizedRMSD -1
REMARK  1 active torsions:
REMARK  status: ('A' for Active; 'I' for Inactive)
REMARK    1  A    between atoms: C1_2  and  C2_3 
ROOT
ATOM      1  C2  UNL d   1      -1.180  -0.378  -0.835  0.00  0.00    -0.077 A 
ATOM      2  C3  UNL d   1      -0.501  -1.018   0.211  0.00  0.00     0.002 A 
ATOM      3  C4  UNL d   1       0.780  -0.603   0.581  0.00  0.00     0.002 A 
ATOM      4  C5  UNL d   1       1.391   0.456  -0.087  0.00  0.00    -0.004 A 
ATOM      5  C6  UNL d   1       0.725   1.098  -1.130  0.00  0.00     0.002 A 
ATOM      6  C7  UNL d   1      -0.555   0.684  -1.502  0.00  0.00     0.002 A 
ENDROOT
BRANCH   1   7
ATOM      7  C1  UNL d   1      -2.581  -0.792  -1.203  0.00  0.00     0.055 C 
ATOM      8  C   UNL d   1      -3.580  -0.377  -0.132  0.00  0.00     0.019 C 
ENDBRANCH   1   7
TORSDOF 1
ENDMDL
