MODEL 1
REMARK minimizedAffinity -4.0364418
REMARK minimizedRMSD -1
REMARK  1 active torsions:
REMARK  status: ('A' for Active; 'I' for Inactive)
REMARK    1  A    between atoms: C1_2  and  C2_3 
ROOT
ATOM      1  C2  UNL d   1      -0.200   0.137  -0.269  0.00  0.00    -0.077 A 
ATOM      2  C3  UNL d   1      -1.111  -0.683   0.412  0.00  0.00     0.002 A 
ATOM      3  C4  UNL d   1      -2.434  -0.783  -0.024  0.00  0.00     0.002 A 
ATOM      4  C5  UNL d   1      -2.855  -0.069  -1.144  0.00  0.00    -0.004 A 
ATOM      5  C6  UNL d   1      -1.957   0.751  -1.826  0.00  0.00     0.002 A 
ATOM      6  C7  UNL d   1      -0.635   0.853  -1.391  0.00  0.00     0.002 A 
ENDROOT
BRANCH   1   7
ATOM      7  C1  UNL d   1       1.240   0.207   0.171  0.00  0.00     0.055 C 
ATOM      8  C   UNL d   1       1.530   1.505   0.910  0.00  0.00     0.019 C 
ENDBRANCH   1   7
TORSDOF 1
ENDMDL
