MODEL 1
REMARK minimizedAffinity -3.16465235
REMARK minimizedRMSD -1
REMARK  1 active torsions:
REMARK  status: ('A' for Active; 'I' for Inactive)
REMARK    1  A    between atoms: C1_2  and  C2_3 
ROOT
ATOM      1  C2  UNL d   1      -1.235  -0.690   0.256  0.00  0.00    -0.077 A 
ATOM      2  C3  UNL d   1      -0.354   0.243  -0.307  0.00  0.00     0.002 A 
ATOM      3  C4  UNL d   1       1.017   0.162  -0.054  0.00  0.00     0.002 A 
ATOM      4  C5  UNL d   1       1.518  -0.852   0.760  0.00  0.00    -0.004 A 
ATOM      5  C6  UNL d   1       0.649  -1.783   1.326  0.00  0.00     0.002 A 
ATOM      6  C7  UNL d   1      -0.721  -1.704   1.075  0.00  0.00     0.002 A 
ENDROOT
BRANCH   1   7
ATOM      7  C1  UNL d   1      -2.708  -0.634  -0.055  0.00  0.00     0.055 C 
ATOM      8  C   UNL d   1      -3.069  -1.578  -1.194  0.00  0.00     0.019 C 
ENDBRANCH   1   7
TORSDOF 1
ENDMDL
