MODEL 1
REMARK minimizedAffinity -5.42151451
REMARK minimizedRMSD -1
REMARK  1 active torsions:
REMARK  status: ('A' for Active; 'I' for Inactive)
REMARK    1  A    between atoms: C1_2  and  C2_3 
ROOT
ATOM      1  C2  UNL d   1       0.213  -0.157   0.257  0.00  0.00    -0.077 A 
ATOM      2  C3  UNL d   1      -0.716  -0.770   1.110  0.00  0.00     0.002 A 
ATOM      3  C4  UNL d   1      -2.041  -0.942   0.703  0.00  0.00     0.002 A 
ATOM      4  C5  UNL d   1      -2.447  -0.508  -0.557  0.00  0.00    -0.004 A 
ATOM      5  C6  UNL d   1      -1.531   0.105  -1.411  0.00  0.00     0.002 A 
ATOM      6  C7  UNL d   1      -0.206   0.279  -1.006  0.00  0.00     0.002 A 
ENDROOT
BRANCH   1   7
ATOM      7  C1  UNL d   1       1.654  -0.015   0.674  0.00  0.00     0.055 C 
ATOM      8  C   UNL d   1       2.066   1.448   0.751  0.00  0.00     0.019 C 
ENDBRANCH   1   7
TORSDOF 1
ENDMDL
