MODEL 1
REMARK minimizedAffinity -3.26483011
REMARK minimizedRMSD -1
REMARK  1 active torsions:
REMARK  status: ('A' for Active; 'I' for Inactive)
REMARK    1  A    between atoms: C1_2  and  C2_3 
ROOT
ATOM      1  C2  UNL d   1       0.311  -0.319   0.223  0.00  0.00    -0.077 A 
ATOM      2  C3  UNL d   1       1.056  -1.067   1.146  0.00  0.00     0.002 A 
ATOM      3  C4  UNL d   1       0.441  -2.062   1.908  0.00  0.00     0.002 A 
ATOM      4  C5  UNL d   1      -0.919  -2.321   1.752  0.00  0.00    -0.004 A 
ATOM      5  C6  UNL d   1      -1.668  -1.582   0.838  0.00  0.00     0.002 A 
ATOM      6  C7  UNL d   1      -1.056  -0.586   0.076  0.00  0.00     0.002 A 
ENDROOT
BRANCH   1   7
ATOM      7  C1  UNL d   1       0.983   0.721  -0.636  0.00  0.00     0.055 C 
ATOM      8  C   UNL d   1       0.355   0.785  -2.020  0.00  0.00     0.019 C 
ENDBRANCH   1   7
TORSDOF 1
ENDMDL
