MODEL 1
REMARK minimizedAffinity -2.4608891
REMARK minimizedRMSD -1
REMARK  1 active torsions:
REMARK  status: ('A' for Active; 'I' for Inactive)
REMARK    1  A    between atoms: C1_2  and  C2_3 
ROOT
ATOM      1  C2  UNL d   1       1.259   0.056   0.337  0.00  0.00    -0.077 A 
ATOM      2  C3  UNL d   1       0.316   0.550  -0.575  0.00  0.00     0.002 A 
ATOM      3  C4  UNL d   1      -0.997   0.075  -0.560  0.00  0.00     0.002 A 
ATOM      4  C5  UNL d   1      -1.380  -0.891   0.368  0.00  0.00    -0.004 A 
ATOM      5  C6  UNL d   1      -0.448  -1.390   1.278  0.00  0.00     0.002 A 
ATOM      6  C7  UNL d   1       0.865  -0.918   1.263  0.00  0.00     0.002 A 
ENDROOT
BRANCH   1   7
ATOM      7  C1  UNL d   1       2.663   0.602   0.354  0.00  0.00     0.055 C 
ATOM      8  C   UNL d   1       2.732   1.928   1.098  0.00  0.00     0.019 C 
ENDBRANCH   1   7
TORSDOF 1
ENDMDL
