MODEL 1
REMARK minimizedAffinity -4.96717453
REMARK minimizedRMSD -1
REMARK  1 active torsions:
REMARK  status: ('A' for Active; 'I' for Inactive)
REMARK    1  A    between atoms: C1_2  and  C2_3 
ROOT
ATOM      1  C2  UNL d   1      -0.179   0.163   0.402  0.00  0.00    -0.077 A 
ATOM      2  C3  UNL d   1      -1.061  -0.497   1.269  0.00  0.00     0.002 A 
ATOM      3  C4  UNL d   1      -2.311  -0.923   0.816  0.00  0.00     0.002 A 
ATOM      4  C5  UNL d   1      -2.688  -0.697  -0.506  0.00  0.00    -0.004 A 
ATOM      5  C6  UNL d   1      -1.819  -0.040  -1.376  0.00  0.00     0.002 A 
ATOM      6  C7  UNL d   1      -0.570   0.388  -0.924  0.00  0.00     0.002 A 
ENDROOT
BRANCH   1   7
ATOM      7  C1  UNL d   1       1.189   0.579   0.876  0.00  0.00     0.055 C 
ATOM      8  C   UNL d   1       1.176   1.999   1.424  0.00  0.00     0.019 C 
ENDBRANCH   1   7
TORSDOF 1
ENDMDL
