MODEL 1
REMARK minimizedAffinity -2.43840265
REMARK minimizedRMSD -1
REMARK  1 active torsions:
REMARK  status: ('A' for Active; 'I' for Inactive)
REMARK    1  A    between atoms: C1_2  and  C2_3 
ROOT
ATOM      1  C2  UNL d   1       0.983   0.429   0.380  0.00  0.00    -0.077 A 
ATOM      2  C3  UNL d   1       0.424   0.789  -0.854  0.00  0.00     0.002 A 
ATOM      3  C4  UNL d   1      -0.854   0.351  -1.205  0.00  0.00     0.002 A 
ATOM      4  C5  UNL d   1      -1.585  -0.446  -0.327  0.00  0.00    -0.004 A 
ATOM      5  C6  UNL d   1      -1.037  -0.811   0.902  0.00  0.00     0.002 A 
ATOM      6  C7  UNL d   1       0.241  -0.375   1.255  0.00  0.00     0.002 A 
ENDROOT
BRANCH   1   7
ATOM      7  C1  UNL d   1       2.341   0.942   0.782  0.00  0.00     0.055 C 
ATOM      8  C   UNL d   1       2.234   1.994   1.877  0.00  0.00     0.019 C 
ENDBRANCH   1   7
TORSDOF 1
ENDMDL
