MODEL 1
REMARK minimizedAffinity -2.9967041
REMARK minimizedRMSD -1
REMARK  1 active torsions:
REMARK  status: ('A' for Active; 'I' for Inactive)
REMARK    1  A    between atoms: C1_2  and  C2_3 
ROOT
ATOM      1  C2  UNL d   1       1.970   1.130   0.435  0.00  0.00    -0.077 A 
ATOM      2  C3  UNL d   1       1.742   1.661   1.712  0.00  0.00     0.002 A 
ATOM      3  C4  UNL d   1       2.506   2.733   2.178  0.00  0.00     0.002 A 
ATOM      4  C5  UNL d   1       3.498   3.286   1.371  0.00  0.00    -0.004 A 
ATOM      5  C6  UNL d   1       3.734   2.764   0.100  0.00  0.00     0.002 A 
ATOM      6  C7  UNL d   1       2.973   1.691  -0.366  0.00  0.00     0.002 A 
ENDROOT
BRANCH   1   7
ATOM      7  C1  UNL d   1       1.116   0.005  -0.088  0.00  0.00     0.055 C 
ATOM      8  C   UNL d   1      -0.365   0.305   0.093  0.00  0.00     0.019 C 
ENDBRANCH   1   7
TORSDOF 1
ENDMDL
