MODEL 1
REMARK minimizedAffinity 16.1457653
REMARK minimizedRMSD -1
REMARK  0 active torsions:
REMARK  status: ('A' for Active; 'I' for Inactive)
ROOT
ATOM      1  C1  DEN d   1      -0.446   1.555   1.283  0.00  0.00     0.130 A 
ATOM      2  C2  DEN d   1      -0.245   0.255   1.916  0.00  0.00    -0.031 A 
ATOM      3  C3  DEN d   1       0.753   0.421   2.993  0.00  0.00     0.027 A 
ATOM      4  C4  DEN d   1       1.994   2.555   3.739  0.00  0.00     0.027 A 
ATOM      5  C5  DEN d   1       2.162   3.900   3.493  0.00  0.00    -0.003 A 
ATOM      6  C6  DEN d   1       1.503   4.545   2.480  0.00  0.00     0.001 A 
ATOM      7  C7  DEN d   1       0.611   3.855   1.703  0.00  0.00     0.017 A 
ATOM      8  C8  DEN d   1       0.442   2.497   1.940  0.00  0.00    -0.094 A 
ATOM      9  C9  DEN d   1       1.107   1.866   2.977  0.00  0.00    -0.072 A 
ENDROOT
TORSDOF 0
ENDMDL
