MODEL 1
REMARK minimizedAffinity 15.0301342
REMARK minimizedRMSD -1
REMARK  0 active torsions:
REMARK  status: ('A' for Active; 'I' for Inactive)
ROOT
ATOM      1  C1  DEN d   1       0.038   2.038   0.337  0.00  0.00     0.130 A 
ATOM      2  C2  DEN d   1       0.232   0.643   0.722  0.00  0.00    -0.031 A 
ATOM      3  C3  DEN d   1       1.106   0.615   1.912  0.00  0.00     0.027 A 
ATOM      4  C4  DEN d   1       2.168   2.586   3.192  0.00  0.00     0.027 A 
ATOM      5  C5  DEN d   1       2.300   3.956   3.234  0.00  0.00    -0.003 A 
ATOM      6  C6  DEN d   1       1.720   4.775   2.301  0.00  0.00     0.001 A 
ATOM      7  C7  DEN d   1       0.943   4.232   1.311  0.00  0.00     0.017 A 
ATOM      8  C8  DEN d   1       0.811   2.851   1.258  0.00  0.00    -0.094 A 
ATOM      9  C9  DEN d   1       1.396   2.041   2.218  0.00  0.00    -0.072 A 
ENDROOT
TORSDOF 0
ENDMDL
