MODEL 1
REMARK minimizedAffinity 8.53797913
REMARK minimizedRMSD -1
REMARK  0 active torsions:
REMARK  status: ('A' for Active; 'I' for Inactive)
ROOT
ATOM      1  C1  DEN d   1       1.937   1.870   3.585  0.00  0.00     0.130 A 
ATOM      2  C2  DEN d   1       1.732   3.276   3.248  0.00  0.00    -0.031 A 
ATOM      3  C3  DEN d   1       0.719   3.346   2.176  0.00  0.00     0.027 A 
ATOM      4  C4  DEN d   1      -0.550   1.424   1.016  0.00  0.00     0.027 A 
ATOM      5  C5  DEN d   1      -0.705   0.057   0.955  0.00  0.00    -0.003 A 
ATOM      6  C6  DEN d   1       0.028  -0.797   1.736  0.00  0.00     0.001 A 
ATOM      7  C7  DEN d   1       0.919  -0.289   2.645  0.00  0.00     0.017 A 
ATOM      8  C8  DEN d   1       1.086   1.088   2.707  0.00  0.00    -0.094 A 
ATOM      9  C9  DEN d   1       0.326   1.935   1.917  0.00  0.00    -0.072 A 
ENDROOT
TORSDOF 0
ENDMDL
