MODEL 1
REMARK minimizedAffinity 14.6319942
REMARK minimizedRMSD -1
REMARK  0 active torsions:
REMARK  status: ('A' for Active; 'I' for Inactive)
ROOT
ATOM      1  C1  DEN d   1       0.477   0.477   1.382  0.00  0.00     0.130 A 
ATOM      2  C2  DEN d   1      -0.265   0.462   0.125  0.00  0.00    -0.031 A 
ATOM      3  C3  DEN d   1      -0.367   1.852  -0.362  0.00  0.00     0.027 A 
ATOM      4  C4  DEN d   1       0.551   4.015   0.702  0.00  0.00     0.027 A 
ATOM      5  C5  DEN d   1       1.240   4.533   1.777  0.00  0.00    -0.003 A 
ATOM      6  C6  DEN d   1       1.689   3.746   2.804  0.00  0.00     0.001 A 
ATOM      7  C7  DEN d   1       1.494   2.391   2.756  0.00  0.00     0.017 A 
ATOM      8  C8  DEN d   1       0.794   1.862   1.679  0.00  0.00    -0.094 A 
ATOM      9  C9  DEN d   1       0.359   2.673   0.644  0.00  0.00    -0.072 A 
ENDROOT
TORSDOF 0
ENDMDL
