MODEL 1
REMARK minimizedAffinity 10.9681091
REMARK minimizedRMSD -1
REMARK  0 active torsions:
REMARK  status: ('A' for Active; 'I' for Inactive)
ROOT
ATOM      1  C1  DEN d   1       1.110   0.130   2.539  0.00  0.00     0.130 A 
ATOM      2  C2  DEN d   1       0.103   0.100   1.481  0.00  0.00    -0.031 A 
ATOM      3  C3  DEN d   1      -0.168   1.491   1.069  0.00  0.00     0.027 A 
ATOM      4  C4  DEN d   1       0.870   3.679   1.957  0.00  0.00     0.027 A 
ATOM      5  C5  DEN d   1       1.760   4.212   2.862  0.00  0.00    -0.003 A 
ATOM      6  C6  DEN d   1       2.465   3.431   3.739  0.00  0.00     0.001 A 
ATOM      7  C7  DEN d   1       2.326   2.069   3.699  0.00  0.00     0.017 A 
ATOM      8  C8  DEN d   1       1.424   1.525   2.794  0.00  0.00    -0.094 A 
ATOM      9  C9  DEN d   1       0.730   2.330   1.907  0.00  0.00    -0.072 A 
ENDROOT
TORSDOF 0
ENDMDL
