MODEL 1
REMARK minimizedAffinity -1.97296655
REMARK minimizedRMSD -1
REMARK  0 active torsions:
REMARK  status: ('A' for Active; 'I' for Inactive)
ROOT
ATOM      1  C1  DEN d   1       0.621   2.381   1.940  0.00  0.00     0.130 A 
ATOM      2  C2  DEN d   1       1.188   1.578   3.020  0.00  0.00    -0.031 A 
ATOM      3  C3  DEN d   1       1.679   0.312   2.439  0.00  0.00     0.027 A 
ATOM      4  C4  DEN d   1       1.623  -0.476  -0.016  0.00  0.00     0.027 A 
ATOM      5  C5  DEN d   1       1.229  -0.142  -1.293  0.00  0.00    -0.003 A 
ATOM      6  C6  DEN d   1       0.581   1.031  -1.574  0.00  0.00     0.001 A 
ATOM      7  C7  DEN d   1       0.346   1.934  -0.572  0.00  0.00     0.017 A 
ATOM      8  C8  DEN d   1       0.733   1.602   0.720  0.00  0.00    -0.094 A 
ATOM      9  C9  DEN d   1       1.398   0.416   0.982  0.00  0.00    -0.072 A 
ENDROOT
TORSDOF 0
ENDMDL
