MODEL 1
REMARK minimizedAffinity 3.88431954
REMARK minimizedRMSD -1
REMARK  0 active torsions:
REMARK  status: ('A' for Active; 'I' for Inactive)
ROOT
ATOM      1  C1  DEN d   1       2.522   5.566  -0.006  0.00  0.00     0.130 A 
ATOM      2  C2  DEN d   1       1.390   5.784  -0.902  0.00  0.00    -0.031 A 
ATOM      3  C3  DEN d   1       0.261   4.965  -0.420  0.00  0.00     0.027 A 
ATOM      4  C4  DEN d   1       0.154   3.390   1.620  0.00  0.00     0.027 A 
ATOM      5  C5  DEN d   1       0.870   2.869   2.675  0.00  0.00    -0.003 A 
ATOM      6  C6  DEN d   1       2.187   3.182   2.889  0.00  0.00     0.001 A 
ATOM      7  C7  DEN d   1       2.815   4.074   2.061  0.00  0.00     0.017 A 
ATOM      8  C8  DEN d   1       2.102   4.598   0.991  0.00  0.00    -0.094 A 
ATOM      9  C9  DEN d   1       0.768   4.279   0.799  0.00  0.00    -0.072 A 
ENDROOT
TORSDOF 0
ENDMDL
