MODEL 1
REMARK minimizedAffinity -0.557065964
REMARK minimizedRMSD -1
REMARK  1 active torsions:
REMARK  status: ('A' for Active; 'I' for Inactive)
REMARK    1  A    between atoms: C1_2  and  C2_3 
ROOT
ATOM      1  C2  UNL d   1      -1.221  -1.383  -1.624  0.00  0.00    -0.077 A 
ATOM      2  C3  UNL d   1      -1.465  -2.759  -1.512  0.00  0.00     0.002 A 
ATOM      3  C4  UNL d   1      -2.328  -3.245  -0.528  0.00  0.00     0.002 A 
ATOM      4  C5  UNL d   1      -2.956  -2.363   0.349  0.00  0.00    -0.004 A 
ATOM      5  C6  UNL d   1      -2.717  -0.993   0.247  0.00  0.00     0.002 A 
ATOM      6  C7  UNL d   1      -1.854  -0.505  -0.735  0.00  0.00     0.002 A 
ENDROOT
BRANCH   1   7
ATOM      7  C1  UNL d   1      -0.329  -0.852  -2.716  0.00  0.00     0.055 C 
ATOM      8  C   UNL d   1      -1.144  -0.315  -3.884  0.00  0.00     0.019 C 
ENDBRANCH   1   7
TORSDOF 1
ENDMDL
