MODEL 1
REMARK minimizedAffinity -4.12581396
REMARK minimizedRMSD -1
REMARK  1 active torsions:
REMARK  status: ('A' for Active; 'I' for Inactive)
REMARK    1  A    between atoms: C1_2  and  C2_3 
ROOT
ATOM      1  C2  UNL d   1      -4.925   4.574   3.503  0.00  0.00    -0.077 A 
ATOM      2  C3  UNL d   1      -3.916   4.504   4.474  0.00  0.00     0.002 A 
ATOM      3  C4  UNL d   1      -3.951   3.514   5.459  0.00  0.00     0.002 A 
ATOM      4  C5  UNL d   1      -4.989   2.585   5.479  0.00  0.00    -0.004 A 
ATOM      5  C6  UNL d   1      -5.998   2.647   4.519  0.00  0.00     0.002 A 
ATOM      6  C7  UNL d   1      -5.966   3.637   3.535  0.00  0.00     0.002 A 
ENDROOT
BRANCH   1   7
ATOM      7  C1  UNL d   1      -4.864   5.610   2.412  0.00  0.00     0.055 C 
ATOM      8  C   UNL d   1      -5.999   5.431   1.414  0.00  0.00     0.019 C 
ENDBRANCH   1   7
TORSDOF 1
ENDMDL
