MODEL 1
REMARK minimizedAffinity 1.91840267
REMARK minimizedRMSD -1
REMARK  1 active torsions:
REMARK  status: ('A' for Active; 'I' for Inactive)
REMARK    1  A    between atoms: C1_2  and  C2_3 
ROOT
ATOM      1  C2  UNL d   1      -1.062  -0.932  -0.547  0.00  0.00    -0.077 A 
ATOM      2  C3  UNL d   1      -1.856  -0.489   0.520  0.00  0.00     0.002 A 
ATOM      3  C4  UNL d   1      -3.117  -1.047   0.740  0.00  0.00     0.002 A 
ATOM      4  C5  UNL d   1      -3.592  -2.053  -0.098  0.00  0.00    -0.004 A 
ATOM      5  C6  UNL d   1      -2.811  -2.499  -1.163  0.00  0.00     0.002 A 
ATOM      6  C7  UNL d   1      -1.551  -1.942  -1.386  0.00  0.00     0.002 A 
ENDROOT
BRANCH   1   7
ATOM      7  C1  UNL d   1       0.319  -0.367  -0.757  0.00  0.00     0.055 C 
ATOM      8  C   UNL d   1       0.519   0.085  -2.196  0.00  0.00     0.019 C 
ENDBRANCH   1   7
TORSDOF 1
ENDMDL
