MODEL 1
REMARK minimizedAffinity -1.79016984
REMARK minimizedRMSD -1
REMARK  1 active torsions:
REMARK  status: ('A' for Active; 'I' for Inactive)
REMARK    1  A    between atoms: C1_2  and  C2_3 
ROOT
ATOM      1  C2  UNL d   1      -1.292  -1.077  -0.358  0.00  0.00    -0.077 A 
ATOM      2  C3  UNL d   1      -1.929  -0.586   0.790  0.00  0.00     0.002 A 
ATOM      3  C4  UNL d   1      -3.237  -0.969   1.090  0.00  0.00     0.002 A 
ATOM      4  C5  UNL d   1      -3.918  -1.847   0.250  0.00  0.00    -0.004 A 
ATOM      5  C6  UNL d   1      -3.294  -2.339  -0.895  0.00  0.00     0.002 A 
ATOM      6  C7  UNL d   1      -1.987  -1.957  -1.198  0.00  0.00     0.002 A 
ENDROOT
BRANCH   1   7
ATOM      7  C1  UNL d   1       0.137  -0.704  -0.658  0.00  0.00     0.055 C 
ATOM      8  C   UNL d   1       0.231   0.693  -1.253  0.00  0.00     0.019 C 
ENDBRANCH   1   7
TORSDOF 1
ENDMDL
