MODEL 1
REMARK minimizedAffinity -1.17012846
REMARK minimizedRMSD -1
REMARK  1 active torsions:
REMARK  status: ('A' for Active; 'I' for Inactive)
REMARK    1  A    between atoms: C1_2  and  C2_3 
ROOT
ATOM      1  C2  UNL d   1      -1.171  -1.150  -0.634  0.00  0.00    -0.077 A 
ATOM      2  C3  UNL d   1      -1.494  -2.292  -1.380  0.00  0.00     0.002 A 
ATOM      3  C4  UNL d   1      -2.763  -2.866  -1.279  0.00  0.00     0.002 A 
ATOM      4  C5  UNL d   1      -3.719  -2.303  -0.437  0.00  0.00    -0.004 A 
ATOM      5  C6  UNL d   1      -3.407  -1.168   0.311  0.00  0.00     0.002 A 
ATOM      6  C7  UNL d   1      -2.139  -0.593   0.212  0.00  0.00     0.002 A 
ENDROOT
BRANCH   1   7
ATOM      7  C1  UNL d   1       0.180  -0.500  -0.779  0.00  0.00     0.055 C 
ATOM      8  C   UNL d   1       0.088   0.801  -1.563  0.00  0.00     0.019 C 
ENDBRANCH   1   7
TORSDOF 1
ENDMDL
