MODEL 1
REMARK minimizedAffinity -3.50963354
REMARK minimizedRMSD -1
REMARK  1 active torsions:
REMARK  status: ('A' for Active; 'I' for Inactive)
REMARK    1  A    between atoms: C1_2  and  C2_3 
ROOT
ATOM      1  C2  UNL d   1      -4.726   4.899   3.236  0.00  0.00    -0.077 A 
ATOM      2  C3  UNL d   1      -5.912   5.121   3.951  0.00  0.00     0.002 A 
ATOM      3  C4  UNL d   1      -6.000   4.771   5.299  0.00  0.00     0.002 A 
ATOM      4  C5  UNL d   1      -4.906   4.200   5.946  0.00  0.00    -0.004 A 
ATOM      5  C6  UNL d   1      -3.723   3.973   5.244  0.00  0.00     0.002 A 
ATOM      6  C7  UNL d   1      -3.633   4.322   3.895  0.00  0.00     0.002 A 
ENDROOT
BRANCH   1   7
ATOM      7  C1  UNL d   1      -4.612   5.321   1.795  0.00  0.00     0.055 C 
ATOM      8  C   UNL d   1      -5.888   5.997   1.314  0.00  0.00     0.019 C 
ENDBRANCH   1   7
TORSDOF 1
ENDMDL
