MODEL 1
REMARK minimizedAffinity -3.84630728
REMARK minimizedRMSD -1
REMARK  1 active torsions:
REMARK  status: ('A' for Active; 'I' for Inactive)
REMARK    1  A    between atoms: C1_2  and  C2_3 
ROOT
ATOM      1  C2  UNL d   1      -5.011   4.516   3.227  0.00  0.00    -0.077 A 
ATOM      2  C3  UNL d   1      -3.800   4.817   3.867  0.00  0.00     0.002 A 
ATOM      3  C4  UNL d   1      -3.581   4.421   5.187  0.00  0.00     0.002 A 
ATOM      4  C5  UNL d   1      -4.566   3.719   5.878  0.00  0.00    -0.004 A 
ATOM      5  C6  UNL d   1      -5.775   3.417   5.252  0.00  0.00     0.002 A 
ATOM      6  C7  UNL d   1      -5.996   3.813   3.932  0.00  0.00     0.002 A 
ENDROOT
BRANCH   1   7
ATOM      7  C1  UNL d   1      -5.229   4.899   1.787  0.00  0.00     0.055 C 
ATOM      8  C   UNL d   1      -5.509   3.676   0.925  0.00  0.00     0.019 C 
ENDBRANCH   1   7
TORSDOF 1
ENDMDL
