MODEL 1
REMARK minimizedAffinity -1.84250152
REMARK minimizedRMSD -1
REMARK  1 active torsions:
REMARK  status: ('A' for Active; 'I' for Inactive)
REMARK    1  A    between atoms: C1_2  and  C2_3 
ROOT
ATOM      1  C2  UNL d   1      -5.249   4.785   2.050  0.00  0.00    -0.077 A 
ATOM      2  C3  UNL d   1      -5.364   3.578   1.346  0.00  0.00     0.002 A 
ATOM      3  C4  UNL d   1      -5.650   3.582  -0.021  0.00  0.00     0.002 A 
ATOM      4  C5  UNL d   1      -5.820   4.790  -0.695  0.00  0.00    -0.004 A 
ATOM      5  C6  UNL d   1      -5.710   5.995  -0.004  0.00  0.00     0.002 A 
ATOM      6  C7  UNL d   1      -5.425   5.993   1.362  0.00  0.00     0.002 A 
ENDROOT
BRANCH   1   7
ATOM      7  C1  UNL d   1      -4.892   4.785   3.513  0.00  0.00     0.055 C 
ATOM      8  C   UNL d   1      -6.000   5.402   4.354  0.00  0.00     0.019 C 
ENDBRANCH   1   7
TORSDOF 1
ENDMDL
