MODEL 1
REMARK minimizedAffinity -2.74763012
REMARK minimizedRMSD -1
REMARK  1 active torsions:
REMARK  status: ('A' for Active; 'I' for Inactive)
REMARK    1  A    between atoms: C1_2  and  C2_3 
ROOT
ATOM      1  C2  UNL d   1      -5.232   4.388   3.370  0.00  0.00    -0.077 A 
ATOM      2  C3  UNL d   1      -5.246   3.388   4.352  0.00  0.00     0.002 A 
ATOM      3  C4  UNL d   1      -5.626   3.688   5.662  0.00  0.00     0.002 A 
ATOM      4  C5  UNL d   1      -5.999   4.987   6.000  0.00  0.00    -0.004 A 
ATOM      5  C6  UNL d   1      -5.987   5.990   5.031  0.00  0.00     0.002 A 
ATOM      6  C7  UNL d   1      -5.606   5.692   3.722  0.00  0.00     0.002 A 
ENDROOT
BRANCH   1   7
ATOM      7  C1  UNL d   1      -4.870   4.056   1.946  0.00  0.00     0.055 C 
ATOM      8  C   UNL d   1      -5.699   4.867   0.961  0.00  0.00     0.019 C 
ENDBRANCH   1   7
TORSDOF 1
ENDMDL
