MODEL 1
REMARK minimizedAffinity -3.16274643
REMARK minimizedRMSD -1
REMARK  1 active torsions:
REMARK  status: ('A' for Active; 'I' for Inactive)
REMARK    1  A    between atoms: C1_2  and  C2_3 
ROOT
ATOM      1  C2  UNL d   1      -5.361   4.596   2.855  0.00  0.00    -0.077 A 
ATOM      2  C3  UNL d   1      -5.938   4.689   4.129  0.00  0.00     0.002 A 
ATOM      3  C4  UNL d   1      -5.999   3.569   4.960  0.00  0.00     0.002 A 
ATOM      4  C5  UNL d   1      -5.482   2.350   4.528  0.00  0.00    -0.004 A 
ATOM      5  C6  UNL d   1      -4.908   2.247   3.262  0.00  0.00     0.002 A 
ATOM      6  C7  UNL d   1      -4.847   3.365   2.429  0.00  0.00     0.002 A 
ENDROOT
BRANCH   1   7
ATOM      7  C1  UNL d   1      -5.250   5.815   1.976  0.00  0.00     0.055 C 
ATOM      8  C   UNL d   1      -5.974   5.610   0.652  0.00  0.00     0.019 C 
ENDBRANCH   1   7
TORSDOF 1
ENDMDL
