MODEL 1
REMARK minimizedAffinity -3.84008503
REMARK minimizedRMSD -1
REMARK  1 active torsions:
REMARK  status: ('A' for Active; 'I' for Inactive)
REMARK    1  A    between atoms: C1_2  and  C2_3 
ROOT
ATOM      1  C2  UNL d   1      -5.559   3.881   3.739  0.00  0.00    -0.077 A 
ATOM      2  C3  UNL d   1      -5.697   3.602   2.372  0.00  0.00     0.002 A 
ATOM      3  C4  UNL d   1      -5.249   4.516   1.416  0.00  0.00     0.002 A 
ATOM      4  C5  UNL d   1      -4.657   5.712   1.817  0.00  0.00    -0.004 A 
ATOM      5  C6  UNL d   1      -4.518   6.000   3.174  0.00  0.00     0.002 A 
ATOM      6  C7  UNL d   1      -4.966   5.088   4.131  0.00  0.00     0.002 A 
ENDROOT
BRANCH   1   7
ATOM      7  C1  UNL d   1      -5.996   2.876   4.772  0.00  0.00     0.055 C 
ATOM      8  C   UNL d   1      -5.063   2.874   5.974  0.00  0.00     0.019 C 
ENDBRANCH   1   7
TORSDOF 1
ENDMDL
