MODEL 1
REMARK minimizedAffinity 0.11036215
REMARK minimizedRMSD -1
REMARK  1 active torsions:
REMARK  status: ('A' for Active; 'I' for Inactive)
REMARK    1  A    between atoms: C3_4  and  O_7 
ROOT
ATOM      1  C   UNL d   1      -4.098   4.001  -4.319  0.00  0.00    -0.033 A 
ATOM      2  C1  UNL d   1      -3.021   3.112  -4.303  0.00  0.00     0.039 A 
ATOM      3  C2  UNL d   1      -3.193   1.797  -4.738  0.00  0.00    -0.080 A 
ATOM      4  C3  UNL d   1      -4.444   1.383  -5.187  0.00  0.00     0.150 A 
ATOM      5  C4  UNL d   1      -5.520   2.264  -5.209  0.00  0.00    -0.007 A 
ATOM      6  C5  UNL d   1      -5.347   3.577  -4.774  0.00  0.00     0.039 A 
ENDROOT
BRANCH   4   7
ATOM      7  O   UNL d   1      -4.661   0.107  -5.617  0.00  0.00    -0.526 OA
ATOM      8  H5  UNL d   1      -3.835  -0.395  -5.518  0.00  0.00     0.418 HD
ENDBRANCH   4   7
TORSDOF 1
ENDMDL
