MODEL 1
REMARK minimizedAffinity 2.20950079
REMARK minimizedRMSD -1
REMARK  1 active torsions:
REMARK  status: ('A' for Active; 'I' for Inactive)
REMARK    1  A    between atoms: C3_4  and  O_7 
ROOT
ATOM      1  C   UNL d   1       2.636   0.688  -1.885  0.00  0.00    -0.033 A 
ATOM      2  C1  UNL d   1       1.769   0.398  -2.940  0.00  0.00     0.039 A 
ATOM      3  C2  UNL d   1       0.964   1.403  -3.481  0.00  0.00    -0.080 A 
ATOM      4  C3  UNL d   1       1.036   2.691  -2.959  0.00  0.00     0.150 A 
ATOM      5  C4  UNL d   1       1.900   2.988  -1.910  0.00  0.00    -0.007 A 
ATOM      6  C5  UNL d   1       2.703   1.984  -1.371  0.00  0.00     0.039 A 
ENDROOT
BRANCH   4   7
ATOM      7  O   UNL d   1       0.267   3.704  -3.451  0.00  0.00    -0.526 OA
ATOM      8  H5  UNL d   1      -0.302   3.345  -4.153  0.00  0.00     0.418 HD
ENDBRANCH   4   7
TORSDOF 1
ENDMDL
