MODEL 1
REMARK minimizedAffinity 4.16030884
REMARK minimizedRMSD -1
REMARK  1 active torsions:
REMARK  status: ('A' for Active; 'I' for Inactive)
REMARK    1  A    between atoms: C3_4  and  O_7 
ROOT
ATOM      1  C   UNL d   1       1.930  -1.000   3.173  0.00  0.00    -0.033 A 
ATOM      2  C1  UNL d   1       3.041  -0.663   2.397  0.00  0.00     0.039 A 
ATOM      3  C2  UNL d   1       2.977  -0.755   1.005  0.00  0.00    -0.080 A 
ATOM      4  C3  UNL d   1       1.797  -1.185   0.403  0.00  0.00     0.150 A 
ATOM      5  C4  UNL d   1       0.686  -1.519   1.169  0.00  0.00    -0.007 A 
ATOM      6  C5  UNL d   1       0.752  -1.427   2.559  0.00  0.00     0.039 A 
ENDROOT
BRANCH   4   7
ATOM      7  O   UNL d   1       1.688  -1.296  -0.952  0.00  0.00    -0.526 OA
ATOM      8  H5  UNL d   1       2.543  -1.059  -1.349  0.00  0.00     0.418 HD
ENDBRANCH   4   7
TORSDOF 1
ENDMDL
