MODEL 1
REMARK minimizedAffinity 5.94471741
REMARK minimizedRMSD -1
REMARK  1 active torsions:
REMARK  status: ('A' for Active; 'I' for Inactive)
REMARK    1  A    between atoms: C3_4  and  O_7 
ROOT
ATOM      1  C   UNL d   1      -4.497   0.744  -5.169  0.00  0.00    -0.033 A 
ATOM      2  C1  UNL d   1      -3.743   0.744  -3.994  0.00  0.00     0.039 A 
ATOM      3  C2  UNL d   1      -2.990  -0.380  -3.645  0.00  0.00    -0.080 A 
ATOM      4  C3  UNL d   1      -3.000  -1.494  -4.480  0.00  0.00     0.150 A 
ATOM      5  C4  UNL d   1      -3.746  -1.499  -5.654  0.00  0.00    -0.007 A 
ATOM      6  C5  UNL d   1      -4.497  -0.376  -5.999  0.00  0.00     0.039 A 
ENDROOT
BRANCH   4   7
ATOM      7  O   UNL d   1      -2.285  -2.615  -4.179  0.00  0.00    -0.526 OA
ATOM      8  H5  UNL d   1      -1.842  -2.478  -3.325  0.00  0.00     0.418 HD
ENDBRANCH   4   7
TORSDOF 1
ENDMDL
