MODEL 1
REMARK minimizedAffinity 2.96075392
REMARK minimizedRMSD -1
REMARK  1 active torsions:
REMARK  status: ('A' for Active; 'I' for Inactive)
REMARK    1  A    between atoms: C3_4  and  O_7 
ROOT
ATOM      1  C   UNL d   1       2.145  -1.417   2.755  0.00  0.00    -0.033 A 
ATOM      2  C1  UNL d   1       2.055  -0.231   3.486  0.00  0.00     0.039 A 
ATOM      3  C2  UNL d   1       0.822   0.407   3.638  0.00  0.00    -0.080 A 
ATOM      4  C3  UNL d   1      -0.312  -0.152   3.056  0.00  0.00     0.150 A 
ATOM      5  C4  UNL d   1      -0.231  -1.336   2.330  0.00  0.00    -0.007 A 
ATOM      6  C5  UNL d   1       1.001  -1.970   2.178  0.00  0.00     0.039 A 
ENDROOT
BRANCH   4   7
ATOM      7  O   UNL d   1      -1.536   0.436   3.173  0.00  0.00    -0.526 OA
ATOM      8  H5  UNL d   1      -1.435   1.261   3.677  0.00  0.00     0.418 HD
ENDBRANCH   4   7
TORSDOF 1
ENDMDL
