MODEL 1
REMARK minimizedAffinity 1.69588685
REMARK minimizedRMSD -1
REMARK  1 active torsions:
REMARK  status: ('A' for Active; 'I' for Inactive)
REMARK    1  A    between atoms: C3_4  and  O_7 
ROOT
ATOM      1  C   UNL d   1       0.558  -1.557   2.918  0.00  0.00    -0.033 A 
ATOM      2  C1  UNL d   1      -0.078  -2.765   2.625  0.00  0.00     0.039 A 
ATOM      3  C2  UNL d   1      -1.249  -2.772   1.865  0.00  0.00    -0.080 A 
ATOM      4  C3  UNL d   1      -1.773  -1.568   1.405  0.00  0.00     0.150 A 
ATOM      5  C4  UNL d   1      -1.142  -0.361   1.690  0.00  0.00    -0.007 A 
ATOM      6  C5  UNL d   1       0.027  -0.355   2.449  0.00  0.00     0.039 A 
ENDROOT
BRANCH   4   7
ATOM      7  O   UNL d   1      -2.917  -1.524   0.664  0.00  0.00    -0.526 OA
ATOM      8  H5  UNL d   1      -3.257  -2.430   0.570  0.00  0.00     0.418 HD
ENDBRANCH   4   7
TORSDOF 1
ENDMDL
