MODEL 1
REMARK minimizedAffinity 1.37749505
REMARK minimizedRMSD -1
REMARK  0 active torsions:
REMARK  status: ('A' for Active; 'I' for Inactive)
ROOT
ATOM      1  C   UNL d   1       0.305   3.751   0.501  0.00  0.00     0.023 A 
ATOM      2  C1  UNL d   1       0.794   3.531   1.788  0.00  0.00     0.003 A 
ATOM      3  C2  UNL d   1       0.964   2.227   2.259  0.00  0.00     0.048 A 
ATOM      4  C3  UNL d   1       0.644   1.148   1.436  0.00  0.00     0.023 A 
ATOM      5  C4  UNL d   1       0.154   1.364   0.146  0.00  0.00     0.048 A 
ATOM      6  C5  UNL d   1      -0.015   2.669  -0.319  0.00  0.00     0.003 A 
ATOM      7  I   UNL d   1       0.896  -0.793   2.133  0.00  0.00    -0.146 I 
ENDROOT
TORSDOF 0
ENDMDL
