MODEL 1
REMARK minimizedAffinity 3.94971657
REMARK minimizedRMSD -1
REMARK  0 active torsions:
REMARK  status: ('A' for Active; 'I' for Inactive)
ROOT
ATOM      1  C   UNL d   1      -0.706   3.009  -2.385  0.00  0.00     0.023 A 
ATOM      2  C1  UNL d   1      -0.234   3.914  -1.434  0.00  0.00     0.003 A 
ATOM      3  C2  UNL d   1      -0.082   3.516  -0.104  0.00  0.00     0.048 A 
ATOM      4  C3  UNL d   1      -0.404   2.212   0.268  0.00  0.00     0.023 A 
ATOM      5  C4  UNL d   1      -0.876   1.302  -0.680  0.00  0.00     0.048 A 
ATOM      6  C5  UNL d   1      -1.027   1.705  -2.009  0.00  0.00     0.003 A 
ATOM      7  I   UNL d   1      -0.179   1.617   2.246  0.00  0.00    -0.146 I 
ENDROOT
TORSDOF 0
ENDMDL
