MODEL 1
REMARK minimizedAffinity 1.18369615
REMARK minimizedRMSD -1
REMARK  0 active torsions:
REMARK  status: ('A' for Active; 'I' for Inactive)
ROOT
ATOM      1  C   UNL d   1       0.040   5.158  -1.010  0.00  0.00     0.023 A 
ATOM      2  C1  UNL d   1      -0.442   4.860  -2.284  0.00  0.00     0.003 A 
ATOM      3  C2  UNL d   1      -0.812   3.552  -2.604  0.00  0.00     0.048 A 
ATOM      4  C3  UNL d   1      -0.698   2.547  -1.644  0.00  0.00     0.023 A 
ATOM      5  C4  UNL d   1      -0.216   2.841  -0.367  0.00  0.00     0.048 A 
ATOM      6  C5  UNL d   1       0.153   4.150  -0.053  0.00  0.00     0.003 A 
ATOM      7  I   UNL d   1      -1.248   0.600  -2.118  0.00  0.00    -0.146 I 
ENDROOT
TORSDOF 0
ENDMDL
