MODEL 1
REMARK minimizedAffinity 5.53770304
REMARK minimizedRMSD -1
REMARK  0 active torsions:
REMARK  status: ('A' for Active; 'I' for Inactive)
ROOT
ATOM      1  C   UNL d   1       1.886  -5.248  -3.420  0.00  0.00     0.023 A 
ATOM      2  C1  UNL d   1       1.519  -5.369  -2.080  0.00  0.00     0.003 A 
ATOM      3  C2  UNL d   1       2.494  -5.585  -1.104  0.00  0.00     0.048 A 
ATOM      4  C3  UNL d   1       3.835  -5.678  -1.476  0.00  0.00     0.023 A 
ATOM      5  C4  UNL d   1       4.207  -5.557  -2.815  0.00  0.00     0.048 A 
ATOM      6  C5  UNL d   1       3.228  -5.342  -3.787  0.00  0.00     0.003 A 
ATOM      7  I   UNL d   1       5.288  -6.000  -0.025  0.00  0.00    -0.146 I 
ENDROOT
TORSDOF 0
ENDMDL
