MODEL 1
REMARK minimizedAffinity 12.2425547
REMARK minimizedRMSD -1
REMARK  0 active torsions:
REMARK  status: ('A' for Active; 'I' for Inactive)
ROOT
ATOM      1  C   UNL d   1      -2.483  -0.436  -3.068  0.00  0.00     0.023 A 
ATOM      2  C1  UNL d   1      -1.121  -0.135  -3.069  0.00  0.00     0.003 A 
ATOM      3  C2  UNL d   1      -0.593   0.721  -2.099  0.00  0.00     0.048 A 
ATOM      4  C3  UNL d   1      -1.434   1.271  -1.132  0.00  0.00     0.023 A 
ATOM      5  C4  UNL d   1      -2.797   0.972  -1.128  0.00  0.00     0.048 A 
ATOM      6  C5  UNL d   1      -3.320   0.117  -2.099  0.00  0.00     0.003 A 
ATOM      7  I   UNL d   1      -0.651   2.545   0.311  0.00  0.00    -0.146 I 
ENDROOT
TORSDOF 0
ENDMDL
