MODEL 1
REMARK minimizedAffinity 7.14113426
REMARK minimizedRMSD -1
REMARK  0 active torsions:
REMARK  status: ('A' for Active; 'I' for Inactive)
ROOT
ATOM      1  C   UNL d   1      -2.644   1.348  -2.727  0.00  0.00     0.023 A 
ATOM      2  C1  UNL d   1      -2.318   0.032  -3.057  0.00  0.00     0.003 A 
ATOM      3  C2  UNL d   1      -1.198  -0.575  -2.487  0.00  0.00     0.048 A 
ATOM      4  C3  UNL d   1      -0.407   0.139  -1.587  0.00  0.00     0.023 A 
ATOM      5  C4  UNL d   1      -0.730   1.455  -1.253  0.00  0.00     0.048 A 
ATOM      6  C5  UNL d   1      -1.851   2.058  -1.826  0.00  0.00     0.003 A 
ATOM      7  I   UNL d   1       1.261  -0.763  -0.736  0.00  0.00    -0.146 I 
ENDROOT
TORSDOF 0
ENDMDL
