MODEL 1
REMARK minimizedAffinity -2.39203572
REMARK minimizedRMSD -1
REMARK  0 active torsions:
REMARK  status: ('A' for Active; 'I' for Inactive)
ROOT
ATOM      1  C   UNL d   1      -0.185   0.616   1.029  0.00  0.00     0.023 A 
ATOM      2  C1  UNL d   1      -0.032   1.779   1.783  0.00  0.00     0.003 A 
ATOM      3  C2  UNL d   1      -0.042   3.027   1.155  0.00  0.00     0.048 A 
ATOM      4  C3  UNL d   1      -0.207   3.103  -0.227  0.00  0.00     0.023 A 
ATOM      5  C4  UNL d   1      -0.362   1.942  -0.986  0.00  0.00     0.048 A 
ATOM      6  C5  UNL d   1      -0.350   0.697  -0.354  0.00  0.00     0.003 A 
ATOM      7  I   UNL d   1      -0.223   4.959  -1.164  0.00  0.00    -0.146 I 
ENDROOT
TORSDOF 0
ENDMDL
