MODEL 1
REMARK minimizedAffinity 21.5762482
REMARK minimizedRMSD -1
REMARK  0 active torsions:
REMARK  status: ('A' for Active; 'I' for Inactive)
ROOT
ATOM      1  C   UNL d   1       4.608   1.988   5.259  0.00  0.00     0.124 A 
ATOM      2  C1  UNL d   1       4.785   3.317   4.900  0.00  0.00     0.062 A 
ATOM      3  C2  UNL d   1       3.705   4.194   4.909  0.00  0.00     0.162 A 
ATOM      4  C3  UNL d   1       2.437   3.746   5.280  0.00  0.00    -0.034 A 
ATOM      5  C4  UNL d   1       2.266   2.407   5.639  0.00  0.00     0.162 A 
ATOM      6  C5  UNL d   1       3.349   1.535   5.628  0.00  0.00     0.062 A 
ATOM      7  F   UNL d   1       3.176   0.251   5.975  0.00  0.00    -0.097 F 
ATOM      8  F1  UNL d   1       1.061   1.943   6.000  0.00  0.00    -0.096 F 
ATOM      9  I   UNL d   1       0.819   5.055   5.295  0.00  0.00    -0.060 I 
ATOM     10  F2  UNL d   1       3.905   5.473   4.558  0.00  0.00    -0.096 F 
ATOM     11  F3  UNL d   1       6.000   3.757   4.543  0.00  0.00    -0.097 F 
ATOM     12  F4  UNL d   1       5.649   1.146   5.249  0.00  0.00    -0.092 F 
ENDROOT
TORSDOF 0
ENDMDL
