MODEL 1
REMARK minimizedAffinity 14.8531771
REMARK minimizedRMSD -1
REMARK  0 active torsions:
REMARK  status: ('A' for Active; 'I' for Inactive)
ROOT
ATOM      1  C   UNL d   1       2.551   2.032   5.641  0.00  0.00     0.124 A 
ATOM      2  C1  UNL d   1       1.984   3.295   5.734  0.00  0.00     0.062 A 
ATOM      3  C2  UNL d   1       2.770   4.430   5.552  0.00  0.00     0.162 A 
ATOM      4  C3  UNL d   1       4.131   4.306   5.274  0.00  0.00    -0.034 A 
ATOM      5  C4  UNL d   1       4.694   3.032   5.184  0.00  0.00     0.162 A 
ATOM      6  C5  UNL d   1       3.905   1.901   5.366  0.00  0.00     0.062 A 
ATOM      7  F   UNL d   1       4.454   0.681   5.276  0.00  0.00    -0.097 F 
ATOM      8  F1  UNL d   1       6.000   2.877   4.918  0.00  0.00    -0.096 F 
ATOM      9  I   UNL d   1       5.309   6.000   5.002  0.00  0.00    -0.060 I 
ATOM     10  F2  UNL d   1       2.196   5.638   5.647  0.00  0.00    -0.096 F 
ATOM     11  F3  UNL d   1       0.677   3.424   6.000  0.00  0.00    -0.097 F 
ATOM     12  F4  UNL d   1       1.793   0.942   5.817  0.00  0.00    -0.092 F 
ENDROOT
TORSDOF 0
ENDMDL
