MODEL 1
REMARK minimizedAffinity 9.12501526
REMARK minimizedRMSD -1
REMARK  0 active torsions:
REMARK  status: ('A' for Active; 'I' for Inactive)
ROOT
ATOM      1  C   UNL d   1       2.398   1.846   5.400  0.00  0.00     0.124 A 
ATOM      2  C1  UNL d   1       2.003   3.154   5.644  0.00  0.00     0.062 A 
ATOM      3  C2  UNL d   1       2.956   4.162   5.761  0.00  0.00     0.162 A 
ATOM      4  C3  UNL d   1       4.313   3.866   5.635  0.00  0.00    -0.034 A 
ATOM      5  C4  UNL d   1       4.702   2.548   5.391  0.00  0.00     0.162 A 
ATOM      6  C5  UNL d   1       3.747   1.544   5.274  0.00  0.00     0.062 A 
ATOM      7  F   UNL d   1       4.130   0.280   5.039  0.00  0.00    -0.097 F 
ATOM      8  F1  UNL d   1       5.999   2.228   5.264  0.00  0.00    -0.096 F 
ATOM      9  I   UNL d   1       5.740   5.371   5.810  0.00  0.00    -0.060 I 
ATOM     10  F2  UNL d   1       2.546   5.417   5.996  0.00  0.00    -0.096 F 
ATOM     11  F3  UNL d   1       0.701   3.448   5.767  0.00  0.00    -0.097 F 
ATOM     12  F4  UNL d   1       1.480   0.877   5.289  0.00  0.00    -0.092 F 
ENDROOT
TORSDOF 0
ENDMDL
