MODEL 1
REMARK minimizedAffinity 14.5955801
REMARK minimizedRMSD -1
REMARK  0 active torsions:
REMARK  status: ('A' for Active; 'I' for Inactive)
ROOT
ATOM      1  C   UNL d   1       1.816   1.657   5.584  0.00  0.00     0.124 A 
ATOM      2  C1  UNL d   1       2.986   0.910   5.587  0.00  0.00     0.062 A 
ATOM      3  C2  UNL d   1       4.181   1.481   5.161  0.00  0.00     0.162 A 
ATOM      4  C3  UNL d   1       4.213   2.807   4.729  0.00  0.00    -0.034 A 
ATOM      5  C4  UNL d   1       3.032   3.552   4.729  0.00  0.00     0.162 A 
ATOM      6  C5  UNL d   1       1.840   2.976   5.155  0.00  0.00     0.062 A 
ATOM      7  F   UNL d   1       0.711   3.699   5.152  0.00  0.00    -0.097 F 
ATOM      8  F1  UNL d   1       3.028   4.829   4.321  0.00  0.00    -0.096 F 
ATOM      9  I   UNL d   1       5.999   3.665   4.092  0.00  0.00    -0.060 I 
ATOM     10  F2  UNL d   1       5.297   0.736   5.174  0.00  0.00    -0.096 F 
ATOM     11  F3  UNL d   1       2.964  -0.365   5.999  0.00  0.00    -0.097 F 
ATOM     12  F4  UNL d   1       0.666   1.105   5.994  0.00  0.00    -0.092 F 
ENDROOT
TORSDOF 0
ENDMDL
