MODEL 1
REMARK minimizedAffinity 16.7072372
REMARK minimizedRMSD -1
REMARK  0 active torsions:
REMARK  status: ('A' for Active; 'I' for Inactive)
ROOT
ATOM      1  C   UNL d   1       2.898   2.440   3.424  0.00  0.00     0.124 A 
ATOM      2  C1  UNL d   1       3.785   2.154   4.453  0.00  0.00     0.062 A 
ATOM      3  C2  UNL d   1       4.564   3.166   5.007  0.00  0.00     0.162 A 
ATOM      4  C3  UNL d   1       4.459   4.474   4.533  0.00  0.00    -0.034 A 
ATOM      5  C4  UNL d   1       3.566   4.753   3.497  0.00  0.00     0.162 A 
ATOM      6  C5  UNL d   1       2.790   3.738   2.947  0.00  0.00     0.062 A 
ATOM      7  F   UNL d   1       1.933   4.016   1.953  0.00  0.00    -0.097 F 
ATOM      8  F1  UNL d   1       3.440   6.000   3.018  0.00  0.00    -0.096 F 
ATOM      9  I   UNL d   1       5.622   5.990   5.358  0.00  0.00    -0.060 I 
ATOM     10  F2  UNL d   1       5.412   2.862   6.000  0.00  0.00    -0.096 F 
ATOM     11  F3  UNL d   1       3.893   0.900   4.915  0.00  0.00    -0.097 F 
ATOM     12  F4  UNL d   1       2.151   1.464   2.892  0.00  0.00    -0.092 F 
ENDROOT
TORSDOF 0
ENDMDL
