MODEL 1
REMARK minimizedAffinity 9.77699471
REMARK minimizedRMSD -1
REMARK  0 active torsions:
REMARK  status: ('A' for Active; 'I' for Inactive)
ROOT
ATOM      1  C   UNL d   1       2.764   2.233   4.015  0.00  0.00     0.124 A 
ATOM      2  C1  UNL d   1       2.492   3.537   3.626  0.00  0.00     0.062 A 
ATOM      3  C2  UNL d   1       3.322   4.577   4.036  0.00  0.00     0.162 A 
ATOM      4  C3  UNL d   1       4.432   4.317   4.839  0.00  0.00    -0.034 A 
ATOM      5  C4  UNL d   1       4.698   3.003   5.227  0.00  0.00     0.162 A 
ATOM      6  C5  UNL d   1       3.866   1.967   4.815  0.00  0.00     0.062 A 
ATOM      7  F   UNL d   1       4.130   0.707   5.191  0.00  0.00    -0.097 F 
ATOM      8  F1  UNL d   1       5.757   2.717   5.999  0.00  0.00    -0.096 F 
ATOM      9  I   UNL d   1       5.674   5.869   5.455  0.00  0.00    -0.060 I 
ATOM     10  F2  UNL d   1       3.035   5.828   3.645  0.00  0.00    -0.096 F 
ATOM     11  F3  UNL d   1       1.427   3.797   2.853  0.00  0.00    -0.097 F 
ATOM     12  F4  UNL d   1       1.964   1.234   3.619  0.00  0.00    -0.092 F 
ENDROOT
TORSDOF 0
ENDMDL
