MODEL 1
REMARK minimizedAffinity 2.55430555
REMARK minimizedRMSD -1
REMARK  0 active torsions:
REMARK  status: ('A' for Active; 'I' for Inactive)
ROOT
ATOM      1  C   UNL d   1       1.658   2.377   5.846  0.00  0.00     0.124 A 
ATOM      2  C1  UNL d   1       1.229   3.697   5.853  0.00  0.00     0.062 A 
ATOM      3  C2  UNL d   1       2.148   4.733   5.709  0.00  0.00     0.162 A 
ATOM      4  C3  UNL d   1       3.506   4.453   5.556  0.00  0.00    -0.034 A 
ATOM      5  C4  UNL d   1       3.930   3.123   5.551  0.00  0.00     0.162 A 
ATOM      6  C5  UNL d   1       3.007   2.091   5.695  0.00  0.00     0.062 A 
ATOM      7  F   UNL d   1       3.424   0.817   5.687  0.00  0.00    -0.097 F 
ATOM      8  F1  UNL d   1       5.228   2.818   5.405  0.00  0.00    -0.096 F 
ATOM      9  I   UNL d   1       4.883   5.998   5.341  0.00  0.00    -0.060 I 
ATOM     10  F2  UNL d   1       1.705   5.999   5.720  0.00  0.00    -0.096 F 
ATOM     11  F3  UNL d   1      -0.074   3.976   6.000  0.00  0.00    -0.097 F 
ATOM     12  F4  UNL d   1       0.772   1.383   5.985  0.00  0.00    -0.092 F 
ENDROOT
TORSDOF 0
ENDMDL
