MODEL 1
REMARK minimizedAffinity 10.0866089
REMARK minimizedRMSD -1
REMARK  0 active torsions:
REMARK  status: ('A' for Active; 'I' for Inactive)
ROOT
ATOM      1  C   UNL d   1       4.427   2.499   4.568  0.00  0.00     0.124 A 
ATOM      2  C1  UNL d   1       3.298   1.882   5.088  0.00  0.00     0.062 A 
ATOM      3  C2  UNL d   1       2.208   2.645   5.497  0.00  0.00     0.162 A 
ATOM      4  C3  UNL d   1       2.242   4.035   5.388  0.00  0.00    -0.034 A 
ATOM      5  C4  UNL d   1       3.381   4.649   4.865  0.00  0.00     0.162 A 
ATOM      6  C5  UNL d   1       4.468   3.882   4.457  0.00  0.00     0.062 A 
ATOM      7  F   UNL d   1       5.557   4.481   3.955  0.00  0.00    -0.097 F 
ATOM      8  F1  UNL d   1       3.447   5.983   4.746  0.00  0.00    -0.096 F 
ATOM      9  I   UNL d   1       0.615   5.179   5.999  0.00  0.00    -0.060 I 
ATOM     10  F2  UNL d   1       1.131   2.021   5.996  0.00  0.00    -0.096 F 
ATOM     11  F3  UNL d   1       3.257   0.546   5.197  0.00  0.00    -0.097 F 
ATOM     12  F4  UNL d   1       5.474   1.763   4.175  0.00  0.00    -0.092 F 
ENDROOT
TORSDOF 0
ENDMDL
