MODEL 1
REMARK minimizedAffinity 14.4613724
REMARK minimizedRMSD -1
REMARK  0 active torsions:
REMARK  status: ('A' for Active; 'I' for Inactive)
ROOT
ATOM      1  C   UNL d   1       2.741   1.169   2.594  0.00  0.00     0.124 A 
ATOM      2  C1  UNL d   1       2.244  -0.005   3.143  0.00  0.00     0.062 A 
ATOM      3  C2  UNL d   1       1.859  -1.057   2.316  0.00  0.00     0.162 A 
ATOM      4  C3  UNL d   1       1.971  -0.940   0.931  0.00  0.00    -0.034 A 
ATOM      5  C4  UNL d   1       2.470   0.244   0.386  0.00  0.00     0.162 A 
ATOM      6  C5  UNL d   1       2.853   1.292   1.216  0.00  0.00     0.062 A 
ATOM      7  F   UNL d   1       3.333   2.426   0.684  0.00  0.00    -0.097 F 
ATOM      8  F1  UNL d   1       2.591   0.390  -0.942  0.00  0.00    -0.096 F 
ATOM      9  I   UNL d   1       1.397  -2.510  -0.309  0.00  0.00    -0.060 I 
ATOM     10  F2  UNL d   1       1.383  -2.180   2.874  0.00  0.00    -0.096 F 
ATOM     11  F3  UNL d   1       2.133  -0.127   4.474  0.00  0.00    -0.097 F 
ATOM     12  F4  UNL d   1       3.109   2.179   3.392  0.00  0.00    -0.092 F 
ENDROOT
TORSDOF 0
ENDMDL
