MODEL 1
REMARK minimizedAffinity 30.0058308
REMARK minimizedRMSD -1
REMARK  0 active torsions:
REMARK  status: ('A' for Active; 'I' for Inactive)
ROOT
ATOM      1  C   UNL d   1       2.148   2.128   3.043  0.00  0.00     0.124 A 
ATOM      2  C1  UNL d   1       1.608   0.945   3.528  0.00  0.00     0.062 A 
ATOM      3  C2  UNL d   1       1.688  -0.222   2.774  0.00  0.00     0.162 A 
ATOM      4  C3  UNL d   1       2.311  -0.212   1.526  0.00  0.00    -0.034 A 
ATOM      5  C4  UNL d   1       2.851   0.982   1.044  0.00  0.00     0.162 A 
ATOM      6  C5  UNL d   1       2.768   2.145   1.802  0.00  0.00     0.062 A 
ATOM      7  F   UNL d   1       3.290   3.288   1.331  0.00  0.00    -0.097 F 
ATOM      8  F1  UNL d   1       3.457   1.027  -0.152  0.00  0.00    -0.096 F 
ATOM      9  I   UNL d   1       2.433  -1.955   0.395  0.00  0.00    -0.060 I 
ATOM     10  F2  UNL d   1       1.158  -1.351   3.268  0.00  0.00    -0.096 F 
ATOM     11  F3  UNL d   1       1.007   0.926   4.726  0.00  0.00    -0.097 F 
ATOM     12  F4  UNL d   1       2.069   3.250   3.770  0.00  0.00    -0.092 F 
ENDROOT
TORSDOF 0
ENDMDL
