MODEL 1
REMARK minimizedAffinity 14.6633873
REMARK minimizedRMSD -1
REMARK  0 active torsions:
REMARK  status: ('A' for Active; 'I' for Inactive)
ROOT
ATOM      1  C   UNL d   1      -4.005   1.897  -3.905  0.00  0.00     0.124 A 
ATOM      2  C1  UNL d   1      -3.102   1.011  -3.334  0.00  0.00     0.062 A 
ATOM      3  C2  UNL d   1      -2.728   1.156  -2.001  0.00  0.00     0.162 A 
ATOM      4  C3  UNL d   1      -3.257   2.190  -1.230  0.00  0.00    -0.034 A 
ATOM      5  C4  UNL d   1      -4.164   3.078  -1.811  0.00  0.00     0.162 A 
ATOM      6  C5  UNL d   1      -4.535   2.929  -3.144  0.00  0.00     0.062 A 
ATOM      7  F   UNL d   1      -5.408   3.786  -3.694  0.00  0.00    -0.097 F 
ATOM      8  F1  UNL d   1      -4.692   4.083  -1.098  0.00  0.00    -0.096 F 
ATOM      9  I   UNL d   1      -2.699   2.410   0.763  0.00  0.00    -0.060 I 
ATOM     10  F2  UNL d   1      -1.853   0.285  -1.475  0.00  0.00    -0.096 F 
ATOM     11  F3  UNL d   1      -2.588   0.014  -4.068  0.00  0.00    -0.097 F 
ATOM     12  F4  UNL d   1      -4.363   1.756  -5.188  0.00  0.00    -0.092 F 
ENDROOT
TORSDOF 0
ENDMDL
