MODEL 1
REMARK minimizedAffinity 20.3734016
REMARK minimizedRMSD -1
REMARK  0 active torsions:
REMARK  status: ('A' for Active; 'I' for Inactive)
ROOT
ATOM      1  C   UNL d   1      -3.914   3.849   2.030  0.00  0.00     0.124 A 
ATOM      2  C1  UNL d   1      -2.772   3.102   1.779  0.00  0.00     0.062 A 
ATOM      3  C2  UNL d   1      -2.607   2.468   0.551  0.00  0.00     0.162 A 
ATOM      4  C3  UNL d   1      -3.586   2.579  -0.437  0.00  0.00    -0.034 A 
ATOM      5  C4  UNL d   1      -4.732   3.332  -0.176  0.00  0.00     0.162 A 
ATOM      6  C5  UNL d   1      -4.893   3.964   1.053  0.00  0.00     0.062 A 
ATOM      7  F   UNL d   1      -5.997   4.685   1.293  0.00  0.00    -0.097 F 
ATOM      8  F1  UNL d   1      -5.694   3.460  -1.103  0.00  0.00    -0.096 F 
ATOM      9  I   UNL d   1      -3.342   1.632  -2.274  0.00  0.00    -0.060 I 
ATOM     10  F2  UNL d   1      -1.493   1.752   0.335  0.00  0.00    -0.096 F 
ATOM     11  F3  UNL d   1      -1.826   2.989   2.721  0.00  0.00    -0.097 F 
ATOM     12  F4  UNL d   1      -4.071   4.458   3.212  0.00  0.00    -0.092 F 
ENDROOT
TORSDOF 0
ENDMDL
