MODEL 1
REMARK minimizedAffinity 15.5046129
REMARK minimizedRMSD -1
REMARK  0 active torsions:
REMARK  status: ('A' for Active; 'I' for Inactive)
ROOT
ATOM      1  C   UNL d   1       1.586  -3.753   1.508  0.00  0.00     0.124 A 
ATOM      2  C1  UNL d   1       0.784  -2.736   1.011  0.00  0.00     0.062 A 
ATOM      3  C2  UNL d   1       0.983  -1.422   1.426  0.00  0.00     0.162 A 
ATOM      4  C3  UNL d   1       1.989  -1.118   2.343  0.00  0.00    -0.034 A 
ATOM      5  C4  UNL d   1       2.791  -2.147   2.839  0.00  0.00     0.162 A 
ATOM      6  C5  UNL d   1       2.589  -3.458   2.422  0.00  0.00     0.062 A 
ATOM      7  F   UNL d   1       3.365  -4.440   2.903  0.00  0.00    -0.097 F 
ATOM      8  F1  UNL d   1       3.768  -1.889   3.722  0.00  0.00    -0.096 F 
ATOM      9  I   UNL d   1       2.289   0.845   2.965  0.00  0.00    -0.060 I 
ATOM     10  F2  UNL d   1       0.193  -0.459   0.929  0.00  0.00    -0.096 F 
ATOM     11  F3  UNL d   1      -0.185  -3.018   0.129  0.00  0.00    -0.097 F 
ATOM     12  F4  UNL d   1       1.393  -5.017   1.108  0.00  0.00    -0.092 F 
ENDROOT
TORSDOF 0
ENDMDL
