MODEL 1
REMARK minimizedAffinity 14.3984337
REMARK minimizedRMSD -1
REMARK  0 active torsions:
REMARK  status: ('A' for Active; 'I' for Inactive)
ROOT
ATOM      1  C   UNL d   1       2.274   0.944   3.457  0.00  0.00     0.124 A 
ATOM      2  C1  UNL d   1       1.929   0.229   4.595  0.00  0.00     0.062 A 
ATOM      3  C2  UNL d   1       1.560  -1.110   4.496  0.00  0.00     0.162 A 
ATOM      4  C3  UNL d   1       1.536  -1.743   3.253  0.00  0.00    -0.034 A 
ATOM      5  C4  UNL d   1       1.883  -1.017   2.113  0.00  0.00     0.162 A 
ATOM      6  C5  UNL d   1       2.251   0.320   2.217  0.00  0.00     0.062 A 
ATOM      7  F   UNL d   1       2.584   1.010   1.116  0.00  0.00    -0.097 F 
ATOM      8  F1  UNL d   1       1.870  -1.595   0.902  0.00  0.00    -0.096 F 
ATOM      9  I   UNL d   1       0.985  -3.744   3.101  0.00  0.00    -0.060 I 
ATOM     10  F2  UNL d   1       1.231  -1.776   5.613  0.00  0.00    -0.096 F 
ATOM     11  F3  UNL d   1       1.949   0.829   5.794  0.00  0.00    -0.097 F 
ATOM     12  F4  UNL d   1       2.627   2.232   3.555  0.00  0.00    -0.092 F 
ENDROOT
TORSDOF 0
ENDMDL
