MODEL 1
REMARK minimizedAffinity 21.2268524
REMARK minimizedRMSD -1
REMARK  0 active torsions:
REMARK  status: ('A' for Active; 'I' for Inactive)
ROOT
ATOM      1  C   UNL d   1       2.111   0.424   1.208  0.00  0.00     0.124 A 
ATOM      2  C1  UNL d   1       1.501  -0.707   1.732  0.00  0.00     0.062 A 
ATOM      3  C2  UNL d   1       1.371  -1.856   0.956  0.00  0.00     0.162 A 
ATOM      4  C3  UNL d   1       1.854  -1.879  -0.352  0.00  0.00    -0.034 A 
ATOM      5  C4  UNL d   1       2.465  -0.737  -0.873  0.00  0.00     0.162 A 
ATOM      6  C5  UNL d   1       2.592   0.408  -0.094  0.00  0.00     0.062 A 
ATOM      7  F   UNL d   1       3.182   1.500  -0.602  0.00  0.00    -0.097 F 
ATOM      8  F1  UNL d   1       2.940  -0.726  -2.127  0.00  0.00    -0.096 F 
ATOM      9  I   UNL d   1       1.662  -3.595  -1.515  0.00  0.00    -0.060 I 
ATOM     10  F2  UNL d   1       0.778  -2.934   1.489  0.00  0.00    -0.096 F 
ATOM     11  F3  UNL d   1       1.034  -0.694   2.989  0.00  0.00    -0.097 F 
ATOM     12  F4  UNL d   1       2.233   1.528   1.956  0.00  0.00    -0.092 F 
ENDROOT
TORSDOF 0
ENDMDL
