MODEL 1
REMARK minimizedAffinity -3.96463561
REMARK minimizedRMSD -1
REMARK  0 active torsions:
REMARK  status: ('A' for Active; 'I' for Inactive)
ROOT
ATOM      1  C1  BNZ d   1      -0.699   1.551  -0.669  0.00  0.00     0.000 A 
ATOM      2  C2  BNZ d   1      -0.681   1.608   0.699  0.00  0.00     0.000 A 
ATOM      3  C3  BNZ d   1       0.037   0.701   1.427  0.00  0.00     0.000 A 
ATOM      4  C4  BNZ d   1       0.703  -0.284   0.790  0.00  0.00     0.000 A 
ATOM      5  C5  BNZ d   1       0.687  -0.360  -0.589  0.00  0.00     0.000 A 
ATOM      6  C6  BNZ d   1      -0.005   0.578  -1.320  0.00  0.00     0.000 A 
ENDROOT
TORSDOF 0
ENDMDL
