MODEL 1
REMARK minimizedAffinity -3.88643646
REMARK minimizedRMSD -1
REMARK  0 active torsions:
REMARK  status: ('A' for Active; 'I' for Inactive)
ROOT
ATOM      1  C1  BNZ d   1       0.998  -0.541  -0.631  0.00  0.00     0.000 A 
ATOM      2  C2  BNZ d   1       1.029   0.102   0.578  0.00  0.00     0.000 A 
ATOM      3  C3  BNZ d   1       0.014  -0.056   1.481  0.00  0.00     0.000 A 
ATOM      4  C4  BNZ d   1      -1.047  -0.822   1.158  0.00  0.00     0.000 A 
ATOM      5  C5  BNZ d   1      -1.098  -1.469  -0.061  0.00  0.00     0.000 A 
ATOM      6  C6  BNZ d   1      -0.056  -1.339  -0.951  0.00  0.00     0.000 A 
ENDROOT
TORSDOF 0
ENDMDL
