MODEL 1
REMARK minimizedAffinity -3.16294575
REMARK minimizedRMSD -1
REMARK  0 active torsions:
REMARK  status: ('A' for Active; 'I' for Inactive)
ROOT
ATOM      1  C1  BNZ d   1      -0.320  -4.441  -0.729  0.00  0.00     0.000 A 
ATOM      2  C2  BNZ d   1       0.450  -3.331  -0.503  0.00  0.00     0.000 A 
ATOM      3  C3  BNZ d   1       0.092  -2.115  -1.016  0.00  0.00     0.000 A 
ATOM      4  C4  BNZ d   1      -1.011  -2.019  -1.785  0.00  0.00     0.000 A 
ATOM      5  C5  BNZ d   1      -1.793  -3.130  -2.029  0.00  0.00     0.000 A 
ATOM      6  C6  BNZ d   1      -1.451  -4.345  -1.480  0.00  0.00     0.000 A 
ENDROOT
TORSDOF 0
ENDMDL
