MODEL 1
REMARK minimizedAffinity -0.49920249
REMARK minimizedRMSD -1
REMARK  0 active torsions:
REMARK  status: ('A' for Active; 'I' for Inactive)
ROOT
ATOM      1  C1  BNZ d   1      -1.133  -3.520  -1.570  0.00  0.00     0.000 A 
ATOM      2  C2  BNZ d   1      -0.172  -2.554  -1.430  0.00  0.00     0.000 A 
ATOM      3  C3  BNZ d   1       0.194  -1.773  -2.491  0.00  0.00     0.000 A 
ATOM      4  C4  BNZ d   1      -0.370  -1.985  -3.697  0.00  0.00     0.000 A 
ATOM      5  C5  BNZ d   1      -1.333  -2.962  -3.856  0.00  0.00     0.000 A 
ATOM      6  C6  BNZ d   1      -1.727  -3.720  -2.778  0.00  0.00     0.000 A 
ENDROOT
TORSDOF 0
ENDMDL
