MODEL 1
REMARK minimizedAffinity -2.20663285
REMARK minimizedRMSD -1
REMARK  0 active torsions:
REMARK  status: ('A' for Active; 'I' for Inactive)
ROOT
ATOM      1  C1  BNZ d   1       0.003   0.798   3.511  0.00  0.00     0.000 A 
ATOM      2  C2  BNZ d   1       0.433  -0.453   3.158  0.00  0.00     0.000 A 
ATOM      3  C3  BNZ d   1       0.782  -0.735   1.867  0.00  0.00     0.000 A 
ATOM      4  C4  BNZ d   1       0.663   0.222   0.924  0.00  0.00     0.000 A 
ATOM      5  C5  BNZ d   1       0.222   1.486   1.263  0.00  0.00     0.000 A 
ATOM      6  C6  BNZ d   1      -0.091   1.777   2.571  0.00  0.00     0.000 A 
ENDROOT
TORSDOF 0
ENDMDL
