MODEL 1
REMARK minimizedAffinity -3.92261386
REMARK minimizedRMSD -1
REMARK  1 active torsions:
REMARK  status: ('A' for Active; 'I' for Inactive)
REMARK    1  A    between atoms: N_2  and  C1_3 
ROOT
ATOM      1  C1  UNL d   1      -0.618  -0.095   0.318  0.00  0.00     0.143 A 
ATOM      2  C2  UNL d   1       0.008  -1.276   0.731  0.00  0.00    -0.057 A 
ATOM      3  C3  UNL d   1       1.385  -1.319   0.983  0.00  0.00     0.033 A 
ATOM      4  C4  UNL d   1       2.167  -0.184   0.798  0.00  0.00    -0.042 A 
ATOM      5  C5  UNL d   1       1.571   0.995   0.364  0.00  0.00     0.033 A 
ATOM      6  C6  UNL d   1       0.194   1.033   0.120  0.00  0.00    -0.057 A 
ENDROOT
BRANCH   1   7
ATOM      7  N   UNL d   1      -1.965  -0.014  -0.043  0.00  0.00    -0.732 N 
ATOM      8  C   UNL d   1      -2.345   0.320  -1.399  0.00  0.00     0.284 C 
ATOM      9  H3  UNL d   1      -2.524  -0.753   0.376  0.00  0.00     0.395 HD
ENDBRANCH   1   7
TORSDOF 1
ENDMDL
