MODEL 1
REMARK minimizedAffinity -2.30614853
REMARK minimizedRMSD -1
REMARK  1 active torsions:
REMARK  status: ('A' for Active; 'I' for Inactive)
REMARK    1  A    between atoms: N_2  and  C1_3 
ROOT
ATOM      1  C1  UNL d   1      -0.197  -0.274  -0.128  0.00  0.00     0.143 A 
ATOM      2  C2  UNL d   1       0.609  -1.416  -0.087  0.00  0.00    -0.057 A 
ATOM      3  C3  UNL d   1       1.927  -1.359   0.384  0.00  0.00     0.033 A 
ATOM      4  C4  UNL d   1       2.472  -0.147   0.795  0.00  0.00    -0.042 A 
ATOM      5  C5  UNL d   1       1.698   1.006   0.739  0.00  0.00     0.033 A 
ATOM      6  C6  UNL d   1       0.380   0.941   0.275  0.00  0.00    -0.057 A 
ENDROOT
BRANCH   1   7
ATOM      7  N   UNL d   1      -1.481  -0.247  -0.677  0.00  0.00    -0.732 N 
ATOM      8  C   UNL d   1      -1.676  -0.381  -2.105  0.00  0.00     0.284 C 
ATOM      9  H3  UNL d   1      -2.154  -0.764  -0.116  0.00  0.00     0.395 HD
ENDBRANCH   1   7
TORSDOF 1
ENDMDL
