MODEL 1
REMARK minimizedAffinity -1.56248295
REMARK minimizedRMSD -1
REMARK  1 active torsions:
REMARK  status: ('A' for Active; 'I' for Inactive)
REMARK    1  A    between atoms: N_2  and  C1_3 
ROOT
ATOM      1  C1  UNL d   1      -0.167   0.075   0.263  0.00  0.00     0.143 A 
ATOM      2  C2  UNL d   1       0.676   1.141  -0.071  0.00  0.00    -0.057 A 
ATOM      3  C3  UNL d   1       2.032   1.131   0.276  0.00  0.00     0.033 A 
ATOM      4  C4  UNL d   1       2.565   0.064   0.993  0.00  0.00    -0.042 A 
ATOM      5  C5  UNL d   1       1.741  -0.995   1.357  0.00  0.00     0.033 A 
ATOM      6  C6  UNL d   1       0.389  -0.982   1.001  0.00  0.00    -0.057 A 
ENDROOT
BRANCH   1   7
ATOM      7  N   UNL d   1      -1.545   0.070   0.032  0.00  0.00    -0.732 N 
ATOM      8  C   UNL d   1      -2.070   0.299  -1.297  0.00  0.00     0.284 C 
ATOM      9  H3  UNL d   1      -2.022  -0.666   0.547  0.00  0.00     0.395 HD
ENDBRANCH   1   7
TORSDOF 1
ENDMDL
