MODEL 1
REMARK minimizedAffinity -0.250800312
REMARK minimizedRMSD -1
REMARK  1 active torsions:
REMARK  status: ('A' for Active; 'I' for Inactive)
REMARK    1  A    between atoms: N_2  and  C1_3 
ROOT
ATOM      1  C1  UNL d   1      -0.029  -0.645   1.120  0.00  0.00     0.143 A 
ATOM      2  C2  UNL d   1      -0.314   0.144   0.001  0.00  0.00    -0.057 A 
ATOM      3  C3  UNL d   1       0.499   1.230  -0.348  0.00  0.00     0.033 A 
ATOM      4  C4  UNL d   1       1.597   1.564   0.436  0.00  0.00    -0.042 A 
ATOM      5  C5  UNL d   1       1.885   0.810   1.568  0.00  0.00     0.033 A 
ATOM      6  C6  UNL d   1       1.074  -0.278   1.907  0.00  0.00    -0.057 A 
ENDROOT
BRANCH   1   7
ATOM      7  N   UNL d   1      -0.854  -1.677   1.575  0.00  0.00    -0.732 N 
ATOM      8  C   UNL d   1      -0.286  -2.861   2.182  0.00  0.00     0.284 C 
ATOM      9  H3  UNL d   1      -1.688  -1.329   2.043  0.00  0.00     0.395 HD
ENDBRANCH   1   7
TORSDOF 1
ENDMDL
