MODEL 1
REMARK minimizedAffinity -2.39936972
REMARK minimizedRMSD -1
REMARK  1 active torsions:
REMARK  status: ('A' for Active; 'I' for Inactive)
REMARK    1  A    between atoms: N_2  and  C1_3 
ROOT
ATOM      1  C1  UNL d   1      -0.843   0.044  -0.543  0.00  0.00     0.143 A 
ATOM      2  C2  UNL d   1      -0.751  -0.087   0.846  0.00  0.00    -0.057 A 
ATOM      3  C3  UNL d   1       0.490  -0.184   1.487  0.00  0.00     0.033 A 
ATOM      4  C4  UNL d   1       1.665  -0.179   0.743  0.00  0.00    -0.042 A 
ATOM      5  C5  UNL d   1       1.598  -0.074  -0.642  0.00  0.00     0.033 A 
ATOM      6  C6  UNL d   1       0.355   0.028  -1.275  0.00  0.00    -0.057 A 
ENDROOT
BRANCH   1   7
ATOM      7  N   UNL d   1      -2.049   0.045  -1.247  0.00  0.00    -0.732 N 
ATOM      8  C   UNL d   1      -2.156  -0.619  -2.529  0.00  0.00     0.284 C 
ATOM      9  H3  UNL d   1      -2.854  -0.093  -0.639  0.00  0.00     0.395 HD
ENDBRANCH   1   7
TORSDOF 1
ENDMDL
