MODEL 1
REMARK minimizedAffinity -2.32097149
REMARK minimizedRMSD -1
REMARK  1 active torsions:
REMARK  status: ('A' for Active; 'I' for Inactive)
REMARK    1  A    between atoms: N_2  and  C1_3 
ROOT
ATOM      1  C1  UNL d   1      -0.183   0.380   0.241  0.00  0.00     0.143 A 
ATOM      2  C2  UNL d   1       0.442   1.379  -0.513  0.00  0.00    -0.057 A 
ATOM      3  C3  UNL d   1       1.765   1.760  -0.258  0.00  0.00     0.033 A 
ATOM      4  C4  UNL d   1       2.478   1.167   0.779  0.00  0.00    -0.042 A 
ATOM      5  C5  UNL d   1       1.868   0.190   1.557  0.00  0.00     0.033 A 
ATOM      6  C6  UNL d   1       0.549  -0.191   1.293  0.00  0.00    -0.057 A 
ENDROOT
BRANCH   1   7
ATOM      7  N   UNL d   1      -1.527   0.026   0.100  0.00  0.00    -0.732 N 
ATOM      8  C   UNL d   1      -2.328   0.582  -0.970  0.00  0.00     0.284 C 
ATOM      9  H3  UNL d   1      -1.688  -0.965   0.267  0.00  0.00     0.395 HD
ENDBRANCH   1   7
TORSDOF 1
ENDMDL
