MODEL 1
REMARK minimizedAffinity -3.3501699
REMARK minimizedRMSD -1
REMARK  1 active torsions:
REMARK  status: ('A' for Active; 'I' for Inactive)
REMARK    1  A    between atoms: N_2  and  C1_3 
ROOT
ATOM      1  C1  UNL d   1      -2.757   1.444  -2.966  0.00  0.00     0.143 A 
ATOM      2  C2  UNL d   1      -2.647   1.147  -1.603  0.00  0.00    -0.057 A 
ATOM      3  C3  UNL d   1      -2.437  -0.164  -1.160  0.00  0.00     0.033 A 
ATOM      4  C4  UNL d   1      -2.360  -1.210  -2.074  0.00  0.00    -0.042 A 
ATOM      5  C5  UNL d   1      -2.491  -0.941  -3.432  0.00  0.00     0.033 A 
ATOM      6  C6  UNL d   1      -2.695   0.371  -3.869  0.00  0.00    -0.057 A 
ENDROOT
BRANCH   1   7
ATOM      7  N   UNL d   1      -3.065   2.713  -3.463  0.00  0.00    -0.732 N 
ATOM      8  C   UNL d   1      -3.765   3.677  -2.642  0.00  0.00     0.284 C 
ATOM      9  H3  UNL d   1      -2.306   3.109  -4.014  0.00  0.00     0.395 HD
ENDBRANCH   1   7
TORSDOF 1
ENDMDL
