MODEL 1
REMARK minimizedAffinity -3.38595915
REMARK minimizedRMSD -1
REMARK  1 active torsions:
REMARK  status: ('A' for Active; 'I' for Inactive)
REMARK    1  A    between atoms: C1_2  and  C2_3 
ROOT
ATOM      1  C2  UNL d   1      -0.838   0.155   0.447  0.00  0.00    -0.076 A 
ATOM      2  C3  UNL d   1       0.025   0.863  -0.406  0.00  0.00     0.004 A 
ATOM      3  C4  UNL d   1       1.018   0.205  -1.130  0.00  0.00    -0.003 A 
ATOM      4  C5  UNL d   1       1.163  -1.173  -1.012  0.00  0.00     0.000 A 
ATOM      5  C6  UNL d   1       0.304  -1.894  -0.183  0.00  0.00     0.000 A 
ATOM      6  C7  UNL d   1      -0.713  -1.248   0.541  0.00  0.00    -0.073 A 
ATOM      7  C8  UNL d   1      -1.607  -2.074   1.424  0.00  0.00     0.078 C 
ENDROOT
BRANCH   1   8
ATOM      8  C1  UNL d   1      -1.879   0.926   1.228  0.00  0.00     0.053 C 
ATOM      9  C   UNL d   1      -1.286   1.666   2.416  0.00  0.00     0.018 C 
ENDBRANCH   1   8
TORSDOF 1
ENDMDL
