MODEL 1
REMARK minimizedAffinity -4.49067688
REMARK minimizedRMSD -1
REMARK  1 active torsions:
REMARK  status: ('A' for Active; 'I' for Inactive)
REMARK    1  A    between atoms: C1_2  and  C2_3 
ROOT
ATOM      1  C2  UNL d   1       0.348   0.199   0.401  0.00  0.00    -0.076 A 
ATOM      2  C3  UNL d   1      -0.479   1.021  -0.385  0.00  0.00     0.004 A 
ATOM      3  C4  UNL d   1      -1.540   1.724   0.183  0.00  0.00    -0.003 A 
ATOM      4  C5  UNL d   1      -1.792   1.617   1.546  0.00  0.00     0.000 A 
ATOM      5  C6  UNL d   1      -0.972   0.820   2.344  0.00  0.00     0.000 A 
ATOM      6  C7  UNL d   1       0.112   0.118   1.791  0.00  0.00    -0.073 A 
ATOM      7  C8  UNL d   1       0.960  -0.732   2.697  0.00  0.00     0.078 C 
ENDROOT
BRANCH   1   8
ATOM      8  C1  UNL d   1       1.467  -0.561  -0.274  0.00  0.00     0.053 C 
ATOM      9  C   UNL d   1       1.015  -1.249  -1.553  0.00  0.00     0.018 C 
ENDBRANCH   1   8
TORSDOF 1
ENDMDL
