MODEL 1
REMARK minimizedAffinity -3.69597983
REMARK minimizedRMSD -1
REMARK  1 active torsions:
REMARK  status: ('A' for Active; 'I' for Inactive)
REMARK    1  A    between atoms: C1_2  and  C2_3 
ROOT
ATOM      1  C2  UNL d   1      -0.730   0.197   0.952  0.00  0.00    -0.076 A 
ATOM      2  C3  UNL d   1      -1.421   1.369   1.306  0.00  0.00     0.004 A 
ATOM      3  C4  UNL d   1      -1.292   2.533   0.551  0.00  0.00    -0.003 A 
ATOM      4  C5  UNL d   1      -0.471   2.545  -0.571  0.00  0.00     0.000 A 
ATOM      5  C6  UNL d   1       0.208   1.386  -0.947  0.00  0.00     0.000 A 
ATOM      6  C7  UNL d   1       0.076   0.199  -0.206  0.00  0.00    -0.073 A 
ATOM      7  C8  UNL d   1       0.836  -1.019  -0.654  0.00  0.00     0.078 C 
ENDROOT
BRANCH   1   8
ATOM      8  C1  UNL d   1      -0.888  -1.028   1.824  0.00  0.00     0.053 C 
ATOM      9  C   UNL d   1       0.057  -1.020   3.016  0.00  0.00     0.018 C 
ENDBRANCH   1   8
TORSDOF 1
ENDMDL
