MODEL 1
REMARK minimizedAffinity -1.79516315
REMARK minimizedRMSD -1
REMARK  1 active torsions:
REMARK  status: ('A' for Active; 'I' for Inactive)
REMARK    1  A    between atoms: C1_2  and  C2_3 
ROOT
ATOM      1  C2  UNL d   1       0.094   0.088  -0.094  0.00  0.00    -0.076 A 
ATOM      2  C3  UNL d   1      -0.271  -0.765   0.962  0.00  0.00     0.004 A 
ATOM      3  C4  UNL d   1      -1.122  -0.328   1.976  0.00  0.00    -0.003 A 
ATOM      4  C5  UNL d   1      -1.622   0.969   1.951  0.00  0.00     0.000 A 
ATOM      5  C6  UNL d   1      -1.284   1.824   0.902  0.00  0.00     0.000 A 
ATOM      6  C7  UNL d   1      -0.441   1.394  -0.137  0.00  0.00    -0.073 A 
ATOM      7  C8  UNL d   1      -0.105   2.359  -1.241  0.00  0.00     0.078 C 
ENDROOT
BRANCH   1   8
ATOM      8  C1  UNL d   1       1.041  -0.432  -1.151  0.00  0.00     0.053 C 
ATOM      9  C   UNL d   1       0.734  -1.866  -1.554  0.00  0.00     0.018 C 
ENDBRANCH   1   8
TORSDOF 1
ENDMDL
