MODEL 1
REMARK minimizedAffinity -3.18785167
REMARK minimizedRMSD -1
REMARK  1 active torsions:
REMARK  status: ('A' for Active; 'I' for Inactive)
REMARK    1  A    between atoms: C1_2  and  C2_3 
ROOT
ATOM      1  C2  UNL d   1       0.081  -0.181   0.158  0.00  0.00    -0.076 A 
ATOM      2  C3  UNL d   1      -0.539   0.803  -0.631  0.00  0.00     0.004 A 
ATOM      3  C4  UNL d   1      -1.400   1.741  -0.064  0.00  0.00    -0.003 A 
ATOM      4  C5  UNL d   1      -1.654   1.711   1.303  0.00  0.00     0.000 A 
ATOM      5  C6  UNL d   1      -1.033   0.752   2.104  0.00  0.00     0.000 A 
ATOM      6  C7  UNL d   1      -0.150  -0.190   1.550  0.00  0.00    -0.073 A 
ATOM      7  C8  UNL d   1       0.486  -1.205   2.460  0.00  0.00     0.078 C 
ENDROOT
BRANCH   1   8
ATOM      8  C1  UNL d   1       0.983  -1.189  -0.517  0.00  0.00     0.053 C 
ATOM      9  C   UNL d   1       0.473  -1.600  -1.890  0.00  0.00     0.018 C 
ENDBRANCH   1   8
TORSDOF 1
ENDMDL
