MODEL 1
REMARK minimizedAffinity 1.06996989
REMARK minimizedRMSD -1
REMARK  1 active torsions:
REMARK  status: ('A' for Active; 'I' for Inactive)
REMARK    1  A    between atoms: C1_2  and  C2_3 
ROOT
ATOM      1  C2  UNL d   1      -0.678   0.746  -0.015  0.00  0.00    -0.076 A 
ATOM      2  C3  UNL d   1      -0.209  -0.356  -0.752  0.00  0.00     0.004 A 
ATOM      3  C4  UNL d   1       0.627  -1.306  -0.168  0.00  0.00    -0.003 A 
ATOM      4  C5  UNL d   1       1.006  -1.171   1.163  0.00  0.00     0.000 A 
ATOM      5  C6  UNL d   1       0.535  -0.094   1.914  0.00  0.00     0.000 A 
ATOM      6  C7  UNL d   1      -0.321   0.864   1.345  0.00  0.00    -0.073 A 
ATOM      7  C8  UNL d   1      -0.794   2.008   2.199  0.00  0.00     0.078 C 
ENDROOT
BRANCH   1   8
ATOM      8  C1  UNL d   1      -1.560   1.759  -0.710  0.00  0.00     0.053 C 
ATOM      9  C   UNL d   1      -0.793   2.608  -1.712  0.00  0.00     0.018 C 
ENDBRANCH   1   8
TORSDOF 1
ENDMDL
