MODEL 1
REMARK minimizedAffinity -5.04033709
REMARK minimizedRMSD -1
REMARK  1 active torsions:
REMARK  status: ('A' for Active; 'I' for Inactive)
REMARK    1  A    between atoms: C1_2  and  C2_3 
ROOT
ATOM      1  C2  UNL d   1       0.290   0.594   0.090  0.00  0.00    -0.076 A 
ATOM      2  C3  UNL d   1      -0.663   0.430   1.110  0.00  0.00     0.004 A 
ATOM      3  C4  UNL d   1      -1.604   1.422   1.378  0.00  0.00    -0.003 A 
ATOM      4  C5  UNL d   1      -1.609   2.594   0.630  0.00  0.00     0.000 A 
ATOM      5  C6  UNL d   1      -0.683   2.766  -0.398  0.00  0.00     0.000 A 
ATOM      6  C7  UNL d   1       0.263   1.769  -0.692  0.00  0.00    -0.073 A 
ATOM      7  C8  UNL d   1       1.243   2.009  -1.808  0.00  0.00     0.078 C 
ENDROOT
BRANCH   1   8
ATOM      8  C1  UNL d   1       1.304  -0.504  -0.138  0.00  0.00     0.053 C 
ATOM      9  C   UNL d   1       0.854  -1.504  -1.191  0.00  0.00     0.018 C 
ENDBRANCH   1   8
TORSDOF 1
ENDMDL
