MODEL 1
REMARK minimizedAffinity -4.61159515
REMARK minimizedRMSD -1
REMARK  1 active torsions:
REMARK  status: ('A' for Active; 'I' for Inactive)
REMARK    1  A    between atoms: C1_2  and  C2_3 
ROOT
ATOM      1  C2  UNL d   1      -0.495   1.080   0.485  0.00  0.00    -0.076 A 
ATOM      2  C3  UNL d   1      -0.239  -0.104   1.198  0.00  0.00     0.004 A 
ATOM      3  C4  UNL d   1       0.766  -0.982   0.795  0.00  0.00    -0.003 A 
ATOM      4  C5  UNL d   1       1.531  -0.690  -0.329  0.00  0.00     0.000 A 
ATOM      5  C6  UNL d   1       1.303   0.489  -1.038  0.00  0.00     0.000 A 
ATOM      6  C7  UNL d   1       0.304   1.392  -0.636  0.00  0.00    -0.073 A 
ATOM      7  C8  UNL d   1       0.097   2.645  -1.441  0.00  0.00     0.078 C 
ENDROOT
BRANCH   1   8
ATOM      8  C1  UNL d   1      -1.616   1.980   0.953  0.00  0.00     0.053 C 
ATOM      9  C   UNL d   1      -1.415   2.466   2.380  0.00  0.00     0.018 C 
ENDBRANCH   1   8
TORSDOF 1
ENDMDL
