MODEL 1
REMARK minimizedAffinity -3.61349583
REMARK minimizedRMSD -1
REMARK  1 active torsions:
REMARK  status: ('A' for Active; 'I' for Inactive)
REMARK    1  A    between atoms: C1_2  and  C2_3 
ROOT
ATOM      1  C2  UNL d   1       0.412  -0.562  -1.355  0.00  0.00    -0.076 A 
ATOM      2  C3  UNL d   1       0.394  -1.048  -2.674  0.00  0.00     0.004 A 
ATOM      3  C4  UNL d   1       0.942  -2.290  -2.989  0.00  0.00    -0.003 A 
ATOM      4  C5  UNL d   1       1.516  -3.068  -1.989  0.00  0.00     0.000 A 
ATOM      5  C6  UNL d   1       1.527  -2.610  -0.672  0.00  0.00     0.000 A 
ATOM      6  C7  UNL d   1       0.964  -1.367  -0.335  0.00  0.00    -0.073 A 
ATOM      7  C8  UNL d   1       1.008  -0.920   1.100  0.00  0.00     0.078 C 
ENDROOT
BRANCH   1   8
ATOM      8  C1  UNL d   1      -0.173   0.804  -1.078  0.00  0.00     0.053 C 
ATOM      9  C   UNL d   1      -1.643   0.741  -0.690  0.00  0.00     0.018 C 
ENDBRANCH   1   8
TORSDOF 1
ENDMDL
