MODEL 1
REMARK minimizedAffinity -5.16415596
REMARK minimizedRMSD -1
REMARK  1 active torsions:
REMARK  status: ('A' for Active; 'I' for Inactive)
REMARK    1  A    between atoms: C1_2  and  C2_3 
ROOT
ATOM      1  C2  UNL d   1      -0.148   1.092  -0.146  0.00  0.00    -0.076 A 
ATOM      2  C3  UNL d   1      -0.812   0.399   0.881  0.00  0.00     0.004 A 
ATOM      3  C4  UNL d   1      -1.736   1.044   1.701  0.00  0.00    -0.003 A 
ATOM      4  C5  UNL d   1      -2.012   2.393   1.507  0.00  0.00     0.000 A 
ATOM      5  C6  UNL d   1      -1.375   3.092   0.482  0.00  0.00     0.000 A 
ATOM      6  C7  UNL d   1      -0.453   2.452  -0.365  0.00  0.00    -0.073 A 
ATOM      7  C8  UNL d   1       0.208   3.256  -1.451  0.00  0.00     0.078 C 
ENDROOT
BRANCH   1   8
ATOM      8  C1  UNL d   1       0.864   0.346  -0.987  0.00  0.00     0.053 C 
ATOM      9  C   UNL d   1       0.964  -1.124  -0.610  0.00  0.00     0.018 C 
ENDBRANCH   1   8
TORSDOF 1
ENDMDL
