MODEL 1
REMARK minimizedAffinity -3.77838612
REMARK minimizedRMSD -1
REMARK  1 active torsions:
REMARK  status: ('A' for Active; 'I' for Inactive)
REMARK    1  A    between atoms: C1_2  and  C2_3 
ROOT
ATOM      1  C2  UNL d   1      -0.370   0.638   1.136  0.00  0.00    -0.076 A 
ATOM      2  C3  UNL d   1      -0.444   1.256  -0.125  0.00  0.00     0.004 A 
ATOM      3  C4  UNL d   1       0.237   0.732  -1.222  0.00  0.00    -0.003 A 
ATOM      4  C5  UNL d   1       1.004  -0.419  -1.077  0.00  0.00     0.000 A 
ATOM      5  C6  UNL d   1       1.075  -1.055   0.162  0.00  0.00     0.000 A 
ATOM      6  C7  UNL d   1       0.381  -0.549   1.275  0.00  0.00    -0.073 A 
ATOM      7  C8  UNL d   1       0.498  -1.272   2.589  0.00  0.00     0.078 C 
ENDROOT
BRANCH   1   8
ATOM      8  C1  UNL d   1      -1.109   1.268   2.295  0.00  0.00     0.053 C 
ATOM      9  C   UNL d   1      -2.313   2.081   1.847  0.00  0.00     0.018 C 
ENDBRANCH   1   8
TORSDOF 1
ENDMDL
