MODEL 1
REMARK minimizedAffinity -3.78092289
REMARK minimizedRMSD -1
REMARK  1 active torsions:
REMARK  status: ('A' for Active; 'I' for Inactive)
REMARK    1  A    between atoms: C1_2  and  C2_3 
ROOT
ATOM      1  C2  UNL d   1      -0.427  -0.061   0.747  0.00  0.00    -0.076 A 
ATOM      2  C3  UNL d   1       0.147  -0.471   1.963  0.00  0.00     0.004 A 
ATOM      3  C4  UNL d   1       0.089   0.341   3.094  0.00  0.00    -0.003 A 
ATOM      4  C5  UNL d   1      -0.544   1.577   3.028  0.00  0.00     0.000 A 
ATOM      5  C6  UNL d   1      -1.135   1.992   1.835  0.00  0.00     0.000 A 
ATOM      6  C7  UNL d   1      -1.099   1.178   0.690  0.00  0.00    -0.073 A 
ATOM      7  C8  UNL d   1      -1.747   1.679  -0.572  0.00  0.00     0.078 C 
ENDROOT
BRANCH   1   8
ATOM      8  C1  UNL d   1      -0.309  -0.972  -0.453  0.00  0.00     0.053 C 
ATOM      9  C   UNL d   1       1.132  -1.155  -0.907  0.00  0.00     0.018 C 
ENDBRANCH   1   8
TORSDOF 1
ENDMDL
