MODEL 1
REMARK minimizedAffinity -5.26051474
REMARK minimizedRMSD -1
REMARK  1 active torsions:
REMARK  status: ('A' for Active; 'I' for Inactive)
REMARK    1  A    between atoms: C1_2  and  C2_3 
ROOT
ATOM      1  C2  UNL d   1      -0.690   0.879  -0.148  0.00  0.00    -0.076 A 
ATOM      2  C3  UNL d   1       0.403   1.578  -0.690  0.00  0.00     0.004 A 
ATOM      3  C4  UNL d   1       1.469   0.899  -1.277  0.00  0.00    -0.003 A 
ATOM      4  C5  UNL d   1       1.460  -0.490  -1.333  0.00  0.00     0.000 A 
ATOM      5  C6  UNL d   1       0.376  -1.199  -0.816  0.00  0.00     0.000 A 
ATOM      6  C7  UNL d   1      -0.714  -0.530  -0.235  0.00  0.00    -0.073 A 
ATOM      7  C8  UNL d   1      -1.854  -1.345   0.313  0.00  0.00     0.078 C 
ENDROOT
BRANCH   1   8
ATOM      8  C1  UNL d   1      -1.804   1.668   0.501  0.00  0.00     0.053 C 
ATOM      9  C   UNL d   1      -1.542   1.945   1.973  0.00  0.00     0.018 C 
ENDBRANCH   1   8
TORSDOF 1
ENDMDL
