MODEL 1
REMARK minimizedAffinity -3.67203617
REMARK minimizedRMSD -1
REMARK  1 active torsions:
REMARK  status: ('A' for Active; 'I' for Inactive)
REMARK    1  A    between atoms: C1_2  and  C2_3 
ROOT
ATOM      1  C2  UNL d   1       0.186  -0.014   0.015  0.00  0.00    -0.076 A 
ATOM      2  C3  UNL d   1      -0.829   0.678  -0.670  0.00  0.00     0.004 A 
ATOM      3  C4  UNL d   1      -1.682   1.550   0.003  0.00  0.00    -0.003 A 
ATOM      4  C5  UNL d   1      -1.535   1.745   1.372  0.00  0.00     0.000 A 
ATOM      5  C6  UNL d   1      -0.523   1.080   2.064  0.00  0.00     0.000 A 
ATOM      6  C7  UNL d   1       0.356   0.210   1.397  0.00  0.00    -0.073 A 
ATOM      7  C8  UNL d   1       1.426  -0.486   2.194  0.00  0.00     0.078 C 
ENDROOT
BRANCH   1   8
ATOM      8  C1  UNL d   1       1.064  -0.968  -0.764  0.00  0.00     0.053 C 
ATOM      9  C   UNL d   1       0.262  -1.902  -1.657  0.00  0.00     0.018 C 
ENDBRANCH   1   8
TORSDOF 1
ENDMDL
