MODEL 1
REMARK minimizedAffinity -3.71953511
REMARK minimizedRMSD -1
REMARK  1 active torsions:
REMARK  status: ('A' for Active; 'I' for Inactive)
REMARK    1  A    between atoms: C1_2  and  C2_3 
ROOT
ATOM      1  C2  UNL d   1      -0.286   1.295   0.752  0.00  0.00    -0.076 A 
ATOM      2  C3  UNL d   1      -0.034   1.943  -0.470  0.00  0.00     0.004 A 
ATOM      3  C4  UNL d   1       0.869   1.413  -1.390  0.00  0.00    -0.003 A 
ATOM      4  C5  UNL d   1       1.535   0.226  -1.104  0.00  0.00     0.000 A 
ATOM      5  C6  UNL d   1       1.284  -0.440   0.096  0.00  0.00     0.000 A 
ATOM      6  C7  UNL d   1       0.364   0.072   1.027  0.00  0.00    -0.073 A 
ATOM      7  C8  UNL d   1       0.136  -0.684   2.307  0.00  0.00     0.078 C 
ENDROOT
BRANCH   1   8
ATOM      8  C1  UNL d   1      -1.255   1.931   1.722  0.00  0.00     0.053 C 
ATOM      9  C   UNL d   1      -2.462   2.540   1.026  0.00  0.00     0.018 C 
ENDBRANCH   1   8
TORSDOF 1
ENDMDL
