MODEL 1
REMARK minimizedAffinity -3.87805009
REMARK minimizedRMSD -1
REMARK  1 active torsions:
REMARK  status: ('A' for Active; 'I' for Inactive)
REMARK    1  A    between atoms: C1_2  and  C2_3 
ROOT
ATOM      1  C2  UNL d   1       0.032  -0.724  -0.927  0.00  0.00    -0.076 A 
ATOM      2  C3  UNL d   1      -1.356  -0.881  -0.768  0.00  0.00     0.004 A 
ATOM      3  C4  UNL d   1      -2.156   0.184  -0.359  0.00  0.00    -0.003 A 
ATOM      4  C5  UNL d   1      -1.581   1.424  -0.103  0.00  0.00     0.000 A 
ATOM      5  C6  UNL d   1      -0.209   1.603  -0.273  0.00  0.00     0.000 A 
ATOM      6  C7  UNL d   1       0.610   0.544  -0.700  0.00  0.00    -0.073 A 
ATOM      7  C8  UNL d   1       2.085   0.791  -0.861  0.00  0.00     0.078 C 
ENDROOT
BRANCH   1   8
ATOM      8  C1  UNL d   1       0.853  -1.922  -1.347  0.00  0.00     0.053 C 
ATOM      9  C   UNL d   1       0.309  -2.592  -2.599  0.00  0.00     0.018 C 
ENDBRANCH   1   8
TORSDOF 1
ENDMDL
