MODEL 1
REMARK minimizedAffinity -1.98668396
REMARK minimizedRMSD -1
REMARK  1 active torsions:
REMARK  status: ('A' for Active; 'I' for Inactive)
REMARK    1  A    between atoms: C1_2  and  C2_3 
ROOT
ATOM      1  C2  UNL d   1       0.626  -0.750  -0.734  0.00  0.00    -0.076 A 
ATOM      2  C3  UNL d   1       1.231   0.320  -1.416  0.00  0.00     0.004 A 
ATOM      3  C4  UNL d   1       0.711   1.610  -1.331  0.00  0.00    -0.003 A 
ATOM      4  C5  UNL d   1      -0.422   1.852  -0.562  0.00  0.00     0.000 A 
ATOM      5  C6  UNL d   1      -1.025   0.806   0.135  0.00  0.00     0.000 A 
ATOM      6  C7  UNL d   1      -0.504  -0.498   0.073  0.00  0.00    -0.073 A 
ATOM      7  C8  UNL d   1      -1.198  -1.590   0.841  0.00  0.00     0.078 C 
ENDROOT
BRANCH   1   8
ATOM      8  C1  UNL d   1       1.218  -2.133  -0.885  0.00  0.00     0.053 C 
ATOM      9  C   UNL d   1       0.628  -2.894  -2.062  0.00  0.00     0.018 C 
ENDBRANCH   1   8
TORSDOF 1
ENDMDL
