MODEL 1
REMARK minimizedAffinity -3.18936324
REMARK minimizedRMSD -1
REMARK  1 active torsions:
REMARK  status: ('A' for Active; 'I' for Inactive)
REMARK    1  A    between atoms: C1_2  and  C2_3 
ROOT
ATOM      1  C2  UNL d   1       0.331   0.519   0.171  0.00  0.00    -0.076 A 
ATOM      2  C3  UNL d   1      -0.127  -0.264   1.245  0.00  0.00     0.004 A 
ATOM      3  C4  UNL d   1      -1.064   0.234   2.148  0.00  0.00    -0.003 A 
ATOM      4  C5  UNL d   1      -1.559   1.524   1.992  0.00  0.00     0.000 A 
ATOM      5  C6  UNL d   1      -1.129   2.309   0.923  0.00  0.00     0.000 A 
ATOM      6  C7  UNL d   1      -0.197   1.816  -0.006  0.00  0.00    -0.073 A 
ATOM      7  C8  UNL d   1       0.236   2.708  -1.137  0.00  0.00     0.078 C 
ENDROOT
BRANCH   1   8
ATOM      8  C1  UNL d   1       1.368  -0.065  -0.761  0.00  0.00     0.053 C 
ATOM      9  C   UNL d   1       0.953  -1.416  -1.321  0.00  0.00     0.018 C 
ENDBRANCH   1   8
TORSDOF 1
ENDMDL
