MODEL 1
REMARK minimizedAffinity 11.6061144
REMARK minimizedRMSD -1
REMARK  2 active torsions:
REMARK  status: ('A' for Active; 'I' for Inactive)
REMARK    1  A    between atoms: C2'_3  and  C1'_4 
REMARK    2  A    between atoms: C1'_4  and  C1_5 
ROOT
ATOM      1  C1  I4B d   1      -3.049   1.923   2.353  0.00  0.00    -0.075 A 
ATOM      2  C2  I4B d   1      -1.700   1.793   2.138  0.00  0.00     0.003 A 
ATOM      3  C3  I4B d   1      -1.143   0.523   1.855  0.00  0.00     0.002 A 
ATOM      4  C4  I4B d   1      -1.958  -0.591   1.847  0.00  0.00    -0.004 A 
ATOM      5  C5  I4B d   1      -3.329  -0.453   2.043  0.00  0.00     0.002 A 
ATOM      6  C6  I4B d   1      -3.881   0.813   2.285  0.00  0.00     0.003 A 
ENDROOT
BRANCH   1   7
ATOM      7  C1' I4B d   1      -3.599   3.275   2.682  0.00  0.00     0.060 C 
BRANCH   7   8
ATOM      8  C2' I4B d   1      -4.897   3.079   3.439  0.00  0.00    -0.013 C 
ATOM      9  C4' I4B d   1      -4.813   3.661   4.826  0.00  0.00     0.013 C 
ATOM     10  C3' I4B d   1      -5.997   3.723   2.648  0.00  0.00     0.013 C 
ENDBRANCH   7   8
ENDBRANCH   1   7
TORSDOF 2
ENDMDL
