MODEL 1
REMARK minimizedAffinity 20.9367981
REMARK minimizedRMSD -1
REMARK  2 active torsions:
REMARK  status: ('A' for Active; 'I' for Inactive)
REMARK    1  A    between atoms: C2'_3  and  C1'_4 
REMARK    2  A    between atoms: C1'_4  and  C1_5 
ROOT
ATOM      1  C1  I4B d   1      -1.472  -1.627   2.823  0.00  0.00    -0.075 A 
ATOM      2  C2  I4B d   1      -0.628  -2.434   3.544  0.00  0.00     0.003 A 
ATOM      3  C3  I4B d   1       0.376  -3.185   2.886  0.00  0.00     0.002 A 
ATOM      4  C4  I4B d   1       0.466  -3.139   1.509  0.00  0.00    -0.004 A 
ATOM      5  C5  I4B d   1      -0.376  -2.303   0.782  0.00  0.00     0.002 A 
ATOM      6  C6  I4B d   1      -1.344  -1.533   1.443  0.00  0.00     0.003 A 
ENDROOT
BRANCH   1   7
ATOM      7  C1' I4B d   1      -2.542  -0.873   3.547  0.00  0.00     0.060 C 
BRANCH   7   8
ATOM      8  C2' I4B d   1      -2.684  -1.477   4.930  0.00  0.00    -0.013 C 
ATOM      9  C4' I4B d   1      -2.592  -0.420   5.999  0.00  0.00     0.013 C 
ATOM     10  C3' I4B d   1      -4.000  -2.194   4.989  0.00  0.00     0.013 C 
ENDBRANCH   7   8
ENDBRANCH   1   7
TORSDOF 2
ENDMDL
