MODEL 1
REMARK minimizedAffinity 16.4312401
REMARK minimizedRMSD -1
REMARK  2 active torsions:
REMARK  status: ('A' for Active; 'I' for Inactive)
REMARK    1  A    between atoms: C2'_3  and  C1'_4 
REMARK    2  A    between atoms: C1'_4  and  C1_5 
ROOT
ATOM      1  C1  I4B d   1       1.534  -0.870  -3.914  0.00  0.00    -0.075 A 
ATOM      2  C2  I4B d   1       0.768  -0.627  -2.802  0.00  0.00     0.003 A 
ATOM      3  C3  I4B d   1       1.145   0.381  -1.882  0.00  0.00     0.002 A 
ATOM      4  C4  I4B d   1       2.315   1.084  -2.087  0.00  0.00    -0.004 A 
ATOM      5  C5  I4B d   1       3.078   0.852  -3.227  0.00  0.00     0.002 A 
ATOM      6  C6  I4B d   1       2.679  -0.122  -4.153  0.00  0.00     0.003 A 
ENDROOT
BRANCH   1   7
ATOM      7  C1' I4B d   1       1.124  -1.965  -4.847  0.00  0.00     0.060 C 
BRANCH   7   8
ATOM      8  C2' I4B d   1      -0.362  -1.822  -5.110  0.00  0.00    -0.013 C 
ATOM      9  C4' I4B d   1      -0.672  -0.516  -5.791  0.00  0.00     0.013 C 
ATOM     10  C3' I4B d   1      -0.798  -2.987  -5.948  0.00  0.00     0.013 C 
ENDBRANCH   7   8
ENDBRANCH   1   7
TORSDOF 2
ENDMDL
