MODEL 1
REMARK minimizedAffinity 11.5035229
REMARK minimizedRMSD -1
REMARK  2 active torsions:
REMARK  status: ('A' for Active; 'I' for Inactive)
REMARK    1  A    between atoms: C2'_3  and  C1'_4 
REMARK    2  A    between atoms: C1'_4  and  C1_5 
ROOT
ATOM      1  C1  I4B d   1       4.134   4.731  -4.623  0.00  0.00    -0.075 A 
ATOM      2  C2  I4B d   1       3.293   3.920  -5.345  0.00  0.00     0.003 A 
ATOM      3  C3  I4B d   1       3.799   2.769  -5.997  0.00  0.00     0.002 A 
ATOM      4  C4  I4B d   1       5.151   2.497  -5.943  0.00  0.00    -0.004 A 
ATOM      5  C5  I4B d   1       5.997   3.307  -5.193  0.00  0.00     0.002 A 
ATOM      6  C6  I4B d   1       5.484   4.424  -4.518  0.00  0.00     0.003 A 
ENDROOT
BRANCH   1   7
ATOM      7  C1' I4B d   1       3.572   5.956  -3.975  0.00  0.00     0.060 C 
BRANCH   7   8
ATOM      8  C2' I4B d   1       2.213   5.602  -3.406  0.00  0.00    -0.013 C 
ATOM      9  C4' I4B d   1       1.196   5.412  -4.500  0.00  0.00     0.013 C 
ATOM     10  C3' I4B d   1       2.366   4.355  -2.586  0.00  0.00     0.013 C 
ENDBRANCH   7   8
ENDBRANCH   1   7
TORSDOF 2
ENDMDL
