MODEL 1
REMARK minimizedAffinity 8.73185444
REMARK minimizedRMSD -1
REMARK  2 active torsions:
REMARK  status: ('A' for Active; 'I' for Inactive)
REMARK    1  A    between atoms: C2'_3  and  C1'_4 
REMARK    2  A    between atoms: C1'_4  and  C1_5 
ROOT
ATOM      1  C1  I4B d   1      -5.628  -2.804  -2.767  0.00  0.00    -0.075 A 
ATOM      2  C2  I4B d   1      -5.602  -3.767  -3.745  0.00  0.00     0.003 A 
ATOM      3  C3  I4B d   1      -5.285  -3.418  -5.080  0.00  0.00     0.002 A 
ATOM      4  C4  I4B d   1      -5.051  -2.096  -5.400  0.00  0.00    -0.004 A 
ATOM      5  C5  I4B d   1      -5.056  -1.125  -4.403  0.00  0.00     0.002 A 
ATOM      6  C6  I4B d   1      -5.334  -1.483  -3.076  0.00  0.00     0.003 A 
ENDROOT
BRANCH   1   7
ATOM      7  C1' I4B d   1      -6.000  -3.202  -1.374  0.00  0.00     0.060 C 
BRANCH   7   8
ATOM      8  C2' I4B d   1      -5.060  -2.495  -0.419  0.00  0.00    -0.013 C 
ATOM      9  C4' I4B d   1      -5.814  -1.857   0.717  0.00  0.00     0.013 C 
ATOM     10  C3' I4B d   1      -4.069  -3.501   0.086  0.00  0.00     0.013 C 
ENDBRANCH   7   8
ENDBRANCH   1   7
TORSDOF 2
ENDMDL
