MODEL 1
REMARK minimizedAffinity 6.93685532
REMARK minimizedRMSD -1
REMARK  2 active torsions:
REMARK  status: ('A' for Active; 'I' for Inactive)
REMARK    1  A    between atoms: C2'_3  and  C1'_4 
REMARK    2  A    between atoms: C1'_4  and  C1_5 
ROOT
ATOM      1  C1  I4B d   1       3.485   2.524  -5.030  0.00  0.00    -0.075 A 
ATOM      2  C2  I4B d   1       3.943   3.801  -5.236  0.00  0.00     0.003 A 
ATOM      3  C3  I4B d   1       3.562   4.845  -4.358  0.00  0.00     0.002 A 
ATOM      4  C4  I4B d   1       2.686   4.579  -3.325  0.00  0.00    -0.004 A 
ATOM      5  C5  I4B d   1       2.241   3.279  -3.105  0.00  0.00     0.002 A 
ATOM      6  C6  I4B d   1       2.652   2.242  -3.955  0.00  0.00     0.003 A 
ENDROOT
BRANCH   1   7
ATOM      7  C1' I4B d   1       3.881   1.452  -5.995  0.00  0.00     0.060 C 
BRANCH   7   8
ATOM      8  C2' I4B d   1       3.299   0.142  -5.503  0.00  0.00    -0.013 C 
ATOM      9  C4' I4B d   1       1.879  -0.034  -5.973  0.00  0.00     0.013 C 
ATOM     10  C3' I4B d   1       4.175  -0.969  -5.999  0.00  0.00     0.013 C 
ENDBRANCH   7   8
ENDBRANCH   1   7
TORSDOF 2
ENDMDL
