MODEL 1
REMARK minimizedAffinity 10.9435015
REMARK minimizedRMSD -1
REMARK  2 active torsions:
REMARK  status: ('A' for Active; 'I' for Inactive)
REMARK    1  A    between atoms: C2'_3  and  C1'_4 
REMARK    2  A    between atoms: C1'_4  and  C1_5 
ROOT
ATOM      1  C1  I4B d   1       2.478   1.108  -5.499  0.00  0.00    -0.075 A 
ATOM      2  C2  I4B d   1       1.216   1.311  -5.999  0.00  0.00     0.003 A 
ATOM      3  C3  I4B d   1       0.146   0.478  -5.593  0.00  0.00     0.002 A 
ATOM      4  C4  I4B d   1       0.391  -0.571  -4.730  0.00  0.00    -0.004 A 
ATOM      5  C5  I4B d   1       1.666  -0.761  -4.206  0.00  0.00     0.002 A 
ATOM      6  C6  I4B d   1       2.714   0.091  -4.583  0.00  0.00     0.003 A 
ENDROOT
BRANCH   1   7
ATOM      7  C1' I4B d   1       3.591   1.986  -5.975  0.00  0.00     0.060 C 
BRANCH   7   8
ATOM      8  C2' I4B d   1       3.573   3.254  -5.145  0.00  0.00    -0.013 C 
ATOM      9  C4' I4B d   1       4.962   3.639  -4.707  0.00  0.00     0.013 C 
ATOM     10  C3' I4B d   1       2.945   4.338  -5.970  0.00  0.00     0.013 C 
ENDBRANCH   7   8
ENDBRANCH   1   7
TORSDOF 2
ENDMDL
