MODEL 1
REMARK minimizedAffinity 20.0742073
REMARK minimizedRMSD -1
REMARK  2 active torsions:
REMARK  status: ('A' for Active; 'I' for Inactive)
REMARK    1  A    between atoms: C2'_3  and  C1'_4 
REMARK    2  A    between atoms: C1'_4  and  C1_5 
ROOT
ATOM      1  C1  I4B d   1      -3.923   3.992   1.142  0.00  0.00    -0.075 A 
ATOM      2  C2  I4B d   1      -5.252   4.211   0.877  0.00  0.00     0.003 A 
ATOM      3  C3  I4B d   1      -5.998   5.113   1.674  0.00  0.00     0.002 A 
ATOM      4  C4  I4B d   1      -5.392   5.731   2.749  0.00  0.00    -0.004 A 
ATOM      5  C5  I4B d   1      -4.039   5.525   3.002  0.00  0.00     0.002 A 
ATOM      6  C6  I4B d   1      -3.296   4.659   2.187  0.00  0.00     0.003 A 
ENDROOT
BRANCH   1   7
ATOM      7  C1' I4B d   1      -3.173   3.008   0.301  0.00  0.00     0.060 C 
BRANCH   7   8
ATOM      8  C2' I4B d   1      -2.588   1.957   1.222  0.00  0.00    -0.013 C 
ATOM      9  C4' I4B d   1      -3.255   0.622   1.020  0.00  0.00     0.013 C 
ATOM     10  C3' I4B d   1      -1.115   1.873   0.951  0.00  0.00     0.013 C 
ENDBRANCH   7   8
ENDBRANCH   1   7
TORSDOF 2
ENDMDL
