MODEL 1
REMARK minimizedAffinity 15.8747854
REMARK minimizedRMSD -1
REMARK  2 active torsions:
REMARK  status: ('A' for Active; 'I' for Inactive)
REMARK    1  A    between atoms: C2'_3  and  C1'_4 
REMARK    2  A    between atoms: C1'_4  and  C1_5 
ROOT
ATOM      1  C1  I4B d   1      -5.949   4.823   3.213  0.00  0.00    -0.075 A 
ATOM      2  C2  I4B d   1      -5.946   3.605   3.847  0.00  0.00     0.003 A 
ATOM      3  C3  I4B d   1      -5.984   3.537   5.261  0.00  0.00     0.002 A 
ATOM      4  C4  I4B d   1      -5.973   4.703   5.998  0.00  0.00    -0.004 A 
ATOM      5  C5  I4B d   1      -5.999   5.937   5.354  0.00  0.00     0.002 A 
ATOM      6  C6  I4B d   1      -6.000   5.998   3.952  0.00  0.00     0.003 A 
ENDROOT
BRANCH   1   7
ATOM      7  C1' I4B d   1      -5.876   4.859   1.720  0.00  0.00     0.060 C 
BRANCH   7   8
ATOM      8  C2' I4B d   1      -4.668   4.050   1.292  0.00  0.00    -0.013 C 
ATOM      9  C4' I4B d   1      -3.616   4.030   2.370  0.00  0.00     0.013 C 
ATOM     10  C3' I4B d   1      -5.133   2.662   0.963  0.00  0.00     0.013 C 
ENDBRANCH   7   8
ENDBRANCH   1   7
TORSDOF 2
ENDMDL
