MODEL 1
REMARK minimizedAffinity 8.24042225
REMARK minimizedRMSD -1
REMARK  2 active torsions:
REMARK  status: ('A' for Active; 'I' for Inactive)
REMARK    1  A    between atoms: C2'_3  and  C1'_4 
REMARK    2  A    between atoms: C1'_4  and  C1_5 
ROOT
ATOM      1  C1  I4B d   1      -1.963   1.350   0.858  0.00  0.00    -0.075 A 
ATOM      2  C2  I4B d   1      -0.918   1.665   1.689  0.00  0.00     0.003 A 
ATOM      3  C3  I4B d   1      -0.954   2.850   2.462  0.00  0.00     0.002 A 
ATOM      4  C4  I4B d   1      -2.024   3.712   2.336  0.00  0.00    -0.004 A 
ATOM      5  C5  I4B d   1      -3.094   3.381   1.510  0.00  0.00     0.002 A 
ATOM      6  C6  I4B d   1      -3.069   2.186   0.775  0.00  0.00     0.003 A 
ENDROOT
BRANCH   1   7
ATOM      7  C1' I4B d   1      -1.878   0.107   0.031  0.00  0.00     0.060 C 
BRANCH   7   8
ATOM      8  C2' I4B d   1      -2.694  -0.969   0.719  0.00  0.00    -0.013 C 
ATOM      9  C4' I4B d   1      -4.141  -0.902   0.308  0.00  0.00     0.013 C 
ATOM     10  C3' I4B d   1      -2.093  -2.298   0.372  0.00  0.00     0.013 C 
ENDBRANCH   7   8
ENDBRANCH   1   7
TORSDOF 2
ENDMDL
