MODEL 1
REMARK minimizedAffinity 9.66283989
REMARK minimizedRMSD -1
REMARK  2 active torsions:
REMARK  status: ('A' for Active; 'I' for Inactive)
REMARK    1  A    between atoms: C2'_3  and  C1'_4 
REMARK    2  A    between atoms: C1'_4  and  C1_5 
ROOT
ATOM      1  C1  I4B d   1      -5.108   3.959   3.412  0.00  0.00    -0.075 A 
ATOM      2  C2  I4B d   1      -5.159   2.947   4.338  0.00  0.00     0.003 A 
ATOM      3  C3  I4B d   1      -5.636   3.202   5.647  0.00  0.00     0.002 A 
ATOM      4  C4  I4B d   1      -6.000   4.485   6.000  0.00  0.00    -0.004 A 
ATOM      5  C5  I4B d   1      -5.968   5.505   5.053  0.00  0.00     0.002 A 
ATOM      6  C6  I4B d   1      -5.531   5.239   3.748  0.00  0.00     0.003 A 
ENDROOT
BRANCH   1   7
ATOM      7  C1' I4B d   1      -4.568   3.663   2.049  0.00  0.00     0.060 C 
BRANCH   7   8
ATOM      8  C2' I4B d   1      -3.179   3.080   2.213  0.00  0.00    -0.013 C 
ATOM      9  C4' I4B d   1      -2.800   2.231   1.028  0.00  0.00     0.013 C 
ATOM     10  C3' I4B d   1      -2.218   4.217   2.393  0.00  0.00     0.013 C 
ENDBRANCH   7   8
ENDBRANCH   1   7
TORSDOF 2
ENDMDL
