MODEL 1
REMARK minimizedAffinity 12.3520384
REMARK minimizedRMSD -1
REMARK  2 active torsions:
REMARK  status: ('A' for Active; 'I' for Inactive)
REMARK    1  A    between atoms: C2'_3  and  C1'_4 
REMARK    2  A    between atoms: C1'_4  and  C1_5 
ROOT
ATOM      1  C1  I4B d   1      -3.192   0.489   0.874  0.00  0.00    -0.075 A 
ATOM      2  C2  I4B d   1      -2.009   0.252   1.528  0.00  0.00     0.003 A 
ATOM      3  C3  I4B d   1      -1.493  -1.064   1.614  0.00  0.00     0.002 A 
ATOM      4  C4  I4B d   1      -2.213  -2.112   1.079  0.00  0.00    -0.004 A 
ATOM      5  C5  I4B d   1      -3.401  -1.867   0.396  0.00  0.00     0.002 A 
ATOM      6  C6  I4B d   1      -3.888  -0.557   0.282  0.00  0.00     0.003 A 
ENDROOT
BRANCH   1   7
ATOM      7  C1' I4B d   1      -3.725   1.886   0.831  0.00  0.00     0.060 C 
BRANCH   7   8
ATOM      8  C2' I4B d   1      -4.831   1.996   1.860  0.00  0.00    -0.013 C 
ATOM      9  C4' I4B d   1      -5.218   3.433   2.094  0.00  0.00     0.013 C 
ATOM     10  C3' I4B d   1      -6.000   1.194   1.371  0.00  0.00     0.013 C 
ENDBRANCH   7   8
ENDBRANCH   1   7
TORSDOF 2
ENDMDL
