MODEL 1
REMARK minimizedAffinity -3.62133503
REMARK minimizedRMSD -1
REMARK  2 active torsions:
REMARK  status: ('A' for Active; 'I' for Inactive)
REMARK    1  A    between atoms: C1_2  and  C2_3 
REMARK    2  A    between atoms: C2_3  and  C3_4 
ROOT
ATOM      1  C3  UNL d   1      -0.482   0.554  -0.309  0.00  0.00    -0.075 A 
ATOM      2  C4  UNL d   1       0.204   1.722  -0.672  0.00  0.00     0.002 A 
ATOM      3  C5  UNL d   1       1.508   1.945  -0.228  0.00  0.00     0.002 A 
ATOM      4  C6  UNL d   1       2.137   1.010   0.591  0.00  0.00    -0.004 A 
ATOM      5  C7  UNL d   1       1.459  -0.146   0.972  0.00  0.00     0.002 A 
ATOM      6  C8  UNL d   1       0.156  -0.374   0.525  0.00  0.00     0.002 A 
ENDROOT
BRANCH   1   7
ATOM      7  C2  UNL d   1      -1.882   0.292  -0.810  0.00  0.00     0.056 C 
BRANCH   7   8
ATOM      8  C1  UNL d   1      -1.939  -0.526  -2.104  0.00  0.00     0.007 C 
ATOM      9  C   UNL d   1      -2.283   0.311  -3.329  0.00  0.00     0.009 C 
ENDBRANCH   7   8
ENDBRANCH   1   7
TORSDOF 2
ENDMDL
