MODEL 1
REMARK minimizedAffinity -4.74377728
REMARK minimizedRMSD -1
REMARK  2 active torsions:
REMARK  status: ('A' for Active; 'I' for Inactive)
REMARK    1  A    between atoms: C1_2  and  C2_3 
REMARK    2  A    between atoms: C2_3  and  C3_4 
ROOT
ATOM      1  C3  UNL d   1      -3.352   1.688  -2.896  0.00  0.00    -0.075 A 
ATOM      2  C4  UNL d   1      -2.851   1.402  -1.617  0.00  0.00     0.002 A 
ATOM      3  C5  UNL d   1      -2.418   0.115  -1.298  0.00  0.00     0.002 A 
ATOM      4  C6  UNL d   1      -2.489  -0.902  -2.247  0.00  0.00    -0.004 A 
ATOM      5  C7  UNL d   1      -3.000  -0.633  -3.515  0.00  0.00     0.002 A 
ATOM      6  C8  UNL d   1      -3.430   0.655  -3.838  0.00  0.00     0.002 A 
ENDROOT
BRANCH   1   7
ATOM      7  C2  UNL d   1      -3.795   3.086  -3.257  0.00  0.00     0.056 C 
BRANCH   7   8
ATOM      8  C1  UNL d   1      -4.778   3.706  -2.258  0.00  0.00     0.007 C 
ATOM      9  C   UNL d   1      -4.784   5.229  -2.288  0.00  0.00     0.009 C 
ENDBRANCH   7   8
ENDBRANCH   1   7
TORSDOF 2
ENDMDL
