MODEL 1
REMARK minimizedAffinity -5.27547407
REMARK minimizedRMSD -1
REMARK  2 active torsions:
REMARK  status: ('A' for Active; 'I' for Inactive)
REMARK    1  A    between atoms: C1_2  and  C2_3 
REMARK    2  A    between atoms: C2_3  and  C3_4 
ROOT
ATOM      1  C3  UNL d   1       2.513  -0.371   2.385  0.00  0.00    -0.075 A 
ATOM      2  C4  UNL d   1       2.658  -0.033   3.739  0.00  0.00     0.002 A 
ATOM      3  C5  UNL d   1       2.590   1.300   4.147  0.00  0.00     0.002 A 
ATOM      4  C6  UNL d   1       2.387   2.310   3.209  0.00  0.00    -0.004 A 
ATOM      5  C7  UNL d   1       2.258   1.987   1.860  0.00  0.00     0.002 A 
ATOM      6  C8  UNL d   1       2.321   0.654   1.449  0.00  0.00     0.002 A 
ENDROOT
BRANCH   1   7
ATOM      7  C2  UNL d   1       2.556  -1.813   1.940  0.00  0.00     0.056 C 
BRANCH   7   8
ATOM      8  C1  UNL d   1       1.226  -2.334   1.384  0.00  0.00     0.007 C 
ATOM      9  C   UNL d   1       0.531  -3.319   2.314  0.00  0.00     0.009 C 
ENDBRANCH   7   8
ENDBRANCH   1   7
TORSDOF 2
ENDMDL
