MODEL 1
REMARK minimizedAffinity -4.35034418
REMARK minimizedRMSD -1
REMARK  2 active torsions:
REMARK  status: ('A' for Active; 'I' for Inactive)
REMARK    1  A    between atoms: C1_2  and  C2_3 
REMARK    2  A    between atoms: C2_3  and  C3_4 
ROOT
ATOM      1  C3  UNL d   1      -0.200   0.070   0.257  0.00  0.00    -0.075 A 
ATOM      2  C4  UNL d   1       0.192  -0.966   1.117  0.00  0.00     0.002 A 
ATOM      3  C5  UNL d   1       1.463  -0.967   1.691  0.00  0.00     0.002 A 
ATOM      4  C6  UNL d   1       2.361   0.059   1.405  0.00  0.00    -0.004 A 
ATOM      5  C7  UNL d   1       1.989   1.084   0.539  0.00  0.00     0.002 A 
ATOM      6  C8  UNL d   1       0.715   1.091  -0.033  0.00  0.00     0.002 A 
ENDROOT
BRANCH   1   7
ATOM      7  C2  UNL d   1      -1.585   0.093  -0.345  0.00  0.00     0.056 C 
BRANCH   7   8
ATOM      8  C1  UNL d   1      -1.635  -0.345  -1.812  0.00  0.00     0.007 C 
ATOM      9  C   UNL d   1      -2.755   0.322  -2.600  0.00  0.00     0.009 C 
ENDBRANCH   7   8
ENDBRANCH   1   7
TORSDOF 2
ENDMDL
