MODEL 1
REMARK minimizedAffinity -4.40712738
REMARK minimizedRMSD -1
REMARK  2 active torsions:
REMARK  status: ('A' for Active; 'I' for Inactive)
REMARK    1  A    between atoms: C1_2  and  C2_3 
REMARK    2  A    between atoms: C2_3  and  C3_4 
ROOT
ATOM      1  C3  UNL d   1      -1.314   0.036  -1.058  0.00  0.00    -0.075 A 
ATOM      2  C4  UNL d   1      -1.249  -0.997  -2.004  0.00  0.00     0.002 A 
ATOM      3  C5  UNL d   1      -2.055  -0.968  -3.142  0.00  0.00     0.002 A 
ATOM      4  C6  UNL d   1      -2.944   0.086  -3.343  0.00  0.00    -0.004 A 
ATOM      5  C7  UNL d   1      -3.029   1.110  -2.401  0.00  0.00     0.002 A 
ATOM      6  C8  UNL d   1      -2.220   1.085  -1.264  0.00  0.00     0.002 A 
ENDROOT
BRANCH   1   7
ATOM      7  C2  UNL d   1      -0.423   0.026   0.161  0.00  0.00     0.056 C 
BRANCH   7   8
ATOM      8  C1  UNL d   1       0.395   1.308   0.346  0.00  0.00     0.007 C 
ATOM      9  C   UNL d   1       1.860   1.045   0.669  0.00  0.00     0.009 C 
ENDBRANCH   7   8
ENDBRANCH   1   7
TORSDOF 2
ENDMDL
