MODEL 1
REMARK minimizedAffinity 2.30923057
REMARK minimizedRMSD -1
REMARK  2 active torsions:
REMARK  status: ('A' for Active; 'I' for Inactive)
REMARK    1  A    between atoms: C1_2  and  C2_3 
REMARK    2  A    between atoms: C2_3  and  C3_4 
ROOT
ATOM      1  C3  UNL d   1      -4.079   2.299  -2.810  0.00  0.00    -0.075 A 
ATOM      2  C4  UNL d   1      -3.938   3.514  -3.496  0.00  0.00     0.002 A 
ATOM      3  C5  UNL d   1      -4.649   4.644  -3.090  0.00  0.00     0.002 A 
ATOM      4  C6  UNL d   1      -5.517   4.571  -2.003  0.00  0.00    -0.004 A 
ATOM      5  C7  UNL d   1      -5.678   3.365  -1.325  0.00  0.00     0.002 A 
ATOM      6  C8  UNL d   1      -4.964   2.234  -1.725  0.00  0.00     0.002 A 
ENDROOT
BRANCH   1   7
ATOM      7  C2  UNL d   1      -3.290   1.081  -3.226  0.00  0.00     0.056 C 
BRANCH   7   8
ATOM      8  C1  UNL d   1      -1.856   1.052  -2.686  0.00  0.00     0.007 C 
ATOM      9  C   UNL d   1      -1.783   0.761  -1.193  0.00  0.00     0.009 C 
ENDBRANCH   7   8
ENDBRANCH   1   7
TORSDOF 2
ENDMDL
