MODEL 1
REMARK minimizedAffinity -3.62682319
REMARK minimizedRMSD -1
REMARK  2 active torsions:
REMARK  status: ('A' for Active; 'I' for Inactive)
REMARK    1  A    between atoms: C1_2  and  C2_3 
REMARK    2  A    between atoms: C2_3  and  C3_4 
ROOT
ATOM      1  C3  UNL d   1      -1.714  -0.000  -0.723  0.00  0.00    -0.075 A 
ATOM      2  C4  UNL d   1      -1.810  -0.999   0.257  0.00  0.00     0.002 A 
ATOM      3  C5  UNL d   1      -0.751  -1.234   1.135  0.00  0.00     0.002 A 
ATOM      4  C6  UNL d   1       0.418  -0.483   1.038  0.00  0.00    -0.004 A 
ATOM      5  C7  UNL d   1       0.531   0.501   0.058  0.00  0.00     0.002 A 
ATOM      6  C8  UNL d   1      -0.528   0.741  -0.819  0.00  0.00     0.002 A 
ENDROOT
BRANCH   1   7
ATOM      7  C2  UNL d   1      -2.867   0.279  -1.657  0.00  0.00     0.056 C 
BRANCH   7   8
ATOM      8  C1  UNL d   1      -2.621  -0.167  -3.102  0.00  0.00     0.007 C 
ATOM      9  C   UNL d   1      -2.379  -1.665  -3.235  0.00  0.00     0.009 C 
ENDBRANCH   7   8
ENDBRANCH   1   7
TORSDOF 2
ENDMDL
