MODEL 1
REMARK minimizedAffinity 4.45618916
REMARK minimizedRMSD -1
REMARK  3 active torsions:
REMARK  status: ('A' for Active; 'I' for Inactive)
REMARK    1  A    between atoms: C3'_2  and  C2'_3 
REMARK    2  A    between atoms: C2'_3  and  C1'_4 
REMARK    3  A    between atoms: C1'_4  and  C1_5 
ROOT
ATOM      1  C1  N4B d   1       3.202  -5.991   3.906  0.00  0.00    -0.075 A 
ATOM      2  C2  N4B d   1       4.455  -5.997   3.255  0.00  0.00     0.002 A 
ATOM      3  C3  N4B d   1       5.613  -5.995   3.994  0.00  0.00     0.002 A 
ATOM      4  C4  N4B d   1       5.542  -5.969   5.379  0.00  0.00    -0.004 A 
ATOM      5  C5  N4B d   1       4.328  -5.990   6.000  0.00  0.00     0.002 A 
ATOM      6  C6  N4B d   1       3.156  -5.995   5.270  0.00  0.00     0.002 A 
ENDROOT
BRANCH   1   7
ATOM      7  C1' N4B d   1       1.910  -5.906   3.140  0.00  0.00     0.057 C 
BRANCH   7   8
ATOM      8  C2' N4B d   1       1.793  -4.523   2.506  0.00  0.00     0.009 C 
BRANCH   8   9
ATOM      9  C3' N4B d   1       0.347  -4.076   2.380  0.00  0.00     0.004 C 
ATOM     10  C4' N4B d   1       0.142  -2.649   2.795  0.00  0.00     0.003 C 
ENDBRANCH   8   9
ENDBRANCH   7   8
ENDBRANCH   1   7
TORSDOF 3
ENDMDL
