MODEL 1
REMARK minimizedAffinity 4.25699902
REMARK minimizedRMSD -1
REMARK  3 active torsions:
REMARK  status: ('A' for Active; 'I' for Inactive)
REMARK    1  A    between atoms: C3'_2  and  C2'_3 
REMARK    2  A    between atoms: C2'_3  and  C1'_4 
REMARK    3  A    between atoms: C1'_4  and  C1_5 
ROOT
ATOM      1  C1  N4B d   1       2.614   3.451  -2.380  0.00  0.00    -0.075 A 
ATOM      2  C2  N4B d   1       3.832   3.016  -2.948  0.00  0.00     0.002 A 
ATOM      3  C3  N4B d   1       4.439   3.764  -3.926  0.00  0.00     0.002 A 
ATOM      4  C4  N4B d   1       3.841   4.936  -4.364  0.00  0.00    -0.004 A 
ATOM      5  C5  N4B d   1       2.678   5.362  -3.792  0.00  0.00     0.002 A 
ATOM      6  C6  N4B d   1       2.058   4.623  -2.805  0.00  0.00     0.002 A 
ENDROOT
BRANCH   1   7
ATOM      7  C1' N4B d   1       1.869   2.624  -1.368  0.00  0.00     0.057 C 
BRANCH   7   8
ATOM      8  C2' N4B d   1       0.937   1.661  -2.097  0.00  0.00     0.009 C 
BRANCH   8   9
ATOM      9  C3' N4B d   1       1.454   0.233  -2.062  0.00  0.00     0.004 C 
ATOM     10  C4' N4B d   1       1.637  -0.352  -3.431  0.00  0.00     0.003 C 
ENDBRANCH   8   9
ENDBRANCH   7   8
ENDBRANCH   1   7
TORSDOF 3
ENDMDL
