MODEL 1
REMARK minimizedAffinity 12.7645655
REMARK minimizedRMSD -1
REMARK  3 active torsions:
REMARK  status: ('A' for Active; 'I' for Inactive)
REMARK    1  A    between atoms: C3'_2  and  C2'_3 
REMARK    2  A    between atoms: C2'_3  and  C1'_4 
REMARK    3  A    between atoms: C1'_4  and  C1_5 
ROOT
ATOM      1  C1  N4B d   1       2.925   2.233  -2.802  0.00  0.00    -0.075 A 
ATOM      2  C2  N4B d   1       3.615   2.752  -3.921  0.00  0.00     0.002 A 
ATOM      3  C3  N4B d   1       3.508   4.084  -4.235  0.00  0.00     0.002 A 
ATOM      4  C4  N4B d   1       2.707   4.910  -3.461  0.00  0.00    -0.004 A 
ATOM      5  C5  N4B d   1       2.065   4.407  -2.368  0.00  0.00     0.002 A 
ATOM      6  C6  N4B d   1       2.166   3.070  -2.037  0.00  0.00     0.002 A 
ENDROOT
BRANCH   1   7
ATOM      7  C1' N4B d   1       2.942   0.766  -2.469  0.00  0.00     0.057 C 
BRANCH   7   8
ATOM      8  C2' N4B d   1       2.756  -0.040  -3.751  0.00  0.00     0.009 C 
BRANCH   8   9
ATOM      9  C3' N4B d   1       1.439  -0.798  -3.759  0.00  0.00     0.004 C 
ATOM     10  C4' N4B d   1       0.274   0.068  -4.134  0.00  0.00     0.003 C 
ENDBRANCH   8   9
ENDBRANCH   7   8
ENDBRANCH   1   7
TORSDOF 3
ENDMDL
