MODEL 1
REMARK minimizedAffinity 9.39170837
REMARK minimizedRMSD -1
REMARK  3 active torsions:
REMARK  status: ('A' for Active; 'I' for Inactive)
REMARK    1  A    between atoms: C3'_2  and  C2'_3 
REMARK    2  A    between atoms: C2'_3  and  C1'_4 
REMARK    3  A    between atoms: C1'_4  and  C1_5 
ROOT
ATOM      1  C1  N4B d   1       0.805   0.586  -1.851  0.00  0.00    -0.075 A 
ATOM      2  C2  N4B d   1       0.780  -0.824  -1.784  0.00  0.00     0.002 A 
ATOM      3  C3  N4B d   1       0.959  -1.569  -2.923  0.00  0.00     0.002 A 
ATOM      4  C4  N4B d   1       1.145  -0.929  -4.139  0.00  0.00    -0.004 A 
ATOM      5  C5  N4B d   1       1.193   0.434  -4.192  0.00  0.00     0.002 A 
ATOM      6  C6  N4B d   1       1.019   1.195  -3.053  0.00  0.00     0.002 A 
ENDROOT
BRANCH   1   7
ATOM      7  C1' N4B d   1       0.528   1.443  -0.646  0.00  0.00     0.057 C 
BRANCH   7   8
ATOM      8  C2' N4B d   1      -0.727   0.932   0.055  0.00  0.00     0.009 C 
BRANCH   8   9
ATOM      9  C3' N4B d   1      -0.635   1.082   1.564  0.00  0.00     0.004 C 
ATOM     10  C4' N4B d   1      -1.538   0.136   2.298  0.00  0.00     0.003 C 
ENDBRANCH   8   9
ENDBRANCH   7   8
ENDBRANCH   1   7
TORSDOF 3
ENDMDL
