MODEL 1
REMARK minimizedAffinity 14.5545149
REMARK minimizedRMSD -1
REMARK  3 active torsions:
REMARK  status: ('A' for Active; 'I' for Inactive)
REMARK    1  A    between atoms: C3'_2  and  C2'_3 
REMARK    2  A    between atoms: C2'_3  and  C1'_4 
REMARK    3  A    between atoms: C1'_4  and  C1_5 
ROOT
ATOM      1  C1  N4B d   1       1.130   0.055  -2.425  0.00  0.00    -0.075 A 
ATOM      2  C2  N4B d   1       1.629   0.457  -3.683  0.00  0.00     0.002 A 
ATOM      3  C3  N4B d   1       1.872  -0.480  -4.657  0.00  0.00     0.002 A 
ATOM      4  C4  N4B d   1       1.643  -1.822  -4.390  0.00  0.00    -0.004 A 
ATOM      5  C5  N4B d   1       1.136  -2.199  -3.181  0.00  0.00     0.002 A 
ATOM      6  C6  N4B d   1       0.883  -1.267  -2.195  0.00  0.00     0.002 A 
ENDROOT
BRANCH   1   7
ATOM      7  C1' N4B d   1       0.930   1.034  -1.300  0.00  0.00     0.057 C 
BRANCH   7   8
ATOM      8  C2' N4B d   1      -0.540   1.032  -0.890  0.00  0.00     0.009 C 
BRANCH   8   9
ATOM      9  C3' N4B d   1      -0.709   1.130   0.616  0.00  0.00     0.004 C 
ATOM     10  C4' N4B d   1      -1.573   0.039   1.175  0.00  0.00     0.003 C 
ENDBRANCH   8   9
ENDBRANCH   7   8
ENDBRANCH   1   7
TORSDOF 3
ENDMDL
