MODEL 1
REMARK minimizedAffinity 2.99791288
REMARK minimizedRMSD -1
REMARK  3 active torsions:
REMARK  status: ('A' for Active; 'I' for Inactive)
REMARK    1  A    between atoms: C3'_2  and  C2'_3 
REMARK    2  A    between atoms: C2'_3  and  C1'_4 
REMARK    3  A    between atoms: C1'_4  and  C1_5 
ROOT
ATOM      1  C1  N4B d   1      -0.449   0.494  -2.818  0.00  0.00    -0.075 A 
ATOM      2  C2  N4B d   1       0.757  -0.163  -2.488  0.00  0.00     0.002 A 
ATOM      3  C3  N4B d   1       1.263  -1.129  -3.322  0.00  0.00     0.002 A 
ATOM      4  C4  N4B d   1       0.574  -1.468  -4.478  0.00  0.00    -0.004 A 
ATOM      5  C5  N4B d   1      -0.577  -0.811  -4.802  0.00  0.00     0.002 A 
ATOM      6  C6  N4B d   1      -1.095   0.165  -3.975  0.00  0.00     0.002 A 
ENDROOT
BRANCH   1   7
ATOM      7  C1' N4B d   1      -1.086   1.496  -1.895  0.00  0.00     0.057 C 
BRANCH   7   8
ATOM      8  C2' N4B d   1      -0.781   1.111  -0.450  0.00  0.00     0.009 C 
BRANCH   8   9
ATOM      9  C3' N4B d   1      -1.912   1.488   0.490  0.00  0.00     0.004 C 
ATOM     10  C4' N4B d   1      -1.563   1.277   1.933  0.00  0.00     0.003 C 
ENDBRANCH   8   9
ENDBRANCH   7   8
ENDBRANCH   1   7
TORSDOF 3
ENDMDL
