MODEL 1
REMARK minimizedAffinity 11.2189007
REMARK minimizedRMSD -1
REMARK  3 active torsions:
REMARK  status: ('A' for Active; 'I' for Inactive)
REMARK    1  A    between atoms: C3'_2  and  C2'_3 
REMARK    2  A    between atoms: C2'_3  and  C1'_4 
REMARK    3  A    between atoms: C1'_4  and  C1_5 
ROOT
ATOM      1  C1  N4B d   1       3.256   2.651  -2.897  0.00  0.00    -0.075 A 
ATOM      2  C2  N4B d   1       4.277   2.800  -3.860  0.00  0.00     0.002 A 
ATOM      3  C3  N4B d   1       4.431   3.996  -4.518  0.00  0.00     0.002 A 
ATOM      4  C4  N4B d   1       3.568   5.046  -4.244  0.00  0.00    -0.004 A 
ATOM      5  C5  N4B d   1       2.600   4.902  -3.294  0.00  0.00     0.002 A 
ATOM      6  C6  N4B d   1       2.436   3.707  -2.622  0.00  0.00     0.002 A 
ENDROOT
BRANCH   1   7
ATOM      7  C1' N4B d   1       2.994   1.337  -2.213  0.00  0.00     0.057 C 
BRANCH   7   8
ATOM      8  C2' N4B d   1       1.736   0.708  -2.804  0.00  0.00     0.009 C 
BRANCH   8   9
ATOM      9  C3' N4B d   1       2.063  -0.336  -3.858  0.00  0.00     0.004 C 
ATOM     10  C4' N4B d   1       0.975  -1.355  -4.023  0.00  0.00     0.003 C 
ENDBRANCH   8   9
ENDBRANCH   7   8
ENDBRANCH   1   7
TORSDOF 3
ENDMDL
