MODEL 1
REMARK minimizedAffinity 15.8654299
REMARK minimizedRMSD -1
REMARK  3 active torsions:
REMARK  status: ('A' for Active; 'I' for Inactive)
REMARK    1  A    between atoms: C3'_2  and  C2'_3 
REMARK    2  A    between atoms: C2'_3  and  C1'_4 
REMARK    3  A    between atoms: C1'_4  and  C1_5 
ROOT
ATOM      1  C1  N4B d   1      -0.859   1.257  -0.485  0.00  0.00    -0.075 A 
ATOM      2  C2  N4B d   1      -0.760   1.099   0.915  0.00  0.00     0.002 A 
ATOM      3  C3  N4B d   1      -1.888   1.174   1.695  0.00  0.00     0.002 A 
ATOM      4  C4  N4B d   1      -3.117   1.423   1.103  0.00  0.00    -0.004 A 
ATOM      5  C5  N4B d   1      -3.207   1.549  -0.253  0.00  0.00     0.002 A 
ATOM      6  C6  N4B d   1      -2.082   1.473  -1.049  0.00  0.00     0.002 A 
ENDROOT
BRANCH   1   7
ATOM      7  C1' N4B d   1       0.358   1.270  -1.370  0.00  0.00     0.057 C 
BRANCH   7   8
ATOM      8  C2' N4B d   1       0.691  -0.161  -1.783  0.00  0.00     0.009 C 
BRANCH   8   9
ATOM      9  C3' N4B d   1       1.444  -0.211  -3.101  0.00  0.00     0.004 C 
ATOM     10  C4' N4B d   1       1.354  -1.550  -3.771  0.00  0.00     0.003 C 
ENDBRANCH   8   9
ENDBRANCH   7   8
ENDBRANCH   1   7
TORSDOF 3
ENDMDL
