MODEL 1
REMARK minimizedAffinity 7.81224012
REMARK minimizedRMSD -1
REMARK  3 active torsions:
REMARK  status: ('A' for Active; 'I' for Inactive)
REMARK    1  A    between atoms: C3'_2  and  C2'_3 
REMARK    2  A    between atoms: C2'_3  and  C1'_4 
REMARK    3  A    between atoms: C1'_4  and  C1_5 
ROOT
ATOM      1  C1  N4B d   1      -1.517  -3.575  -5.932  0.00  0.00    -0.075 A 
ATOM      2  C2  N4B d   1      -2.928  -3.616  -5.894  0.00  0.00     0.002 A 
ATOM      3  C3  N4B d   1      -3.580  -4.824  -5.914  0.00  0.00     0.002 A 
ATOM      4  C4  N4B d   1      -2.847  -5.999  -5.989  0.00  0.00    -0.004 A 
ATOM      5  C5  N4B d   1      -1.484  -5.952  -6.000  0.00  0.00     0.002 A 
ATOM      6  C6  N4B d   1      -0.814  -4.745  -5.977  0.00  0.00     0.002 A 
ENDROOT
BRANCH   1   7
ATOM      7  C1' N4B d   1      -0.761  -2.276  -5.999  0.00  0.00     0.057 C 
BRANCH   7   8
ATOM      8  C2' N4B d   1       0.307  -2.261  -4.910  0.00  0.00     0.009 C 
BRANCH   8   9
ATOM      9  C3' N4B d   1       0.485  -0.878  -4.308  0.00  0.00     0.004 C 
ATOM     10  C4' N4B d   1       1.779  -0.730  -3.565  0.00  0.00     0.003 C 
ENDBRANCH   8   9
ENDBRANCH   7   8
ENDBRANCH   1   7
TORSDOF 3
ENDMDL
