MODEL 1
REMARK minimizedAffinity 12.923089
REMARK minimizedRMSD -1
REMARK  3 active torsions:
REMARK  status: ('A' for Active; 'I' for Inactive)
REMARK    1  A    between atoms: C3'_2  and  C2'_3 
REMARK    2  A    between atoms: C2'_3  and  C1'_4 
REMARK    3  A    between atoms: C1'_4  and  C1_5 
ROOT
ATOM      1  C1  N4B d   1      -4.750  -2.656  -3.959  0.00  0.00    -0.075 A 
ATOM      2  C2  N4B d   1      -4.862  -3.853  -3.218  0.00  0.00     0.002 A 
ATOM      3  C3  N4B d   1      -5.346  -3.823  -1.933  0.00  0.00     0.002 A 
ATOM      4  C4  N4B d   1      -5.704  -2.610  -1.364  0.00  0.00    -0.004 A 
ATOM      5  C5  N4B d   1      -5.617  -1.462  -2.095  0.00  0.00     0.002 A 
ATOM      6  C6  N4B d   1      -5.136  -1.478  -3.389  0.00  0.00     0.002 A 
ENDROOT
BRANCH   1   7
ATOM      7  C1' N4B d   1      -4.146  -2.628  -5.337  0.00  0.00     0.057 C 
BRANCH   7   8
ATOM      8  C2' N4B d   1      -2.701  -3.112  -5.260  0.00  0.00     0.009 C 
BRANCH   8   9
ATOM      9  C3' N4B d   1      -2.537  -4.507  -5.839  0.00  0.00     0.004 C 
ATOM     10  C4' N4B d   1      -1.100  -4.904  -5.999  0.00  0.00     0.003 C 
ENDBRANCH   8   9
ENDBRANCH   7   8
ENDBRANCH   1   7
TORSDOF 3
ENDMDL
