MODEL 1
REMARK minimizedAffinity 14.2296419
REMARK minimizedRMSD -1
REMARK  0 active torsions:
REMARK  status: ('A' for Active; 'I' for Inactive)
ROOT
ATOM      1  C   UNL d   1       1.152  -3.061   3.357  0.00  0.00     0.124 A 
ATOM      2  C1  UNL d   1       1.950  -3.995   4.002  0.00  0.00     0.062 A 
ATOM      3  C2  UNL d   1       3.335  -3.851   4.003  0.00  0.00     0.162 A 
ATOM      4  C3  UNL d   1       3.930  -2.768   3.358  0.00  0.00    -0.034 A 
ATOM      5  C4  UNL d   1       3.121  -1.833   2.710  0.00  0.00     0.162 A 
ATOM      6  C5  UNL d   1       1.738  -1.981   2.712  0.00  0.00     0.062 A 
ATOM      7  F   UNL d   1       0.968  -1.077   2.088  0.00  0.00    -0.097 F 
ATOM      8  F1  UNL d   1       3.660  -0.779   2.079  0.00  0.00    -0.096 F 
ATOM      9  I   UNL d   1       6.000  -2.549   3.357  0.00  0.00    -0.060 I 
ATOM     10  F2  UNL d   1       4.082  -4.769   4.635  0.00  0.00    -0.096 F 
ATOM     11  F3  UNL d   1       1.387  -5.040   4.625  0.00  0.00    -0.097 F 
ATOM     12  F4  UNL d   1      -0.180  -3.203   3.356  0.00  0.00    -0.092 F 
ENDROOT
TORSDOF 0
ENDMDL
