MODEL 1
REMARK minimizedAffinity 17.1309566
REMARK minimizedRMSD -1
REMARK  0 active torsions:
REMARK  status: ('A' for Active; 'I' for Inactive)
ROOT
ATOM      1  C   UNL d   1       1.543  -3.997   3.253  0.00  0.00     0.124 A 
ATOM      2  C1  UNL d   1       0.616  -3.232   3.947  0.00  0.00     0.062 A 
ATOM      3  C2  UNL d   1       0.639  -1.844   3.846  0.00  0.00     0.162 A 
ATOM      4  C3  UNL d   1       1.592  -1.212   3.048  0.00  0.00    -0.034 A 
ATOM      5  C4  UNL d   1       2.522  -1.988   2.354  0.00  0.00     0.162 A 
ATOM      6  C5  UNL d   1       2.495  -3.375   2.457  0.00  0.00     0.062 A 
ATOM      7  F   UNL d   1       3.391  -4.113   1.786  0.00  0.00    -0.097 F 
ATOM      8  F1  UNL d   1       3.452  -1.413   1.577  0.00  0.00    -0.096 F 
ATOM      9  I   UNL d   1       1.629   0.864   2.895  0.00  0.00    -0.060 I 
ATOM     10  F2  UNL d   1      -0.269  -1.129   4.528  0.00  0.00    -0.096 F 
ATOM     11  F3  UNL d   1      -0.304  -3.831   4.717  0.00  0.00    -0.097 F 
ATOM     12  F4  UNL d   1       1.520  -5.333   3.352  0.00  0.00    -0.092 F 
ENDROOT
TORSDOF 0
ENDMDL
