MODEL 1
REMARK minimizedAffinity 18.8418331
REMARK minimizedRMSD -1
REMARK  0 active torsions:
REMARK  status: ('A' for Active; 'I' for Inactive)
ROOT
ATOM      1  C   UNL d   1       2.528   1.627   1.652  0.00  0.00     0.124 A 
ATOM      2  C1  UNL d   1       2.713   0.424   0.985  0.00  0.00     0.062 A 
ATOM      3  C2  UNL d   1       2.206  -0.758   1.518  0.00  0.00     0.162 A 
ATOM      4  C3  UNL d   1       1.509  -0.742   2.726  0.00  0.00    -0.034 A 
ATOM      5  C4  UNL d   1       1.328   0.471   3.392  0.00  0.00     0.162 A 
ATOM      6  C5  UNL d   1       1.837   1.649   2.855  0.00  0.00     0.062 A 
ATOM      7  F   UNL d   1       1.658   2.811   3.501  0.00  0.00    -0.097 F 
ATOM      8  F1  UNL d   1       0.663   0.522   4.556  0.00  0.00    -0.096 F 
ATOM      9  I   UNL d   1       0.750  -2.507   3.528  0.00  0.00    -0.060 I 
ATOM     10  F2  UNL d   1       2.399  -1.906   0.852  0.00  0.00    -0.096 F 
ATOM     11  F3  UNL d   1       3.382   0.399  -0.177  0.00  0.00    -0.097 F 
ATOM     12  F4  UNL d   1       3.018   2.762   1.137  0.00  0.00    -0.092 F 
ENDROOT
TORSDOF 0
ENDMDL
