MODEL 1
REMARK minimizedAffinity 14.4022226
REMARK minimizedRMSD -1
REMARK  0 active torsions:
REMARK  status: ('A' for Active; 'I' for Inactive)
ROOT
ATOM      1  C   UNL d   1       1.752  -2.875   1.411  0.00  0.00     0.124 A 
ATOM      2  C1  UNL d   1       1.505  -1.991   2.452  0.00  0.00     0.062 A 
ATOM      3  C2  UNL d   1       1.441  -2.454   3.763  0.00  0.00     0.162 A 
ATOM      4  C3  UNL d   1       1.626  -3.808   4.041  0.00  0.00    -0.034 A 
ATOM      5  C4  UNL d   1       1.873  -4.692   2.988  0.00  0.00     0.162 A 
ATOM      6  C5  UNL d   1       1.936  -4.224   1.680  0.00  0.00     0.062 A 
ATOM      7  F   UNL d   1       2.175  -5.080   0.675  0.00  0.00    -0.097 F 
ATOM      8  F1  UNL d   1       2.055  -6.000   3.220  0.00  0.00    -0.096 F 
ATOM      9  I   UNL d   1       1.531  -4.504   6.000  0.00  0.00    -0.060 I 
ATOM     10  F2  UNL d   1       1.201  -1.577   4.749  0.00  0.00    -0.096 F 
ATOM     11  F3  UNL d   1       1.326  -0.687   2.194  0.00  0.00    -0.097 F 
ATOM     12  F4  UNL d   1       1.812  -2.427   0.150  0.00  0.00    -0.092 F 
ENDROOT
TORSDOF 0
ENDMDL
