MODEL 1
REMARK minimizedAffinity 10.4307184
REMARK minimizedRMSD -1
REMARK  0 active torsions:
REMARK  status: ('A' for Active; 'I' for Inactive)
ROOT
ATOM      1  C   UNL d   1       2.291   0.418   2.263  0.00  0.00     0.124 A 
ATOM      2  C1  UNL d   1       2.573  -0.821   1.703  0.00  0.00     0.062 A 
ATOM      3  C2  UNL d   1       2.286  -1.988   2.405  0.00  0.00     0.162 A 
ATOM      4  C3  UNL d   1       1.712  -1.922   3.675  0.00  0.00    -0.034 A 
ATOM      5  C4  UNL d   1       1.432  -0.673   4.232  0.00  0.00     0.162 A 
ATOM      6  C5  UNL d   1       1.721   0.491   3.526  0.00  0.00     0.062 A 
ATOM      7  F   UNL d   1       1.448   1.686   4.069  0.00  0.00    -0.097 F 
ATOM      8  F1  UNL d   1       0.881  -0.574   5.451  0.00  0.00    -0.096 F 
ATOM      9  I   UNL d   1       1.281  -3.665   4.728  0.00  0.00    -0.060 I 
ATOM     10  F2  UNL d   1       2.568  -3.171   1.840  0.00  0.00    -0.096 F 
ATOM     11  F3  UNL d   1       3.124  -0.894   0.483  0.00  0.00    -0.097 F 
ATOM     12  F4  UNL d   1       2.569   1.539   1.586  0.00  0.00    -0.092 F 
ENDROOT
TORSDOF 0
ENDMDL
