MODEL 1
REMARK minimizedAffinity 10.2425518
REMARK minimizedRMSD -1
REMARK  0 active torsions:
REMARK  status: ('A' for Active; 'I' for Inactive)
ROOT
ATOM      1  C   UNL d   1       1.873  -2.187   1.860  0.00  0.00     0.124 A 
ATOM      2  C1  UNL d   1       1.879  -3.575   1.852  0.00  0.00     0.062 A 
ATOM      3  C2  UNL d   1       1.673  -4.282   3.033  0.00  0.00     0.162 A 
ATOM      4  C3  UNL d   1       1.459  -3.603   4.232  0.00  0.00    -0.034 A 
ATOM      5  C4  UNL d   1       1.456  -2.207   4.233  0.00  0.00     0.162 A 
ATOM      6  C5  UNL d   1       1.662  -1.504   3.050  0.00  0.00     0.062 A 
ATOM      7  F   UNL d   1       1.656  -0.163   3.060  0.00  0.00    -0.097 F 
ATOM      8  F1  UNL d   1       1.253  -1.523   5.368  0.00  0.00    -0.096 F 
ATOM      9  I   UNL d   1       1.151  -4.658   6.000  0.00  0.00    -0.060 I 
ATOM     10  F2  UNL d   1       1.684  -5.623   2.995  0.00  0.00    -0.096 F 
ATOM     11  F3  UNL d   1       2.084  -4.236   0.704  0.00  0.00    -0.097 F 
ATOM     12  F4  UNL d   1       2.072  -1.508   0.723  0.00  0.00    -0.092 F 
ENDROOT
TORSDOF 0
ENDMDL
