MODEL 1
REMARK minimizedAffinity 9.93565083
REMARK minimizedRMSD -1
REMARK  0 active torsions:
REMARK  status: ('A' for Active; 'I' for Inactive)
ROOT
ATOM      1  C   UNL d   1      -2.159   0.905  -1.907  0.00  0.00     0.124 A 
ATOM      2  C1  UNL d   1      -3.178   1.402  -2.708  0.00  0.00     0.062 A 
ATOM      3  C2  UNL d   1      -4.128   2.267  -2.174  0.00  0.00     0.162 A 
ATOM      4  C3  UNL d   1      -4.064   2.643  -0.832  0.00  0.00    -0.034 A 
ATOM      5  C4  UNL d   1      -3.037   2.138  -0.033  0.00  0.00     0.162 A 
ATOM      6  C5  UNL d   1      -2.089   1.273  -0.571  0.00  0.00     0.062 A 
ATOM      7  F   UNL d   1      -1.105   0.794   0.204  0.00  0.00    -0.097 F 
ATOM      8  F1  UNL d   1      -2.945   2.478   1.261  0.00  0.00    -0.096 F 
ATOM      9  I   UNL d   1      -5.483   3.937  -0.031  0.00  0.00    -0.060 I 
ATOM     10  F2  UNL d   1      -5.102   2.732  -2.971  0.00  0.00    -0.096 F 
ATOM     11  F3  UNL d   1      -3.248   1.047  -3.999  0.00  0.00    -0.097 F 
ATOM     12  F4  UNL d   1      -1.246   0.071  -2.423  0.00  0.00    -0.092 F 
ENDROOT
TORSDOF 0
ENDMDL
