MODEL 1
REMARK minimizedAffinity 19.7816505
REMARK minimizedRMSD -1
REMARK  0 active torsions:
REMARK  status: ('A' for Active; 'I' for Inactive)
ROOT
ATOM      1  C   UNL d   1      -3.225   1.372  -2.303  0.00  0.00     0.124 A 
ATOM      2  C1  UNL d   1      -4.222   2.075  -2.964  0.00  0.00     0.062 A 
ATOM      3  C2  UNL d   1      -4.995   3.006  -2.277  0.00  0.00     0.162 A 
ATOM      4  C3  UNL d   1      -4.773   3.242  -0.920  0.00  0.00    -0.034 A 
ATOM      5  C4  UNL d   1      -3.768   2.530  -0.262  0.00  0.00     0.162 A 
ATOM      6  C5  UNL d   1      -2.999   1.601  -0.953  0.00  0.00     0.062 A 
ATOM      7  F   UNL d   1      -2.035   0.923  -0.312  0.00  0.00    -0.097 F 
ATOM      8  F1  UNL d   1      -3.528   2.732   1.042  0.00  0.00    -0.096 F 
ATOM      9  I   UNL d   1      -5.927   4.634   0.111  0.00  0.00    -0.060 I 
ATOM     10  F2  UNL d   1      -5.953   3.671  -2.941  0.00  0.00    -0.096 F 
ATOM     11  F3  UNL d   1      -4.443   1.856  -4.268  0.00  0.00    -0.097 F 
ATOM     12  F4  UNL d   1      -2.483   0.476  -2.966  0.00  0.00    -0.092 F 
ENDROOT
TORSDOF 0
ENDMDL
