MODEL 1
REMARK minimizedAffinity 19.6394463
REMARK minimizedRMSD -1
REMARK  0 active torsions:
REMARK  status: ('A' for Active; 'I' for Inactive)
ROOT
ATOM      1  C   UNL d   1       2.933   1.593   1.602  0.00  0.00     0.124 A 
ATOM      2  C1  UNL d   1       2.515   1.297   2.892  0.00  0.00     0.062 A 
ATOM      3  C2  UNL d   1       2.044   0.024   3.201  0.00  0.00     0.162 A 
ATOM      4  C3  UNL d   1       1.991  -0.964   2.217  0.00  0.00    -0.034 A 
ATOM      5  C4  UNL d   1       2.412  -0.659   0.922  0.00  0.00     0.162 A 
ATOM      6  C5  UNL d   1       2.881   0.615   0.619  0.00  0.00     0.062 A 
ATOM      7  F   UNL d   1       3.285   0.899  -0.628  0.00  0.00    -0.097 F 
ATOM      8  F1  UNL d   1       2.374  -1.585  -0.047  0.00  0.00    -0.096 F 
ATOM      9  I   UNL d   1       1.288  -2.869   2.675  0.00  0.00    -0.060 I 
ATOM     10  F2  UNL d   1       1.647  -0.234   4.456  0.00  0.00    -0.096 F 
ATOM     11  F3  UNL d   1       2.563   2.240   3.844  0.00  0.00    -0.097 F 
ATOM     12  F4  UNL d   1       3.384   2.819   1.307  0.00  0.00    -0.092 F 
ENDROOT
TORSDOF 0
ENDMDL
