MODEL 1
REMARK minimizedAffinity 16.8575191
REMARK minimizedRMSD -1
REMARK  0 active torsions:
REMARK  status: ('A' for Active; 'I' for Inactive)
ROOT
ATOM      1  C   UNL d   1       3.175   2.000   2.151  0.00  0.00     0.124 A 
ATOM      2  C1  UNL d   1       3.247   1.105   1.093  0.00  0.00     0.062 A 
ATOM      3  C2  UNL d   1       2.605  -0.128   1.174  0.00  0.00     0.162 A 
ATOM      4  C3  UNL d   1       1.885  -0.472   2.318  0.00  0.00    -0.034 A 
ATOM      5  C4  UNL d   1       1.818   0.433   3.378  0.00  0.00     0.162 A 
ATOM      6  C5  UNL d   1       2.461   1.664   3.292  0.00  0.00     0.062 A 
ATOM      7  F   UNL d   1       2.390   2.528   4.315  0.00  0.00    -0.097 F 
ATOM      8  F1  UNL d   1       1.135   0.134   4.493  0.00  0.00    -0.096 F 
ATOM      9  I   UNL d   1       0.925  -2.315   2.444  0.00  0.00    -0.060 I 
ATOM     10  F2  UNL d   1       2.692  -0.974   0.137  0.00  0.00    -0.096 F 
ATOM     11  F3  UNL d   1       3.936   1.427  -0.011  0.00  0.00    -0.097 F 
ATOM     12  F4  UNL d   1       3.794   3.185   2.070  0.00  0.00    -0.092 F 
ENDROOT
TORSDOF 0
ENDMDL
