MODEL 1
REMARK minimizedAffinity -1.0814507
REMARK minimizedRMSD -1
REMARK  0 active torsions:
REMARK  status: ('A' for Active; 'I' for Inactive)
ROOT
ATOM      1  C2' OXE d   1      -2.741   0.281  -0.340  0.00  0.00     0.078 C 
ATOM      2  C1' OXE d   1      -1.434   0.384   2.143  0.00  0.00     0.078 C 
ATOM      3  C1  OXE d   1      -0.629  -0.041   0.941  0.00  0.00    -0.078 A 
ATOM      4  C2  OXE d   1      -1.287  -0.133  -0.261  0.00  0.00    -0.078 A 
ATOM      5  C3  OXE d   1      -0.579  -0.468  -1.412  0.00  0.00     0.003 A 
ATOM      6  C4  OXE d   1       0.763  -0.860  -1.329  0.00  0.00    -0.002 A 
ATOM      7  C5  OXE d   1       1.443  -0.811  -0.107  0.00  0.00    -0.002 A 
ATOM      8  C6  OXE d   1       0.774  -0.364   1.027  0.00  0.00     0.003 A 
ENDROOT
TORSDOF 0
ENDMDL
