MODEL 1
REMARK minimizedAffinity -4.46584558
REMARK minimizedRMSD -1
REMARK  0 active torsions:
REMARK  status: ('A' for Active; 'I' for Inactive)
ROOT
ATOM      1  C2' OXE d   1      -0.687  -0.205  -0.492  0.00  0.00     0.078 C 
ATOM      2  C1' OXE d   1       1.629  -1.704  -1.012  0.00  0.00     0.078 C 
ATOM      3  C1  OXE d   1       1.194  -0.700  -2.049  0.00  0.00    -0.078 A 
ATOM      4  C2  OXE d   1       0.034  -0.004  -1.808  0.00  0.00    -0.078 A 
ATOM      5  C3  OXE d   1      -0.383   0.974  -2.707  0.00  0.00     0.003 A 
ATOM      6  C4  OXE d   1       0.283   1.146  -3.926  0.00  0.00    -0.002 A 
ATOM      7  C5  OXE d   1       1.444   0.420  -4.210  0.00  0.00    -0.002 A 
ATOM      8  C6  OXE d   1       1.936  -0.475  -3.265  0.00  0.00     0.003 A 
ENDROOT
TORSDOF 0
ENDMDL
