MODEL 1
REMARK minimizedAffinity -3.45398593
REMARK minimizedRMSD -1
REMARK  0 active torsions:
REMARK  status: ('A' for Active; 'I' for Inactive)
ROOT
ATOM      1  C2' OXE d   1      -2.469  -0.270  -0.375  0.00  0.00     0.078 C 
ATOM      2  C1' OXE d   1       0.232  -0.379  -1.135  0.00  0.00     0.078 C 
ATOM      3  C1  OXE d   1      -0.108   0.322   0.156  0.00  0.00    -0.078 A 
ATOM      4  C2  OXE d   1      -1.436   0.412   0.497  0.00  0.00    -0.078 A 
ATOM      5  C3  OXE d   1      -1.800   1.000   1.705  0.00  0.00     0.003 A 
ATOM      6  C4  OXE d   1      -0.840   1.637   2.501  0.00  0.00    -0.002 A 
ATOM      7  C5  OXE d   1       0.514   1.592   2.152  0.00  0.00    -0.002 A 
ATOM      8  C6  OXE d   1       0.901   0.903   1.007  0.00  0.00     0.003 A 
ENDROOT
TORSDOF 0
ENDMDL
