MODEL 1
REMARK minimizedAffinity -5.50349998
REMARK minimizedRMSD -1
REMARK  0 active torsions:
REMARK  status: ('A' for Active; 'I' for Inactive)
ROOT
ATOM      1  C2' OXE d   1      -0.666   1.660   2.627  0.00  0.00     0.078 C 
ATOM      2  C1' OXE d   1       1.844   0.657   1.869  0.00  0.00     0.078 C 
ATOM      3  C1  OXE d   1       0.645   0.246   1.051  0.00  0.00    -0.078 A 
ATOM      4  C2  OXE d   1      -0.585   0.704   1.457  0.00  0.00    -0.078 A 
ATOM      5  C3  OXE d   1      -1.716   0.400   0.706  0.00  0.00     0.003 A 
ATOM      6  C4  OXE d   1      -1.634  -0.494  -0.369  0.00  0.00    -0.002 A 
ATOM      7  C5  OXE d   1      -0.397  -1.004  -0.776  0.00  0.00    -0.002 A 
ATOM      8  C6  OXE d   1       0.756  -0.611  -0.104  0.00  0.00     0.003 A 
ENDROOT
TORSDOF 0
ENDMDL
