MODEL 1
REMARK minimizedAffinity -6.08987093
REMARK minimizedRMSD -1
REMARK  0 active torsions:
REMARK  status: ('A' for Active; 'I' for Inactive)
ROOT
ATOM      1  C2' OXE d   1       0.051  -0.652  -0.433  0.00  0.00     0.078 C 
ATOM      2  C1' OXE d   1      -1.871   0.932   0.862  0.00  0.00     0.078 C 
ATOM      3  C1  OXE d   1      -0.622   0.576   1.628  0.00  0.00    -0.078 A 
ATOM      4  C2  OXE d   1       0.292  -0.238   1.003  0.00  0.00    -0.078 A 
ATOM      5  C3  OXE d   1       1.487  -0.552   1.644  0.00  0.00     0.003 A 
ATOM      6  C4  OXE d   1       1.698  -0.174   2.976  0.00  0.00    -0.002 A 
ATOM      7  C5  OXE d   1       0.762   0.623   3.644  0.00  0.00    -0.002 A 
ATOM      8  C6  OXE d   1      -0.381   1.041   2.972  0.00  0.00     0.003 A 
ENDROOT
TORSDOF 0
ENDMDL
