MODEL 1
REMARK minimizedAffinity -3.7891891
REMARK minimizedRMSD -1
REMARK  0 active torsions:
REMARK  status: ('A' for Active; 'I' for Inactive)
ROOT
ATOM      1  C2' OXE d   1       0.013  -0.011  -1.316  0.00  0.00     0.078 C 
ATOM      2  C1' OXE d   1      -2.616  -0.297  -0.375  0.00  0.00     0.078 C 
ATOM      3  C1  OXE d   1      -1.595   0.301   0.561  0.00  0.00    -0.078 A 
ATOM      4  C2  OXE d   1      -0.301   0.394   0.108  0.00  0.00    -0.078 A 
ATOM      5  C3  OXE d   1       0.669   0.988   0.910  0.00  0.00     0.003 A 
ATOM      6  C4  OXE d   1       0.373   1.351   2.230  0.00  0.00    -0.002 A 
ATOM      7  C5  OXE d   1      -0.930   1.228   2.724  0.00  0.00    -0.002 A 
ATOM      8  C6  OXE d   1      -1.932   0.745   1.890  0.00  0.00     0.003 A 
ENDROOT
TORSDOF 0
ENDMDL
