MODEL 1
REMARK minimizedAffinity 1.64228082
REMARK minimizedRMSD -1
REMARK  0 active torsions:
REMARK  status: ('A' for Active; 'I' for Inactive)
ROOT
ATOM      1  C   UNL d   1       3.586   1.494   5.986  0.00  0.00     0.020 A 
ATOM      2  C1  UNL d   1       4.979   1.461   5.965  0.00  0.00     0.020 A 
ATOM      3  C2  UNL d   1       5.705   2.654   5.954  0.00  0.00     0.034 A 
ATOM      4  C3  UNL d   1       5.038   3.885   5.964  0.00  0.00     0.017 A 
ATOM      5  C4  UNL d   1       3.639   3.916   5.985  0.00  0.00     0.017 A 
ATOM      6  C5  UNL d   1       2.917   2.719   5.996  0.00  0.00     0.034 A 
ATOM      7 Cl   UNL d   1       2.745   5.395   5.999  0.00  0.00    -0.070 Cl
ATOM      8 Cl1  UNL d   1       5.999   5.320   5.951  0.00  0.00    -0.070 Cl
ENDROOT
TORSDOF 0
ENDMDL
