MODEL 1
REMARK minimizedAffinity -1.54367733
REMARK minimizedRMSD -1
REMARK  0 active torsions:
REMARK  status: ('A' for Active; 'I' for Inactive)
ROOT
ATOM      1  C   UNL d   1       4.583   1.892   6.000  0.00  0.00     0.020 A 
ATOM      2  C1  UNL d   1       3.259   1.453   6.000  0.00  0.00     0.020 A 
ATOM      3  C2  UNL d   1       2.216   2.382   6.000  0.00  0.00     0.034 A 
ATOM      4  C3  UNL d   1       2.495   3.753   5.999  0.00  0.00     0.017 A 
ATOM      5  C4  UNL d   1       3.824   4.192   5.999  0.00  0.00     0.017 A 
ATOM      6  C5  UNL d   1       4.864   3.258   5.999  0.00  0.00     0.034 A 
ATOM      7 Cl   UNL d   1       4.246   5.868   5.999  0.00  0.00    -0.070 Cl
ATOM      8 Cl1  UNL d   1       1.156   4.845   5.999  0.00  0.00    -0.070 Cl
ENDROOT
TORSDOF 0
ENDMDL
