MODEL 1
REMARK minimizedAffinity 2.74255848
REMARK minimizedRMSD -1
REMARK  0 active torsions:
REMARK  status: ('A' for Active; 'I' for Inactive)
ROOT
ATOM      1  C   UNL d   1       1.295   4.706   5.975  0.00  0.00     0.020 A 
ATOM      2  C1  UNL d   1       2.467   5.461   5.978  0.00  0.00     0.020 A 
ATOM      3  C2  UNL d   1       3.709   4.823   5.986  0.00  0.00     0.034 A 
ATOM      4  C3  UNL d   1       3.781   3.425   5.991  0.00  0.00     0.017 A 
ATOM      5  C4  UNL d   1       2.604   2.668   5.987  0.00  0.00     0.017 A 
ATOM      6  C5  UNL d   1       1.364   3.313   5.980  0.00  0.00     0.034 A 
ATOM      7 Cl   UNL d   1       2.614   0.940   5.993  0.00  0.00    -0.070 Cl
ATOM      8 Cl1  UNL d   1       5.351   2.702   6.000  0.00  0.00    -0.070 Cl
ENDROOT
TORSDOF 0
ENDMDL
