MODEL 1
REMARK minimizedAffinity 7.57463598
REMARK minimizedRMSD -1
REMARK  0 active torsions:
REMARK  status: ('A' for Active; 'I' for Inactive)
ROOT
ATOM      1  C   UNL d   1       3.714   1.594   5.792  0.00  0.00     0.020 A 
ATOM      2  C1  UNL d   1       4.938   2.072   5.327  0.00  0.00     0.020 A 
ATOM      3  C2  UNL d   1       5.101   3.434   5.063  0.00  0.00     0.034 A 
ATOM      4  C3  UNL d   1       4.038   4.322   5.262  0.00  0.00     0.017 A 
ATOM      5  C4  UNL d   1       2.809   3.840   5.729  0.00  0.00     0.017 A 
ATOM      6  C5  UNL d   1       2.652   2.476   5.992  0.00  0.00     0.034 A 
ATOM      7 Cl   UNL d   1       1.451   4.875   6.000  0.00  0.00    -0.070 Cl
ATOM      8 Cl1  UNL d   1       4.310   5.992   4.915  0.00  0.00    -0.070 Cl
ENDROOT
TORSDOF 0
ENDMDL
