MODEL 1
REMARK minimizedAffinity 4.08587408
REMARK minimizedRMSD -1
REMARK  0 active torsions:
REMARK  status: ('A' for Active; 'I' for Inactive)
ROOT
ATOM      1  C   UNL d   1       2.317   5.883   5.975  0.00  0.00     0.020 A 
ATOM      2  C1  UNL d   1       1.105   5.194   5.981  0.00  0.00     0.020 A 
ATOM      3  C2  UNL d   1       1.096   3.798   5.988  0.00  0.00     0.034 A 
ATOM      4  C3  UNL d   1       2.301   3.086   5.990  0.00  0.00     0.017 A 
ATOM      5  C4  UNL d   1       3.517   3.778   5.984  0.00  0.00     0.017 A 
ATOM      6  C5  UNL d   1       3.520   5.177   5.977  0.00  0.00     0.034 A 
ATOM      7 Cl   UNL d   1       5.044   2.969   5.985  0.00  0.00    -0.070 Cl
ATOM      8 Cl1  UNL d   1       2.214   1.360   6.000  0.00  0.00    -0.070 Cl
ENDROOT
TORSDOF 0
ENDMDL
