MODEL 1
REMARK minimizedAffinity 3.70484233
REMARK minimizedRMSD -1
REMARK  0 active torsions:
REMARK  status: ('A' for Active; 'I' for Inactive)
ROOT
ATOM      1  C   UNL d   1      -1.957  -5.202   5.819  0.00  0.00     0.020 A 
ATOM      2  C1  UNL d   1      -1.797  -5.999   4.686  0.00  0.00     0.020 A 
ATOM      3  C2  UNL d   1      -0.830  -5.672   3.733  0.00  0.00     0.034 A 
ATOM      4  C3  UNL d   1      -0.019  -4.545   3.911  0.00  0.00     0.017 A 
ATOM      5  C4  UNL d   1      -0.181  -3.745   5.049  0.00  0.00     0.017 A 
ATOM      6  C5  UNL d   1      -1.151  -4.078   6.000  0.00  0.00     0.034 A 
ATOM      7 Cl   UNL d   1       0.782  -2.339   5.338  0.00  0.00    -0.070 Cl
ATOM      8 Cl1  UNL d   1       1.156  -4.200   2.693  0.00  0.00    -0.070 Cl
ENDROOT
TORSDOF 0
ENDMDL
