MODEL 1
REMARK minimizedAffinity 7.83766413
REMARK minimizedRMSD -1
REMARK  0 active torsions:
REMARK  status: ('A' for Active; 'I' for Inactive)
ROOT
ATOM      1  C   UNL d   1       1.814   4.559   6.000  0.00  0.00     0.020 A 
ATOM      2  C1  UNL d   1       3.025   5.249   6.000  0.00  0.00     0.020 A 
ATOM      3  C2  UNL d   1       4.231   4.544   5.999  0.00  0.00     0.034 A 
ATOM      4  C3  UNL d   1       4.227   3.144   5.998  0.00  0.00     0.017 A 
ATOM      5  C4  UNL d   1       3.011   2.452   5.999  0.00  0.00     0.017 A 
ATOM      6  C5  UNL d   1       1.807   3.164   5.999  0.00  0.00     0.034 A 
ATOM      7 Cl   UNL d   1       2.926   0.726   5.998  0.00  0.00    -0.070 Cl
ATOM      8 Cl1  UNL d   1       5.755   2.337   5.997  0.00  0.00    -0.070 Cl
ENDROOT
TORSDOF 0
ENDMDL
