MODEL 1
REMARK minimizedAffinity -1.64506495
REMARK minimizedRMSD -1
REMARK  0 active torsions:
REMARK  status: ('A' for Active; 'I' for Inactive)
ROOT
ATOM      1  C   UNL d   1       5.680   3.283   5.976  0.00  0.00     0.020 A 
ATOM      2  C1  UNL d   1       5.193   4.590   5.976  0.00  0.00     0.020 A 
ATOM      3  C2  UNL d   1       3.816   4.821   5.983  0.00  0.00     0.034 A 
ATOM      4  C3  UNL d   1       2.921   3.744   5.991  0.00  0.00     0.017 A 
ATOM      5  C4  UNL d   1       3.411   2.433   5.991  0.00  0.00     0.017 A 
ATOM      6  C5  UNL d   1       4.791   2.208   5.983  0.00  0.00     0.034 A 
ATOM      7 Cl   UNL d   1       2.370   1.054   6.000  0.00  0.00    -0.070 Cl
ATOM      8 Cl1  UNL d   1       1.231   4.104   6.000  0.00  0.00    -0.070 Cl
ENDROOT
TORSDOF 0
ENDMDL
