MODEL 1
REMARK minimizedAffinity 5.88070631
REMARK minimizedRMSD -1
REMARK  0 active torsions:
REMARK  status: ('A' for Active; 'I' for Inactive)
ROOT
ATOM      1  C   UNL d   1      -1.623   0.474  -1.123  0.00  0.00     0.020 A 
ATOM      2  C1  UNL d   1      -2.409  -0.177  -2.073  0.00  0.00     0.020 A 
ATOM      3  C2  UNL d   1      -3.758  -0.426  -1.811  0.00  0.00     0.034 A 
ATOM      4  C3  UNL d   1      -4.324  -0.025  -0.596  0.00  0.00     0.017 A 
ATOM      5  C4  UNL d   1      -3.534   0.628   0.358  0.00  0.00     0.017 A 
ATOM      6  C5  UNL d   1      -2.185   0.875   0.090  0.00  0.00     0.034 A 
ATOM      7 Cl   UNL d   1      -4.163   1.153   1.880  0.00  0.00    -0.070 Cl
ATOM      8 Cl1  UNL d   1      -5.999  -0.366  -0.338  0.00  0.00    -0.070 Cl
ENDROOT
TORSDOF 0
ENDMDL
