MODEL 1
REMARK minimizedAffinity -2.92454052
REMARK minimizedRMSD -1
REMARK  0 active torsions:
REMARK  status: ('A' for Active; 'I' for Inactive)
ROOT
ATOM      1  C   UNL d   1      -0.243  -0.096  -0.630  0.00  0.00     0.172 C 
ATOM      2  N   UNL d   1      -0.204  -0.435   0.773  0.00  0.00    -0.070 N 
ATOM      3  C1  UNL d   1      -1.293  -0.562   1.594  0.00  0.00    -0.004 A 
ATOM      4  C2  UNL d   1      -0.837  -0.894   2.851  0.00  0.00    -0.047 A 
ATOM      5  C3  UNL d   1       0.574  -0.970   2.784  0.00  0.00    -0.047 A 
ATOM      6  C4  UNL d   1       0.939  -0.681   1.486  0.00  0.00    -0.004 A 
ENDROOT
TORSDOF 0
ENDMDL
