MODEL 1
REMARK minimizedAffinity -3.93702435
REMARK minimizedRMSD -1
REMARK  0 active torsions:
REMARK  status: ('A' for Active; 'I' for Inactive)
ROOT
ATOM      1  C   UNL d   1       0.023   0.378  -0.684  0.00  0.00     0.172 C 
ATOM      2  N   UNL d   1       0.864  -0.388   0.206  0.00  0.00    -0.070 N 
ATOM      3  C1  UNL d   1       0.756  -0.426   1.570  0.00  0.00    -0.004 A 
ATOM      4  C2  UNL d   1       1.737  -1.267   2.048  0.00  0.00    -0.047 A 
ATOM      5  C3  UNL d   1       2.461  -1.751   0.932  0.00  0.00    -0.047 A 
ATOM      6  C4  UNL d   1       1.899  -1.190  -0.196  0.00  0.00    -0.004 A 
ENDROOT
TORSDOF 0
ENDMDL
