MODEL 1
REMARK minimizedAffinity -4.16422415
REMARK minimizedRMSD -1
REMARK  0 active torsions:
REMARK  status: ('A' for Active; 'I' for Inactive)
ROOT
ATOM      1  C   UNL d   1      -0.014  -0.221   0.018  0.00  0.00     0.172 C 
ATOM      2  N   UNL d   1       1.073  -0.853   0.728  0.00  0.00    -0.070 N 
ATOM      3  C1  UNL d   1       2.124  -1.516   0.152  0.00  0.00    -0.004 A 
ATOM      4  C2  UNL d   1       2.942  -1.970   1.164  0.00  0.00    -0.047 A 
ATOM      5  C3  UNL d   1       2.362  -1.566   2.390  0.00  0.00    -0.047 A 
ATOM      6  C4  UNL d   1       1.206  -0.876   2.091  0.00  0.00    -0.004 A 
ENDROOT
TORSDOF 0
ENDMDL
