MODEL 1
REMARK minimizedAffinity -3.61785197
REMARK minimizedRMSD -1
REMARK  0 active torsions:
REMARK  status: ('A' for Active; 'I' for Inactive)
ROOT
ATOM      1  C   UNL d   1       2.787  -2.505   0.867  0.00  0.00     0.172 C 
ATOM      2  N   UNL d   1       2.093  -1.525   1.670  0.00  0.00    -0.070 N 
ATOM      3  C1  UNL d   1       1.149  -0.643   1.214  0.00  0.00    -0.004 A 
ATOM      4  C2  UNL d   1       0.731   0.117   2.285  0.00  0.00    -0.047 A 
ATOM      5  C3  UNL d   1       1.448  -0.323   3.423  0.00  0.00    -0.047 A 
ATOM      6  C4  UNL d   1       2.284  -1.340   3.014  0.00  0.00    -0.004 A 
ENDROOT
TORSDOF 0
ENDMDL
