MODEL 1
REMARK minimizedAffinity -2.91450024
REMARK minimizedRMSD -1
REMARK  0 active torsions:
REMARK  status: ('A' for Active; 'I' for Inactive)
ROOT
ATOM      1  C   UNL d   1      -3.432   2.958  -1.805  0.00  0.00     0.172 C 
ATOM      2  N   UNL d   1      -2.187   2.329  -2.179  0.00  0.00    -0.070 N 
ATOM      3  C1  UNL d   1      -1.204   2.897  -2.944  0.00  0.00    -0.004 A 
ATOM      4  C2  UNL d   1      -0.184   1.978  -3.071  0.00  0.00    -0.047 A 
ATOM      5  C3  UNL d   1      -0.569   0.817  -2.359  0.00  0.00    -0.047 A 
ATOM      6  C4  UNL d   1      -1.812   1.062  -1.816  0.00  0.00    -0.004 A 
ENDROOT
TORSDOF 0
ENDMDL
