MODEL 1
REMARK minimizedAffinity -3.08557701
REMARK minimizedRMSD -1
REMARK  0 active torsions:
REMARK  status: ('A' for Active; 'I' for Inactive)
ROOT
ATOM      1  C   UNL d   1       0.086   0.398  -1.233  0.00  0.00     0.172 C 
ATOM      2  N   UNL d   1       0.213   0.066   0.167  0.00  0.00    -0.070 N 
ATOM      3  C1  UNL d   1       1.390  -0.138   0.836  0.00  0.00    -0.004 A 
ATOM      4  C2  UNL d   1       1.085  -0.432   2.148  0.00  0.00    -0.047 A 
ATOM      5  C3  UNL d   1      -0.325  -0.404   2.271  0.00  0.00    -0.047 A 
ATOM      6  C4  UNL d   1      -0.840  -0.094   1.030  0.00  0.00    -0.004 A 
ENDROOT
TORSDOF 0
ENDMDL
