MODEL 1
REMARK minimizedAffinity -3.20257664
REMARK minimizedRMSD -1
REMARK  0 active torsions:
REMARK  status: ('A' for Active; 'I' for Inactive)
ROOT
ATOM      1  C2' OXE d   1      -1.095   2.273   1.466  0.00  0.00     0.078 C 
ATOM      2  C1' OXE d   1      -0.854   2.573  -1.314  0.00  0.00     0.078 C 
ATOM      3  C1  OXE d   1      -0.410   1.267  -0.707  0.00  0.00    -0.078 A 
ATOM      4  C2  OXE d   1      -0.487   1.146   0.660  0.00  0.00    -0.078 A 
ATOM      5  C3  OXE d   1      -0.141  -0.058   1.266  0.00  0.00     0.003 A 
ATOM      6  C4  OXE d   1       0.429  -1.093   0.514  0.00  0.00    -0.002 A 
ATOM      7  C5  OXE d   1       0.554  -0.975  -0.874  0.00  0.00    -0.002 A 
ATOM      8  C6  OXE d   1       0.101   0.179  -1.504  0.00  0.00     0.003 A 
ENDROOT
TORSDOF 0
ENDMDL
