MODEL 1
REMARK minimizedAffinity -2.63616657
REMARK minimizedRMSD -1
REMARK  0 active torsions:
REMARK  status: ('A' for Active; 'I' for Inactive)
ROOT
ATOM      1  C2' OXE d   1       2.064  -0.220   1.489  0.00  0.00     0.078 C 
ATOM      2  C1' OXE d   1       0.431  -1.072  -0.630  0.00  0.00     0.078 C 
ATOM      3  C1  OXE d   1      -0.041   0.099   0.196  0.00  0.00    -0.078 A 
ATOM      4  C2  OXE d   1       0.741   0.479   1.260  0.00  0.00    -0.078 A 
ATOM      5  C3  OXE d   1       0.379   1.587   2.021  0.00  0.00     0.003 A 
ATOM      6  C4  OXE d   1      -0.851   2.221   1.809  0.00  0.00    -0.002 A 
ATOM      7  C5  OXE d   1      -1.682   1.825   0.755  0.00  0.00    -0.002 A 
ATOM      8  C6  OXE d   1      -1.273   0.795  -0.085  0.00  0.00     0.003 A 
ENDROOT
TORSDOF 0
ENDMDL
