MODEL 1
REMARK minimizedAffinity -0.409728736
REMARK minimizedRMSD -1
REMARK  0 active torsions:
REMARK  status: ('A' for Active; 'I' for Inactive)
ROOT
ATOM      1  C2' OXE d   1       0.946  -0.334   2.273  0.00  0.00     0.078 C 
ATOM      2  C1' OXE d   1       0.013   2.273   1.811  0.00  0.00     0.078 C 
ATOM      3  C1  OXE d   1       0.141   1.351   0.624  0.00  0.00    -0.078 A 
ATOM      4  C2  OXE d   1       0.643   0.092   0.853  0.00  0.00    -0.078 A 
ATOM      5  C3  OXE d   1       0.730  -0.817  -0.198  0.00  0.00     0.003 A 
ATOM      6  C4  OXE d   1       0.457  -0.411  -1.510  0.00  0.00    -0.002 A 
ATOM      7  C5  OXE d   1      -0.017   0.879  -1.770  0.00  0.00    -0.002 A 
ATOM      8  C6  OXE d   1      -0.220   1.757  -0.711  0.00  0.00     0.003 A 
ENDROOT
TORSDOF 0
ENDMDL
