MODEL 1
REMARK minimizedAffinity -1.40553546
REMARK minimizedRMSD -1
REMARK  0 active torsions:
REMARK  status: ('A' for Active; 'I' for Inactive)
ROOT
ATOM      1  C2' OXE d   1       0.931  -1.496  -1.187  0.00  0.00     0.078 C 
ATOM      2  C1' OXE d   1      -0.221   0.986  -1.814  0.00  0.00     0.078 C 
ATOM      3  C1  OXE d   1       0.066   0.690  -0.363  0.00  0.00    -0.078 A 
ATOM      4  C2  OXE d   1       0.586  -0.545  -0.061  0.00  0.00    -0.078 A 
ATOM      5  C3  OXE d   1       0.920  -0.849   1.256  0.00  0.00     0.003 A 
ATOM      6  C4  OXE d   1       0.589   0.032   2.293  0.00  0.00    -0.002 A 
ATOM      7  C5  OXE d   1       0.022   1.279   2.010  0.00  0.00    -0.002 A 
ATOM      8  C6  OXE d   1      -0.206   1.640   0.687  0.00  0.00     0.003 A 
ENDROOT
TORSDOF 0
ENDMDL
