MODEL 1
REMARK minimizedAffinity -2.62150145
REMARK minimizedRMSD -1
REMARK  1 active torsions:
REMARK  status: ('A' for Active; 'I' for Inactive)
REMARK    1  A    between atoms: C3_4  and  O_7 
ROOT
ATOM      1  C   UNL d   1      -1.896  -1.651   0.846  0.00  0.00    -0.033 A 
ATOM      2  C1  UNL d   1      -1.150  -0.661   0.204  0.00  0.00     0.039 A 
ATOM      3  C2  UNL d   1      -0.250   0.120   0.932  0.00  0.00    -0.080 A 
ATOM      4  C3  UNL d   1      -0.106  -0.099   2.299  0.00  0.00     0.150 A 
ATOM      5  C4  UNL d   1      -0.843  -1.086   2.945  0.00  0.00    -0.007 A 
ATOM      6  C5  UNL d   1      -1.742  -1.864   2.216  0.00  0.00     0.039 A 
ENDROOT
BRANCH   4   7
ATOM      7  O   UNL d   1       0.756   0.641   3.053  0.00  0.00    -0.526 OA
ATOM      8  H5  UNL d   1       1.176   1.304   2.479  0.00  0.00     0.418 HD
ENDBRANCH   4   7
TORSDOF 1
ENDMDL
