MODEL 1
REMARK minimizedAffinity -4.71937799
REMARK minimizedRMSD -1
REMARK  1 active torsions:
REMARK  status: ('A' for Active; 'I' for Inactive)
REMARK    1  A    between atoms: C3_4  and  O_7 
ROOT
ATOM      1  C   UNL d   1       0.048   0.663  -0.926  0.00  0.00    -0.033 A 
ATOM      2  C1  UNL d   1      -1.164   0.186  -0.423  0.00  0.00     0.039 A 
ATOM      3  C2  UNL d   1      -1.248  -0.260   0.897  0.00  0.00    -0.080 A 
ATOM      4  C3  UNL d   1      -0.114  -0.223   1.704  0.00  0.00     0.150 A 
ATOM      5  C4  UNL d   1       1.096   0.255   1.211  0.00  0.00    -0.007 A 
ATOM      6  C5  UNL d   1       1.178   0.699  -0.108  0.00  0.00     0.039 A 
ENDROOT
BRANCH   4   7
ATOM      7  O   UNL d   1      -0.146  -0.652   2.997  0.00  0.00    -0.526 OA
ATOM      8  H5  UNL d   1      -1.039  -0.981   3.191  0.00  0.00     0.418 HD
ENDBRANCH   4   7
TORSDOF 1
ENDMDL
