MODEL 1
REMARK minimizedAffinity -4.06715202
REMARK minimizedRMSD -1
REMARK  1 active torsions:
REMARK  status: ('A' for Active; 'I' for Inactive)
REMARK    1  A    between atoms: C3_4  and  O_7 
ROOT
ATOM      1  C   UNL d   1       0.333  -0.135  -0.021  0.00  0.00    -0.033 A 
ATOM      2  C1  UNL d   1      -0.960  -0.641   0.120  0.00  0.00     0.039 A 
ATOM      3  C2  UNL d   1      -1.495  -0.851   1.393  0.00  0.00    -0.080 A 
ATOM      4  C3  UNL d   1      -0.727  -0.550   2.514  0.00  0.00     0.150 A 
ATOM      5  C4  UNL d   1       0.561  -0.041   2.381  0.00  0.00    -0.007 A 
ATOM      6  C5  UNL d   1       1.093   0.166   1.109  0.00  0.00     0.039 A 
ENDROOT
BRANCH   4   7
ATOM      7  O   UNL d   1      -1.204  -0.742   3.777  0.00  0.00    -0.526 OA
ATOM      8  H5  UNL d   1      -2.095  -1.124   3.714  0.00  0.00     0.418 HD
ENDBRANCH   4   7
TORSDOF 1
ENDMDL
