MODEL 1
REMARK minimizedAffinity -2.48877478
REMARK minimizedRMSD -1
REMARK  1 active torsions:
REMARK  status: ('A' for Active; 'I' for Inactive)
REMARK    1  A    between atoms: C3_4  and  O_7 
ROOT
ATOM      1  C   UNL d   1       0.070  -0.762  -0.804  0.00  0.00    -0.033 A 
ATOM      2  C1  UNL d   1       0.849  -1.566   0.031  0.00  0.00     0.039 A 
ATOM      3  C2  UNL d   1       0.788  -1.401   1.416  0.00  0.00    -0.080 A 
ATOM      4  C3  UNL d   1      -0.054  -0.431   1.952  0.00  0.00     0.150 A 
ATOM      5  C4  UNL d   1      -0.836   0.371   1.127  0.00  0.00    -0.007 A 
ATOM      6  C5  UNL d   1      -0.773   0.205  -0.256  0.00  0.00     0.039 A 
ENDROOT
BRANCH   4   7
ATOM      7  O   UNL d   1      -0.144  -0.230   3.298  0.00  0.00    -0.526 OA
ATOM      8  H5  UNL d   1       0.474  -0.835   3.741  0.00  0.00     0.418 HD
ENDBRANCH   4   7
TORSDOF 1
ENDMDL
