MODEL 1
REMARK minimizedAffinity -4.27589417
REMARK minimizedRMSD -1
REMARK  1 active torsions:
REMARK  status: ('A' for Active; 'I' for Inactive)
REMARK    1  A    between atoms: C3_4  and  O_7 
ROOT
ATOM      1  C   UNL d   1      -0.504   0.514  -0.793  0.00  0.00    -0.033 A 
ATOM      2  C1  UNL d   1       0.718   0.581  -0.121  0.00  0.00     0.039 A 
ATOM      3  C2  UNL d   1       0.815   0.142   1.201  0.00  0.00    -0.080 A 
ATOM      4  C3  UNL d   1      -0.315  -0.362   1.838  0.00  0.00     0.150 A 
ATOM      5  C4  UNL d   1      -1.535  -0.435   1.174  0.00  0.00    -0.007 A 
ATOM      6  C5  UNL d   1      -1.630   0.004  -0.146  0.00  0.00     0.039 A 
ENDROOT
BRANCH   4   7
ATOM      7  O   UNL d   1      -0.270  -0.798   3.129  0.00  0.00    -0.526 OA
ATOM      8  H5  UNL d   1       0.630  -0.660   3.469  0.00  0.00     0.418 HD
ENDBRANCH   4   7
TORSDOF 1
ENDMDL
