MODEL 1
REMARK minimizedAffinity -5.0354991
REMARK minimizedRMSD -1
REMARK  1 active torsions:
REMARK  status: ('A' for Active; 'I' for Inactive)
REMARK    1  A    between atoms: C3_4  and  O_7 
ROOT
ATOM      1  C   UNL d   1      -1.076   0.462  -1.057  0.00  0.00    -0.033 A 
ATOM      2  C1  UNL d   1       0.163   0.312  -0.431  0.00  0.00     0.039 A 
ATOM      3  C2  UNL d   1       0.239  -0.258   0.841  0.00  0.00    -0.080 A 
ATOM      4  C3  UNL d   1      -0.928  -0.676   1.474  0.00  0.00     0.150 A 
ATOM      5  C4  UNL d   1      -2.165  -0.534   0.854  0.00  0.00    -0.007 A 
ATOM      6  C5  UNL d   1      -2.240   0.037  -0.415  0.00  0.00     0.039 A 
ENDROOT
BRANCH   4   7
ATOM      7  O   UNL d   1      -0.904  -1.234   2.718  0.00  0.00    -0.526 OA
ATOM      8  H5  UNL d   1       0.015  -1.242   3.034  0.00  0.00     0.418 HD
ENDBRANCH   4   7
TORSDOF 1
ENDMDL
