MODEL 1
REMARK minimizedAffinity -4.51451588
REMARK minimizedRMSD -1
REMARK  1 active torsions:
REMARK  status: ('A' for Active; 'I' for Inactive)
REMARK    1  A    between atoms: C3_4  and  O_7 
ROOT
ATOM      1  C   UNL d   1      -1.017  -0.444   2.809  0.00  0.00    -0.033 A 
ATOM      2  C1  UNL d   1       0.344  -0.392   2.503  0.00  0.00     0.039 A 
ATOM      3  C2  UNL d   1       0.759  -0.271   1.175  0.00  0.00    -0.080 A 
ATOM      4  C3  UNL d   1      -0.196  -0.200   0.165  0.00  0.00     0.150 A 
ATOM      5  C4  UNL d   1      -1.554  -0.247   0.463  0.00  0.00    -0.007 A 
ATOM      6  C5  UNL d   1      -1.966  -0.370   1.789  0.00  0.00     0.039 A 
ENDROOT
BRANCH   4   7
ATOM      7  O   UNL d   1       0.160  -0.086  -1.146  0.00  0.00    -0.526 OA
ATOM      8  H5  UNL d   1       1.130  -0.095  -1.203  0.00  0.00     0.418 HD
ENDBRANCH   4   7
TORSDOF 1
ENDMDL
