MODEL 1
REMARK minimizedAffinity -4.59998417
REMARK minimizedRMSD -1
REMARK  1 active torsions:
REMARK  status: ('A' for Active; 'I' for Inactive)
REMARK    1  A    between atoms: C3_4  and  O_7 
ROOT
ATOM      1  C   UNL d   1      -0.628   0.086  -0.743  0.00  0.00    -0.033 A 
ATOM      2  C1  UNL d   1       0.588   0.230  -0.072  0.00  0.00     0.039 A 
ATOM      3  C2  UNL d   1       0.666  -0.028   1.298  0.00  0.00    -0.080 A 
ATOM      4  C3  UNL d   1      -0.477  -0.430   1.984  0.00  0.00     0.150 A 
ATOM      5  C4  UNL d   1      -1.691  -0.579   1.320  0.00  0.00    -0.007 A 
ATOM      6  C5  UNL d   1      -1.767  -0.320  -0.047  0.00  0.00     0.039 A 
ENDROOT
BRANCH   4   7
ATOM      7  O   UNL d   1      -0.451  -0.688   3.322  0.00  0.00    -0.526 OA
ATOM      8  H5  UNL d   1       0.446  -0.516   3.651  0.00  0.00     0.418 HD
ENDBRANCH   4   7
TORSDOF 1
ENDMDL
