MODEL 1
REMARK minimizedAffinity -4.41799879
REMARK minimizedRMSD -1
REMARK  1 active torsions:
REMARK  status: ('A' for Active; 'I' for Inactive)
REMARK    1  A    between atoms: C3_4  and  O_7 
ROOT
ATOM      1  C   UNL d   1      -0.036   0.511  -0.408  0.00  0.00    -0.033 A 
ATOM      2  C1  UNL d   1      -1.289   0.064   0.015  0.00  0.00     0.039 A 
ATOM      3  C2  UNL d   1      -1.443  -0.484   1.290  0.00  0.00    -0.080 A 
ATOM      4  C3  UNL d   1      -0.337  -0.579   2.131  0.00  0.00     0.150 A 
ATOM      5  C4  UNL d   1       0.913  -0.132   1.717  0.00  0.00    -0.007 A 
ATOM      6  C5  UNL d   1       1.065   0.414   0.443  0.00  0.00     0.039 A 
ENDROOT
BRANCH   4   7
ATOM      7  O   UNL d   1      -0.437  -1.111   3.382  0.00  0.00    -0.526 OA
ATOM      8  H5  UNL d   1      -1.353  -1.404   3.520  0.00  0.00     0.418 HD
ENDBRANCH   4   7
TORSDOF 1
ENDMDL
