MODEL 1
REMARK minimizedAffinity -3.69209027
REMARK minimizedRMSD -1
REMARK  1 active torsions:
REMARK  status: ('A' for Active; 'I' for Inactive)
REMARK    1  A    between atoms: C3_4  and  O_7 
ROOT
ATOM      1  C   UNL d   1       0.416  -0.036  -0.122  0.00  0.00    -0.033 A 
ATOM      2  C1  UNL d   1      -0.515  -1.031   0.181  0.00  0.00     0.039 A 
ATOM      3  C2  UNL d   1      -0.912  -1.239   1.503  0.00  0.00    -0.080 A 
ATOM      4  C3  UNL d   1      -0.372  -0.446   2.512  0.00  0.00     0.150 A 
ATOM      5  C4  UNL d   1       0.553   0.550   2.217  0.00  0.00    -0.007 A 
ATOM      6  C5  UNL d   1       0.949   0.756   0.896  0.00  0.00     0.039 A 
ENDROOT
BRANCH   4   7
ATOM      7  O   UNL d   1      -0.725  -0.615   3.818  0.00  0.00    -0.526 OA
ATOM      8  H5  UNL d   1      -1.349  -1.357   3.874  0.00  0.00     0.418 HD
ENDBRANCH   4   7
TORSDOF 1
ENDMDL
