MODEL 1
REMARK minimizedAffinity -1.93104434
REMARK minimizedRMSD -1
REMARK  1 active torsions:
REMARK  status: ('A' for Active; 'I' for Inactive)
REMARK    1  A    between atoms: C3_4  and  O_7 
ROOT
ATOM      1  C   UNL d   1      -0.762   0.401  -0.758  0.00  0.00    -0.033 A 
ATOM      2  C1  UNL d   1       0.473   0.162  -0.151  0.00  0.00     0.039 A 
ATOM      3  C2  UNL d   1       0.549  -0.037   1.229  0.00  0.00    -0.080 A 
ATOM      4  C3  UNL d   1      -0.616   0.004   1.990  0.00  0.00     0.150 A 
ATOM      5  C4  UNL d   1      -1.850   0.238   1.392  0.00  0.00    -0.007 A 
ATOM      6  C5  UNL d   1      -1.924   0.437   0.014  0.00  0.00     0.039 A 
ENDROOT
BRANCH   4   7
ATOM      7  O   UNL d   1      -0.592  -0.180   3.340  0.00  0.00    -0.526 OA
ATOM      8  H5  UNL d   1       0.331  -0.302   3.618  0.00  0.00     0.418 HD
ENDBRANCH   4   7
TORSDOF 1
ENDMDL
