MODEL 1
REMARK minimizedAffinity -3.25495505
REMARK minimizedRMSD -1
REMARK  0 active torsions:
REMARK  status: ('A' for Active; 'I' for Inactive)
ROOT
ATOM      1  C1  BNZ d   1       0.215   1.338  -1.963  0.00  0.00     0.000 A 
ATOM      2  C2  BNZ d   1      -0.703   1.556  -0.971  0.00  0.00     0.000 A 
ATOM      3  C3  BNZ d   1      -0.869   0.652   0.040  0.00  0.00     0.000 A 
ATOM      4  C4  BNZ d   1      -0.146  -0.487   0.036  0.00  0.00     0.000 A 
ATOM      5  C5  BNZ d   1       0.777  -0.726  -0.962  0.00  0.00     0.000 A 
ATOM      6  C6  BNZ d   1       0.969   0.205  -1.957  0.00  0.00     0.000 A 
ENDROOT
TORSDOF 0
ENDMDL
