MODEL 1
REMARK minimizedAffinity -2.85621858
REMARK minimizedRMSD -1
REMARK  0 active torsions:
REMARK  status: ('A' for Active; 'I' for Inactive)
ROOT
ATOM      1  C1  BNZ d   1       0.221  -0.665   0.388  0.00  0.00     0.000 A 
ATOM      2  C2  BNZ d   1      -0.238   0.042   1.468  0.00  0.00     0.000 A 
ATOM      3  C3  BNZ d   1      -0.949   1.196   1.298  0.00  0.00     0.000 A 
ATOM      4  C4  BNZ d   1      -1.166   1.664   0.052  0.00  0.00     0.000 A 
ATOM      5  C5  BNZ d   1      -0.702   0.968  -1.047  0.00  0.00     0.000 A 
ATOM      6  C6  BNZ d   1      -0.020  -0.214  -0.873  0.00  0.00     0.000 A 
ENDROOT
TORSDOF 0
ENDMDL
