MODEL 1
REMARK minimizedAffinity -0.900221646
REMARK minimizedRMSD -1
REMARK  0 active torsions:
REMARK  status: ('A' for Active; 'I' for Inactive)
ROOT
ATOM      1  C1  BNZ d   1       2.198  -0.329   1.043  0.00  0.00     0.000 A 
ATOM      2  C2  BNZ d   1       1.780  -0.620   2.314  0.00  0.00     0.000 A 
ATOM      3  C3  BNZ d   1       0.507  -0.327   2.717  0.00  0.00     0.000 A 
ATOM      4  C4  BNZ d   1      -0.332   0.293   1.862  0.00  0.00     0.000 A 
ATOM      5  C5  BNZ d   1       0.078   0.603   0.581  0.00  0.00     0.000 A 
ATOM      6  C6  BNZ d   1       1.347   0.270   0.166  0.00  0.00     0.000 A 
ENDROOT
TORSDOF 0
ENDMDL
