MODEL 1
REMARK minimizedAffinity -3.46424747
REMARK minimizedRMSD -1
REMARK  0 active torsions:
REMARK  status: ('A' for Active; 'I' for Inactive)
ROOT
ATOM      1  C1  BNZ d   1       0.630   0.947   1.268  0.00  0.00     0.000 A 
ATOM      2  C2  BNZ d   1       0.021   1.902   2.039  0.00  0.00     0.000 A 
ATOM      3  C3  BNZ d   1      -1.243   2.334   1.749  0.00  0.00     0.000 A 
ATOM      4  C4  BNZ d   1      -1.881   1.840   0.668  0.00  0.00     0.000 A 
ATOM      5  C5  BNZ d   1      -1.277   0.884  -0.124  0.00  0.00     0.000 A 
ATOM      6  C6  BNZ d   1      -0.020   0.423   0.193  0.00  0.00     0.000 A 
ENDROOT
TORSDOF 0
ENDMDL
