MODEL 1
REMARK minimizedAffinity -3.66870809
REMARK minimizedRMSD -1
REMARK  0 active torsions:
REMARK  status: ('A' for Active; 'I' for Inactive)
ROOT
ATOM      1  C1  BNZ d   1       0.471  -3.765  -1.223  0.00  0.00     0.000 A 
ATOM      2  C2  BNZ d   1       1.821  -3.551  -1.135  0.00  0.00     0.000 A 
ATOM      3  C3  BNZ d   1       2.639  -4.474  -0.544  0.00  0.00     0.000 A 
ATOM      4  C4  BNZ d   1       2.101  -5.588  -0.008  0.00  0.00     0.000 A 
ATOM      5  C5  BNZ d   1       0.741  -5.814  -0.080  0.00  0.00     0.000 A 
ATOM      6  C6  BNZ d   1      -0.074  -4.901  -0.710  0.00  0.00     0.000 A 
ENDROOT
TORSDOF 0
ENDMDL
