MODEL 1
REMARK minimizedAffinity -0.393121749
REMARK minimizedRMSD -1
REMARK  0 active torsions:
REMARK  status: ('A' for Active; 'I' for Inactive)
ROOT
ATOM      1  C1  BNZ d   1      -0.050   0.918   1.100  0.00  0.00     0.000 A 
ATOM      2  C2  BNZ d   1      -0.211   0.668  -0.237  0.00  0.00     0.000 A 
ATOM      3  C3  BNZ d   1      -1.267   1.196  -0.926  0.00  0.00     0.000 A 
ATOM      4  C4  BNZ d   1      -2.181   1.939  -0.269  0.00  0.00     0.000 A 
ATOM      5  C5  BNZ d   1      -2.038   2.192   1.080  0.00  0.00     0.000 A 
ATOM      6  C6  BNZ d   1      -0.953   1.691   1.762  0.00  0.00     0.000 A 
ENDROOT
TORSDOF 0
ENDMDL
