MODEL 1
REMARK minimizedAffinity -3.66414642
REMARK minimizedRMSD -1
REMARK  0 active torsions:
REMARK  status: ('A' for Active; 'I' for Inactive)
ROOT
ATOM      1  C1  BNZ d   1      -0.665  -0.125   0.198  0.00  0.00     0.000 A 
ATOM      2  C2  BNZ d   1      -1.564   0.796  -0.271  0.00  0.00     0.000 A 
ATOM      3  C3  BNZ d   1      -1.520   2.095   0.152  0.00  0.00     0.000 A 
ATOM      4  C4  BNZ d   1      -0.605   2.462   1.073  0.00  0.00     0.000 A 
ATOM      5  C5  BNZ d   1       0.302   1.543   1.562  0.00  0.00     0.000 A 
ATOM      6  C6  BNZ d   1       0.280   0.246   1.105  0.00  0.00     0.000 A 
ENDROOT
TORSDOF 0
ENDMDL
