MODEL 1
REMARK minimizedAffinity 7.74114418
REMARK minimizedRMSD -1
REMARK  0 active torsions:
REMARK  status: ('A' for Active; 'I' for Inactive)
ROOT
ATOM      1  C4' PXY d   1       2.381  -5.986   5.997  0.00  0.00     0.077 C 
ATOM      2  C1' PXY d   1       2.782  -0.762   3.555  0.00  0.00     0.077 C 
ATOM      3  C1  PXY d   1       2.678  -2.138   4.184  0.00  0.00    -0.082 A 
ATOM      4  C2  PXY d   1       2.042  -2.285   5.334  0.00  0.00     0.003 A 
ATOM      5  C3  PXY d   1       1.967  -3.516   5.933  0.00  0.00     0.003 A 
ATOM      6  C4  PXY d   1       2.502  -4.618   5.321  0.00  0.00    -0.082 A 
ATOM      7  C5  PXY d   1       3.143  -4.478   4.141  0.00  0.00     0.003 A 
ATOM      8  C6  PXY d   1       3.245  -3.212   3.570  0.00  0.00     0.003 A 
ENDROOT
TORSDOF 0
ENDMDL
