MODEL 1
REMARK minimizedAffinity 7.71235085
REMARK minimizedRMSD -1
REMARK  0 active torsions:
REMARK  status: ('A' for Active; 'I' for Inactive)
ROOT
ATOM      1  C4' PXY d   1       2.266  -3.449   5.167  0.00  0.00     0.077 C 
ATOM      2  C1' PXY d   1       2.707   1.122   1.656  0.00  0.00     0.077 C 
ATOM      3  C1  PXY d   1       2.597  -0.084   2.568  0.00  0.00    -0.082 A 
ATOM      4  C2  PXY d   1       1.663  -0.113   3.504  0.00  0.00     0.003 A 
ATOM      5  C3  PXY d   1       1.570  -1.182   4.358  0.00  0.00     0.003 A 
ATOM      6  C4  PXY d   1       2.408  -2.256   4.218  0.00  0.00    -0.082 A 
ATOM      7  C5  PXY d   1       3.357  -2.239   3.258  0.00  0.00     0.003 A 
ATOM      8  C6  PXY d   1       3.461  -1.126   2.428  0.00  0.00     0.003 A 
ENDROOT
TORSDOF 0
ENDMDL
