MODEL 1
REMARK minimizedAffinity 5.07749605
REMARK minimizedRMSD -1
REMARK  0 active torsions:
REMARK  status: ('A' for Active; 'I' for Inactive)
ROOT
ATOM      1  C4' PXY d   1      -5.827  -2.413  -5.653  0.00  0.00     0.077 C 
ATOM      2  C1' PXY d   1      -5.775   2.990  -3.600  0.00  0.00     0.077 C 
ATOM      3  C1  PXY d   1      -5.786   1.569  -4.126  0.00  0.00    -0.082 A 
ATOM      4  C2  PXY d   1      -5.596   1.348  -5.417  0.00  0.00     0.003 A 
ATOM      5  C3  PXY d   1      -5.634   0.071  -5.916  0.00  0.00     0.003 A 
ATOM      6  C4  PXY d   1      -5.815  -0.995  -5.076  0.00  0.00    -0.082 A 
ATOM      7  C5  PXY d   1      -5.999  -0.779  -3.756  0.00  0.00     0.003 A 
ATOM      8  C6  PXY d   1      -5.998   0.528  -3.276  0.00  0.00     0.003 A 
ENDROOT
TORSDOF 0
ENDMDL
