MODEL 1
REMARK minimizedAffinity 0.735561848
REMARK minimizedRMSD -1
REMARK  0 active torsions:
REMARK  status: ('A' for Active; 'I' for Inactive)
ROOT
ATOM      1  C4' PXY d   1       5.030  -2.420   6.000  0.00  0.00     0.077 C 
ATOM      2  C1' PXY d   1       1.421  -0.428   1.948  0.00  0.00     0.077 C 
ATOM      3  C1  PXY d   1       2.358  -0.949   3.020  0.00  0.00    -0.082 A 
ATOM      4  C2  PXY d   1       3.666  -0.829   2.860  0.00  0.00     0.003 A 
ATOM      5  C3  PXY d   1       4.528  -1.324   3.804  0.00  0.00     0.003 A 
ATOM      6  C4  PXY d   1       4.046  -1.900   4.949  0.00  0.00    -0.082 A 
ATOM      7  C5  PXY d   1       2.713  -2.017   5.124  0.00  0.00     0.003 A 
ATOM      8  C6  PXY d   1       1.855  -1.545   4.135  0.00  0.00     0.003 A 
ENDROOT
TORSDOF 0
ENDMDL
