MODEL 1
REMARK minimizedAffinity 10.3215723
REMARK minimizedRMSD -1
REMARK  0 active torsions:
REMARK  status: ('A' for Active; 'I' for Inactive)
ROOT
ATOM      1  C4' PXY d   1       1.717   0.073   1.860  0.00  0.00     0.077 C 
ATOM      2  C1' PXY d   1      -2.179  -1.881  -1.937  0.00  0.00     0.077 C 
ATOM      3  C1  PXY d   1      -1.150  -1.379  -0.943  0.00  0.00    -0.082 A 
ATOM      4  C2  PXY d   1      -1.509  -0.507  -0.015  0.00  0.00     0.003 A 
ATOM      5  C3  PXY d   1      -0.584  -0.019   0.872  0.00  0.00     0.003 A 
ATOM      6  C4  PXY d   1       0.709  -0.468   0.842  0.00  0.00    -0.082 A 
ATOM      7  C5  PXY d   1       1.081  -1.365  -0.096  0.00  0.00     0.003 A 
ATOM      8  C6  PXY d   1       0.136  -1.817  -1.013  0.00  0.00     0.003 A 
ENDROOT
TORSDOF 0
ENDMDL
