MODEL 1
REMARK minimizedAffinity -2.45059586
REMARK minimizedRMSD -1
REMARK  0 active torsions:
REMARK  status: ('A' for Active; 'I' for Inactive)
ROOT
ATOM      1  C4' PXY d   1       6.000   3.376  -5.869  0.00  0.00     0.077 C 
ATOM      2  C1' PXY d   1       2.839  -0.932  -3.663  0.00  0.00     0.077 C 
ATOM      3  C1  PXY d   1       3.678   0.193  -4.236  0.00  0.00    -0.082 A 
ATOM      4  C2  PXY d   1       3.109   1.351  -4.528  0.00  0.00     0.003 A 
ATOM      5  C3  PXY d   1       3.847   2.368  -5.077  0.00  0.00     0.003 A 
ATOM      6  C4  PXY d   1       5.193   2.216  -5.280  0.00  0.00    -0.082 A 
ATOM      7  C5  PXY d   1       5.783   1.041  -4.974  0.00  0.00     0.003 A 
ATOM      8  C6  PXY d   1       5.008   0.007  -4.456  0.00  0.00     0.003 A 
ENDROOT
TORSDOF 0
ENDMDL
