MODEL 1
REMARK minimizedAffinity 8.87313843
REMARK minimizedRMSD -1
REMARK  0 active torsions:
REMARK  status: ('A' for Active; 'I' for Inactive)
ROOT
ATOM      1  C4' PXY d   1      -3.365  -0.409  -3.476  0.00  0.00     0.077 C 
ATOM      2  C1' PXY d   1      -5.974  -4.908  -5.998  0.00  0.00     0.077 C 
ATOM      3  C1  PXY d   1      -5.300  -3.727  -5.329  0.00  0.00    -0.082 A 
ATOM      4  C2  PXY d   1      -4.399  -3.024  -5.995  0.00  0.00     0.003 A 
ATOM      5  C3  PXY d   1      -3.756  -1.973  -5.394  0.00  0.00     0.003 A 
ATOM      6  C4  PXY d   1      -4.078  -1.604  -4.115  0.00  0.00    -0.082 A 
ATOM      7  C5  PXY d   1      -5.004  -2.310  -3.432  0.00  0.00     0.003 A 
ATOM      8  C6  PXY d   1      -5.615  -3.399  -4.046  0.00  0.00     0.003 A 
ENDROOT
TORSDOF 0
ENDMDL
