MODEL 1
REMARK minimizedAffinity 7.369802
REMARK minimizedRMSD -1
REMARK  0 active torsions:
REMARK  status: ('A' for Active; 'I' for Inactive)
ROOT
ATOM      1  C4' PXY d   1       4.729  -1.873   4.736  0.00  0.00     0.077 C 
ATOM      2  C1' PXY d   1       0.316  -0.700   1.192  0.00  0.00     0.077 C 
ATOM      3  C1  PXY d   1       1.465  -1.013   2.130  0.00  0.00    -0.082 A 
ATOM      4  C2  PXY d   1       2.560  -0.271   2.094  0.00  0.00     0.003 A 
ATOM      5  C3  PXY d   1       3.621  -0.561   2.912  0.00  0.00     0.003 A 
ATOM      6  C4  PXY d   1       3.540  -1.587   3.814  0.00  0.00    -0.082 A 
ATOM      7  C5  PXY d   1       2.422  -2.342   3.865  0.00  0.00     0.003 A 
ATOM      8  C6  PXY d   1       1.372  -2.058   2.997  0.00  0.00     0.003 A 
ENDROOT
TORSDOF 0
ENDMDL
