MODEL 1
REMARK minimizedAffinity 1.49042451
REMARK minimizedRMSD -1
REMARK  0 active torsions:
REMARK  status: ('A' for Active; 'I' for Inactive)
ROOT
ATOM      1  C4' PXY d   1       2.259  -1.591   5.654  0.00  0.00     0.077 C 
ATOM      2  C1' PXY d   1       3.744   0.299   0.397  0.00  0.00     0.077 C 
ATOM      3  C1  PXY d   1       3.350  -0.185   1.778  0.00  0.00    -0.082 A 
ATOM      4  C2  PXY d   1       3.963  -1.233   2.303  0.00  0.00     0.003 A 
ATOM      5  C3  PXY d   1       3.597  -1.704   3.538  0.00  0.00     0.003 A 
ATOM      6  C4  PXY d   1       2.630  -1.062   4.266  0.00  0.00    -0.082 A 
ATOM      7  C5  PXY d   1       2.008   0.015   3.741  0.00  0.00     0.003 A 
ATOM      8  C6  PXY d   1       2.365   0.452   2.469  0.00  0.00     0.003 A 
ENDROOT
TORSDOF 0
ENDMDL
