MODEL 1
REMARK minimizedAffinity 5.6041131
REMARK minimizedRMSD -1
REMARK  0 active torsions:
REMARK  status: ('A' for Active; 'I' for Inactive)
ROOT
ATOM      1  C4' PXY d   1      -1.769   4.971  -2.046  0.00  0.00     0.077 C 
ATOM      2  C1' PXY d   1       1.561   2.378   1.904  0.00  0.00     0.077 C 
ATOM      3  C1  PXY d   1       0.698   3.064   0.864  0.00  0.00    -0.082 A 
ATOM      4  C2  PXY d   1      -0.602   3.195   1.075  0.00  0.00     0.003 A 
ATOM      5  C3  PXY d   1      -1.402   3.785   0.130  0.00  0.00     0.003 A 
ATOM      6  C4  PXY d   1      -0.858   4.293  -1.019  0.00  0.00    -0.082 A 
ATOM      7  C5  PXY d   1       0.469   4.173  -1.237  0.00  0.00     0.003 A 
ATOM      8  C6  PXY d   1       1.257   3.534  -0.284  0.00  0.00     0.003 A 
ENDROOT
TORSDOF 0
ENDMDL
