MODEL 1
REMARK minimizedAffinity 2.75970006
REMARK minimizedRMSD -1
REMARK  0 active torsions:
REMARK  status: ('A' for Active; 'I' for Inactive)
ROOT
ATOM      1  C4' PXY d   1      -6.000   1.875  -2.701  0.00  0.00     0.077 C 
ATOM      2  C1' PXY d   1      -3.475   5.999  -5.867  0.00  0.00     0.077 C 
ATOM      3  C1  PXY d   1      -4.148   4.919  -5.044  0.00  0.00    -0.082 A 
ATOM      4  C2  PXY d   1      -3.714   4.663  -3.820  0.00  0.00     0.003 A 
ATOM      5  C3  PXY d   1      -4.291   3.668  -3.074  0.00  0.00     0.003 A 
ATOM      6  C4  PXY d   1      -5.357   2.963  -3.565  0.00  0.00    -0.082 A 
ATOM      7  C5  PXY d   1      -5.812   3.225  -4.808  0.00  0.00     0.003 A 
ATOM      8  C6  PXY d   1      -5.186   4.211  -5.566  0.00  0.00     0.003 A 
ENDROOT
TORSDOF 0
ENDMDL
