MODEL 1
REMARK minimizedAffinity 9.21162701
REMARK minimizedRMSD -1
REMARK  0 active torsions:
REMARK  status: ('A' for Active; 'I' for Inactive)
ROOT
ATOM      1  C4' PXY d   1      -6.000  -0.337  -3.230  0.00  0.00     0.077 C 
ATOM      2  C1' PXY d   1      -5.896   4.736  -5.999  0.00  0.00     0.077 C 
ATOM      3  C1  PXY d   1      -5.928   3.400  -5.284  0.00  0.00    -0.082 A 
ATOM      4  C2  PXY d   1      -5.988   3.367  -3.962  0.00  0.00     0.003 A 
ATOM      5  C3  PXY d   1      -5.986   2.167  -3.298  0.00  0.00     0.003 A 
ATOM      6  C4  PXY d   1      -5.975   0.989  -3.995  0.00  0.00    -0.082 A 
ATOM      7  C5  PXY d   1      -5.924   1.014  -5.344  0.00  0.00     0.003 A 
ATOM      8  C6  PXY d   1      -5.886   2.242  -5.998  0.00  0.00     0.003 A 
ENDROOT
TORSDOF 0
ENDMDL
