MODEL 1
REMARK minimizedAffinity -1.36861992
REMARK minimizedRMSD -1
REMARK  0 active torsions:
REMARK  status: ('A' for Active; 'I' for Inactive)
ROOT
ATOM      1  C4' PXY d   1      -1.137   6.000  -3.087  0.00  0.00     0.077 C 
ATOM      2  C1' PXY d   1       0.652   3.121   1.596  0.00  0.00     0.077 C 
ATOM      3  C1  PXY d   1       0.170   3.873   0.371  0.00  0.00    -0.082 A 
ATOM      4  C2  PXY d   1       0.970   4.000  -0.675  0.00  0.00     0.003 A 
ATOM      5  C3  PXY d   1       0.563   4.705  -1.779  0.00  0.00     0.003 A 
ATOM      6  C4  PXY d   1      -0.697   5.240  -1.832  0.00  0.00    -0.082 A 
ATOM      7  C5  PXY d   1      -1.522   5.106  -0.773  0.00  0.00     0.003 A 
ATOM      8  C6  PXY d   1      -1.075   4.422   0.354  0.00  0.00     0.003 A 
ENDROOT
TORSDOF 0
ENDMDL
