MODEL 1
REMARK minimizedAffinity 2.80935764
REMARK minimizedRMSD -1
REMARK  0 active torsions:
REMARK  status: ('A' for Active; 'I' for Inactive)
ROOT
ATOM      1  C4' PXY d   1       0.687   5.998  -4.188  0.00  0.00     0.077 C 
ATOM      2  C1' PXY d   1      -0.554   3.500   0.875  0.00  0.00     0.077 C 
ATOM      3  C1  PXY d   1      -0.239   4.150  -0.458  0.00  0.00    -0.082 A 
ATOM      4  C2  PXY d   1       1.007   4.493  -0.740  0.00  0.00     0.003 A 
ATOM      5  C3  PXY d   1       1.304   5.110  -1.928  0.00  0.00     0.003 A 
ATOM      6  C4  PXY d   1       0.324   5.331  -2.858  0.00  0.00    -0.082 A 
ATOM      7  C5  PXY d   1      -0.948   4.974  -2.582  0.00  0.00     0.003 A 
ATOM      8  C6  PXY d   1      -1.236   4.386  -1.354  0.00  0.00     0.003 A 
ENDROOT
TORSDOF 0
ENDMDL
