MODEL 1
REMARK minimizedAffinity 2.74113727
REMARK minimizedRMSD -1
REMARK  0 active torsions:
REMARK  status: ('A' for Active; 'I' for Inactive)
ROOT
ATOM      1  C4' PXY d   1       1.061   2.494   1.228  0.00  0.00     0.077 C 
ATOM      2  C1' PXY d   1      -1.967   5.563  -2.623  0.00  0.00     0.077 C 
ATOM      3  C1  PXY d   1      -1.162   4.758  -1.621  0.00  0.00    -0.082 A 
ATOM      4  C2  PXY d   1      -1.788   3.974  -0.759  0.00  0.00     0.003 A 
ATOM      5  C3  PXY d   1      -1.078   3.264   0.175  0.00  0.00     0.003 A 
ATOM      6  C4  PXY d   1       0.290   3.317   0.192  0.00  0.00    -0.082 A 
ATOM      7  C5  PXY d   1       0.936   4.107  -0.691  0.00  0.00     0.003 A 
ATOM      8  C6  PXY d   1       0.195   4.851  -1.604  0.00  0.00     0.003 A 
ENDROOT
TORSDOF 0
ENDMDL
