MODEL 1
REMARK minimizedAffinity 11.8434668
REMARK minimizedRMSD -1
REMARK  0 active torsions:
REMARK  status: ('A' for Active; 'I' for Inactive)
ROOT
ATOM      1  C4' PXY d   1      -0.623   3.971  -1.836  0.00  0.00     0.077 C 
ATOM      2  C1' PXY d   1       1.699   3.660   3.448  0.00  0.00     0.077 C 
ATOM      3  C1  PXY d   1       1.090   3.728   2.062  0.00  0.00    -0.082 A 
ATOM      4  C2  PXY d   1       1.238   4.825   1.336  0.00  0.00     0.003 A 
ATOM      5  C3  PXY d   1       0.667   4.916   0.093  0.00  0.00     0.003 A 
ATOM      6  C4  PXY d   1      -0.018   3.854  -0.435  0.00  0.00    -0.082 A 
ATOM      7  C5  PXY d   1      -0.164   2.728   0.295  0.00  0.00     0.003 A 
ATOM      8  C6  PXY d   1       0.389   2.670   1.571  0.00  0.00     0.003 A 
ENDROOT
TORSDOF 0
ENDMDL
