MODEL 1
REMARK minimizedAffinity 5.61641502
REMARK minimizedRMSD -1
REMARK  0 active torsions:
REMARK  status: ('A' for Active; 'I' for Inactive)
ROOT
ATOM      1  C4' PXY d   1      -3.853   0.758   1.118  0.00  0.00     0.077 C 
ATOM      2  C1' PXY d   1      -6.000  -1.473   6.000  0.00  0.00     0.077 C 
ATOM      3  C1  PXY d   1      -5.448  -0.882   4.717  0.00  0.00    -0.082 A 
ATOM      4  C2  PXY d   1      -4.424  -1.465   4.116  0.00  0.00     0.003 A 
ATOM      5  C3  PXY d   1      -3.892  -0.926   2.973  0.00  0.00     0.003 A 
ATOM      6  C4  PXY d   1      -4.449   0.191   2.410  0.00  0.00    -0.082 A 
ATOM      7  C5  PXY d   1      -5.501   0.785   3.011  0.00  0.00     0.003 A 
ATOM      8  C6  PXY d   1      -6.000   0.246   4.193  0.00  0.00     0.003 A 
ENDROOT
TORSDOF 0
ENDMDL
