MODEL 1
REMARK minimizedAffinity 8.92649078
REMARK minimizedRMSD -1
REMARK  0 active torsions:
REMARK  status: ('A' for Active; 'I' for Inactive)
ROOT
ATOM      1  C4' PXY d   1       5.991  -1.854   0.380  0.00  0.00     0.077 C 
ATOM      2  C1' PXY d   1       3.797  -5.999  -2.999  0.00  0.00     0.077 C 
ATOM      3  C1  PXY d   1       4.369  -4.903  -2.122  0.00  0.00    -0.082 A 
ATOM      4  C2  PXY d   1       5.256  -5.208  -1.189  0.00  0.00     0.003 A 
ATOM      5  C3  PXY d   1       5.760  -4.234  -0.366  0.00  0.00     0.003 A 
ATOM      6  C4  PXY d   1       5.393  -2.926  -0.535  0.00  0.00    -0.082 A 
ATOM      7  C5  PXY d   1       4.497  -2.605  -1.492  0.00  0.00     0.003 A 
ATOM      8  C6  PXY d   1       3.966  -3.614  -2.290  0.00  0.00     0.003 A 
ENDROOT
TORSDOF 0
ENDMDL
