MODEL 1
REMARK minimizedAffinity 11.2982349
REMARK minimizedRMSD -1
REMARK  0 active torsions:
REMARK  status: ('A' for Active; 'I' for Inactive)
ROOT
ATOM      1  C   UNL d   1      -6.000  -1.815  -1.502  0.00  0.00     0.078 C 
ATOM      2  C1  UNL d   1      -5.246  -0.713  -0.818  0.00  0.00    -0.077 A 
ATOM      3  C2  UNL d   1      -5.917   0.274  -0.086  0.00  0.00    -0.001 A 
ATOM      4  C3  UNL d   1      -5.203   1.299   0.537  0.00  0.00     0.003 A 
ATOM      5  C4  UNL d   1      -3.814   1.347   0.433  0.00  0.00    -0.005 A 
ATOM      6  C5  UNL d   1      -3.138   0.371  -0.296  0.00  0.00     0.003 A 
ATOM      7  C6  UNL d   1      -3.850  -0.655  -0.919  0.00  0.00    -0.001 A 
ENDROOT
TORSDOF 0
ENDMDL
