MODEL 1
REMARK minimizedAffinity 8.8049221
REMARK minimizedRMSD -1
REMARK  0 active torsions:
REMARK  status: ('A' for Active; 'I' for Inactive)
ROOT
ATOM      1  C   UNL d   1       5.963   6.000  -2.623  0.00  0.00     0.078 C 
ATOM      2  C1  UNL d   1       5.969   4.514  -2.419  0.00  0.00    -0.077 A 
ATOM      3  C2  UNL d   1       5.974   3.962  -1.133  0.00  0.00    -0.001 A 
ATOM      4  C3  UNL d   1       5.989   2.578  -0.958  0.00  0.00     0.003 A 
ATOM      5  C4  UNL d   1       6.000   1.733  -2.067  0.00  0.00    -0.005 A 
ATOM      6  C5  UNL d   1       5.997   2.273  -3.351  0.00  0.00     0.003 A 
ATOM      7  C6  UNL d   1       5.982   3.657  -3.527  0.00  0.00    -0.001 A 
ENDROOT
TORSDOF 0
ENDMDL
