MODEL 1
REMARK minimizedAffinity 3.87171555
REMARK minimizedRMSD -1
REMARK  0 active torsions:
REMARK  status: ('A' for Active; 'I' for Inactive)
ROOT
ATOM      1  C   UNL d   1       2.672  -0.014  -0.003  0.00  0.00     0.078 C 
ATOM      2  C1  UNL d   1       3.824   0.798  -0.514  0.00  0.00    -0.077 A 
ATOM      3  C2  UNL d   1       3.947   1.098  -1.876  0.00  0.00    -0.001 A 
ATOM      4  C3  UNL d   1       5.030   1.847  -2.339  0.00  0.00     0.003 A 
ATOM      5  C4  UNL d   1       5.999   2.301  -1.447  0.00  0.00    -0.005 A 
ATOM      6  C5  UNL d   1       5.886   2.006  -0.090  0.00  0.00     0.003 A 
ATOM      7  C6  UNL d   1       4.804   1.257   0.375  0.00  0.00    -0.001 A 
ENDROOT
TORSDOF 0
ENDMDL
