MODEL 1
REMARK minimizedAffinity 7.75785494
REMARK minimizedRMSD -1
REMARK  0 active torsions:
REMARK  status: ('A' for Active; 'I' for Inactive)
ROOT
ATOM      1  C   UNL d   1       5.832   2.440  -1.897  0.00  0.00     0.078 C 
ATOM      2  C1  UNL d   1       4.736   1.612  -1.296  0.00  0.00    -0.077 A 
ATOM      3  C2  UNL d   1       3.850   0.890  -2.106  0.00  0.00    -0.001 A 
ATOM      4  C3  UNL d   1       2.828   0.131  -1.533  0.00  0.00     0.003 A 
ATOM      5  C4  UNL d   1       2.682   0.087  -0.148  0.00  0.00    -0.005 A 
ATOM      6  C5  UNL d   1       3.558   0.803   0.666  0.00  0.00     0.003 A 
ATOM      7  C6  UNL d   1       4.580   1.563   0.095  0.00  0.00    -0.001 A 
ENDROOT
TORSDOF 0
ENDMDL
