MODEL 1
REMARK minimizedAffinity 7.73044014
REMARK minimizedRMSD -1
REMARK  0 active torsions:
REMARK  status: ('A' for Active; 'I' for Inactive)
ROOT
ATOM      1  C   UNL d   1      -0.200   4.707   1.543  0.00  0.00     0.078 C 
ATOM      2  C1  UNL d   1       0.729   4.075   2.536  0.00  0.00    -0.077 A 
ATOM      3  C2  UNL d   1       2.113   4.058   2.320  0.00  0.00    -0.001 A 
ATOM      4  C3  UNL d   1       2.965   3.459   3.249  0.00  0.00     0.003 A 
ATOM      5  C4  UNL d   1       2.443   2.870   4.399  0.00  0.00    -0.005 A 
ATOM      6  C5  UNL d   1       1.068   2.880   4.621  0.00  0.00     0.003 A 
ATOM      7  C6  UNL d   1       0.214   3.479   3.694  0.00  0.00    -0.001 A 
ENDROOT
TORSDOF 0
ENDMDL
