MODEL 1
REMARK minimizedAffinity 4.85903358
REMARK minimizedRMSD -1
REMARK  0 active torsions:
REMARK  status: ('A' for Active; 'I' for Inactive)
ROOT
ATOM      1  C   UNL d   1       6.000   2.676  -2.621  0.00  0.00     0.078 C 
ATOM      2  C1  UNL d   1       5.100   1.868  -1.734  0.00  0.00    -0.077 A 
ATOM      3  C2  UNL d   1       5.269   1.868  -0.344  0.00  0.00    -0.001 A 
ATOM      4  C3  UNL d   1       4.430   1.104   0.468  0.00  0.00     0.003 A 
ATOM      5  C4  UNL d   1       3.418   0.333  -0.100  0.00  0.00    -0.005 A 
ATOM      6  C5  UNL d   1       3.244   0.325  -1.482  0.00  0.00     0.003 A 
ATOM      7  C6  UNL d   1       4.081   1.089  -2.296  0.00  0.00    -0.001 A 
ENDROOT
TORSDOF 0
ENDMDL
