MODEL 1
REMARK minimizedAffinity 17.4008694
REMARK minimizedRMSD -1
REMARK  0 active torsions:
REMARK  status: ('A' for Active; 'I' for Inactive)
ROOT
ATOM      1  C   UNL d   1       5.998   2.029  -2.257  0.00  0.00     0.078 C 
ATOM      2  C1  UNL d   1       5.977   3.386  -2.895  0.00  0.00    -0.077 A 
ATOM      3  C2  UNL d   1       5.985   3.528  -4.288  0.00  0.00    -0.001 A 
ATOM      4  C3  UNL d   1       5.975   4.798  -4.868  0.00  0.00     0.003 A 
ATOM      5  C4  UNL d   1       5.958   5.935  -4.063  0.00  0.00    -0.005 A 
ATOM      6  C5  UNL d   1       5.952   5.803  -2.676  0.00  0.00     0.003 A 
ATOM      7  C6  UNL d   1       5.962   4.535  -2.094  0.00  0.00    -0.001 A 
ENDROOT
TORSDOF 0
ENDMDL
