MODEL 1
REMARK minimizedAffinity 14.6944952
REMARK minimizedRMSD -1
REMARK  0 active torsions:
REMARK  status: ('A' for Active; 'I' for Inactive)
ROOT
ATOM      1  C   UNL d   1       3.767  -0.311   2.982  0.00  0.00     0.078 C 
ATOM      2  C1  UNL d   1       3.300  -0.212   1.560  0.00  0.00    -0.077 A 
ATOM      3  C2  UNL d   1       4.117   0.348   0.570  0.00  0.00    -0.001 A 
ATOM      4  C3  UNL d   1       3.665   0.443  -0.747  0.00  0.00     0.003 A 
ATOM      5  C4  UNL d   1       2.395  -0.019  -1.086  0.00  0.00    -0.005 A 
ATOM      6  C5  UNL d   1       1.574  -0.575  -0.107  0.00  0.00     0.003 A 
ATOM      7  C6  UNL d   1       2.024  -0.671   1.211  0.00  0.00    -0.001 A 
ENDROOT
TORSDOF 0
ENDMDL
