MODEL 1
REMARK minimizedAffinity 4.31687021
REMARK minimizedRMSD -1
REMARK  0 active torsions:
REMARK  status: ('A' for Active; 'I' for Inactive)
ROOT
ATOM      1  C   UNL d   1       2.531   0.444   0.375  0.00  0.00     0.078 C 
ATOM      2  C1  UNL d   1       3.718   0.978  -0.370  0.00  0.00    -0.077 A 
ATOM      3  C2  UNL d   1       3.825   0.829  -1.758  0.00  0.00    -0.001 A 
ATOM      4  C3  UNL d   1       4.940   1.321  -2.437  0.00  0.00     0.003 A 
ATOM      5  C4  UNL d   1       5.958   1.965  -1.737  0.00  0.00    -0.005 A 
ATOM      6  C5  UNL d   1       5.862   2.116  -0.355  0.00  0.00     0.003 A 
ATOM      7  C6  UNL d   1       4.747   1.624   0.326  0.00  0.00    -0.001 A 
ENDROOT
TORSDOF 0
ENDMDL
