MODEL 1
REMARK minimizedAffinity 11.076952
REMARK minimizedRMSD -1
REMARK  0 active torsions:
REMARK  status: ('A' for Active; 'I' for Inactive)
ROOT
ATOM      1  C   UNL d   1       6.000   3.010  -1.895  0.00  0.00     0.078 C 
ATOM      2  C1  UNL d   1       4.988   2.334  -1.018  0.00  0.00    -0.077 A 
ATOM      3  C2  UNL d   1       3.916   1.622  -1.570  0.00  0.00    -0.001 A 
ATOM      4  C3  UNL d   1       2.977   1.007  -0.741  0.00  0.00     0.003 A 
ATOM      5  C4  UNL d   1       3.099   1.098   0.644  0.00  0.00    -0.005 A 
ATOM      6  C5  UNL d   1       4.162   1.806   1.202  0.00  0.00     0.003 A 
ATOM      7  C6  UNL d   1       5.102   2.422   0.375  0.00  0.00    -0.001 A 
ENDROOT
TORSDOF 0
ENDMDL
