MODEL 1
REMARK minimizedAffinity 10.9383078
REMARK minimizedRMSD -1
REMARK  0 active torsions:
REMARK  status: ('A' for Active; 'I' for Inactive)
ROOT
ATOM      1  C   UNL d   1       0.419   4.612   1.496  0.00  0.00     0.078 C 
ATOM      2  C1  UNL d   1       1.040   3.362   0.949  0.00  0.00    -0.077 A 
ATOM      3  C2  UNL d   1       0.451   2.671  -0.117  0.00  0.00    -0.001 A 
ATOM      4  C3  UNL d   1       1.036   1.503  -0.611  0.00  0.00     0.003 A 
ATOM      5  C4  UNL d   1       2.211   1.015  -0.043  0.00  0.00    -0.005 A 
ATOM      6  C5  UNL d   1       2.803   1.695   1.019  0.00  0.00     0.003 A 
ATOM      7  C6  UNL d   1       2.220   2.863   1.514  0.00  0.00    -0.001 A 
ENDROOT
TORSDOF 0
ENDMDL
