MODEL 1
REMARK minimizedAffinity 1.52369332
REMARK minimizedRMSD -1
REMARK  1 active torsions:
REMARK  status: ('A' for Active; 'I' for Inactive)
REMARK    1  A    between atoms: N_2  and  C1_3 
ROOT
ATOM      1  C1  UNL d   1      -1.065   0.064   0.794  0.00  0.00     0.143 A 
ATOM      2  C2  UNL d   1      -0.122   1.094   0.709  0.00  0.00    -0.057 A 
ATOM      3  C3  UNL d   1       0.215   1.864   1.830  0.00  0.00     0.033 A 
ATOM      4  C4  UNL d   1      -0.410   1.635   3.051  0.00  0.00    -0.042 A 
ATOM      5  C5  UNL d   1      -1.368   0.633   3.152  0.00  0.00     0.033 A 
ATOM      6  C6  UNL d   1      -1.695  -0.137   2.032  0.00  0.00    -0.057 A 
ENDROOT
BRANCH   1   7
ATOM      7  N   UNL d   1      -1.514  -0.672  -0.306  0.00  0.00    -0.732 N 
ATOM      8  C   UNL d   1      -2.929  -0.807  -0.574  0.00  0.00     0.284 C 
ATOM      9  H3  UNL d   1      -0.947  -0.514  -1.136  0.00  0.00     0.395 HD
ENDBRANCH   1   7
TORSDOF 1
ENDMDL
