MODEL 1
REMARK minimizedAffinity -0.399339467
REMARK minimizedRMSD -1
REMARK  1 active torsions:
REMARK  status: ('A' for Active; 'I' for Inactive)
REMARK    1  A    between atoms: N_2  and  C1_3 
ROOT
ATOM      1  C1  UNL d   1       0.585   0.114   0.723  0.00  0.00     0.143 A 
ATOM      2  C2  UNL d   1       0.087   0.569   1.950  0.00  0.00    -0.057 A 
ATOM      3  C3  UNL d   1      -1.284   0.542   2.232  0.00  0.00     0.033 A 
ATOM      4  C4  UNL d   1      -2.188   0.087   1.278  0.00  0.00    -0.042 A 
ATOM      5  C5  UNL d   1      -1.718  -0.346   0.043  0.00  0.00     0.033 A 
ATOM      6  C6  UNL d   1      -0.347  -0.324  -0.231  0.00  0.00    -0.057 A 
ENDROOT
BRANCH   1   7
ATOM      7  N   UNL d   1       1.926   0.207   0.346  0.00  0.00    -0.732 N 
ATOM      8  C   UNL d   1       2.394   1.322  -0.449  0.00  0.00     0.284 C 
ATOM      9  H3  UNL d   1       2.560  -0.065   1.094  0.00  0.00     0.395 HD
ENDBRANCH   1   7
TORSDOF 1
ENDMDL
