MODEL 1
REMARK minimizedAffinity -3.95953107
REMARK minimizedRMSD -1
REMARK  1 active torsions:
REMARK  status: ('A' for Active; 'I' for Inactive)
REMARK    1  A    between atoms: N_2  and  C1_3 
ROOT
ATOM      1  C1  UNL d   1      -0.063  -0.009   0.319  0.00  0.00     0.143 A 
ATOM      2  C2  UNL d   1      -1.128  -0.786  -0.149  0.00  0.00    -0.057 A 
ATOM      3  C3  UNL d   1      -2.430  -0.597   0.328  0.00  0.00     0.033 A 
ATOM      4  C4  UNL d   1      -2.687   0.357   1.307  0.00  0.00    -0.042 A 
ATOM      5  C5  UNL d   1      -1.639   1.125   1.805  0.00  0.00     0.033 A 
ATOM      6  C6  UNL d   1      -0.342   0.935   1.320  0.00  0.00    -0.057 A 
ENDROOT
BRANCH   1   7
ATOM      7  N   UNL d   1       1.270  -0.216  -0.044  0.00  0.00    -0.732 N 
ATOM      8  C   UNL d   1       2.103  -1.135   0.701  0.00  0.00     0.284 C 
ATOM      9  H3  UNL d   1       1.394  -0.266  -1.053  0.00  0.00     0.395 HD
ENDBRANCH   1   7
TORSDOF 1
ENDMDL
