MODEL 1
REMARK minimizedAffinity -3.09825897
REMARK minimizedRMSD -1
REMARK  1 active torsions:
REMARK  status: ('A' for Active; 'I' for Inactive)
REMARK    1  A    between atoms: N_2  and  C1_3 
ROOT
ATOM      1  C1  UNL d   1       1.105  -0.345   1.228  0.00  0.00     0.143 A 
ATOM      2  C2  UNL d   1       0.933  -0.621  -0.132  0.00  0.00    -0.057 A 
ATOM      3  C3  UNL d   1      -0.297  -0.406  -0.767  0.00  0.00     0.033 A 
ATOM      4  C4  UNL d   1      -1.387   0.064  -0.042  0.00  0.00    -0.042 A 
ATOM      5  C5  UNL d   1      -1.245   0.322   1.317  0.00  0.00     0.033 A 
ATOM      6  C6  UNL d   1      -0.013   0.111   1.943  0.00  0.00    -0.057 A 
ENDROOT
BRANCH   1   7
ATOM      7  N   UNL d   1       2.274  -0.631   1.938  0.00  0.00    -0.732 N 
ATOM      8  C   UNL d   1       2.271  -0.654   3.385  0.00  0.00     0.284 C 
ATOM      9  H3  UNL d   1       2.814  -1.380   1.511  0.00  0.00     0.395 HD
ENDBRANCH   1   7
TORSDOF 1
ENDMDL
