MODEL 1
REMARK minimizedAffinity -2.62033272
REMARK minimizedRMSD -1
REMARK  1 active torsions:
REMARK  status: ('A' for Active; 'I' for Inactive)
REMARK    1  A    between atoms: N_2  and  C1_3 
ROOT
ATOM      1  C1  UNL d   1       0.152  -0.701   1.167  0.00  0.00     0.143 A 
ATOM      2  C2  UNL d   1       0.175  -0.760   2.565  0.00  0.00    -0.057 A 
ATOM      3  C3  UNL d   1      -0.963  -0.460   3.323  0.00  0.00     0.033 A 
ATOM      4  C4  UNL d   1      -2.140  -0.065   2.696  0.00  0.00    -0.042 A 
ATOM      5  C5  UNL d   1      -2.178   0.026   1.309  0.00  0.00     0.033 A 
ATOM      6  C6  UNL d   1      -1.040  -0.282   0.557  0.00  0.00    -0.057 A 
ENDROOT
BRANCH   1   7
ATOM      7  N   UNL d   1       1.278  -0.892   0.362  0.00  0.00    -0.732 N 
ATOM      8  C   UNL d   1       2.235   0.176   0.167  0.00  0.00     0.284 C 
ATOM      9  H3  UNL d   1       1.699  -1.809   0.495  0.00  0.00     0.395 HD
ENDBRANCH   1   7
TORSDOF 1
ENDMDL
