MODEL 1
REMARK minimizedAffinity 0.523635745
REMARK minimizedRMSD -1
REMARK  1 active torsions:
REMARK  status: ('A' for Active; 'I' for Inactive)
REMARK    1  A    between atoms: N_2  and  C1_3 
ROOT
ATOM      1  C1  UNL d   1       0.050  -0.103   1.431  0.00  0.00     0.143 A 
ATOM      2  C2  UNL d   1      -1.330  -0.253   1.601  0.00  0.00    -0.057 A 
ATOM      3  C3  UNL d   1      -1.948   0.039   2.823  0.00  0.00     0.033 A 
ATOM      4  C4  UNL d   1      -1.189   0.460   3.910  0.00  0.00    -0.042 A 
ATOM      5  C5  UNL d   1       0.188   0.593   3.772  0.00  0.00     0.033 A 
ATOM      6  C6  UNL d   1       0.798   0.306   2.547  0.00  0.00    -0.057 A 
ENDROOT
BRANCH   1   7
ATOM      7  N   UNL d   1       0.736  -0.471   0.271  0.00  0.00    -0.732 N 
ATOM      8  C   UNL d   1       2.173  -0.316   0.184  0.00  0.00     0.284 C 
ATOM      9  H3  UNL d   1       0.387  -1.339  -0.128  0.00  0.00     0.395 HD
ENDBRANCH   1   7
TORSDOF 1
ENDMDL
