MODEL 1
REMARK minimizedAffinity -5.39907408
REMARK minimizedRMSD -1
REMARK  3 active torsions:
REMARK  status: ('A' for Active; 'I' for Inactive)
REMARK    1  A    between atoms: C3'_2  and  C2'_3 
REMARK    2  A    between atoms: C2'_3  and  C1'_4 
REMARK    3  A    between atoms: C1'_4  and  C1_5 
ROOT
ATOM      1  C1  N4B d   1       0.393  -0.140   0.101  0.00  0.00    -0.075 A 
ATOM      2  C2  N4B d   1       0.868   0.317   1.350  0.00  0.00     0.002 A 
ATOM      3  C3  N4B d   1      -0.020   0.680   2.332  0.00  0.00     0.002 A 
ATOM      4  C4  N4B d   1      -1.383   0.613   2.083  0.00  0.00    -0.004 A 
ATOM      5  C5  N4B d   1      -1.834   0.147   0.883  0.00  0.00     0.002 A 
ATOM      6  C6  N4B d   1      -0.953  -0.226  -0.112  0.00  0.00     0.002 A 
ENDROOT
BRANCH   1   7
ATOM      7  C1' N4B d   1       1.326  -0.466  -1.033  0.00  0.00     0.057 C 
BRANCH   7   8
ATOM      8  C2' N4B d   1       0.521  -0.589  -2.324  0.00  0.00     0.009 C 
BRANCH   8   9
ATOM      9  C3' N4B d   1       1.133   0.222  -3.454  0.00  0.00     0.004 C 
ATOM     10  C4' N4B d   1       0.113   0.701  -4.443  0.00  0.00     0.003 C 
ENDBRANCH   8   9
ENDBRANCH   7   8
ENDBRANCH   1   7
TORSDOF 3
ENDMDL
