MODEL 1
REMARK minimizedAffinity -4.46492529
REMARK minimizedRMSD -1
REMARK  3 active torsions:
REMARK  status: ('A' for Active; 'I' for Inactive)
REMARK    1  A    between atoms: C3'_2  and  C2'_3 
REMARK    2  A    between atoms: C2'_3  and  C1'_4 
REMARK    3  A    between atoms: C1'_4  and  C1_5 
ROOT
ATOM      1  C1  N4B d   1       0.591   0.264   0.158  0.00  0.00    -0.075 A 
ATOM      2  C2  N4B d   1      -0.819   0.307   0.238  0.00  0.00     0.002 A 
ATOM      3  C3  N4B d   1      -1.428   0.717   1.399  0.00  0.00     0.002 A 
ATOM      4  C4  N4B d   1      -0.652   1.068   2.494  0.00  0.00    -0.004 A 
ATOM      5  C5  N4B d   1       0.709   1.047   2.400  0.00  0.00     0.002 A 
ATOM      6  C6  N4B d   1       1.334   0.642   1.238  0.00  0.00     0.002 A 
ENDROOT
BRANCH   1   7
ATOM      7  C1' N4B d   1       1.301  -0.259  -1.061  0.00  0.00     0.057 C 
BRANCH   7   8
ATOM      8  C2' N4B d   1       0.267  -0.706  -2.090  0.00  0.00     0.009 C 
BRANCH   8   9
ATOM      9  C3' N4B d   1       0.667  -0.319  -3.503  0.00  0.00     0.004 C 
ATOM     10  C4' N4B d   1       1.890   0.547  -3.544  0.00  0.00     0.003 C 
ENDBRANCH   8   9
ENDBRANCH   7   8
ENDBRANCH   1   7
TORSDOF 3
ENDMDL
