MODEL 1
REMARK minimizedAffinity -2.69270301
REMARK minimizedRMSD -1
REMARK  3 active torsions:
REMARK  status: ('A' for Active; 'I' for Inactive)
REMARK    1  A    between atoms: C3'_2  and  C2'_3 
REMARK    2  A    between atoms: C2'_3  and  C1'_4 
REMARK    3  A    between atoms: C1'_4  and  C1_5 
ROOT
ATOM      1  C1  N4B d   1       0.110  -0.649  -2.221  0.00  0.00    -0.075 A 
ATOM      2  C2  N4B d   1      -0.929  -0.611  -3.177  0.00  0.00     0.002 A 
ATOM      3  C3  N4B d   1      -0.747   0.058  -4.362  0.00  0.00     0.002 A 
ATOM      4  C4  N4B d   1       0.453   0.710  -4.605  0.00  0.00    -0.004 A 
ATOM      5  C5  N4B d   1       1.461   0.647  -3.687  0.00  0.00     0.002 A 
ATOM      6  C6  N4B d   1       1.293  -0.026  -2.493  0.00  0.00     0.002 A 
ENDROOT
BRANCH   1   7
ATOM      7  C1' N4B d   1      -0.073  -1.295  -0.875  0.00  0.00     0.057 C 
BRANCH   7   8
ATOM      8  C2' N4B d   1      -1.191  -0.578  -0.123  0.00  0.00     0.009 C 
BRANCH   8   9
ATOM      9  C3' N4B d   1      -0.651   0.314   0.982  0.00  0.00     0.004 C 
ATOM     10  C4' N4B d   1      -1.735   1.023   1.737  0.00  0.00     0.003 C 
ENDBRANCH   8   9
ENDBRANCH   7   8
ENDBRANCH   1   7
TORSDOF 3
ENDMDL
