MODEL 1
REMARK minimizedAffinity -6.17281628
REMARK minimizedRMSD -1
REMARK  3 active torsions:
REMARK  status: ('A' for Active; 'I' for Inactive)
REMARK    1  A    between atoms: C3'_2  and  C2'_3 
REMARK    2  A    between atoms: C2'_3  and  C1'_4 
REMARK    3  A    between atoms: C1'_4  and  C1_5 
ROOT
ATOM      1  C1  N4B d   1      -0.131  -0.019   0.208  0.00  0.00    -0.075 A 
ATOM      2  C2  N4B d   1       0.639   0.950   0.887  0.00  0.00     0.002 A 
ATOM      3  C3  N4B d   1       0.050   1.761   1.827  0.00  0.00     0.002 A 
ATOM      4  C4  N4B d   1      -1.306   1.633   2.089  0.00  0.00    -0.004 A 
ATOM      5  C5  N4B d   1      -2.037   0.678   1.447  0.00  0.00     0.002 A 
ATOM      6  C6  N4B d   1      -1.458  -0.146   0.503  0.00  0.00     0.002 A 
ENDROOT
BRANCH   1   7
ATOM      7  C1' N4B d   1       0.450  -0.869  -0.889  0.00  0.00     0.057 C 
BRANCH   7   8
ATOM      8  C2' N4B d   1       1.227   0.021  -1.854  0.00  0.00     0.009 C 
BRANCH   8   9
ATOM      9  C3' N4B d   1       0.881  -0.274  -3.303  0.00  0.00     0.004 C 
ATOM     10  C4' N4B d   1       0.532   0.960  -4.080  0.00  0.00     0.003 C 
ENDBRANCH   8   9
ENDBRANCH   7   8
ENDBRANCH   1   7
TORSDOF 3
ENDMDL
