MODEL 1
REMARK minimizedAffinity -6.36230898
REMARK minimizedRMSD -1
REMARK  3 active torsions:
REMARK  status: ('A' for Active; 'I' for Inactive)
REMARK    1  A    between atoms: C3'_2  and  C2'_3 
REMARK    2  A    between atoms: C2'_3  and  C1'_4 
REMARK    3  A    between atoms: C1'_4  and  C1_5 
ROOT
ATOM      1  C1  N4B d   1      -0.112  -0.012   0.000  0.00  0.00    -0.075 A 
ATOM      2  C2  N4B d   1       0.776   0.664   0.866  0.00  0.00     0.002 A 
ATOM      3  C3  N4B d   1       0.309   1.219   2.031  0.00  0.00     0.002 A 
ATOM      4  C4  N4B d   1      -1.040   1.127   2.343  0.00  0.00    -0.004 A 
ATOM      5  C5  N4B d   1      -1.886   0.450   1.514  0.00  0.00     0.002 A 
ATOM      6  C6  N4B d   1      -1.429  -0.116   0.341  0.00  0.00     0.002 A 
ENDROOT
BRANCH   1   7
ATOM      7  C1' N4B d   1       0.337  -0.561  -1.327  0.00  0.00     0.057 C 
BRANCH   7   8
ATOM      8  C2' N4B d   1       0.643   0.598  -2.270  0.00  0.00     0.009 C 
BRANCH   8   9
ATOM      9  C3' N4B d   1       1.101   0.114  -3.635  0.00  0.00     0.004 C 
ATOM     10  C4' N4B d   1       2.106   1.029  -4.269  0.00  0.00     0.003 C 
ENDBRANCH   8   9
ENDBRANCH   7   8
ENDBRANCH   1   7
TORSDOF 3
ENDMDL
