MODEL 1
REMARK minimizedAffinity 1.06851006
REMARK minimizedRMSD -1
REMARK  0 active torsions:
REMARK  status: ('A' for Active; 'I' for Inactive)
ROOT
ATOM      1  C1  BNZ d   1      -1.372   0.843   2.286  0.00  0.00     0.000 A 
ATOM      2  C2  BNZ d   1      -0.140   0.260   2.147  0.00  0.00     0.000 A 
ATOM      3  C3  BNZ d   1       0.868   0.903   1.485  0.00  0.00     0.000 A 
ATOM      4  C4  BNZ d   1       0.633   2.109   0.929  0.00  0.00     0.000 A 
ATOM      5  C5  BNZ d   1      -0.606   2.706   1.053  0.00  0.00     0.000 A 
ATOM      6  C6  BNZ d   1      -1.607   2.073   1.754  0.00  0.00     0.000 A 
ENDROOT
TORSDOF 0
ENDMDL
