MODEL 1
REMARK minimizedAffinity -5.58013916
REMARK minimizedRMSD -1
REMARK  0 active torsions:
REMARK  status: ('A' for Active; 'I' for Inactive)
ROOT
ATOM      1  C1  BNZ d   1      -0.012   0.112   1.166  0.00  0.00     0.000 A 
ATOM      2  C2  BNZ d   1      -0.122   1.477   1.202  0.00  0.00     0.000 A 
ATOM      3  C3  BNZ d   1      -1.278   2.075   1.618  0.00  0.00     0.000 A 
ATOM      4  C4  BNZ d   1      -2.335   1.310   1.959  0.00  0.00     0.000 A 
ATOM      5  C5  BNZ d   1      -2.244  -0.067   1.918  0.00  0.00     0.000 A 
ATOM      6  C6  BNZ d   1      -1.065  -0.666   1.536  0.00  0.00     0.000 A 
ENDROOT
TORSDOF 0
ENDMDL
