MODEL 1
REMARK minimizedAffinity -1.0572474
REMARK minimizedRMSD -1
REMARK  0 active torsions:
REMARK  status: ('A' for Active; 'I' for Inactive)
ROOT
ATOM      1  C1  BNZ d   1       0.646   1.688   1.318  0.00  0.00     0.000 A 
ATOM      2  C2  BNZ d   1       0.392   0.358   1.522  0.00  0.00     0.000 A 
ATOM      3  C3  BNZ d   1      -0.844  -0.066   1.925  0.00  0.00     0.000 A 
ATOM      4  C4  BNZ d   1      -1.811   0.843   2.161  0.00  0.00     0.000 A 
ATOM      5  C5  BNZ d   1      -1.569   2.189   1.968  0.00  0.00     0.000 A 
ATOM      6  C6  BNZ d   1      -0.335   2.608   1.525  0.00  0.00     0.000 A 
ENDROOT
TORSDOF 0
ENDMDL
