MODEL 1
REMARK minimizedAffinity 2.10338068
REMARK minimizedRMSD -1
REMARK  0 active torsions:
REMARK  status: ('A' for Active; 'I' for Inactive)
ROOT
ATOM      1  C1  BNZ d   1      -0.891   1.546   2.257  0.00  0.00     0.000 A 
ATOM      2  C2  BNZ d   1      -0.427   0.287   2.532  0.00  0.00     0.000 A 
ATOM      3  C3  BNZ d   1       0.670  -0.211   1.885  0.00  0.00     0.000 A 
ATOM      4  C4  BNZ d   1       1.275   0.533   0.937  0.00  0.00     0.000 A 
ATOM      5  C5  BNZ d   1       0.813   1.800   0.642  0.00  0.00     0.000 A 
ATOM      6  C6  BNZ d   1      -0.267   2.314   1.322  0.00  0.00     0.000 A 
ENDROOT
TORSDOF 0
ENDMDL
