MODEL 1
REMARK minimizedAffinity 3.15025973
REMARK minimizedRMSD -1
REMARK  0 active torsions:
REMARK  status: ('A' for Active; 'I' for Inactive)
ROOT
ATOM      1  C1  BNZ d   1      -5.418   1.605   5.949  0.00  0.00     0.000 A 
ATOM      2  C2  BNZ d   1      -5.852   2.903   5.981  0.00  0.00     0.000 A 
ATOM      3  C3  BNZ d   1      -5.605   3.750   4.936  0.00  0.00     0.000 A 
ATOM      4  C4  BNZ d   1      -4.891   3.309   3.881  0.00  0.00     0.000 A 
ATOM      5  C5  BNZ d   1      -4.438   2.005   3.838  0.00  0.00     0.000 A 
ATOM      6  C6  BNZ d   1      -4.722   1.145   4.874  0.00  0.00     0.000 A 
ENDROOT
TORSDOF 0
ENDMDL
