MODEL 1
REMARK minimizedAffinity 0.838577569
REMARK minimizedRMSD -1
REMARK  0 active torsions:
REMARK  status: ('A' for Active; 'I' for Inactive)
ROOT
ATOM      1  C1  BNZ d   1      -1.890  -4.368  -0.713  0.00  0.00     0.000 A 
ATOM      2  C2  BNZ d   1      -3.045  -3.653  -0.885  0.00  0.00     0.000 A 
ATOM      3  C3  BNZ d   1      -3.161  -2.381  -0.398  0.00  0.00     0.000 A 
ATOM      4  C4  BNZ d   1      -2.138  -1.841   0.294  0.00  0.00     0.000 A 
ATOM      5  C5  BNZ d   1      -0.969  -2.552   0.484  0.00  0.00     0.000 A 
ATOM      6  C6  BNZ d   1      -0.842  -3.818  -0.041  0.00  0.00     0.000 A 
ENDROOT
TORSDOF 0
ENDMDL
