MODEL 1
REMARK minimizedAffinity 5.3511591
REMARK minimizedRMSD -1
REMARK  0 active torsions:
REMARK  status: ('A' for Active; 'I' for Inactive)
ROOT
ATOM      1  C1  BNZ d   1      -4.771   2.260   3.775  0.00  0.00     0.000 A 
ATOM      2  C2  BNZ d   1      -5.271   3.535   3.788  0.00  0.00     0.000 A 
ATOM      3  C3  BNZ d   1      -5.867   4.042   4.908  0.00  0.00     0.000 A 
ATOM      4  C4  BNZ d   1      -6.000   3.262   6.000  0.00  0.00     0.000 A 
ATOM      5  C5  BNZ d   1      -5.510   1.971   6.000  0.00  0.00     0.000 A 
ATOM      6  C6  BNZ d   1      -4.875   1.477   4.883  0.00  0.00     0.000 A 
ENDROOT
TORSDOF 0
ENDMDL
