MODEL 1
REMARK minimizedAffinity 1.89404738
REMARK minimizedRMSD -1
REMARK  0 active torsions:
REMARK  status: ('A' for Active; 'I' for Inactive)
ROOT
ATOM      1  C1  BNZ d   1      -2.292   0.197   2.441  0.00  0.00     0.000 A 
ATOM      2  C2  BNZ d   1      -2.226   1.559   2.314  0.00  0.00     0.000 A 
ATOM      3  C3  BNZ d   1      -1.052   2.176   1.983  0.00  0.00     0.000 A 
ATOM      4  C4  BNZ d   1       0.063   1.434   1.818  0.00  0.00     0.000 A 
ATOM      5  C5  BNZ d   1       0.015   0.061   1.952  0.00  0.00     0.000 A 
ATOM      6  C6  BNZ d   1      -1.178  -0.559   2.247  0.00  0.00     0.000 A 
ENDROOT
TORSDOF 0
ENDMDL
