MODEL 1
REMARK minimizedAffinity 2.98668623
REMARK minimizedRMSD -1
REMARK  0 active torsions:
REMARK  status: ('A' for Active; 'I' for Inactive)
ROOT
ATOM      1  C1  BNZ d   1      -2.044   2.277   1.868  0.00  0.00     0.000 A 
ATOM      2  C2  BNZ d   1      -0.845   2.827   1.500  0.00  0.00     0.000 A 
ATOM      3  C3  BNZ d   1       0.270   2.048   1.367  0.00  0.00     0.000 A 
ATOM      4  C4  BNZ d   1       0.195   0.730   1.640  0.00  0.00     0.000 A 
ATOM      5  C5  BNZ d   1      -1.005   0.162   2.021  0.00  0.00     0.000 A 
ATOM      6  C6  BNZ d   1      -2.134   0.942   2.116  0.00  0.00     0.000 A 
ENDROOT
TORSDOF 0
ENDMDL
