MODEL 1
REMARK minimizedAffinity 0.769273698
REMARK minimizedRMSD -1
REMARK  0 active torsions:
REMARK  status: ('A' for Active; 'I' for Inactive)
ROOT
ATOM      1  C1  BNZ d   1      -2.231   1.295   2.466  0.00  0.00     0.000 A 
ATOM      2  C2  BNZ d   1      -1.163   0.443   2.558  0.00  0.00     0.000 A 
ATOM      3  C3  BNZ d   1       0.049   0.779   2.021  0.00  0.00     0.000 A 
ATOM      4  C4  BNZ d   1       0.180   1.946   1.359  0.00  0.00     0.000 A 
ATOM      5  C5  BNZ d   1      -0.890   2.812   1.250  0.00  0.00     0.000 A 
ATOM      6  C6  BNZ d   1      -2.097   2.488   1.825  0.00  0.00     0.000 A 
ENDROOT
TORSDOF 0
ENDMDL
