MODEL 1
REMARK minimizedAffinity -0.437272817
REMARK minimizedRMSD -1
REMARK  0 active torsions:
REMARK  status: ('A' for Active; 'I' for Inactive)
ROOT
ATOM      1  C1  BNZ d   1      -3.757  -2.223  -0.529  0.00  0.00     0.000 A 
ATOM      2  C2  BNZ d   1      -3.409  -3.443  -0.015  0.00  0.00     0.000 A 
ATOM      3  C3  BNZ d   1      -2.857  -4.407  -0.811  0.00  0.00     0.000 A 
ATOM      4  C4  BNZ d   1      -2.690  -4.165  -2.127  0.00  0.00     0.000 A 
ATOM      5  C5  BNZ d   1      -3.045  -2.943  -2.663  0.00  0.00     0.000 A 
ATOM      6  C6  BNZ d   1      -3.564  -1.961  -1.851  0.00  0.00     0.000 A 
ENDROOT
TORSDOF 0
ENDMDL
