MODEL 1
REMARK minimizedAffinity 3.209126
REMARK minimizedRMSD -1
REMARK  0 active torsions:
REMARK  status: ('A' for Active; 'I' for Inactive)
ROOT
ATOM      1  C1  BNZ d   1       2.693   5.103  -4.892  0.00  0.00     0.000 A 
ATOM      2  C2  BNZ d   1       3.275   5.661  -5.999  0.00  0.00     0.000 A 
ATOM      3  C3  BNZ d   1       4.600   6.000  -5.998  0.00  0.00     0.000 A 
ATOM      4  C4  BNZ d   1       5.329   5.817  -4.878  0.00  0.00     0.000 A 
ATOM      5  C5  BNZ d   1       4.755   5.264  -3.751  0.00  0.00     0.000 A 
ATOM      6  C6  BNZ d   1       3.431   4.889  -3.769  0.00  0.00     0.000 A 
ENDROOT
TORSDOF 0
ENDMDL
