MODEL 1
REMARK minimizedAffinity -1.86937892
REMARK minimizedRMSD -1
REMARK  0 active torsions:
REMARK  status: ('A' for Active; 'I' for Inactive)
ROOT
ATOM      1  C1  BNZ d   1       1.548   0.137   2.708  0.00  0.00     0.000 A 
ATOM      2  C2  BNZ d   1       1.013  -0.881   3.450  0.00  0.00     0.000 A 
ATOM      3  C3  BNZ d   1      -0.300  -1.234   3.312  0.00  0.00     0.000 A 
ATOM      4  C4  BNZ d   1      -1.086  -0.543   2.462  0.00  0.00     0.000 A 
ATOM      5  C5  BNZ d   1      -0.565   0.493   1.713  0.00  0.00     0.000 A 
ATOM      6  C6  BNZ d   1       0.767   0.820   1.826  0.00  0.00     0.000 A 
ENDROOT
TORSDOF 0
ENDMDL
