MODEL 1
REMARK minimizedAffinity -2.93144226
REMARK minimizedRMSD -1
REMARK  0 active torsions:
REMARK  status: ('A' for Active; 'I' for Inactive)
ROOT
ATOM      1  C1  BNZ d   1      -0.732  -0.439   0.563  0.00  0.00     0.000 A 
ATOM      2  C2  BNZ d   1      -0.738   0.152   1.798  0.00  0.00     0.000 A 
ATOM      3  C3  BNZ d   1       0.259   1.011   2.168  0.00  0.00     0.000 A 
ATOM      4  C4  BNZ d   1       1.280   1.246   1.320  0.00  0.00     0.000 A 
ATOM      5  C5  BNZ d   1       1.306   0.650   0.075  0.00  0.00     0.000 A 
ATOM      6  C6  BNZ d   1       0.281  -0.183  -0.310  0.00  0.00     0.000 A 
ENDROOT
TORSDOF 0
ENDMDL
