MODEL 1
REMARK minimizedAffinity -2.53804851
REMARK minimizedRMSD -1
REMARK  0 active torsions:
REMARK  status: ('A' for Active; 'I' for Inactive)
ROOT
ATOM      1  C1  BNZ d   1      -0.779  -1.546  -2.906  0.00  0.00     0.000 A 
ATOM      2  C2  BNZ d   1      -1.728  -0.726  -3.457  0.00  0.00     0.000 A 
ATOM      3  C3  BNZ d   1      -3.043  -0.841  -3.103  0.00  0.00     0.000 A 
ATOM      4  C4  BNZ d   1      -3.413  -1.800  -2.230  0.00  0.00     0.000 A 
ATOM      5  C5  BNZ d   1      -2.470  -2.640  -1.673  0.00  0.00     0.000 A 
ATOM      6  C6  BNZ d   1      -1.142  -2.496  -2.003  0.00  0.00     0.000 A 
ENDROOT
TORSDOF 0
ENDMDL
