MODEL 1
REMARK minimizedAffinity -2.77236462
REMARK minimizedRMSD -1
REMARK  0 active torsions:
REMARK  status: ('A' for Active; 'I' for Inactive)
ROOT
ATOM      1  C1  BNZ d   1       0.308  -1.359  -0.103  0.00  0.00     0.000 A 
ATOM      2  C2  BNZ d   1       0.380  -0.457   0.925  0.00  0.00     0.000 A 
ATOM      3  C3  BNZ d   1      -0.391   0.672   0.921  0.00  0.00     0.000 A 
ATOM      4  C4  BNZ d   1      -1.202   0.917  -0.128  0.00  0.00     0.000 A 
ATOM      5  C5  BNZ d   1      -1.279   0.023  -1.177  0.00  0.00     0.000 A 
ATOM      6  C6  BNZ d   1      -0.531  -1.132  -1.151  0.00  0.00     0.000 A 
ENDROOT
TORSDOF 0
ENDMDL
