MODEL 1
REMARK minimizedAffinity -2.66969204
REMARK minimizedRMSD -1
REMARK  0 active torsions:
REMARK  status: ('A' for Active; 'I' for Inactive)
ROOT
ATOM      1  C1  BNZ d   1      -0.220   0.971   1.086  0.00  0.00     0.000 A 
ATOM      2  C2  BNZ d   1       0.674   1.639   1.878  0.00  0.00     0.000 A 
ATOM      3  C3  BNZ d   1       2.012   1.610   1.602  0.00  0.00     0.000 A 
ATOM      4  C4  BNZ d   1       2.458   0.881   0.559  0.00  0.00     0.000 A 
ATOM      5  C5  BNZ d   1       1.570   0.193  -0.244  0.00  0.00     0.000 A 
ATOM      6  C6  BNZ d   1       0.220   0.257   0.014  0.00  0.00     0.000 A 
ENDROOT
TORSDOF 0
ENDMDL
