MODEL 1
REMARK minimizedAffinity -3.18333125
REMARK minimizedRMSD -1
REMARK  0 active torsions:
REMARK  status: ('A' for Active; 'I' for Inactive)
ROOT
ATOM      1  C1  BNZ d   1      -2.543  -1.779  -2.531  0.00  0.00     0.000 A 
ATOM      2  C2  BNZ d   1      -1.831  -2.285  -1.476  0.00  0.00     0.000 A 
ATOM      3  C3  BNZ d   1      -0.906  -1.518  -0.824  0.00  0.00     0.000 A 
ATOM      4  C4  BNZ d   1      -0.665  -0.262  -1.253  0.00  0.00     0.000 A 
ATOM      5  C5  BNZ d   1      -1.368   0.259  -2.321  0.00  0.00     0.000 A 
ATOM      6  C6  BNZ d   1      -2.326  -0.503  -2.950  0.00  0.00     0.000 A 
ENDROOT
TORSDOF 0
ENDMDL
