MODEL 1
REMARK minimizedAffinity -1.43763614
REMARK minimizedRMSD -1
REMARK  0 active torsions:
REMARK  status: ('A' for Active; 'I' for Inactive)
ROOT
ATOM      1  C1  BNZ d   1       0.887  -0.617  -0.645  0.00  0.00     0.000 A 
ATOM      2  C2  BNZ d   1       1.159   0.434   0.189  0.00  0.00     0.000 A 
ATOM      3  C3  BNZ d   1       0.240   0.851   1.111  0.00  0.00     0.000 A 
ATOM      4  C4  BNZ d   1      -0.963   0.244   1.170  0.00  0.00     0.000 A 
ATOM      5  C5  BNZ d   1      -1.255  -0.811   0.329  0.00  0.00     0.000 A 
ATOM      6  C6  BNZ d   1      -0.313  -1.254  -0.571  0.00  0.00     0.000 A 
ENDROOT
TORSDOF 0
ENDMDL
