MODEL 1
REMARK minimizedAffinity -3.81569505
REMARK minimizedRMSD -1
REMARK  0 active torsions:
REMARK  status: ('A' for Active; 'I' for Inactive)
ROOT
ATOM      1  C1  BNZ d   1       0.200  -0.412   0.228  0.00  0.00     0.000 A 
ATOM      2  C2  BNZ d   1       1.143   0.450   0.719  0.00  0.00     0.000 A 
ATOM      3  C3  BNZ d   1       0.795   1.450   1.583  0.00  0.00     0.000 A 
ATOM      4  C4  BNZ d   1      -0.500   1.612   1.923  0.00  0.00     0.000 A 
ATOM      5  C5  BNZ d   1      -1.464   0.757   1.429  0.00  0.00     0.000 A 
ATOM      6  C6  BNZ d   1      -1.105  -0.273   0.590  0.00  0.00     0.000 A 
ENDROOT
TORSDOF 0
ENDMDL
