MODEL 1
REMARK minimizedAffinity -0.470963269
REMARK minimizedRMSD -1
REMARK  0 active torsions:
REMARK  status: ('A' for Active; 'I' for Inactive)
ROOT
ATOM      1  C1  BNZ d   1      -2.705  -2.140  -1.785  0.00  0.00     0.000 A 
ATOM      2  C2  BNZ d   1      -1.947  -1.768  -0.706  0.00  0.00     0.000 A 
ATOM      3  C3  BNZ d   1      -0.782  -1.075  -0.875  0.00  0.00     0.000 A 
ATOM      4  C4  BNZ d   1      -0.355  -0.789  -2.122  0.00  0.00     0.000 A 
ATOM      5  C5  BNZ d   1      -1.103  -1.165  -3.220  0.00  0.00     0.000 A 
ATOM      6  C6  BNZ d   1      -2.295  -1.829  -3.045  0.00  0.00     0.000 A 
ENDROOT
TORSDOF 0
ENDMDL
