MODEL 1
REMARK minimizedAffinity -0.991302431
REMARK minimizedRMSD -1
REMARK  0 active torsions:
REMARK  status: ('A' for Active; 'I' for Inactive)
ROOT
ATOM      1  C1  BNZ d   1       0.249   1.258   1.486  0.00  0.00     0.000 A 
ATOM      2  C2  BNZ d   1       1.023   0.670   0.521  0.00  0.00     0.000 A 
ATOM      3  C3  BNZ d   1       0.513  -0.309  -0.285  0.00  0.00     0.000 A 
ATOM      4  C4  BNZ d   1      -0.755  -0.727  -0.099  0.00  0.00     0.000 A 
ATOM      5  C5  BNZ d   1      -1.545  -0.151   0.876  0.00  0.00     0.000 A 
ATOM      6  C6  BNZ d   1      -1.041   0.862   1.659  0.00  0.00     0.000 A 
ENDROOT
TORSDOF 0
ENDMDL
