MODEL 1
REMARK minimizedAffinity -1.72026503
REMARK minimizedRMSD -1
REMARK  0 active torsions:
REMARK  status: ('A' for Active; 'I' for Inactive)
ROOT
ATOM      1  C1  BNZ d   1      -1.094  -1.867  -3.326  0.00  0.00     0.000 A 
ATOM      2  C2  BNZ d   1      -2.130  -1.122  -3.823  0.00  0.00     0.000 A 
ATOM      3  C3  BNZ d   1      -3.256  -0.905  -3.080  0.00  0.00     0.000 A 
ATOM      4  C4  BNZ d   1      -3.362  -1.465  -1.858  0.00  0.00     0.000 A 
ATOM      5  C5  BNZ d   1      -2.330  -2.227  -1.346  0.00  0.00     0.000 A 
ATOM      6  C6  BNZ d   1      -1.182  -2.411  -2.082  0.00  0.00     0.000 A 
ENDROOT
TORSDOF 0
ENDMDL
