MODEL 1
REMARK minimizedAffinity -2.59423661
REMARK minimizedRMSD -1
REMARK  0 active torsions:
REMARK  status: ('A' for Active; 'I' for Inactive)
ROOT
ATOM      1  C1  BNZ d   1      -0.364  -0.696  -3.034  0.00  0.00     0.000 A 
ATOM      2  C2  BNZ d   1      -1.460  -1.046  -3.776  0.00  0.00     0.000 A 
ATOM      3  C3  BNZ d   1      -2.567  -1.581  -3.179  0.00  0.00     0.000 A 
ATOM      4  C4  BNZ d   1      -2.562  -1.803  -1.849  0.00  0.00     0.000 A 
ATOM      5  C5  BNZ d   1      -1.461  -1.464  -1.088  0.00  0.00     0.000 A 
ATOM      6  C6  BNZ d   1      -0.363  -0.890  -1.686  0.00  0.00     0.000 A 
ENDROOT
TORSDOF 0
ENDMDL
