MODEL 1
REMARK minimizedAffinity -4.81209373
REMARK minimizedRMSD -1
REMARK  0 active torsions:
REMARK  status: ('A' for Active; 'I' for Inactive)
ROOT
ATOM      1  C1  BNZ d   1       1.042   1.430   1.792  0.00  0.00     0.000 A 
ATOM      2  C2  BNZ d   1       2.351   1.254   1.432  0.00  0.00     0.000 A 
ATOM      3  C3  BNZ d   1       2.694   0.369   0.449  0.00  0.00     0.000 A 
ATOM      4  C4  BNZ d   1       1.733  -0.368  -0.145  0.00  0.00     0.000 A 
ATOM      5  C5  BNZ d   1       0.409  -0.209   0.213  0.00  0.00     0.000 A 
ATOM      6  C6  BNZ d   1       0.064   0.711   1.176  0.00  0.00     0.000 A 
ENDROOT
TORSDOF 0
ENDMDL
