MODEL 1
REMARK minimizedAffinity -2.36614299
REMARK minimizedRMSD -1
REMARK  0 active torsions:
REMARK  status: ('A' for Active; 'I' for Inactive)
ROOT
ATOM      1  C1  BNZ d   1      -0.664   0.008   0.628  0.00  0.00     0.000 A 
ATOM      2  C2  BNZ d   1      -0.757   0.838   1.713  0.00  0.00     0.000 A 
ATOM      3  C3  BNZ d   1       0.296   1.627   2.083  0.00  0.00     0.000 A 
ATOM      4  C4  BNZ d   1       1.453   1.555   1.392  0.00  0.00     0.000 A 
ATOM      5  C5  BNZ d   1       1.565   0.716   0.302  0.00  0.00     0.000 A 
ATOM      6  C6  BNZ d   1       0.489  -0.048  -0.091  0.00  0.00     0.000 A 
ENDROOT
TORSDOF 0
ENDMDL
