MODEL 1
REMARK minimizedAffinity -4.3608284
REMARK minimizedRMSD -1
REMARK  0 active torsions:
REMARK  status: ('A' for Active; 'I' for Inactive)
ROOT
ATOM      1  C1  BNZ d   1       0.473  -0.485   0.021  0.00  0.00     0.000 A 
ATOM      2  C2  BNZ d   1       1.361   0.484   0.405  0.00  0.00     0.000 A 
ATOM      3  C3  BNZ d   1       0.975   1.498   1.237  0.00  0.00     0.000 A 
ATOM      4  C4  BNZ d   1      -0.307   1.563   1.651  0.00  0.00     0.000 A 
ATOM      5  C5  BNZ d   1      -1.217   0.598   1.265  0.00  0.00     0.000 A 
ATOM      6  C6  BNZ d   1      -0.814  -0.442   0.460  0.00  0.00     0.000 A 
ENDROOT
TORSDOF 0
ENDMDL
