MODEL 1
REMARK minimizedAffinity -4.3400259
REMARK minimizedRMSD -1
REMARK  1 active torsions:
REMARK  status: ('A' for Active; 'I' for Inactive)
REMARK    1  A    between atoms: C1_2  and  C2_3 
ROOT
ATOM      1  C2  UNL d   1       0.451  -0.018  -0.375  0.00  0.00    -0.077 A 
ATOM      2  C3  UNL d   1       0.208  -0.563   0.893  0.00  0.00     0.002 A 
ATOM      3  C4  UNL d   1      -0.747   0.009   1.736  0.00  0.00     0.002 A 
ATOM      4  C5  UNL d   1      -1.469   1.125   1.319  0.00  0.00    -0.004 A 
ATOM      5  C6  UNL d   1      -1.232   1.676   0.060  0.00  0.00     0.002 A 
ATOM      6  C7  UNL d   1      -0.277   1.107  -0.783  0.00  0.00     0.002 A 
ENDROOT
BRANCH   1   7
ATOM      7  C1  UNL d   1       1.445  -0.662  -1.305  0.00  0.00     0.055 C 
ATOM      8  C   UNL d   1       1.085  -2.115  -1.581  0.00  0.00     0.019 C 
ENDBRANCH   1   7
TORSDOF 1
ENDMDL
