MODEL 1
REMARK minimizedAffinity -5.2483201
REMARK minimizedRMSD -1
REMARK  1 active torsions:
REMARK  status: ('A' for Active; 'I' for Inactive)
REMARK    1  A    between atoms: C1_2  and  C2_3 
ROOT
ATOM      1  C2  UNL d   1       0.212  -0.056  -0.112  0.00  0.00    -0.077 A 
ATOM      2  C3  UNL d   1      -0.420   1.149  -0.451  0.00  0.00     0.002 A 
ATOM      3  C4  UNL d   1      -1.300   1.761   0.443  0.00  0.00     0.002 A 
ATOM      4  C5  UNL d   1      -1.553   1.179   1.683  0.00  0.00    -0.004 A 
ATOM      5  C6  UNL d   1      -0.931  -0.021   2.029  0.00  0.00     0.002 A 
ATOM      6  C7  UNL d   1      -0.052  -0.634   1.136  0.00  0.00     0.002 A 
ENDROOT
BRANCH   1   7
ATOM      7  C1  UNL d   1       1.199  -0.692  -1.055  0.00  0.00     0.055 C 
ATOM      8  C   UNL d   1       0.635  -1.964  -1.672  0.00  0.00     0.019 C 
ENDBRANCH   1   7
TORSDOF 1
ENDMDL
