MODEL 1
REMARK minimizedAffinity -5.71195412
REMARK minimizedRMSD -1
REMARK  1 active torsions:
REMARK  status: ('A' for Active; 'I' for Inactive)
REMARK    1  A    between atoms: C1_2  and  C2_3 
ROOT
ATOM      1  C2  UNL d   1       0.149  -0.043  -0.053  0.00  0.00    -0.077 A 
ATOM      2  C3  UNL d   1      -0.514   0.988  -0.734  0.00  0.00     0.002 A 
ATOM      3  C4  UNL d   1      -1.503   1.736  -0.092  0.00  0.00     0.002 A 
ATOM      4  C5  UNL d   1      -1.834   1.465   1.234  0.00  0.00    -0.004 A 
ATOM      5  C6  UNL d   1      -1.181   0.440   1.919  0.00  0.00     0.002 A 
ATOM      6  C7  UNL d   1      -0.193  -0.310   1.279  0.00  0.00     0.002 A 
ENDROOT
BRANCH   1   7
ATOM      7  C1  UNL d   1       1.250  -0.819  -0.728  0.00  0.00     0.055 C 
ATOM      8  C   UNL d   1       0.701  -1.720  -1.824  0.00  0.00     0.019 C 
ENDBRANCH   1   7
TORSDOF 1
ENDMDL
