MODEL 1
REMARK minimizedAffinity -3.93932843
REMARK minimizedRMSD -1
REMARK  1 active torsions:
REMARK  status: ('A' for Active; 'I' for Inactive)
REMARK    1  A    between atoms: C1_2  and  C2_3 
ROOT
ATOM      1  C2  UNL d   1       0.068  -0.012  -0.291  0.00  0.00    -0.077 A 
ATOM      2  C3  UNL d   1      -0.421   1.267  -0.592  0.00  0.00     0.002 A 
ATOM      3  C4  UNL d   1      -1.308   1.906   0.277  0.00  0.00     0.002 A 
ATOM      4  C5  UNL d   1      -1.709   1.277   1.453  0.00  0.00    -0.004 A 
ATOM      5  C6  UNL d   1      -1.229   0.004   1.761  0.00  0.00     0.002 A 
ATOM      6  C7  UNL d   1      -0.344  -0.637   0.893  0.00  0.00     0.002 A 
ENDROOT
BRANCH   1   7
ATOM      7  C1  UNL d   1       1.062  -0.683  -1.202  0.00  0.00     0.055 C 
ATOM      8  C   UNL d   1       0.625  -2.098  -1.552  0.00  0.00     0.019 C 
ENDBRANCH   1   7
TORSDOF 1
ENDMDL
