MODEL 1
REMARK minimizedAffinity -1.2788403
REMARK minimizedRMSD -1
REMARK  1 active torsions:
REMARK  status: ('A' for Active; 'I' for Inactive)
REMARK    1  A    between atoms: C1_2  and  C2_3 
ROOT
ATOM      1  C2  UNL d   1       0.370   0.032  -0.100  0.00  0.00    -0.077 A 
ATOM      2  C3  UNL d   1      -0.375   1.187  -0.380  0.00  0.00     0.002 A 
ATOM      3  C4  UNL d   1      -1.161   1.777   0.612  0.00  0.00     0.002 A 
ATOM      4  C5  UNL d   1      -1.206   1.224   1.889  0.00  0.00    -0.004 A 
ATOM      5  C6  UNL d   1      -0.470   0.075   2.177  0.00  0.00     0.002 A 
ATOM      6  C7  UNL d   1       0.315  -0.518   1.187  0.00  0.00     0.002 A 
ENDROOT
BRANCH   1   7
ATOM      7  C1  UNL d   1       1.256  -0.578  -1.155  0.00  0.00     0.055 C 
ATOM      8  C   UNL d   1       1.168  -2.097  -1.141  0.00  0.00     0.019 C 
ENDBRANCH   1   7
TORSDOF 1
ENDMDL
