MODEL 1
REMARK minimizedAffinity -4.21730614
REMARK minimizedRMSD -1
REMARK  1 active torsions:
REMARK  status: ('A' for Active; 'I' for Inactive)
REMARK    1  A    between atoms: C1_2  and  C2_3 
ROOT
ATOM      1  C2  UNL d   1      -0.254   1.012  -0.056  0.00  0.00    -0.077 A 
ATOM      2  C3  UNL d   1      -1.512   1.240  -0.631  0.00  0.00     0.002 A 
ATOM      3  C4  UNL d   1      -2.612   1.542   0.173  0.00  0.00     0.002 A 
ATOM      4  C5  UNL d   1      -2.465   1.623   1.556  0.00  0.00    -0.004 A 
ATOM      5  C6  UNL d   1      -1.218   1.396   2.138  0.00  0.00     0.002 A 
ATOM      6  C7  UNL d   1      -0.118   1.092   1.336  0.00  0.00     0.002 A 
ENDROOT
BRANCH   1   7
ATOM      7  C1  UNL d   1       0.944   0.734  -0.926  0.00  0.00     0.055 C 
ATOM      8  C   UNL d   1       1.326   1.956  -1.748  0.00  0.00     0.019 C 
ENDBRANCH   1   7
TORSDOF 1
ENDMDL
