MODEL 1
REMARK minimizedAffinity -5.21895313
REMARK minimizedRMSD -1
REMARK  1 active torsions:
REMARK  status: ('A' for Active; 'I' for Inactive)
REMARK    1  A    between atoms: C1_2  and  C2_3 
ROOT
ATOM      1  C2  UNL d   1       0.359   0.184  -0.195  0.00  0.00    -0.077 A 
ATOM      2  C3  UNL d   1      -0.292   1.384  -0.513  0.00  0.00     0.002 A 
ATOM      3  C4  UNL d   1      -1.209   1.947   0.377  0.00  0.00     0.002 A 
ATOM      4  C5  UNL d   1      -1.479   1.319   1.592  0.00  0.00    -0.004 A 
ATOM      5  C6  UNL d   1      -0.837   0.125   1.916  0.00  0.00     0.002 A 
ATOM      6  C7  UNL d   1       0.078  -0.440   1.027  0.00  0.00     0.002 A 
ENDROOT
BRANCH   1   7
ATOM      7  C1  UNL d   1       1.385  -0.399  -1.132  0.00  0.00     0.055 C 
ATOM      8  C   UNL d   1       1.204  -1.903  -1.285  0.00  0.00     0.019 C 
ENDBRANCH   1   7
TORSDOF 1
ENDMDL
