MODEL 1
REMARK minimizedAffinity -5.21632814
REMARK minimizedRMSD -1
REMARK  1 active torsions:
REMARK  status: ('A' for Active; 'I' for Inactive)
REMARK    1  A    between atoms: C1_2  and  C2_3 
ROOT
ATOM      1  C2  UNL d   1       0.024  -0.344   0.101  0.00  0.00    -0.077 A 
ATOM      2  C3  UNL d   1      -0.520   0.699  -0.661  0.00  0.00     0.002 A 
ATOM      3  C4  UNL d   1      -1.354   1.648  -0.066  0.00  0.00     0.002 A 
ATOM      4  C5  UNL d   1      -1.647   1.566   1.293  0.00  0.00    -0.004 A 
ATOM      5  C6  UNL d   1      -1.112   0.531   2.060  0.00  0.00     0.002 A 
ATOM      6  C7  UNL d   1      -0.280  -0.419   1.467  0.00  0.00     0.002 A 
ENDROOT
BRANCH   1   7
ATOM      7  C1  UNL d   1       0.963  -1.341  -0.528  0.00  0.00     0.055 C 
ATOM      8  C   UNL d   1       0.243  -2.212  -1.547  0.00  0.00     0.019 C 
ENDBRANCH   1   7
TORSDOF 1
ENDMDL
