MODEL 1
REMARK minimizedAffinity -5.75351143
REMARK minimizedRMSD -1
REMARK  1 active torsions:
REMARK  status: ('A' for Active; 'I' for Inactive)
REMARK    1  A    between atoms: C1_2  and  C2_3 
ROOT
ATOM      1  C2  UNL d   1       0.142   0.198   0.162  0.00  0.00    -0.077 A 
ATOM      2  C3  UNL d   1      -0.050  -0.129   1.511  0.00  0.00     0.002 A 
ATOM      3  C4  UNL d   1      -1.021   0.531   2.267  0.00  0.00     0.002 A 
ATOM      4  C5  UNL d   1      -1.810   1.518   1.681  0.00  0.00    -0.004 A 
ATOM      5  C6  UNL d   1      -1.626   1.852   0.340  0.00  0.00     0.002 A 
ATOM      6  C7  UNL d   1      -0.655   1.194  -0.417  0.00  0.00     0.002 A 
ENDROOT
BRANCH   1   7
ATOM      7  C1  UNL d   1       1.156  -0.546  -0.668  0.00  0.00     0.055 C 
ATOM      8  C   UNL d   1       0.485  -1.564  -1.579  0.00  0.00     0.019 C 
ENDBRANCH   1   7
TORSDOF 1
ENDMDL
