MODEL 1
REMARK minimizedAffinity -3.81295609
REMARK minimizedRMSD -1
REMARK  1 active torsions:
REMARK  status: ('A' for Active; 'I' for Inactive)
REMARK    1  A    between atoms: C1_2  and  C2_3 
ROOT
ATOM      1  C2  UNL d   1       0.235  -0.175  -0.120  0.00  0.00    -0.077 A 
ATOM      2  C3  UNL d   1      -0.661   0.738  -0.693  0.00  0.00     0.002 A 
ATOM      3  C4  UNL d   1      -1.519   1.487   0.114  0.00  0.00     0.002 A 
ATOM      4  C5  UNL d   1      -1.486   1.334   1.499  0.00  0.00    -0.004 A 
ATOM      5  C6  UNL d   1      -0.600   0.427   2.078  0.00  0.00     0.002 A 
ATOM      6  C7  UNL d   1       0.257  -0.324   1.272  0.00  0.00     0.002 A 
ENDROOT
BRANCH   1   7
ATOM      7  C1  UNL d   1       1.195  -0.948  -0.986  0.00  0.00     0.055 C 
ATOM      8  C   UNL d   1       0.467  -1.983  -1.832  0.00  0.00     0.019 C 
ENDBRANCH   1   7
TORSDOF 1
ENDMDL
