MODEL 1
REMARK minimizedAffinity -4.65286922
REMARK minimizedRMSD -1
REMARK  1 active torsions:
REMARK  status: ('A' for Active; 'I' for Inactive)
REMARK    1  A    between atoms: C1_2  and  C2_3 
ROOT
ATOM      1  C2  UNL d   1      -0.812   0.513   1.203  0.00  0.00    -0.077 A 
ATOM      2  C3  UNL d   1      -0.247  -0.714   1.580  0.00  0.00     0.002 A 
ATOM      3  C4  UNL d   1       0.507  -1.454   0.667  0.00  0.00     0.002 A 
ATOM      4  C5  UNL d   1       0.708  -0.974  -0.625  0.00  0.00    -0.004 A 
ATOM      5  C6  UNL d   1       0.149   0.244  -1.010  0.00  0.00     0.002 A 
ATOM      6  C7  UNL d   1      -0.607   0.985  -0.100  0.00  0.00     0.002 A 
ENDROOT
BRANCH   1   7
ATOM      7  C1  UNL d   1      -1.584   1.335   2.200  0.00  0.00     0.055 C 
ATOM      8  C   UNL d   1      -2.627   2.205   1.512  0.00  0.00     0.019 C 
ENDBRANCH   1   7
TORSDOF 1
ENDMDL
