MODEL 1
REMARK minimizedAffinity -4.98192024
REMARK minimizedRMSD -1
REMARK  1 active torsions:
REMARK  status: ('A' for Active; 'I' for Inactive)
REMARK    1  A    between atoms: C1_2  and  C2_3 
ROOT
ATOM      1  C2  UNL d   1       0.319  -0.557  -0.234  0.00  0.00    -0.077 A 
ATOM      2  C3  UNL d   1      -0.113  -0.559   1.100  0.00  0.00     0.002 A 
ATOM      3  C4  UNL d   1      -0.937   0.463   1.577  0.00  0.00     0.002 A 
ATOM      4  C5  UNL d   1      -1.338   1.490   0.726  0.00  0.00    -0.004 A 
ATOM      5  C6  UNL d   1      -0.912   1.502  -0.602  0.00  0.00     0.002 A 
ATOM      6  C7  UNL d   1      -0.088   0.482  -1.080  0.00  0.00     0.002 A 
ENDROOT
BRANCH   1   7
ATOM      7  C1  UNL d   1       1.167  -1.684  -0.763  0.00  0.00     0.055 C 
ATOM      8  C   UNL d   1       0.440  -2.460  -1.851  0.00  0.00     0.019 C 
ENDBRANCH   1   7
TORSDOF 1
ENDMDL
