MODEL 1
REMARK minimizedAffinity -0.908628643
REMARK minimizedRMSD -1
REMARK  0 active torsions:
REMARK  status: ('A' for Active; 'I' for Inactive)
ROOT
ATOM      1  C   UNL d   1      -4.899  -2.072   5.996  0.00  0.00     0.078 C 
ATOM      2  C1  UNL d   1      -5.045  -3.432   5.380  0.00  0.00    -0.077 A 
ATOM      3  C2  UNL d   1      -4.399  -3.753   4.180  0.00  0.00    -0.001 A 
ATOM      4  C3  UNL d   1      -4.552  -5.019   3.612  0.00  0.00     0.003 A 
ATOM      5  C4  UNL d   1      -5.351  -5.974   4.238  0.00  0.00    -0.005 A 
ATOM      6  C5  UNL d   1      -5.999  -5.663   5.431  0.00  0.00     0.003 A 
ATOM      7  C6  UNL d   1      -5.848  -4.397   6.000  0.00  0.00    -0.001 A 
ENDROOT
TORSDOF 0
ENDMDL
