MODEL 1
REMARK minimizedAffinity 7.50704288
REMARK minimizedRMSD -1
REMARK  0 active torsions:
REMARK  status: ('A' for Active; 'I' for Inactive)
ROOT
ATOM      1  C   UNL d   1       5.239   3.390   1.889  0.00  0.00     0.078 C 
ATOM      2  C1  UNL d   1       4.296   2.243   1.684  0.00  0.00    -0.077 A 
ATOM      3  C2  UNL d   1       4.358   1.103   2.495  0.00  0.00    -0.001 A 
ATOM      4  C3  UNL d   1       3.480   0.039   2.286  0.00  0.00     0.003 A 
ATOM      5  C4  UNL d   1       2.533   0.103   1.266  0.00  0.00    -0.005 A 
ATOM      6  C5  UNL d   1       2.464   1.232   0.452  0.00  0.00     0.003 A 
ATOM      7  C6  UNL d   1       3.342   2.297   0.659  0.00  0.00    -0.001 A 
ENDROOT
TORSDOF 0
ENDMDL
