MODEL 1
REMARK minimizedAffinity 7.52346182
REMARK minimizedRMSD -1
REMARK  0 active torsions:
REMARK  status: ('A' for Active; 'I' for Inactive)
ROOT
ATOM      1  C   UNL d   1       5.811   5.276  -4.302  0.00  0.00     0.078 C 
ATOM      2  C1  UNL d   1       4.605   4.476  -3.911  0.00  0.00    -0.077 A 
ATOM      3  C2  UNL d   1       3.861   4.805  -2.771  0.00  0.00    -0.001 A 
ATOM      4  C3  UNL d   1       2.745   4.046  -2.413  0.00  0.00     0.003 A 
ATOM      5  C4  UNL d   1       2.364   2.953  -3.189  0.00  0.00    -0.005 A 
ATOM      6  C5  UNL d   1       3.100   2.617  -4.324  0.00  0.00     0.003 A 
ATOM      7  C6  UNL d   1       4.216   3.375  -4.683  0.00  0.00    -0.001 A 
ENDROOT
TORSDOF 0
ENDMDL
