MODEL 1
REMARK minimizedAffinity -2.53132844
REMARK minimizedRMSD -1
REMARK  0 active torsions:
REMARK  status: ('A' for Active; 'I' for Inactive)
ROOT
ATOM      1  C   UNL d   1       1.949  -3.842  -0.011  0.00  0.00     0.078 C 
ATOM      2  C1  UNL d   1       3.357  -4.111  -0.452  0.00  0.00    -0.077 A 
ATOM      3  C2  UNL d   1       3.870  -5.414  -0.470  0.00  0.00    -0.001 A 
ATOM      4  C3  UNL d   1       5.186  -5.649  -0.873  0.00  0.00     0.003 A 
ATOM      5  C4  UNL d   1       6.000  -4.586  -1.260  0.00  0.00    -0.005 A 
ATOM      6  C5  UNL d   1       5.498  -3.286  -1.242  0.00  0.00     0.003 A 
ATOM      7  C6  UNL d   1       4.183  -3.049  -0.840  0.00  0.00    -0.001 A 
ENDROOT
TORSDOF 0
ENDMDL
