MODEL 1
REMARK minimizedAffinity 10.5962162
REMARK minimizedRMSD -1
REMARK  0 active torsions:
REMARK  status: ('A' for Active; 'I' for Inactive)
ROOT
ATOM      1  C   UNL d   1      -4.441  -0.210   0.709  0.00  0.00     0.078 C 
ATOM      2  C1  UNL d   1      -3.101  -0.330   1.371  0.00  0.00    -0.077 A 
ATOM      3  C2  UNL d   1      -2.665   0.627   2.295  0.00  0.00    -0.001 A 
ATOM      4  C3  UNL d   1      -1.410   0.508   2.896  0.00  0.00     0.003 A 
ATOM      5  C4  UNL d   1      -0.582  -0.567   2.578  0.00  0.00    -0.005 A 
ATOM      6  C5  UNL d   1      -1.006  -1.523   1.658  0.00  0.00     0.003 A 
ATOM      7  C6  UNL d   1      -2.260  -1.405   1.056  0.00  0.00    -0.001 A 
ENDROOT
TORSDOF 0
ENDMDL
