MODEL 1
REMARK minimizedAffinity 5.28056812
REMARK minimizedRMSD -1
REMARK  0 active torsions:
REMARK  status: ('A' for Active; 'I' for Inactive)
ROOT
ATOM      1  C   UNL d   1      -5.656   1.945   5.234  0.00  0.00     0.078 C 
ATOM      2  C1  UNL d   1      -4.377   1.387   4.686  0.00  0.00    -0.077 A 
ATOM      3  C2  UNL d   1      -4.325   0.831   3.402  0.00  0.00    -0.001 A 
ATOM      4  C3  UNL d   1      -3.130   0.306   2.908  0.00  0.00     0.003 A 
ATOM      5  C4  UNL d   1      -1.978   0.331   3.691  0.00  0.00    -0.005 A 
ATOM      6  C5  UNL d   1      -2.020   0.881   4.971  0.00  0.00     0.003 A 
ATOM      7  C6  UNL d   1      -3.215   1.406   5.467  0.00  0.00    -0.001 A 
ENDROOT
TORSDOF 0
ENDMDL
