MODEL 1
REMARK minimizedAffinity 4.68966246
REMARK minimizedRMSD -1
REMARK  0 active torsions:
REMARK  status: ('A' for Active; 'I' for Inactive)
ROOT
ATOM      1  C   UNL d   1      -6.000  -1.491  -3.269  0.00  0.00     0.078 C 
ATOM      2  C1  UNL d   1      -5.901  -0.600  -2.067  0.00  0.00    -0.077 A 
ATOM      3  C2  UNL d   1      -5.730  -1.135  -0.784  0.00  0.00    -0.001 A 
ATOM      4  C3  UNL d   1      -5.649  -0.294   0.326  0.00  0.00     0.003 A 
ATOM      5  C4  UNL d   1      -5.740   1.088   0.166  0.00  0.00    -0.005 A 
ATOM      6  C5  UNL d   1      -5.913   1.629  -1.106  0.00  0.00     0.003 A 
ATOM      7  C6  UNL d   1      -5.994   0.789  -2.218  0.00  0.00    -0.001 A 
ENDROOT
TORSDOF 0
ENDMDL
