MODEL 1
REMARK minimizedAffinity 10.3909845
REMARK minimizedRMSD -1
REMARK  0 active torsions:
REMARK  status: ('A' for Active; 'I' for Inactive)
ROOT
ATOM      1  C   UNL d   1       4.070   5.791  -1.870  0.00  0.00     0.078 C 
ATOM      2  C1  UNL d   1       2.794   5.023  -2.044  0.00  0.00    -0.077 A 
ATOM      3  C2  UNL d   1       1.552   5.625  -1.810  0.00  0.00    -0.001 A 
ATOM      4  C3  UNL d   1       0.373   4.895  -1.966  0.00  0.00     0.003 A 
ATOM      5  C4  UNL d   1       0.425   3.558  -2.356  0.00  0.00    -0.005 A 
ATOM      6  C5  UNL d   1       1.656   2.949  -2.589  0.00  0.00     0.003 A 
ATOM      7  C6  UNL d   1       2.836   3.678  -2.433  0.00  0.00    -0.001 A 
ENDROOT
TORSDOF 0
ENDMDL
