MODEL 1
REMARK minimizedAffinity 11.1152372
REMARK minimizedRMSD -1
REMARK  0 active torsions:
REMARK  status: ('A' for Active; 'I' for Inactive)
ROOT
ATOM      1  C   UNL d   1       1.266   2.501  -2.623  0.00  0.00     0.078 C 
ATOM      2  C1  UNL d   1       0.151   3.464  -2.896  0.00  0.00    -0.077 A 
ATOM      3  C2  UNL d   1      -0.378   4.264  -1.875  0.00  0.00    -0.001 A 
ATOM      4  C3  UNL d   1      -1.423   5.149  -2.142  0.00  0.00     0.003 A 
ATOM      5  C4  UNL d   1      -1.950   5.243  -3.429  0.00  0.00    -0.005 A 
ATOM      6  C5  UNL d   1      -1.432   4.450  -4.451  0.00  0.00     0.003 A 
ATOM      7  C6  UNL d   1      -0.386   3.564  -4.186  0.00  0.00    -0.001 A 
ENDROOT
TORSDOF 0
ENDMDL
