MODEL 1
REMARK minimizedAffinity 7.25519896
REMARK minimizedRMSD -1
REMARK  0 active torsions:
REMARK  status: ('A' for Active; 'I' for Inactive)
ROOT
ATOM      1  C   UNL d   1      -1.553   4.826  -4.263  0.00  0.00     0.078 C 
ATOM      2  C1  UNL d   1      -0.351   4.416  -3.466  0.00  0.00    -0.077 A 
ATOM      3  C2  UNL d   1       0.368   5.351  -2.712  0.00  0.00    -0.001 A 
ATOM      4  C3  UNL d   1       1.491   4.956  -1.983  0.00  0.00     0.003 A 
ATOM      5  C4  UNL d   1       1.906   3.626  -2.003  0.00  0.00    -0.005 A 
ATOM      6  C5  UNL d   1       1.199   2.689  -2.753  0.00  0.00     0.003 A 
ATOM      7  C6  UNL d   1       0.075   3.082  -3.482  0.00  0.00    -0.001 A 
ENDROOT
TORSDOF 0
ENDMDL
