MODEL 1
REMARK minimizedAffinity 15.1522255
REMARK minimizedRMSD -1
REMARK  0 active torsions:
REMARK  status: ('A' for Active; 'I' for Inactive)
ROOT
ATOM      1  C   UNL d   1      -4.799  -0.032   1.044  0.00  0.00     0.078 C 
ATOM      2  C1  UNL d   1      -5.175   0.365  -0.352  0.00  0.00    -0.077 A 
ATOM      3  C2  UNL d   1      -5.041  -0.533  -1.418  0.00  0.00    -0.001 A 
ATOM      4  C3  UNL d   1      -5.385  -0.146  -2.714  0.00  0.00     0.003 A 
ATOM      5  C4  UNL d   1      -5.864   1.140  -2.957  0.00  0.00    -0.005 A 
ATOM      6  C5  UNL d   1      -5.999   2.041  -1.903  0.00  0.00     0.003 A 
ATOM      7  C6  UNL d   1      -5.655   1.656  -0.606  0.00  0.00    -0.001 A 
ENDROOT
TORSDOF 0
ENDMDL
