MODEL 1
REMARK minimizedAffinity 10.4164782
REMARK minimizedRMSD -1
REMARK  0 active torsions:
REMARK  status: ('A' for Active; 'I' for Inactive)
ROOT
ATOM      1  C   UNL d   1       5.698   5.694  -1.087  0.00  0.00     0.078 C 
ATOM      2  C1  UNL d   1       5.243   4.889  -2.267  0.00  0.00    -0.077 A 
ATOM      3  C2  UNL d   1       4.074   4.120  -2.208  0.00  0.00    -0.001 A 
ATOM      4  C3  UNL d   1       3.668   3.367  -3.311  0.00  0.00     0.003 A 
ATOM      5  C4  UNL d   1       4.425   3.374  -4.481  0.00  0.00    -0.005 A 
ATOM      6  C5  UNL d   1       5.591   4.134  -4.548  0.00  0.00     0.003 A 
ATOM      7  C6  UNL d   1       5.999   4.888  -3.446  0.00  0.00    -0.001 A 
ENDROOT
TORSDOF 0
ENDMDL
