MODEL 1
REMARK minimizedAffinity 11.031496
REMARK minimizedRMSD -1
REMARK  0 active torsions:
REMARK  status: ('A' for Active; 'I' for Inactive)
ROOT
ATOM      1  C   UNL d   1       3.797   2.995  -5.985  0.00  0.00     0.078 C 
ATOM      2  C1  UNL d   1       4.302   3.715  -4.771  0.00  0.00    -0.077 A 
ATOM      3  C2  UNL d   1       5.510   4.423  -4.803  0.00  0.00    -0.001 A 
ATOM      4  C3  UNL d   1       5.973   5.081  -3.662  0.00  0.00     0.003 A 
ATOM      5  C4  UNL d   1       5.235   5.037  -2.481  0.00  0.00    -0.005 A 
ATOM      6  C5  UNL d   1       4.033   4.334  -2.439  0.00  0.00     0.003 A 
ATOM      7  C6  UNL d   1       3.568   3.675  -3.579  0.00  0.00    -0.001 A 
ENDROOT
TORSDOF 0
ENDMDL
