MODEL 1
REMARK minimizedAffinity 11.5095911
REMARK minimizedRMSD -1
REMARK  0 active torsions:
REMARK  status: ('A' for Active; 'I' for Inactive)
ROOT
ATOM      1  C   UNL d   1      -5.137   4.136  -0.684  0.00  0.00     0.078 C 
ATOM      2  C1  UNL d   1      -5.280   2.644  -0.632  0.00  0.00    -0.077 A 
ATOM      3  C2  UNL d   1      -5.104   1.943   0.567  0.00  0.00    -0.001 A 
ATOM      4  C3  UNL d   1      -5.232   0.553   0.598  0.00  0.00     0.003 A 
ATOM      5  C4  UNL d   1      -5.535  -0.148  -0.568  0.00  0.00    -0.005 A 
ATOM      6  C5  UNL d   1      -5.710   0.541  -1.766  0.00  0.00     0.003 A 
ATOM      7  C6  UNL d   1      -5.583   1.931  -1.799  0.00  0.00    -0.001 A 
ENDROOT
TORSDOF 0
ENDMDL
