MODEL 1
REMARK minimizedAffinity 8.04474163
REMARK minimizedRMSD -1
REMARK  0 active torsions:
REMARK  status: ('A' for Active; 'I' for Inactive)
ROOT
ATOM      1  C   UNL d   1       4.556   4.852  -1.946  0.00  0.00     0.078 C 
ATOM      2  C1  UNL d   1       3.199   4.256  -2.171  0.00  0.00    -0.077 A 
ATOM      3  C2  UNL d   1       2.037   5.018  -1.992  0.00  0.00    -0.001 A 
ATOM      4  C3  UNL d   1       0.780   4.447  -2.197  0.00  0.00     0.003 A 
ATOM      5  C4  UNL d   1       0.672   3.112  -2.580  0.00  0.00    -0.005 A 
ATOM      6  C5  UNL d   1       1.822   2.345  -2.759  0.00  0.00     0.003 A 
ATOM      7  C6  UNL d   1       3.080   2.914  -2.555  0.00  0.00    -0.001 A 
ENDROOT
TORSDOF 0
ENDMDL
