MODEL 1
REMARK minimizedAffinity 7.15880108
REMARK minimizedRMSD -1
REMARK  0 active torsions:
REMARK  status: ('A' for Active; 'I' for Inactive)
ROOT
ATOM      1  C   UNL d   1       4.530   4.748  -2.423  0.00  0.00     0.078 C 
ATOM      2  C1  UNL d   1       3.076   4.393  -2.517  0.00  0.00    -0.077 A 
ATOM      3  C2  UNL d   1       2.084   5.357  -2.304  0.00  0.00    -0.001 A 
ATOM      4  C3  UNL d   1       0.734   5.010  -2.385  0.00  0.00     0.003 A 
ATOM      5  C4  UNL d   1       0.365   3.699  -2.677  0.00  0.00    -0.005 A 
ATOM      6  C5  UNL d   1       1.346   2.732  -2.888  0.00  0.00     0.003 A 
ATOM      7  C6  UNL d   1       2.696   3.077  -2.808  0.00  0.00    -0.001 A 
ENDROOT
TORSDOF 0
ENDMDL
