MODEL 1
REMARK minimizedAffinity 2.69148707
REMARK minimizedRMSD -1
REMARK  0 active torsions:
REMARK  status: ('A' for Active; 'I' for Inactive)
ROOT
ATOM      1  C   UNL d   1      -1.373  -1.278   2.493  0.00  0.00     0.078 C 
ATOM      2  C1  UNL d   1      -1.822  -0.417   3.636  0.00  0.00    -0.077 A 
ATOM      3  C2  UNL d   1      -2.702   0.652   3.430  0.00  0.00    -0.001 A 
ATOM      4  C3  UNL d   1      -3.104   1.451   4.502  0.00  0.00     0.003 A 
ATOM      5  C4  UNL d   1      -2.629   1.191   5.786  0.00  0.00    -0.005 A 
ATOM      6  C5  UNL d   1      -1.751   0.131   5.999  0.00  0.00     0.003 A 
ATOM      7  C6  UNL d   1      -1.348  -0.670   4.929  0.00  0.00    -0.001 A 
ENDROOT
TORSDOF 0
ENDMDL
