MODEL 1
REMARK minimizedAffinity 12.3181095
REMARK minimizedRMSD -1
REMARK  0 active torsions:
REMARK  status: ('A' for Active; 'I' for Inactive)
ROOT
ATOM      1  C1  DEN d   1       3.477   2.787   2.885  0.00  0.00     0.130 A 
ATOM      2  C2  DEN d   1       4.458   3.864   2.987  0.00  0.00    -0.031 A 
ATOM      3  C3  DEN d   1       5.118   4.007   1.674  0.00  0.00     0.027 A 
ATOM      4  C4  DEN d   1       4.715   2.676  -0.498  0.00  0.00     0.027 A 
ATOM      5  C5  DEN d   1       3.990   1.654  -1.070  0.00  0.00    -0.003 A 
ATOM      6  C6  DEN d   1       3.075   0.922  -0.361  0.00  0.00     0.001 A 
ATOM      7  C7  DEN d   1       2.828   1.231   0.950  0.00  0.00     0.017 A 
ATOM      8  C8  DEN d   1       3.560   2.255   1.536  0.00  0.00    -0.094 A 
ATOM      9  C9  DEN d   1       4.472   2.992   0.799  0.00  0.00    -0.072 A 
ENDROOT
TORSDOF 0
ENDMDL
