MODEL 1
REMARK minimizedAffinity 7.39006186
REMARK minimizedRMSD -1
REMARK  0 active torsions:
REMARK  status: ('A' for Active; 'I' for Inactive)
ROOT
ATOM      1  C1  DEN d   1       5.699   0.262   1.498  0.00  0.00     0.130 A 
ATOM      2  C2  DEN d   1       5.717  -1.033   2.173  0.00  0.00    -0.031 A 
ATOM      3  C3  DEN d   1       4.469  -1.744   1.830  0.00  0.00     0.027 A 
ATOM      4  C4  DEN d   1       2.523  -0.971   0.324  0.00  0.00     0.027 A 
ATOM      5  C5  DEN d   1       2.050   0.059  -0.459  0.00  0.00    -0.003 A 
ATOM      6  C6  DEN d   1       2.739   1.232  -0.616  0.00  0.00     0.001 A 
ATOM      7  C7  DEN d   1       3.961   1.387  -0.017  0.00  0.00     0.017 A 
ATOM      8  C8  DEN d   1       4.441   0.356   0.780  0.00  0.00    -0.094 A 
ATOM      9  C9  DEN d   1       3.735  -0.827   0.916  0.00  0.00    -0.072 A 
ENDROOT
TORSDOF 0
ENDMDL
