MODEL 1
REMARK minimizedAffinity 16.2107105
REMARK minimizedRMSD -1
REMARK  0 active torsions:
REMARK  status: ('A' for Active; 'I' for Inactive)
ROOT
ATOM      1  C1  DEN d   1      -5.735   2.811   1.658  0.00  0.00     0.130 A 
ATOM      2  C2  DEN d   1      -5.856   3.770   0.563  0.00  0.00    -0.031 A 
ATOM      3  C3  DEN d   1      -5.971   5.120   1.149  0.00  0.00     0.027 A 
ATOM      4  C4  DEN d   1      -5.968   5.818   3.632  0.00  0.00     0.027 A 
ATOM      5  C5  DEN d   1      -5.900   5.356   4.927  0.00  0.00    -0.003 A 
ATOM      6  C6  DEN d   1      -5.808   4.021   5.223  0.00  0.00     0.001 A 
ATOM      7  C7  DEN d   1      -5.735   3.105   4.207  0.00  0.00     0.017 A 
ATOM      8  C8  DEN d   1      -5.810   3.563   2.898  0.00  0.00    -0.094 A 
ATOM      9  C9  DEN d   1      -5.891   4.917   2.620  0.00  0.00    -0.072 A 
ENDROOT
TORSDOF 0
ENDMDL
