MODEL 1
REMARK minimizedAffinity 8.06527615
REMARK minimizedRMSD -1
REMARK  0 active torsions:
REMARK  status: ('A' for Active; 'I' for Inactive)
ROOT
ATOM      1  C1  DEN d   1       3.901  -0.970   1.425  0.00  0.00     0.130 A 
ATOM      2  C2  DEN d   1       2.891  -1.944   1.018  0.00  0.00    -0.031 A 
ATOM      3  C3  DEN d   1       2.374  -1.539  -0.305  0.00  0.00     0.027 A 
ATOM      4  C4  DEN d   1       3.039   0.486  -1.757  0.00  0.00     0.027 A 
ATOM      5  C5  DEN d   1       3.844   1.601  -1.826  0.00  0.00    -0.003 A 
ATOM      6  C6  DEN d   1       4.693   1.954  -0.811  0.00  0.00     0.001 A 
ATOM      7  C7  DEN d   1       4.790   1.158   0.300  0.00  0.00     0.017 A 
ATOM      8  C8  DEN d   1       3.975   0.036   0.381  0.00  0.00    -0.094 A 
ATOM      9  C9  DEN d   1       3.133  -0.310  -0.662  0.00  0.00    -0.072 A 
ENDROOT
TORSDOF 0
ENDMDL
