MODEL 1
REMARK minimizedAffinity 21.1430511
REMARK minimizedRMSD -1
REMARK  0 active torsions:
REMARK  status: ('A' for Active; 'I' for Inactive)
ROOT
ATOM      1  C1  DEN d   1       4.723   2.515   4.392  0.00  0.00     0.130 A 
ATOM      2  C2  DEN d   1       5.778   3.253   3.702  0.00  0.00    -0.031 A 
ATOM      3  C3  DEN d   1       5.187   4.493   3.159  0.00  0.00     0.027 A 
ATOM      4  C4  DEN d   1       2.756   5.339   3.322  0.00  0.00     0.027 A 
ATOM      5  C5  DEN d   1       1.496   5.050   3.800  0.00  0.00    -0.003 A 
ATOM      6  C6  DEN d   1       1.219   3.890   4.473  0.00  0.00     0.001 A 
ATOM      7  C7  DEN d   1       2.225   2.995   4.727  0.00  0.00     0.017 A 
ATOM      8  C8  DEN d   1       3.496   3.276   4.243  0.00  0.00    -0.094 A 
ATOM      9  C9  DEN d   1       3.759   4.460   3.575  0.00  0.00    -0.072 A 
ENDROOT
TORSDOF 0
ENDMDL
