MODEL 1
REMARK minimizedAffinity 2.60040331
REMARK minimizedRMSD -1
REMARK  0 active torsions:
REMARK  status: ('A' for Active; 'I' for Inactive)
ROOT
ATOM      1  C1  DEN d   1      -5.697   2.465   3.017  0.00  0.00     0.130 A 
ATOM      2  C2  DEN d   1      -5.672   2.986   1.653  0.00  0.00    -0.031 A 
ATOM      3  C3  DEN d   1      -5.753   4.459   1.725  0.00  0.00     0.027 A 
ATOM      4  C4  DEN d   1      -5.908   5.975   3.806  0.00  0.00     0.027 A 
ATOM      5  C5  DEN d   1      -5.973   5.990   5.182  0.00  0.00    -0.003 A 
ATOM      6  C6  DEN d   1      -5.984   4.840   5.925  0.00  0.00     0.001 A 
ATOM      7  C7  DEN d   1      -5.885   3.626   5.298  0.00  0.00     0.017 A 
ATOM      8  C8  DEN d   1      -5.827   3.602   3.911  0.00  0.00    -0.094 A 
ATOM      9  C9  DEN d   1      -5.804   4.777   3.178  0.00  0.00    -0.072 A 
ENDROOT
TORSDOF 0
ENDMDL
