MODEL 1
REMARK minimizedAffinity 15.3544569
REMARK minimizedRMSD -1
REMARK  0 active torsions:
REMARK  status: ('A' for Active; 'I' for Inactive)
ROOT
ATOM      1  C1  DEN d   1      -4.519   1.121  -0.300  0.00  0.00     0.130 A 
ATOM      2  C2  DEN d   1      -5.142   0.036  -1.053  0.00  0.00    -0.031 A 
ATOM      3  C3  DEN d   1      -5.835   0.627  -2.216  0.00  0.00     0.027 A 
ATOM      4  C4  DEN d   1      -5.997   3.102  -2.922  0.00  0.00     0.027 A 
ATOM      5  C5  DEN d   1      -5.638   4.390  -2.590  0.00  0.00    -0.003 A 
ATOM      6  C6  DEN d   1      -4.916   4.679  -1.463  0.00  0.00     0.001 A 
ATOM      7  C7  DEN d   1      -4.491   3.662  -0.649  0.00  0.00     0.017 A 
ATOM      8  C8  DEN d   1      -4.855   2.362  -0.974  0.00  0.00    -0.094 A 
ATOM      9  C9  DEN d   1      -5.574   2.089  -2.125  0.00  0.00    -0.072 A 
ENDROOT
TORSDOF 0
ENDMDL
