MODEL 1
REMARK minimizedAffinity 7.94911051
REMARK minimizedRMSD -1
REMARK  1 active torsions:
REMARK  status: ('A' for Active; 'I' for Inactive)
REMARK    1  A    between atoms: N_2  and  C1_3 
ROOT
ATOM      1  C1  UNL d   1       1.648   1.639   1.089  0.00  0.00     0.143 A 
ATOM      2  C2  UNL d   1       0.336   1.172   1.224  0.00  0.00    -0.057 A 
ATOM      3  C3  UNL d   1      -0.467   1.564   2.303  0.00  0.00     0.033 A 
ATOM      4  C4  UNL d   1       0.040   2.409   3.284  0.00  0.00    -0.042 A 
ATOM      5  C5  UNL d   1       1.350   2.866   3.183  0.00  0.00     0.033 A 
ATOM      6  C6  UNL d   1       2.144   2.476   2.101  0.00  0.00    -0.057 A 
ENDROOT
BRANCH   1   7
ATOM      7  N   UNL d   1       2.528   1.208   0.094  0.00  0.00    -0.732 N 
ATOM      8  C   UNL d   1       3.270  -0.025   0.249  0.00  0.00     0.284 C 
ATOM      9  H3  UNL d   1       2.158   1.355  -0.842  0.00  0.00     0.395 HD
ENDBRANCH   1   7
TORSDOF 1
ENDMDL
