MODEL 1
REMARK minimizedAffinity -0.210834473
REMARK minimizedRMSD -1
REMARK  1 active torsions:
REMARK  status: ('A' for Active; 'I' for Inactive)
REMARK    1  A    between atoms: N_2  and  C1_3 
ROOT
ATOM      1  C1  UNL d   1       2.852   1.676  -0.316  0.00  0.00     0.143 A 
ATOM      2  C2  UNL d   1       3.316   0.562  -1.024  0.00  0.00    -0.057 A 
ATOM      3  C3  UNL d   1       4.585   0.554  -1.615  0.00  0.00     0.033 A 
ATOM      4  C4  UNL d   1       5.404   1.675  -1.533  0.00  0.00    -0.042 A 
ATOM      5  C5  UNL d   1       4.953   2.803  -0.856  0.00  0.00     0.033 A 
ATOM      6  C6  UNL d   1       3.688   2.803  -0.263  0.00  0.00    -0.057 A 
ENDROOT
BRANCH   1   7
ATOM      7  N   UNL d   1       1.562   1.782   0.209  0.00  0.00    -0.732 N 
ATOM      8  C   UNL d   1       0.507   0.901  -0.244  0.00  0.00     0.284 C 
ATOM      9  H3  UNL d   1       1.564   1.945   1.213  0.00  0.00     0.395 HD
ENDBRANCH   1   7
TORSDOF 1
ENDMDL
