MODEL 1
REMARK minimizedAffinity 0.482900888
REMARK minimizedRMSD -1
REMARK  1 active torsions:
REMARK  status: ('A' for Active; 'I' for Inactive)
REMARK    1  A    between atoms: N_2  and  C1_3 
ROOT
ATOM      1  C1  UNL d   1       2.051   1.453   0.293  0.00  0.00     0.143 A 
ATOM      2  C2  UNL d   1       2.466   0.321  -0.416  0.00  0.00    -0.057 A 
ATOM      3  C3  UNL d   1       3.698   0.292  -1.081  0.00  0.00     0.033 A 
ATOM      4  C4  UNL d   1       4.526   1.409  -1.072  0.00  0.00    -0.042 A 
ATOM      5  C5  UNL d   1       4.123   2.554  -0.395  0.00  0.00     0.033 A 
ATOM      6  C6  UNL d   1       2.895   2.575   0.273  0.00  0.00    -0.057 A 
ENDROOT
BRANCH   1   7
ATOM      7  N   UNL d   1       0.795   1.579   0.892  0.00  0.00    -0.732 N 
ATOM      8  C   UNL d   1       0.677   1.853   2.308  0.00  0.00     0.284 C 
ATOM      9  H3  UNL d   1       0.138   2.097   0.312  0.00  0.00     0.395 HD
ENDBRANCH   1   7
TORSDOF 1
ENDMDL
