MODEL 1
REMARK minimizedAffinity 1.50207102
REMARK minimizedRMSD -1
REMARK  1 active torsions:
REMARK  status: ('A' for Active; 'I' for Inactive)
REMARK    1  A    between atoms: N_2  and  C1_3 
ROOT
ATOM      1  C1  UNL d   1       1.200   0.085  -0.112  0.00  0.00     0.143 A 
ATOM      2  C2  UNL d   1      -0.058  -0.284  -0.599  0.00  0.00    -0.057 A 
ATOM      3  C3  UNL d   1      -0.345  -1.613  -0.936  0.00  0.00     0.033 A 
ATOM      4  C4  UNL d   1       0.636  -2.593  -0.820  0.00  0.00    -0.042 A 
ATOM      5  C5  UNL d   1       1.901  -2.244  -0.362  0.00  0.00     0.033 A 
ATOM      6  C6  UNL d   1       2.179  -0.917  -0.020  0.00  0.00    -0.057 A 
ENDROOT
BRANCH   1   7
ATOM      7  N   UNL d   1       1.576   1.406   0.147  0.00  0.00    -0.732 N 
ATOM      8  C   UNL d   1       2.933   1.846  -0.095  0.00  0.00     0.284 C 
ATOM      9  H3  UNL d   1       0.865   2.075  -0.136  0.00  0.00     0.395 HD
ENDBRANCH   1   7
TORSDOF 1
ENDMDL
