MODEL 1
REMARK minimizedAffinity -3.13734603
REMARK minimizedRMSD -1
REMARK  1 active torsions:
REMARK  status: ('A' for Active; 'I' for Inactive)
REMARK    1  A    between atoms: N_2  and  C1_3 
ROOT
ATOM      1  C1  UNL d   1       2.540   0.746  -0.364  0.00  0.00     0.143 A 
ATOM      2  C2  UNL d   1       1.151   0.871  -0.261  0.00  0.00    -0.057 A 
ATOM      3  C3  UNL d   1       0.320  -0.256  -0.234  0.00  0.00     0.033 A 
ATOM      4  C4  UNL d   1       0.865  -1.531  -0.340  0.00  0.00    -0.042 A 
ATOM      5  C5  UNL d   1       2.242  -1.678  -0.469  0.00  0.00     0.033 A 
ATOM      6  C6  UNL d   1       3.066  -0.549  -0.488  0.00  0.00    -0.057 A 
ENDROOT
BRANCH   1   7
ATOM      7  N   UNL d   1       3.411   1.831  -0.495  0.00  0.00    -0.732 N 
ATOM      8  C   UNL d   1       4.738   1.649  -1.043  0.00  0.00     0.284 C 
ATOM      9  H3  UNL d   1       2.939   2.671  -0.820  0.00  0.00     0.395 HD
ENDBRANCH   1   7
TORSDOF 1
ENDMDL
