MODEL 1
REMARK minimizedAffinity -5.06537294
REMARK minimizedRMSD -1
REMARK  1 active torsions:
REMARK  status: ('A' for Active; 'I' for Inactive)
REMARK    1  A    between atoms: N_2  and  C1_3 
ROOT
ATOM      1  C1  UNL d   1       3.701   0.596  -0.057  0.00  0.00     0.143 A 
ATOM      2  C2  UNL d   1       2.484   1.230   0.214  0.00  0.00    -0.057 A 
ATOM      3  C3  UNL d   1       1.287   0.506   0.280  0.00  0.00     0.033 A 
ATOM      4  C4  UNL d   1       1.283  -0.866   0.048  0.00  0.00    -0.042 A 
ATOM      5  C5  UNL d   1       2.477  -1.513  -0.248  0.00  0.00     0.033 A 
ATOM      6  C6  UNL d   1       3.670  -0.786  -0.306  0.00  0.00    -0.057 A 
ENDROOT
BRANCH   1   7
ATOM      7  N   UNL d   1       4.909   1.274  -0.234  0.00  0.00    -0.732 N 
ATOM      8  C   UNL d   1       5.192   1.964  -1.474  0.00  0.00     0.284 C 
ATOM      9  H3  UNL d   1       5.195   1.783   0.599  0.00  0.00     0.395 HD
ENDBRANCH   1   7
TORSDOF 1
ENDMDL
