MODEL 1
REMARK minimizedAffinity 2.50641179
REMARK minimizedRMSD -1
REMARK  1 active torsions:
REMARK  status: ('A' for Active; 'I' for Inactive)
REMARK    1  A    between atoms: N_2  and  C1_3 
ROOT
ATOM      1  C1  UNL d   1       2.367   0.299  -0.789  0.00  0.00     0.143 A 
ATOM      2  C2  UNL d   1       2.871  -0.959  -1.135  0.00  0.00    -0.057 A 
ATOM      3  C3  UNL d   1       2.093  -2.115  -1.001  0.00  0.00     0.033 A 
ATOM      4  C4  UNL d   1       0.802  -2.036  -0.490  0.00  0.00    -0.042 A 
ATOM      5  C5  UNL d   1       0.288  -0.799  -0.116  0.00  0.00     0.033 A 
ATOM      6  C6  UNL d   1       1.068   0.352  -0.258  0.00  0.00    -0.057 A 
ENDROOT
BRANCH   1   7
ATOM      7  N   UNL d   1       3.124   1.473  -0.806  0.00  0.00    -0.732 N 
ATOM      8  C   UNL d   1       4.495   1.458  -1.270  0.00  0.00     0.284 C 
ATOM      9  H3  UNL d   1       2.587   2.277  -1.121  0.00  0.00     0.395 HD
ENDBRANCH   1   7
TORSDOF 1
ENDMDL
