MODEL 1
REMARK minimizedAffinity -0.652576208
REMARK minimizedRMSD -1
REMARK  0 active torsions:
REMARK  status: ('A' for Active; 'I' for Inactive)
ROOT
ATOM      1  C   UNL d   1       1.998  -0.579  -1.308  0.00  0.00     0.124 A 
ATOM      2  C1  UNL d   1       3.023  -0.432  -2.233  0.00  0.00     0.062 A 
ATOM      3  C2  UNL d   1       3.898   0.646  -2.143  0.00  0.00     0.162 A 
ATOM      4  C3  UNL d   1       3.752   1.587  -1.123  0.00  0.00    -0.034 A 
ATOM      5  C4  UNL d   1       2.718   1.434  -0.198  0.00  0.00     0.162 A 
ATOM      6  C5  UNL d   1       1.847   0.354  -0.292  0.00  0.00     0.062 A 
ATOM      7  F   UNL d   1       0.857   0.214   0.602  0.00  0.00    -0.097 F 
ATOM      8  F1  UNL d   1       2.550   2.320   0.795  0.00  0.00    -0.096 F 
ATOM      9  I   UNL d   1       5.059   3.202  -0.985  0.00  0.00    -0.060 I 
ATOM     10  F2  UNL d   1       4.879   0.763  -3.049  0.00  0.00    -0.096 F 
ATOM     11  F3  UNL d   1       3.171  -1.332  -3.216  0.00  0.00    -0.097 F 
ATOM     12  F4  UNL d   1       1.157  -1.617  -1.398  0.00  0.00    -0.092 F 
ENDROOT
TORSDOF 0
ENDMDL
