MODEL 1
REMARK minimizedAffinity 15.8548698
REMARK minimizedRMSD -1
REMARK  0 active torsions:
REMARK  status: ('A' for Active; 'I' for Inactive)
ROOT
ATOM      1  C   UNL d   1       4.679   3.681   2.932  0.00  0.00     0.124 A 
ATOM      2  C1  UNL d   1       3.621   3.278   2.129  0.00  0.00     0.062 A 
ATOM      3  C2  UNL d   1       2.659   2.403   2.625  0.00  0.00     0.162 A 
ATOM      4  C3  UNL d   1       2.750   1.925   3.933  0.00  0.00    -0.034 A 
ATOM      5  C4  UNL d   1       3.818   2.333   4.734  0.00  0.00     0.162 A 
ATOM      6  C5  UNL d   1       4.776   3.208   4.233  0.00  0.00     0.062 A 
ATOM      7  F   UNL d   1       5.798   3.596   5.011  0.00  0.00    -0.097 F 
ATOM      8  F1  UNL d   1       3.936   1.893   5.995  0.00  0.00    -0.096 F 
ATOM      9  I   UNL d   1       1.314   0.616   4.678  0.00  0.00    -0.060 I 
ATOM     10  F2  UNL d   1       1.647   2.031   1.827  0.00  0.00    -0.096 F 
ATOM     11  F3  UNL d   1       3.524   3.733   0.871  0.00  0.00    -0.097 F 
ATOM     12  F4  UNL d   1       5.603   4.522   2.452  0.00  0.00    -0.092 F 
ENDROOT
TORSDOF 0
ENDMDL
