MODEL 1
REMARK minimizedAffinity 13.5604553
REMARK minimizedRMSD -1
REMARK  0 active torsions:
REMARK  status: ('A' for Active; 'I' for Inactive)
ROOT
ATOM      1  C   UNL d   1      -3.123   1.874  -1.121  0.00  0.00     0.124 A 
ATOM      2  C1  UNL d   1      -2.439   2.999  -0.679  0.00  0.00     0.062 A 
ATOM      3  C2  UNL d   1      -2.953   3.766   0.362  0.00  0.00     0.162 A 
ATOM      4  C3  UNL d   1      -4.158   3.411   0.970  0.00  0.00    -0.034 A 
ATOM      5  C4  UNL d   1      -4.840   2.279   0.519  0.00  0.00     0.162 A 
ATOM      6  C5  UNL d   1      -4.322   1.515  -0.522  0.00  0.00     0.062 A 
ATOM      7  F   UNL d   1      -4.983   0.429  -0.947  0.00  0.00    -0.097 F 
ATOM      8  F1  UNL d   1      -6.000   1.909   1.081  0.00  0.00    -0.096 F 
ATOM      9  I   UNL d   1      -4.930   4.555   2.527  0.00  0.00    -0.060 I 
ATOM     10  F2  UNL d   1      -2.272   4.847   0.769  0.00  0.00    -0.096 F 
ATOM     11  F3  UNL d   1      -1.281   3.348  -1.257  0.00  0.00    -0.097 F 
ATOM     12  F4  UNL d   1      -2.626   1.138  -2.124  0.00  0.00    -0.092 F 
ENDROOT
TORSDOF 0
ENDMDL
