MODEL 1
REMARK minimizedAffinity 12.8943577
REMARK minimizedRMSD -1
REMARK  0 active torsions:
REMARK  status: ('A' for Active; 'I' for Inactive)
ROOT
ATOM      1  C   UNL d   1       1.914  -1.848  -1.062  0.00  0.00     0.124 A 
ATOM      2  C1  UNL d   1       2.101  -1.184   0.143  0.00  0.00     0.062 A 
ATOM      3  C2  UNL d   1       2.715   0.065   0.166  0.00  0.00     0.162 A 
ATOM      4  C3  UNL d   1       3.145   0.659  -1.020  0.00  0.00    -0.034 A 
ATOM      5  C4  UNL d   1       2.955  -0.015  -2.228  0.00  0.00     0.162 A 
ATOM      6  C5  UNL d   1       2.341  -1.263  -2.245  0.00  0.00     0.062 A 
ATOM      7  F   UNL d   1       2.161  -1.903  -3.410  0.00  0.00    -0.097 F 
ATOM      8  F1  UNL d   1       3.357   0.527  -3.387  0.00  0.00    -0.096 F 
ATOM      9  I   UNL d   1       4.064   2.527  -0.990  0.00  0.00    -0.060 I 
ATOM     10  F2  UNL d   1       2.882   0.683   1.344  0.00  0.00    -0.096 F 
ATOM     11  F3  UNL d   1       1.690  -1.748   1.288  0.00  0.00    -0.097 F 
ATOM     12  F4  UNL d   1       1.324  -3.050  -1.081  0.00  0.00    -0.092 F 
ENDROOT
TORSDOF 0
ENDMDL
