MODEL 1
REMARK minimizedAffinity 4.66738462
REMARK minimizedRMSD -1
REMARK  0 active torsions:
REMARK  status: ('A' for Active; 'I' for Inactive)
ROOT
ATOM      1  C   UNL d   1       0.772  -1.119   2.377  0.00  0.00     0.124 A 
ATOM      2  C1  UNL d   1       1.512  -1.603   1.308  0.00  0.00     0.062 A 
ATOM      3  C2  UNL d   1       2.389  -0.764   0.626  0.00  0.00     0.162 A 
ATOM      4  C3  UNL d   1       2.531   0.568   1.013  0.00  0.00    -0.034 A 
ATOM      5  C4  UNL d   1       1.783   1.048   2.089  0.00  0.00     0.162 A 
ATOM      6  C5  UNL d   1       0.908   0.206   2.767  0.00  0.00     0.062 A 
ATOM      7  F   UNL d   1       0.194   0.676   3.800  0.00  0.00    -0.097 F 
ATOM      8  F1  UNL d   1       1.896   2.324   2.487  0.00  0.00    -0.096 F 
ATOM      9  I   UNL d   1       3.842   1.826  -0.004  0.00  0.00    -0.060 I 
ATOM     10  F2  UNL d   1       3.091  -1.259  -0.404  0.00  0.00    -0.096 F 
ATOM     11  F3  UNL d   1       1.381  -2.883   0.929  0.00  0.00    -0.097 F 
ATOM     12  F4  UNL d   1      -0.072  -1.928   3.031  0.00  0.00    -0.092 F 
ENDROOT
TORSDOF 0
ENDMDL
