MODEL 1
REMARK minimizedAffinity 3.68399668
REMARK minimizedRMSD -1
REMARK  0 active torsions:
REMARK  status: ('A' for Active; 'I' for Inactive)
ROOT
ATOM      1  C   UNL d   1      -3.735   1.813  -4.776  0.00  0.00     0.124 A 
ATOM      2  C1  UNL d   1      -3.136   0.685  -4.234  0.00  0.00     0.062 A 
ATOM      3  C2  UNL d   1      -3.498   0.240  -2.966  0.00  0.00     0.162 A 
ATOM      4  C3  UNL d   1      -4.466   0.923  -2.231  0.00  0.00    -0.034 A 
ATOM      5  C4  UNL d   1      -5.064   2.058  -2.782  0.00  0.00     0.162 A 
ATOM      6  C5  UNL d   1      -4.699   2.499  -4.050  0.00  0.00     0.062 A 
ATOM      7  F   UNL d   1      -5.279   3.589  -4.571  0.00  0.00    -0.097 F 
ATOM      8  F1  UNL d   1      -5.999   2.739  -2.102  0.00  0.00    -0.096 F 
ATOM      9  I   UNL d   1      -5.011   0.262  -0.334  0.00  0.00    -0.060 I 
ATOM     10  F2  UNL d   1      -2.902  -0.854  -2.468  0.00  0.00    -0.096 F 
ATOM     11  F3  UNL d   1      -2.204   0.021  -4.934  0.00  0.00    -0.097 F 
ATOM     12  F4  UNL d   1      -3.384   2.240  -5.996  0.00  0.00    -0.092 F 
ENDROOT
TORSDOF 0
ENDMDL
