MODEL 1
REMARK minimizedAffinity 8.58559895
REMARK minimizedRMSD -1
REMARK  0 active torsions:
REMARK  status: ('A' for Active; 'I' for Inactive)
ROOT
ATOM      1  C   UNL d   1      -3.955   1.397  -4.719  0.00  0.00     0.124 A 
ATOM      2  C1  UNL d   1      -4.877   2.104  -3.959  0.00  0.00     0.062 A 
ATOM      3  C2  UNL d   1      -5.101   1.758  -2.630  0.00  0.00     0.162 A 
ATOM      4  C3  UNL d   1      -4.401   0.700  -2.051  0.00  0.00    -0.034 A 
ATOM      5  C4  UNL d   1      -3.477  -0.008  -2.821  0.00  0.00     0.162 A 
ATOM      6  C5  UNL d   1      -3.256   0.342  -4.149  0.00  0.00     0.062 A 
ATOM      7  F   UNL d   1      -2.366  -0.343  -4.882  0.00  0.00    -0.097 F 
ATOM      8  F1  UNL d   1      -2.787  -1.031  -2.296  0.00  0.00    -0.096 F 
ATOM      9  I   UNL d   1      -4.733   0.179  -0.063  0.00  0.00    -0.060 I 
ATOM     10  F2  UNL d   1      -5.997   2.459  -1.920  0.00  0.00    -0.096 F 
ATOM     11  F3  UNL d   1      -5.554   3.123  -4.508  0.00  0.00    -0.097 F 
ATOM     12  F4  UNL d   1      -3.742   1.731  -5.998  0.00  0.00    -0.092 F 
ENDROOT
TORSDOF 0
ENDMDL
