MODEL 1
REMARK minimizedAffinity 6.26623678
REMARK minimizedRMSD -1
REMARK  0 active torsions:
REMARK  status: ('A' for Active; 'I' for Inactive)
ROOT
ATOM      1  C   UNL d   1      -2.655   2.586  -3.155  0.00  0.00     0.124 A 
ATOM      2  C1  UNL d   1      -3.791   3.130  -3.738  0.00  0.00     0.062 A 
ATOM      3  C2  UNL d   1      -4.747   2.300  -4.315  0.00  0.00     0.162 A 
ATOM      4  C3  UNL d   1      -4.572   0.916  -4.312  0.00  0.00    -0.034 A 
ATOM      5  C4  UNL d   1      -3.427   0.377  -3.724  0.00  0.00     0.162 A 
ATOM      6  C5  UNL d   1      -2.474   1.211  -3.148  0.00  0.00     0.062 A 
ATOM      7  F   UNL d   1      -1.377   0.683  -2.585  0.00  0.00    -0.097 F 
ATOM      8  F1  UNL d   1      -3.227  -0.950  -3.703  0.00  0.00    -0.096 F 
ATOM      9  I   UNL d   1      -6.000  -0.329  -5.174  0.00  0.00    -0.060 I 
ATOM     10  F2  UNL d   1      -5.835   2.853  -4.872  0.00  0.00    -0.096 F 
ATOM     11  F3  UNL d   1      -3.968   4.459  -3.746  0.00  0.00    -0.097 F 
ATOM     12  F4  UNL d   1      -1.736   3.388  -2.601  0.00  0.00    -0.092 F 
ENDROOT
TORSDOF 0
ENDMDL
