MODEL 1
REMARK minimizedAffinity 10.6978741
REMARK minimizedRMSD -1
REMARK  0 active torsions:
REMARK  status: ('A' for Active; 'I' for Inactive)
ROOT
ATOM      1  C   UNL d   1       1.630   1.464   2.537  0.00  0.00     0.124 A 
ATOM      2  C1  UNL d   1       2.607   1.899   3.422  0.00  0.00     0.062 A 
ATOM      3  C2  UNL d   1       3.856   2.293   2.949  0.00  0.00     0.162 A 
ATOM      4  C3  UNL d   1       4.134   2.256   1.582  0.00  0.00    -0.034 A 
ATOM      5  C4  UNL d   1       3.146   1.817   0.699  0.00  0.00     0.162 A 
ATOM      6  C5  UNL d   1       1.901   1.424   1.177  0.00  0.00     0.062 A 
ATOM      7  F   UNL d   1       0.958   1.004   0.320  0.00  0.00    -0.097 F 
ATOM      8  F1  UNL d   1       3.380   1.769  -0.621  0.00  0.00    -0.096 F 
ATOM      9  I   UNL d   1       5.999   2.845   0.870  0.00  0.00    -0.060 I 
ATOM     10  F2  UNL d   1       4.781   2.708   3.827  0.00  0.00    -0.096 F 
ATOM     11  F3  UNL d   1       2.349   1.938   4.738  0.00  0.00    -0.097 F 
ATOM     12  F4  UNL d   1       0.431   1.085   2.996  0.00  0.00    -0.092 F 
ENDROOT
TORSDOF 0
ENDMDL
