MODEL 1
REMARK minimizedAffinity 15.2556076
REMARK minimizedRMSD -1
REMARK  0 active torsions:
REMARK  status: ('A' for Active; 'I' for Inactive)
ROOT
ATOM      1  C   UNL d   1       3.190  -0.722  -1.329  0.00  0.00     0.124 A 
ATOM      2  C1  UNL d   1       2.146  -0.929  -0.438  0.00  0.00     0.062 A 
ATOM      3  C2  UNL d   1       1.697   0.113   0.368  0.00  0.00     0.162 A 
ATOM      4  C3  UNL d   1       2.291   1.372   0.287  0.00  0.00    -0.034 A 
ATOM      5  C4  UNL d   1       3.342   1.572  -0.610  0.00  0.00     0.162 A 
ATOM      6  C5  UNL d   1       3.787   0.528  -1.414  0.00  0.00     0.062 A 
ATOM      7  F   UNL d   1       4.797   0.729  -2.273  0.00  0.00    -0.097 F 
ATOM      8  F1  UNL d   1       3.936   2.770  -0.714  0.00  0.00    -0.096 F 
ATOM      9  I   UNL d   1       1.623   2.933   1.491  0.00  0.00    -0.060 I 
ATOM     10  F2  UNL d   1       0.685  -0.115   1.219  0.00  0.00    -0.096 F 
ATOM     11  F3  UNL d   1       1.568  -2.136  -0.354  0.00  0.00    -0.097 F 
ATOM     12  F4  UNL d   1       3.621  -1.727  -2.103  0.00  0.00    -0.092 F 
ENDROOT
TORSDOF 0
ENDMDL
