MODEL 1
REMARK minimizedAffinity 27.9238644
REMARK minimizedRMSD -1
REMARK  0 active torsions:
REMARK  status: ('A' for Active; 'I' for Inactive)
ROOT
ATOM      1  C   UNL d   1       2.256  -0.250  -1.098  0.00  0.00     0.124 A 
ATOM      2  C1  UNL d   1       3.104  -0.183  -2.194  0.00  0.00     0.062 A 
ATOM      3  C2  UNL d   1       4.174   0.708  -2.198  0.00  0.00     0.162 A 
ATOM      4  C3  UNL d   1       4.402   1.539  -1.101  0.00  0.00    -0.034 A 
ATOM      5  C4  UNL d   1       3.544   1.466  -0.002  0.00  0.00     0.162 A 
ATOM      6  C5  UNL d   1       2.476   0.574  -0.003  0.00  0.00     0.062 A 
ATOM      7  F   UNL d   1       1.658   0.510   1.057  0.00  0.00    -0.097 F 
ATOM      8  F1  UNL d   1       3.734   2.250   1.069  0.00  0.00    -0.096 F 
ATOM      9  I   UNL d   1       6.000   2.872  -1.103  0.00  0.00    -0.060 I 
ATOM     10  F2  UNL d   1       4.977   0.752  -3.271  0.00  0.00    -0.096 F 
ATOM     11  F3  UNL d   1       2.893  -0.977  -3.253  0.00  0.00    -0.097 F 
ATOM     12  F4  UNL d   1       1.227  -1.107  -1.097  0.00  0.00    -0.092 F 
ENDROOT
TORSDOF 0
ENDMDL
