MODEL 1
REMARK minimizedAffinity 12.2273865
REMARK minimizedRMSD -1
REMARK  0 active torsions:
REMARK  status: ('A' for Active; 'I' for Inactive)
ROOT
ATOM      1  C   UNL d   1      -5.637   0.630  -0.725  0.00  0.00     0.124 A 
ATOM      2  C1  UNL d   1      -5.637   1.750  -1.545  0.00  0.00     0.062 A 
ATOM      3  C2  UNL d   1      -5.259   1.640  -2.880  0.00  0.00     0.162 A 
ATOM      4  C3  UNL d   1      -4.880   0.404  -3.405  0.00  0.00    -0.034 A 
ATOM      5  C4  UNL d   1      -4.882  -0.718  -2.574  0.00  0.00     0.162 A 
ATOM      6  C5  UNL d   1      -5.260  -0.602  -1.240  0.00  0.00     0.062 A 
ATOM      7  F   UNL d   1      -5.259  -1.686  -0.450  0.00  0.00    -0.097 F 
ATOM      8  F1  UNL d   1      -4.522  -1.921  -3.046  0.00  0.00    -0.096 F 
ATOM      9  I   UNL d   1      -4.314   0.236  -5.401  0.00  0.00    -0.060 I 
ATOM     10  F2  UNL d   1      -5.268   2.739  -3.649  0.00  0.00    -0.096 F 
ATOM     11  F3  UNL d   1      -6.000   2.942  -1.050  0.00  0.00    -0.097 F 
ATOM     12  F4  UNL d   1      -6.000   0.739   0.559  0.00  0.00    -0.092 F 
ENDROOT
TORSDOF 0
ENDMDL
