MODEL 1
REMARK minimizedAffinity -3.00396752
REMARK minimizedRMSD -1
REMARK  0 active torsions:
REMARK  status: ('A' for Active; 'I' for Inactive)
ROOT
ATOM      1  C   UNL d   1      -1.360   0.272   2.536  0.00  0.00     0.078 C 
ATOM      2  C1  UNL d   1      -0.752  -0.247   1.267  0.00  0.00    -0.077 A 
ATOM      3  C2  UNL d   1      -1.550  -0.557   0.159  0.00  0.00    -0.001 A 
ATOM      4  C3  UNL d   1      -0.971  -1.049  -1.012  0.00  0.00     0.003 A 
ATOM      5  C4  UNL d   1       0.408  -1.236  -1.086  0.00  0.00    -0.005 A 
ATOM      6  C5  UNL d   1       1.209  -0.932   0.012  0.00  0.00     0.003 A 
ATOM      7  C6  UNL d   1       0.633  -0.440   1.184  0.00  0.00    -0.001 A 
ENDROOT
TORSDOF 0
ENDMDL
