MODEL 1
REMARK minimizedAffinity -4.53540182
REMARK minimizedRMSD -1
REMARK  0 active torsions:
REMARK  status: ('A' for Active; 'I' for Inactive)
ROOT
ATOM      1  C   UNL d   1       1.587   0.024   5.100  0.00  0.00     0.078 C 
ATOM      2  C1  UNL d   1       0.551   0.058   4.016  0.00  0.00    -0.077 A 
ATOM      3  C2  UNL d   1      -0.072  -1.116   3.577  0.00  0.00    -0.001 A 
ATOM      4  C3  UNL d   1      -1.027  -1.071   2.560  0.00  0.00     0.003 A 
ATOM      5  C4  UNL d   1      -1.368   0.146   1.974  0.00  0.00    -0.005 A 
ATOM      6  C5  UNL d   1      -0.752   1.320   2.403  0.00  0.00     0.003 A 
ATOM      7  C6  UNL d   1       0.204   1.277   3.419  0.00  0.00    -0.001 A 
ENDROOT
TORSDOF 0
ENDMDL
