MODEL 1
REMARK minimizedAffinity 2.38955188
REMARK minimizedRMSD -1
REMARK  0 active torsions:
REMARK  status: ('A' for Active; 'I' for Inactive)
ROOT
ATOM      1  C   UNL d   1       0.025   5.990   1.175  0.00  0.00     0.078 C 
ATOM      2  C1  UNL d   1       1.518   5.997   1.035  0.00  0.00    -0.077 A 
ATOM      3  C2  UNL d   1       2.124   5.999  -0.228  0.00  0.00    -0.001 A 
ATOM      4  C3  UNL d   1       3.515   5.997  -0.344  0.00  0.00     0.003 A 
ATOM      5  C4  UNL d   1       4.312   5.991   0.799  0.00  0.00    -0.005 A 
ATOM      6  C5  UNL d   1       3.719   5.986   2.059  0.00  0.00     0.003 A 
ATOM      7  C6  UNL d   1       2.328   5.989   2.177  0.00  0.00    -0.001 A 
ENDROOT
TORSDOF 0
ENDMDL
