MODEL 1
REMARK minimizedAffinity 0.014717917
REMARK minimizedRMSD -1
REMARK  0 active torsions:
REMARK  status: ('A' for Active; 'I' for Inactive)
ROOT
ATOM      1  C   UNL d   1      -2.802  -0.435  -0.279  0.00  0.00     0.078 C 
ATOM      2  C1  UNL d   1      -1.661  -0.068   0.621  0.00  0.00    -0.077 A 
ATOM      3  C2  UNL d   1      -1.877   0.655   1.801  0.00  0.00    -0.001 A 
ATOM      4  C3  UNL d   1      -0.804   0.999   2.625  0.00  0.00     0.003 A 
ATOM      5  C4  UNL d   1       0.493   0.625   2.277  0.00  0.00    -0.005 A 
ATOM      6  C5  UNL d   1       0.718  -0.092   1.104  0.00  0.00     0.003 A 
ATOM      7  C6  UNL d   1      -0.354  -0.437   0.279  0.00  0.00    -0.001 A 
ENDROOT
TORSDOF 0
ENDMDL
