MODEL 1
REMARK minimizedAffinity 1.58225179
REMARK minimizedRMSD -1
REMARK  0 active torsions:
REMARK  status: ('A' for Active; 'I' for Inactive)
ROOT
ATOM      1  C   UNL d   1      -0.853   1.306   3.042  0.00  0.00     0.078 C 
ATOM      2  C1  UNL d   1      -0.472   0.436   1.881  0.00  0.00    -0.077 A 
ATOM      3  C2  UNL d   1      -1.348   0.244   0.805  0.00  0.00    -0.001 A 
ATOM      4  C3  UNL d   1      -0.984  -0.576  -0.264  0.00  0.00     0.003 A 
ATOM      5  C4  UNL d   1       0.256  -1.212  -0.267  0.00  0.00    -0.005 A 
ATOM      6  C5  UNL d   1       1.133  -1.029   0.800  0.00  0.00     0.003 A 
ATOM      7  C6  UNL d   1       0.771  -0.209   1.870  0.00  0.00    -0.001 A 
ENDROOT
TORSDOF 0
ENDMDL
