MODEL 1
REMARK minimizedAffinity 7.03607702
REMARK minimizedRMSD -1
REMARK  0 active torsions:
REMARK  status: ('A' for Active; 'I' for Inactive)
ROOT
ATOM      1  C   UNL d   1       1.807  -0.013   1.543  0.00  0.00     0.078 C 
ATOM      2  C1  UNL d   1       0.401  -0.112   1.030  0.00  0.00    -0.077 A 
ATOM      3  C2  UNL d   1      -0.542   0.884   1.314  0.00  0.00    -0.001 A 
ATOM      4  C3  UNL d   1      -1.849   0.773   0.838  0.00  0.00     0.003 A 
ATOM      5  C4  UNL d   1      -2.226  -0.331   0.077  0.00  0.00    -0.005 A 
ATOM      6  C5  UNL d   1      -1.295  -1.328  -0.209  0.00  0.00     0.003 A 
ATOM      7  C6  UNL d   1       0.013  -1.220   0.266  0.00  0.00    -0.001 A 
ENDROOT
TORSDOF 0
ENDMDL
