MODEL 1
REMARK minimizedAffinity -3.27069211
REMARK minimizedRMSD -1
REMARK  0 active torsions:
REMARK  status: ('A' for Active; 'I' for Inactive)
ROOT
ATOM      1  C   UNL d   1      -3.007  -0.818  -0.674  0.00  0.00     0.078 C 
ATOM      2  C1  UNL d   1      -1.695  -0.731   0.048  0.00  0.00    -0.077 A 
ATOM      3  C2  UNL d   1      -1.595  -0.089   1.288  0.00  0.00    -0.001 A 
ATOM      4  C3  UNL d   1      -0.366  -0.007   1.944  0.00  0.00     0.003 A 
ATOM      5  C4  UNL d   1       0.773  -0.565   1.367  0.00  0.00    -0.005 A 
ATOM      6  C5  UNL d   1       0.684  -1.205   0.132  0.00  0.00     0.003 A 
ATOM      7  C6  UNL d   1      -0.544  -1.287  -0.525  0.00  0.00    -0.001 A 
ENDROOT
TORSDOF 0
ENDMDL
