MODEL 1
REMARK minimizedAffinity 6.0712285
REMARK minimizedRMSD -1
REMARK  0 active torsions:
REMARK  status: ('A' for Active; 'I' for Inactive)
ROOT
ATOM      1  C   UNL d   1       4.281   2.139  -0.248  0.00  0.00     0.078 C 
ATOM      2  C1  UNL d   1       3.172   1.208   0.139  0.00  0.00    -0.077 A 
ATOM      3  C2  UNL d   1       2.349   0.623  -0.831  0.00  0.00    -0.001 A 
ATOM      4  C3  UNL d   1       1.314  -0.235  -0.455  0.00  0.00     0.003 A 
ATOM      5  C4  UNL d   1       1.092  -0.515   0.892  0.00  0.00    -0.005 A 
ATOM      6  C5  UNL d   1       1.904   0.064   1.865  0.00  0.00     0.003 A 
ATOM      7  C6  UNL d   1       2.940   0.922   1.491  0.00  0.00    -0.001 A 
ENDROOT
TORSDOF 0
ENDMDL
