MODEL 1
REMARK minimizedAffinity 1.57421577
REMARK minimizedRMSD -1
REMARK  0 active torsions:
REMARK  status: ('A' for Active; 'I' for Inactive)
ROOT
ATOM      1  C   UNL d   1      -1.288  -2.113  -6.000  0.00  0.00     0.078 C 
ATOM      2  C1  UNL d   1      -0.459  -1.118  -5.244  0.00  0.00    -0.077 A 
ATOM      3  C2  UNL d   1      -0.941  -0.517  -4.075  0.00  0.00    -0.001 A 
ATOM      4  C3  UNL d   1      -0.161   0.415  -3.387  0.00  0.00     0.003 A 
ATOM      5  C4  UNL d   1       1.104   0.754  -3.861  0.00  0.00    -0.005 A 
ATOM      6  C5  UNL d   1       1.592   0.163  -5.024  0.00  0.00     0.003 A 
ATOM      7  C6  UNL d   1       0.814  -0.769  -5.714  0.00  0.00    -0.001 A 
ENDROOT
TORSDOF 0
ENDMDL
