MODEL 1
REMARK minimizedAffinity 3.59328389
REMARK minimizedRMSD -1
REMARK  0 active torsions:
REMARK  status: ('A' for Active; 'I' for Inactive)
ROOT
ATOM      1  C   UNL d   1      -2.900  -0.553  -0.221  0.00  0.00     0.078 C 
ATOM      2  C1  UNL d   1      -1.448  -0.427   0.135  0.00  0.00    -0.077 A 
ATOM      3  C2  UNL d   1      -1.021   0.484   1.108  0.00  0.00    -0.001 A 
ATOM      4  C3  UNL d   1       0.335   0.597   1.422  0.00  0.00     0.003 A 
ATOM      5  C4  UNL d   1       1.273  -0.197   0.767  0.00  0.00    -0.005 A 
ATOM      6  C5  UNL d   1       0.858  -1.105  -0.205  0.00  0.00     0.003 A 
ATOM      7  C6  UNL d   1      -0.497  -1.220  -0.520  0.00  0.00    -0.001 A 
ENDROOT
TORSDOF 0
ENDMDL
