MODEL 1
REMARK minimizedAffinity -4.7975359
REMARK minimizedRMSD -1
REMARK  1 active torsions:
REMARK  status: ('A' for Active; 'I' for Inactive)
REMARK    1  A    between atoms: N_2  and  C1_3 
ROOT
ATOM      1  C1  UNL d   1       0.034  -0.512   0.598  0.00  0.00     0.143 A 
ATOM      2  C2  UNL d   1       1.122  -1.390   0.555  0.00  0.00    -0.057 A 
ATOM      3  C3  UNL d   1       1.324  -2.346   1.558  0.00  0.00     0.033 A 
ATOM      4  C4  UNL d   1       0.453  -2.421   2.640  0.00  0.00    -0.042 A 
ATOM      5  C5  UNL d   1      -0.621  -1.542   2.716  0.00  0.00     0.033 A 
ATOM      6  C6  UNL d   1      -0.820  -0.594   1.708  0.00  0.00    -0.057 A 
ENDROOT
BRANCH   1   7
ATOM      7  N   UNL d   1      -0.164   0.525  -0.317  0.00  0.00    -0.732 N 
ATOM      8  C   UNL d   1      -1.387   1.299  -0.300  0.00  0.00     0.284 C 
ATOM      9  H3  UNL d   1       0.676   1.079  -0.466  0.00  0.00     0.395 HD
ENDBRANCH   1   7
TORSDOF 1
ENDMDL
