MODEL 1
REMARK minimizedAffinity -2.02420473
REMARK minimizedRMSD -1
REMARK  1 active torsions:
REMARK  status: ('A' for Active; 'I' for Inactive)
REMARK    1  A    between atoms: N_2  and  C1_3 
ROOT
ATOM      1  C1  UNL d   1      -1.023   0.999  -0.919  0.00  0.00     0.143 A 
ATOM      2  C2  UNL d   1      -0.549   1.502  -2.135  0.00  0.00    -0.057 A 
ATOM      3  C3  UNL d   1      -1.411   2.108  -3.056  0.00  0.00     0.033 A 
ATOM      4  C4  UNL d   1      -2.773   2.196  -2.789  0.00  0.00    -0.042 A 
ATOM      5  C5  UNL d   1      -3.271   1.680  -1.598  0.00  0.00     0.033 A 
ATOM      6  C6  UNL d   1      -2.404   1.082  -0.679  0.00  0.00    -0.057 A 
ENDROOT
BRANCH   1   7
ATOM      7  N   UNL d   1      -0.233   0.297  -0.005  0.00  0.00    -0.732 N 
ATOM      8  C   UNL d   1       1.133  -0.055  -0.330  0.00  0.00     0.284 C 
ATOM      9  H3  UNL d   1      -0.362   0.622   0.950  0.00  0.00     0.395 HD
ENDBRANCH   1   7
TORSDOF 1
ENDMDL
