MODEL 1
REMARK minimizedAffinity -3.24580908
REMARK minimizedRMSD -1
REMARK  1 active torsions:
REMARK  status: ('A' for Active; 'I' for Inactive)
REMARK    1  A    between atoms: N_2  and  C1_3 
ROOT
ATOM      1  C1  UNL d   1      -1.464   1.508  -0.861  0.00  0.00     0.143 A 
ATOM      2  C2  UNL d   1      -0.950   2.367  -1.839  0.00  0.00    -0.057 A 
ATOM      3  C3  UNL d   1      -1.515   2.430  -3.119  0.00  0.00     0.033 A 
ATOM      4  C4  UNL d   1      -2.589   1.612  -3.453  0.00  0.00    -0.042 A 
ATOM      5  C5  UNL d   1      -3.100   0.733  -2.504  0.00  0.00     0.033 A 
ATOM      6  C6  UNL d   1      -2.536   0.679  -1.226  0.00  0.00    -0.057 A 
ENDROOT
BRANCH   1   7
ATOM      7  N   UNL d   1      -0.885   1.328   0.398  0.00  0.00    -0.732 N 
ATOM      8  C   UNL d   1       0.112   0.301   0.610  0.00  0.00     0.284 C 
ATOM      9  H3  UNL d   1      -0.677   2.210   0.860  0.00  0.00     0.395 HD
ENDBRANCH   1   7
TORSDOF 1
ENDMDL
