MODEL 1
REMARK minimizedAffinity -1.42842352
REMARK minimizedRMSD -1
REMARK  1 active torsions:
REMARK  status: ('A' for Active; 'I' for Inactive)
REMARK    1  A    between atoms: N_2  and  C1_3 
ROOT
ATOM      1  C1  UNL d   1      -0.357  -0.669   1.756  0.00  0.00     0.143 A 
ATOM      2  C2  UNL d   1      -0.878   0.305   0.898  0.00  0.00    -0.057 A 
ATOM      3  C3  UNL d   1      -0.211   0.667  -0.279  0.00  0.00     0.033 A 
ATOM      4  C4  UNL d   1       1.007   0.080  -0.604  0.00  0.00    -0.042 A 
ATOM      5  C5  UNL d   1       1.556  -0.872   0.247  0.00  0.00     0.033 A 
ATOM      6  C6  UNL d   1       0.882  -1.235   1.417  0.00  0.00    -0.057 A 
ENDROOT
BRANCH   1   7
ATOM      7  N   UNL d   1      -0.923  -1.001   2.990  0.00  0.00    -0.732 N 
ATOM      8  C   UNL d   1      -0.142  -1.684   3.999  0.00  0.00     0.284 C 
ATOM      9  H3  UNL d   1      -1.520  -0.263   3.355  0.00  0.00     0.395 HD
ENDBRANCH   1   7
TORSDOF 1
ENDMDL
