MODEL 1
REMARK minimizedAffinity -1.27207255
REMARK minimizedRMSD -1
REMARK  1 active torsions:
REMARK  status: ('A' for Active; 'I' for Inactive)
REMARK    1  A    between atoms: N_2  and  C1_3 
ROOT
ATOM      1  C1  UNL d   1      -0.523   0.119   0.720  0.00  0.00     0.143 A 
ATOM      2  C2  UNL d   1      -0.162   1.149  -0.154  0.00  0.00    -0.057 A 
ATOM      3  C3  UNL d   1       1.050   1.115  -0.855  0.00  0.00     0.033 A 
ATOM      4  C4  UNL d   1       1.937   0.060  -0.672  0.00  0.00    -0.042 A 
ATOM      5  C5  UNL d   1       1.611  -0.963   0.212  0.00  0.00     0.033 A 
ATOM      6  C6  UNL d   1       0.396  -0.926   0.904  0.00  0.00    -0.057 A 
ENDROOT
BRANCH   1   7
ATOM      7  N   UNL d   1      -1.667   0.143   1.521  0.00  0.00    -0.732 N 
ATOM      8  C   UNL d   1      -1.795  -0.751   2.652  0.00  0.00     0.284 C 
ATOM      9  H3  UNL d   1      -1.997   1.089   1.699  0.00  0.00     0.395 HD
ENDBRANCH   1   7
TORSDOF 1
ENDMDL
