MODEL 1
REMARK minimizedAffinity -2.79157329
REMARK minimizedRMSD -1
REMARK  1 active torsions:
REMARK  status: ('A' for Active; 'I' for Inactive)
REMARK    1  A    between atoms: N_2  and  C1_3 
ROOT
ATOM      1  C1  UNL d   1       0.088   0.477   0.364  0.00  0.00     0.143 A 
ATOM      2  C2  UNL d   1       1.339  -0.109   0.143  0.00  0.00    -0.057 A 
ATOM      3  C3  UNL d   1       1.847  -1.086   1.007  0.00  0.00     0.033 A 
ATOM      4  C4  UNL d   1       1.122  -1.475   2.129  0.00  0.00    -0.042 A 
ATOM      5  C5  UNL d   1      -0.112  -0.889   2.383  0.00  0.00     0.033 A 
ATOM      6  C6  UNL d   1      -0.617   0.082   1.512  0.00  0.00    -0.057 A 
ENDROOT
BRANCH   1   7
ATOM      7  N   UNL d   1      -0.427   1.524  -0.403  0.00  0.00    -0.732 N 
ATOM      8  C   UNL d   1      -1.243   1.252  -1.567  0.00  0.00     0.284 C 
ATOM      9  H3  UNL d   1      -0.762   2.296   0.168  0.00  0.00     0.395 HD
ENDBRANCH   1   7
TORSDOF 1
ENDMDL
