MODEL 1
REMARK minimizedAffinity -3.0768261
REMARK minimizedRMSD -1
REMARK  1 active torsions:
REMARK  status: ('A' for Active; 'I' for Inactive)
REMARK    1  A    between atoms: N_2  and  C1_3 
ROOT
ATOM      1  C1  UNL d   1       0.205   0.016   0.491  0.00  0.00     0.143 A 
ATOM      2  C2  UNL d   1       0.927  -1.005   1.117  0.00  0.00    -0.057 A 
ATOM      3  C3  UNL d   1       0.425  -1.661   2.248  0.00  0.00     0.033 A 
ATOM      4  C4  UNL d   1      -0.799  -1.286   2.790  0.00  0.00    -0.042 A 
ATOM      5  C5  UNL d   1      -1.523  -0.257   2.199  0.00  0.00     0.033 A 
ATOM      6  C6  UNL d   1      -1.019   0.390   1.066  0.00  0.00    -0.057 A 
ENDROOT
BRANCH   1   7
ATOM      7  N   UNL d   1       0.695   0.773  -0.576  0.00  0.00    -0.732 N 
ATOM      8  C   UNL d   1       2.094   1.136  -0.642  0.00  0.00     0.284 C 
ATOM      9  H3  UNL d   1       0.297   0.489  -1.469  0.00  0.00     0.395 HD
ENDBRANCH   1   7
TORSDOF 1
ENDMDL
