MODEL 1
REMARK minimizedAffinity -3.80320048
REMARK minimizedRMSD -1
REMARK  1 active torsions:
REMARK  status: ('A' for Active; 'I' for Inactive)
REMARK    1  A    between atoms: N_2  and  C1_3 
ROOT
ATOM      1  C1  UNL d   1      -0.084  -0.691   1.307  0.00  0.00     0.143 A 
ATOM      2  C2  UNL d   1      -0.399   0.432   0.534  0.00  0.00    -0.057 A 
ATOM      3  C3  UNL d   1       0.527   0.979  -0.363  0.00  0.00     0.033 A 
ATOM      4  C4  UNL d   1       1.799   0.429  -0.481  0.00  0.00    -0.042 A 
ATOM      5  C5  UNL d   1       2.142  -0.672   0.296  0.00  0.00     0.033 A 
ATOM      6  C6  UNL d   1       1.211  -1.218   1.184  0.00  0.00    -0.057 A 
ENDROOT
BRANCH   1   7
ATOM      7  N   UNL d   1      -0.926  -1.221   2.287  0.00  0.00    -0.732 N 
ATOM      8  C   UNL d   1      -0.379  -1.780   3.505  0.00  0.00     0.284 C 
ATOM      9  H3  UNL d   1      -1.762  -0.659   2.427  0.00  0.00     0.395 HD
ENDBRANCH   1   7
TORSDOF 1
ENDMDL
