MODEL 1
REMARK minimizedAffinity -1.92837834
REMARK minimizedRMSD -1
REMARK  1 active torsions:
REMARK  status: ('A' for Active; 'I' for Inactive)
REMARK    1  A    between atoms: N_2  and  C1_3 
ROOT
ATOM      1  C1  UNL d   1      -0.001   0.791  -0.483  0.00  0.00     0.143 A 
ATOM      2  C2  UNL d   1       1.288   1.168  -0.875  0.00  0.00    -0.057 A 
ATOM      3  C3  UNL d   1       2.394   0.349  -0.617  0.00  0.00     0.033 A 
ATOM      4  C4  UNL d   1       2.233  -0.852   0.065  0.00  0.00    -0.042 A 
ATOM      5  C5  UNL d   1       0.965  -1.235   0.486  0.00  0.00     0.033 A 
ATOM      6  C6  UNL d   1      -0.137  -0.416   0.220  0.00  0.00    -0.057 A 
ENDROOT
BRANCH   1   7
ATOM      7  N   UNL d   1      -1.126   1.607  -0.623  0.00  0.00    -0.732 N 
ATOM      8  C   UNL d   1      -1.543   2.072  -1.929  0.00  0.00     0.284 C 
ATOM      9  H3  UNL d   1      -1.894   1.317  -0.021  0.00  0.00     0.395 HD
ENDBRANCH   1   7
TORSDOF 1
ENDMDL
