MODEL 1
REMARK minimizedAffinity -0.922846556
REMARK minimizedRMSD -1
REMARK  1 active torsions:
REMARK  status: ('A' for Active; 'I' for Inactive)
REMARK    1  A    between atoms: N_2  and  C1_3 
ROOT
ATOM      1  C1  UNL d   1      -0.847   1.650  -1.556  0.00  0.00     0.143 A 
ATOM      2  C2  UNL d   1      -1.289   1.101  -0.347  0.00  0.00    -0.057 A 
ATOM      3  C3  UNL d   1      -0.443   0.320   0.449  0.00  0.00     0.033 A 
ATOM      4  C4  UNL d   1       0.857   0.048   0.034  0.00  0.00    -0.042 A 
ATOM      5  C5  UNL d   1       1.310   0.563  -1.175  0.00  0.00     0.033 A 
ATOM      6  C6  UNL d   1       0.462   1.348  -1.962  0.00  0.00    -0.057 A 
ENDROOT
BRANCH   1   7
ATOM      7  N   UNL d   1      -1.670   2.353  -2.439  0.00  0.00    -0.732 N 
ATOM      8  C   UNL d   1      -3.022   1.906  -2.700  0.00  0.00     0.284 C 
ATOM      9  H3  UNL d   1      -1.578   3.361  -2.337  0.00  0.00     0.395 HD
ENDBRANCH   1   7
TORSDOF 1
ENDMDL
