MODEL 1
REMARK minimizedAffinity -4.72584486
REMARK minimizedRMSD -1
REMARK  1 active torsions:
REMARK  status: ('A' for Active; 'I' for Inactive)
REMARK    1  A    between atoms: N_2  and  C1_3 
ROOT
ATOM      1  C1  UNL d   1      -0.057   0.240   0.380  0.00  0.00     0.143 A 
ATOM      2  C2  UNL d   1       1.229  -0.133  -0.026  0.00  0.00    -0.057 A 
ATOM      3  C3  UNL d   1       1.887  -1.222   0.559  0.00  0.00     0.033 A 
ATOM      4  C4  UNL d   1       1.281  -1.941   1.583  0.00  0.00    -0.042 A 
ATOM      5  C5  UNL d   1       0.013  -1.572   2.020  0.00  0.00     0.033 A 
ATOM      6  C6  UNL d   1      -0.642  -0.489   1.427  0.00  0.00    -0.057 A 
ENDROOT
BRANCH   1   7
ATOM      7  N   UNL d   1      -0.724   1.372  -0.094  0.00  0.00    -0.732 N 
ATOM      8  C   UNL d   1      -1.197   1.431  -1.461  0.00  0.00     0.284 C 
ATOM      9  H3  UNL d   1      -1.376   1.753   0.588  0.00  0.00     0.395 HD
ENDBRANCH   1   7
TORSDOF 1
ENDMDL
