MODEL 1
REMARK minimizedAffinity -4.07858992
REMARK minimizedRMSD -1
REMARK  1 active torsions:
REMARK  status: ('A' for Active; 'I' for Inactive)
REMARK    1  A    between atoms: N_2  and  C1_3 
ROOT
ATOM      1  C1  UNL d   1      -1.193   1.475  -0.522  0.00  0.00     0.143 A 
ATOM      2  C2  UNL d   1      -2.192   1.377   0.452  0.00  0.00    -0.057 A 
ATOM      3  C3  UNL d   1      -2.101   0.447   1.495  0.00  0.00     0.033 A 
ATOM      4  C4  UNL d   1      -1.020  -0.425   1.565  0.00  0.00    -0.042 A 
ATOM      5  C5  UNL d   1      -0.027  -0.362   0.594  0.00  0.00     0.033 A 
ATOM      6  C6  UNL d   1      -0.120   0.573  -0.441  0.00  0.00    -0.057 A 
ENDROOT
BRANCH   1   7
ATOM      7  N   UNL d   1      -1.274   2.311  -1.638  0.00  0.00    -0.732 N 
ATOM      8  C   UNL d   1      -2.431   2.271  -2.506  0.00  0.00     0.284 C 
ATOM      9  H3  UNL d   1      -0.930   3.249  -1.446  0.00  0.00     0.395 HD
ENDBRANCH   1   7
TORSDOF 1
ENDMDL
