MODEL 1
REMARK minimizedAffinity -3.57878971
REMARK minimizedRMSD -1
REMARK  1 active torsions:
REMARK  status: ('A' for Active; 'I' for Inactive)
REMARK    1  A    between atoms: N_2  and  C1_3 
ROOT
ATOM      1  C1  UNL d   1      -0.889   2.914  -4.008  0.00  0.00     0.143 A 
ATOM      2  C2  UNL d   1      -0.587   2.875  -2.643  0.00  0.00    -0.057 A 
ATOM      3  C3  UNL d   1      -1.359   2.121  -1.750  0.00  0.00     0.033 A 
ATOM      4  C4  UNL d   1      -2.467   1.414  -2.205  0.00  0.00    -0.042 A 
ATOM      5  C5  UNL d   1      -2.800   1.458  -3.554  0.00  0.00     0.033 A 
ATOM      6  C6  UNL d   1      -2.022   2.207  -4.442  0.00  0.00    -0.057 A 
ENDROOT
BRANCH   1   7
ATOM      7  N   UNL d   1      -0.219   3.722  -4.930  0.00  0.00    -0.732 N 
ATOM      8  C   UNL d   1       0.345   4.991  -4.524  0.00  0.00     0.284 C 
ATOM      9  H3  UNL d   1       0.374   3.185  -5.559  0.00  0.00     0.395 HD
ENDBRANCH   1   7
TORSDOF 1
ENDMDL
