MODEL 1
REMARK minimizedAffinity -3.79107428
REMARK minimizedRMSD -1
REMARK  1 active torsions:
REMARK  status: ('A' for Active; 'I' for Inactive)
REMARK    1  A    between atoms: N_2  and  C1_3 
ROOT
ATOM      1  C1  UNL d   1      -0.028   0.383   0.160  0.00  0.00     0.143 A 
ATOM      2  C2  UNL d   1       1.147   0.144  -0.562  0.00  0.00    -0.057 A 
ATOM      3  C3  UNL d   1       2.043  -0.861  -0.179  0.00  0.00     0.033 A 
ATOM      4  C4  UNL d   1       1.793  -1.629   0.953  0.00  0.00    -0.042 A 
ATOM      5  C5  UNL d   1       0.645  -1.393   1.700  0.00  0.00     0.033 A 
ATOM      6  C6  UNL d   1      -0.250  -0.392   1.309  0.00  0.00    -0.057 A 
ENDROOT
BRANCH   1   7
ATOM      7  N   UNL d   1      -0.909   1.432  -0.113  0.00  0.00    -0.732 N 
ATOM      8  C   UNL d   1      -1.174   1.836  -1.477  0.00  0.00     0.284 C 
ATOM      9  H3  UNL d   1      -1.734   1.411   0.482  0.00  0.00     0.395 HD
ENDBRANCH   1   7
TORSDOF 1
ENDMDL
