MODEL 1
REMARK minimizedAffinity -0.704447746
REMARK minimizedRMSD -1
REMARK  1 active torsions:
REMARK  status: ('A' for Active; 'I' for Inactive)
REMARK    1  A    between atoms: N_2  and  C1_3 
ROOT
ATOM      1  C1  UNL d   1       0.105  -5.575  -5.373  0.00  0.00     0.143 A 
ATOM      2  C2  UNL d   1      -1.076  -6.000  -5.991  0.00  0.00    -0.057 A 
ATOM      3  C3  UNL d   1      -2.298  -5.987  -5.308  0.00  0.00     0.033 A 
ATOM      4  C4  UNL d   1      -2.356  -5.574  -3.981  0.00  0.00    -0.042 A 
ATOM      5  C5  UNL d   1      -1.191  -5.171  -3.339  0.00  0.00     0.033 A 
ATOM      6  C6  UNL d   1       0.025  -5.180  -4.028  0.00  0.00    -0.057 A 
ENDROOT
BRANCH   1   7
ATOM      7  N   UNL d   1       1.367  -5.658  -5.967  0.00  0.00    -0.732 N 
ATOM      8  C   UNL d   1       2.245  -4.508  -5.994  0.00  0.00     0.284 C 
ATOM      9  H3  UNL d   1       1.837  -6.535  -5.758  0.00  0.00     0.395 HD
ENDBRANCH   1   7
TORSDOF 1
ENDMDL
