MODEL 1
REMARK minimizedAffinity 1.84760487
REMARK minimizedRMSD -1
REMARK  1 active torsions:
REMARK  status: ('A' for Active; 'I' for Inactive)
REMARK    1  A    between atoms: N_2  and  C1_3 
ROOT
ATOM      1  C1  UNL d   1      -0.233  -0.532   1.345  0.00  0.00     0.143 A 
ATOM      2  C2  UNL d   1       0.016   0.214   0.188  0.00  0.00    -0.057 A 
ATOM      3  C3  UNL d   1       1.269   0.188  -0.437  0.00  0.00     0.033 A 
ATOM      4  C4  UNL d   1       2.306  -0.565   0.102  0.00  0.00    -0.042 A 
ATOM      5  C5  UNL d   1       2.089  -1.295   1.265  0.00  0.00     0.033 A 
ATOM      6  C6  UNL d   1       0.834  -1.270   1.881  0.00  0.00    -0.057 A 
ENDROOT
BRANCH   1   7
ATOM      7  N   UNL d   1      -1.427  -0.470   2.068  0.00  0.00    -0.732 N 
ATOM      8  C   UNL d   1      -1.669  -1.378   3.169  0.00  0.00     0.284 C 
ATOM      9  H3  UNL d   1      -1.725   0.487   2.245  0.00  0.00     0.395 HD
ENDBRANCH   1   7
TORSDOF 1
ENDMDL
