MODEL 1
REMARK minimizedAffinity -1.69641399
REMARK minimizedRMSD -1
REMARK  1 active torsions:
REMARK  status: ('A' for Active; 'I' for Inactive)
REMARK    1  A    between atoms: N_2  and  C1_3 
ROOT
ATOM      1  C1  UNL d   1      -0.361  -0.102   0.586  0.00  0.00     0.143 A 
ATOM      2  C2  UNL d   1       0.335   0.929  -0.054  0.00  0.00    -0.057 A 
ATOM      3  C3  UNL d   1       1.718   0.853  -0.260  0.00  0.00     0.033 A 
ATOM      4  C4  UNL d   1       2.436  -0.246   0.200  0.00  0.00    -0.042 A 
ATOM      5  C5  UNL d   1       1.769  -1.271   0.862  0.00  0.00     0.033 A 
ATOM      6  C6  UNL d   1       0.387  -1.192   1.058  0.00  0.00    -0.057 A 
ENDROOT
BRANCH   1   7
ATOM      7  N   UNL d   1      -1.719  -0.041   0.908  0.00  0.00    -0.732 N 
ATOM      8  C   UNL d   1      -2.727  -0.144  -0.126  0.00  0.00     0.284 C 
ATOM      9  H3  UNL d   1      -1.941  -0.556   1.757  0.00  0.00     0.395 HD
ENDBRANCH   1   7
TORSDOF 1
ENDMDL
