MODEL 1
REMARK minimizedAffinity 4.69351912
REMARK minimizedRMSD -1
REMARK  1 active torsions:
REMARK  status: ('A' for Active; 'I' for Inactive)
REMARK    1  A    between atoms: C3_4  and  O_7 
ROOT
ATOM      1  C   UNL d   1       0.041   3.701   0.712  0.00  0.00    -0.033 A 
ATOM      2  C1  UNL d   1      -0.631   4.464  -0.245  0.00  0.00     0.039 A 
ATOM      3  C2  UNL d   1       0.091   5.243  -1.151  0.00  0.00    -0.080 A 
ATOM      4  C3  UNL d   1       1.482   5.251  -1.090  0.00  0.00     0.150 A 
ATOM      5  C4  UNL d   1       2.157   4.491  -0.141  0.00  0.00    -0.007 A 
ATOM      6  C5  UNL d   1       1.435   3.714   0.764  0.00  0.00     0.039 A 
ENDROOT
BRANCH   4   7
ATOM      7  O   UNL d   1       2.229   6.000  -1.950  0.00  0.00    -0.526 OA
ATOM      8  H5  UNL d   1       1.626   6.495  -2.530  0.00  0.00     0.418 HD
ENDBRANCH   4   7
TORSDOF 1
ENDMDL
