MODEL 1
REMARK minimizedAffinity -1.49040031
REMARK minimizedRMSD -1
REMARK  1 active torsions:
REMARK  status: ('A' for Active; 'I' for Inactive)
REMARK    1  A    between atoms: C3_4  and  O_7 
ROOT
ATOM      1  C   UNL d   1      -0.799  -4.049  -2.951  0.00  0.00    -0.033 A 
ATOM      2  C1  UNL d   1      -0.034  -3.730  -1.828  0.00  0.00     0.039 A 
ATOM      3  C2  UNL d   1       0.429  -2.425  -1.644  0.00  0.00    -0.080 A 
ATOM      4  C3  UNL d   1       0.119  -1.451  -2.589  0.00  0.00     0.150 A 
ATOM      5  C4  UNL d   1      -0.646  -1.762  -3.709  0.00  0.00    -0.007 A 
ATOM      6  C5  UNL d   1      -1.107  -3.065  -3.891  0.00  0.00     0.039 A 
ENDROOT
BRANCH   4   7
ATOM      7  O   UNL d   1       0.553  -0.166  -2.456  0.00  0.00    -0.526 OA
ATOM      8  H5  UNL d   1       1.094  -0.105  -1.651  0.00  0.00     0.418 HD
ENDBRANCH   4   7
TORSDOF 1
ENDMDL
