MODEL 1
REMARK minimizedAffinity 3.81234694
REMARK minimizedRMSD -1
REMARK  1 active torsions:
REMARK  status: ('A' for Active; 'I' for Inactive)
REMARK    1  A    between atoms: C3_4  and  O_7 
ROOT
ATOM      1  C   UNL d   1       0.762   5.947  -1.030  0.00  0.00    -0.033 A 
ATOM      2  C1  UNL d   1      -0.389   5.187  -0.814  0.00  0.00     0.039 A 
ATOM      3  C2  UNL d   1      -0.299   3.947  -0.178  0.00  0.00    -0.080 A 
ATOM      4  C3  UNL d   1       0.945   3.480   0.237  0.00  0.00     0.150 A 
ATOM      5  C4  UNL d   1       2.095   4.234   0.028  0.00  0.00    -0.007 A 
ATOM      6  C5  UNL d   1       2.004   5.472  -0.608  0.00  0.00     0.039 A 
ENDROOT
BRANCH   4   7
ATOM      7  O   UNL d   1       1.083   2.274   0.857  0.00  0.00    -0.526 OA
ATOM      8  H5  UNL d   1       0.209   1.853   0.907  0.00  0.00     0.418 HD
ENDBRANCH   4   7
TORSDOF 1
ENDMDL
