MODEL 1
REMARK minimizedAffinity 0.832945526
REMARK minimizedRMSD -1
REMARK  1 active torsions:
REMARK  status: ('A' for Active; 'I' for Inactive)
REMARK    1  A    between atoms: C3_4  and  O_7 
ROOT
ATOM      1  C   UNL d   1       4.310  -3.756  -0.660  0.00  0.00    -0.033 A 
ATOM      2  C1  UNL d   1       5.097  -2.898  -1.431  0.00  0.00     0.039 A 
ATOM      3  C2  UNL d   1       5.648  -3.345  -2.633  0.00  0.00    -0.080 A 
ATOM      4  C3  UNL d   1       5.405  -4.650  -3.053  0.00  0.00     0.150 A 
ATOM      5  C4  UNL d   1       4.619  -5.509  -2.291  0.00  0.00    -0.007 A 
ATOM      6  C5  UNL d   1       4.071  -5.061  -1.090  0.00  0.00     0.039 A 
ENDROOT
BRANCH   4   7
ATOM      7  O   UNL d   1       5.926  -5.133  -4.217  0.00  0.00    -0.526 OA
ATOM      8  H5  UNL d   1       6.470  -4.438  -4.622  0.00  0.00     0.418 HD
ENDBRANCH   4   7
TORSDOF 1
ENDMDL
