MODEL 1
REMARK minimizedAffinity 2.25078273
REMARK minimizedRMSD -1
REMARK  1 active torsions:
REMARK  status: ('A' for Active; 'I' for Inactive)
REMARK    1  A    between atoms: C3_4  and  O_7 
ROOT
ATOM      1  C   UNL d   1       1.420   0.079   0.819  0.00  0.00    -0.033 A 
ATOM      2  C1  UNL d   1       1.735  -1.162   0.261  0.00  0.00     0.039 A 
ATOM      3  C2  UNL d   1       1.439  -1.422  -1.079  0.00  0.00    -0.080 A 
ATOM      4  C3  UNL d   1       0.830  -0.435  -1.848  0.00  0.00     0.150 A 
ATOM      5  C4  UNL d   1       0.517   0.804  -1.300  0.00  0.00    -0.007 A 
ATOM      6  C5  UNL d   1       0.813   1.062   0.038  0.00  0.00     0.039 A 
ENDROOT
BRANCH   4   7
ATOM      7  O   UNL d   1       0.517  -0.645  -3.159  0.00  0.00    -0.526 OA
ATOM      8  H5  UNL d   1       0.765  -1.555  -3.392  0.00  0.00     0.418 HD
ENDBRANCH   4   7
TORSDOF 1
ENDMDL
