MODEL 1
REMARK minimizedAffinity 7.255898
REMARK minimizedRMSD -1
REMARK  1 active torsions:
REMARK  status: ('A' for Active; 'I' for Inactive)
REMARK    1  A    between atoms: C3_4  and  O_7 
ROOT
ATOM      1  C   UNL d   1       0.849  -0.104   1.233  0.00  0.00    -0.033 A 
ATOM      2  C1  UNL d   1       1.690  -0.917   0.471  0.00  0.00     0.039 A 
ATOM      3  C2  UNL d   1       1.824  -0.695  -0.901  0.00  0.00    -0.080 A 
ATOM      4  C3  UNL d   1       1.113   0.343  -1.498  0.00  0.00     0.150 A 
ATOM      5  C4  UNL d   1       0.276   1.160  -0.744  0.00  0.00    -0.007 A 
ATOM      6  C5  UNL d   1       0.144   0.935   0.626  0.00  0.00     0.039 A 
ENDROOT
BRANCH   4   7
ATOM      7  O   UNL d   1       1.207   0.596  -2.834  0.00  0.00    -0.526 OA
ATOM      8  H5  UNL d   1       1.798  -0.066  -3.231  0.00  0.00     0.418 HD
ENDBRANCH   4   7
TORSDOF 1
ENDMDL
