MODEL 1
REMARK minimizedAffinity -4.36336565
REMARK minimizedRMSD -1
REMARK  0 active torsions:
REMARK  status: ('A' for Active; 'I' for Inactive)
ROOT
ATOM      1  C   UNL d   1       1.979  -1.360   0.484  0.00  0.00    -0.002 A 
ATOM      2  C1  UNL d   1       0.868  -1.886   1.129  0.00  0.00     0.010 A 
ATOM      3  C2  UNL d   1      -0.393  -1.313   0.951  0.00  0.00     0.041 A 
ATOM      4  C3  UNL d   1      -0.520  -0.194   0.105  0.00  0.00    -0.075 A 
ATOM      5  S   UNL d   1      -1.965   0.672  -0.263  0.00  0.00     0.015 SA
ATOM      6  C4  UNL d   1      -1.142   1.760  -1.285  0.00  0.00     0.022 A 
ATOM      7  C5  UNL d   1       0.203   1.484  -1.354  0.00  0.00     0.026 A 
ATOM      8  C6  UNL d   1       0.584   0.353  -0.555  0.00  0.00    -0.082 A 
ATOM      9  C7  UNL d   1       1.849  -0.250  -0.354  0.00  0.00     0.045 A 
ENDROOT
TORSDOF 0
ENDMDL
