MODEL 1
REMARK minimizedAffinity -2.5028491
REMARK minimizedRMSD -1
REMARK  0 active torsions:
REMARK  status: ('A' for Active; 'I' for Inactive)
ROOT
ATOM      1  C   UNL d   1       2.229  -1.057   0.808  0.00  0.00    -0.002 A 
ATOM      2  C1  UNL d   1       1.157  -1.819   1.253  0.00  0.00     0.010 A 
ATOM      3  C2  UNL d   1      -0.152  -1.460   0.927  0.00  0.00     0.041 A 
ATOM      4  C3  UNL d   1      -0.369  -0.314   0.137  0.00  0.00    -0.075 A 
ATOM      5  S   UNL d   1      -1.886   0.315  -0.387  0.00  0.00     0.015 SA
ATOM      6  C4  UNL d   1      -1.147   1.609  -1.214  0.00  0.00     0.022 A 
ATOM      7  C5  UNL d   1       0.223   1.577  -1.104  0.00  0.00     0.026 A 
ATOM      8  C6  UNL d   1       0.694   0.468  -0.323  0.00  0.00    -0.082 A 
ATOM      9  C7  UNL d   1       2.010   0.079   0.025  0.00  0.00     0.045 A 
ENDROOT
TORSDOF 0
ENDMDL
