MODEL 1
REMARK minimizedAffinity 0.177424744
REMARK minimizedRMSD -1
REMARK  0 active torsions:
REMARK  status: ('A' for Active; 'I' for Inactive)
ROOT
ATOM      1  C   UNL d   1       1.711  -2.610   0.751  0.00  0.00    -0.002 A 
ATOM      2  C1  UNL d   1       0.458  -2.975   1.222  0.00  0.00     0.010 A 
ATOM      3  C2  UNL d   1      -0.646  -2.143   1.022  0.00  0.00     0.041 A 
ATOM      4  C3  UNL d   1      -0.467  -0.927   0.332  0.00  0.00    -0.075 A 
ATOM      5  S   UNL d   1      -1.674   0.250  -0.030  0.00  0.00     0.015 SA
ATOM      6  C4  UNL d   1      -0.554   1.264  -0.819  0.00  0.00     0.022 A 
ATOM      7  C5  UNL d   1       0.714   0.733  -0.815  0.00  0.00     0.026 A 
ATOM      8  C6  UNL d   1       0.785  -0.538  -0.152  0.00  0.00    -0.082 A 
ATOM      9  C7  UNL d   1       1.885  -1.403   0.068  0.00  0.00     0.045 A 
ENDROOT
TORSDOF 0
ENDMDL
