MODEL 1
REMARK minimizedAffinity -0.36088407
REMARK minimizedRMSD -1
REMARK  0 active torsions:
REMARK  status: ('A' for Active; 'I' for Inactive)
ROOT
ATOM      1  C   UNL d   1      -1.714   1.116   0.657  0.00  0.00    -0.002 A 
ATOM      2  C1  UNL d   1      -1.831   0.116   1.612  0.00  0.00     0.010 A 
ATOM      3  C2  UNL d   1      -0.846  -0.865   1.738  0.00  0.00     0.041 A 
ATOM      4  C3  UNL d   1       0.272  -0.822   0.882  0.00  0.00    -0.075 A 
ATOM      5  S   UNL d   1       1.603  -1.918   0.855  0.00  0.00     0.015 SA
ATOM      6  C4  UNL d   1       2.360  -1.084  -0.424  0.00  0.00     0.022 A 
ATOM      7  C5  UNL d   1       1.628   0.006  -0.834  0.00  0.00     0.026 A 
ATOM      8  C6  UNL d   1       0.413   0.175  -0.087  0.00  0.00    -0.082 A 
ATOM      9  C7  UNL d   1      -0.604   1.155  -0.191  0.00  0.00     0.045 A 
ENDROOT
TORSDOF 0
ENDMDL
