MODEL 1
REMARK minimizedAffinity -3.53422523
REMARK minimizedRMSD -1
REMARK  0 active torsions:
REMARK  status: ('A' for Active; 'I' for Inactive)
ROOT
ATOM      1  C   UNL d   1       2.320  -1.684  -0.241  0.00  0.00    -0.002 A 
ATOM      2  C1  UNL d   1       1.505  -2.047   0.822  0.00  0.00     0.010 A 
ATOM      3  C2  UNL d   1       0.364  -1.302   1.128  0.00  0.00     0.041 A 
ATOM      4  C3  UNL d   1       0.053  -0.176   0.340  0.00  0.00    -0.075 A 
ATOM      5  S   UNL d   1      -1.293   0.885   0.529  0.00  0.00     0.015 SA
ATOM      6  C4  UNL d   1      -0.818   1.844  -0.797  0.00  0.00     0.022 A 
ATOM      7  C5  UNL d   1       0.337   1.380  -1.381  0.00  0.00     0.026 A 
ATOM      8  C6  UNL d   1       0.858   0.208  -0.736  0.00  0.00    -0.082 A 
ATOM      9  C7  UNL d   1       2.008  -0.567  -1.021  0.00  0.00     0.045 A 
ENDROOT
TORSDOF 0
ENDMDL
