MODEL 1
REMARK minimizedAffinity -3.44976997
REMARK minimizedRMSD -1
REMARK  0 active torsions:
REMARK  status: ('A' for Active; 'I' for Inactive)
ROOT
ATOM      1  C   UNL d   1       2.316  -2.085   0.442  0.00  0.00    -0.002 A 
ATOM      2  C1  UNL d   1       2.669  -1.099  -0.469  0.00  0.00     0.010 A 
ATOM      3  C2  UNL d   1       1.803  -0.038  -0.738  0.00  0.00     0.041 A 
ATOM      4  C3  UNL d   1       0.565   0.018  -0.068  0.00  0.00    -0.075 A 
ATOM      5  S   UNL d   1      -0.656   1.224  -0.237  0.00  0.00     0.015 SA
ATOM      6  C4  UNL d   1      -1.673   0.460   0.897  0.00  0.00     0.022 A 
ATOM      7  C5  UNL d   1      -1.112  -0.688   1.402  0.00  0.00     0.026 A 
ATOM      8  C6  UNL d   1       0.187  -0.962   0.855  0.00  0.00    -0.082 A 
ATOM      9  C7  UNL d   1       1.087  -2.026   1.105  0.00  0.00     0.045 A 
ENDROOT
TORSDOF 0
ENDMDL
