MODEL 1
REMARK minimizedAffinity 5.67729092
REMARK minimizedRMSD -1
REMARK  0 active torsions:
REMARK  status: ('A' for Active; 'I' for Inactive)
ROOT
ATOM      1  C   UNL d   1      -1.373  -2.262   1.505  0.00  0.00    -0.002 A 
ATOM      2  C1  UNL d   1      -1.241  -3.010   0.343  0.00  0.00     0.010 A 
ATOM      3  C2  UNL d   1      -0.822  -2.408  -0.845  0.00  0.00     0.041 A 
ATOM      4  C3  UNL d   1      -0.533  -1.029  -0.846  0.00  0.00    -0.075 A 
ATOM      5  S   UNL d   1      -0.003  -0.079  -2.183  0.00  0.00     0.015 SA
ATOM      6  C4  UNL d   1       0.062   1.342  -1.244  0.00  0.00     0.022 A 
ATOM      7  C5  UNL d   1      -0.309   1.115   0.061  0.00  0.00     0.026 A 
ATOM      8  C6  UNL d   1      -0.658  -0.255   0.312  0.00  0.00    -0.082 A 
ATOM      9  C7  UNL d   1      -1.086  -0.894   1.500  0.00  0.00     0.045 A 
ENDROOT
TORSDOF 0
ENDMDL
