MODEL 1
REMARK minimizedAffinity -2.21191001
REMARK minimizedRMSD -1
REMARK  0 active torsions:
REMARK  status: ('A' for Active; 'I' for Inactive)
ROOT
ATOM      1  C   UNL d   1       1.598  -2.638   1.061  0.00  0.00    -0.002 A 
ATOM      2  C1  UNL d   1       2.086  -1.915  -0.018  0.00  0.00     0.010 A 
ATOM      3  C2  UNL d   1       1.423  -0.770  -0.464  0.00  0.00     0.041 A 
ATOM      4  C3  UNL d   1       0.251  -0.359   0.200  0.00  0.00    -0.075 A 
ATOM      5  S   UNL d   1      -0.727   1.012  -0.169  0.00  0.00     0.015 SA
ATOM      6  C4  UNL d   1      -1.815   0.670   1.097  0.00  0.00     0.022 A 
ATOM      7  C5  UNL d   1      -1.456  -0.459   1.795  0.00  0.00     0.026 A 
ATOM      8  C6  UNL d   1      -0.259  -1.070   1.290  0.00  0.00    -0.082 A 
ATOM      9  C7  UNL d   1       0.435  -2.227   1.718  0.00  0.00     0.045 A 
ENDROOT
TORSDOF 0
ENDMDL
