MODEL 1
REMARK minimizedAffinity -1.89266706
REMARK minimizedRMSD -1
REMARK  0 active torsions:
REMARK  status: ('A' for Active; 'I' for Inactive)
ROOT
ATOM      1  C   UNL d   1       1.991  -1.832   0.293  0.00  0.00    -0.002 A 
ATOM      2  C1  UNL d   1       1.084  -2.371   1.194  0.00  0.00     0.010 A 
ATOM      3  C2  UNL d   1      -0.162  -1.773   1.393  0.00  0.00     0.041 A 
ATOM      4  C3  UNL d   1      -0.485  -0.612   0.662  0.00  0.00    -0.075 A 
ATOM      5  S   UNL d   1      -1.951   0.291   0.740  0.00  0.00     0.015 SA
ATOM      6  C4  UNL d   1      -1.409   1.413  -0.422  0.00  0.00     0.022 A 
ATOM      7  C5  UNL d   1      -0.142   1.121  -0.869  0.00  0.00     0.026 A 
ATOM      8  C6  UNL d   1       0.412  -0.051  -0.252  0.00  0.00    -0.082 A 
ATOM      9  C7  UNL d   1       1.667  -0.681  -0.430  0.00  0.00     0.045 A 
ENDROOT
TORSDOF 0
ENDMDL
