MODEL 1
REMARK minimizedAffinity -2.96504283
REMARK minimizedRMSD -1
REMARK  0 active torsions:
REMARK  status: ('A' for Active; 'I' for Inactive)
ROOT
ATOM      1  C   UNL d   1       1.876  -0.540  -0.001  0.00  0.00    -0.002 A 
ATOM      2  C1  UNL d   1       0.913  -1.218   0.734  0.00  0.00     0.010 A 
ATOM      3  C2  UNL d   1      -0.439  -0.897   0.599  0.00  0.00     0.041 A 
ATOM      4  C3  UNL d   1      -0.811   0.123  -0.298  0.00  0.00    -0.075 A 
ATOM      5  S   UNL d   1      -2.407   0.686  -0.628  0.00  0.00     0.015 SA
ATOM      6  C4  UNL d   1      -1.849   1.837  -1.754  0.00  0.00     0.022 A 
ATOM      7  C5  UNL d   1      -0.481   1.808  -1.886  0.00  0.00     0.026 A 
ATOM      8  C6  UNL d   1       0.140   0.819  -1.050  0.00  0.00    -0.082 A 
ATOM      9  C7  UNL d   1       1.503   0.472  -0.889  0.00  0.00     0.045 A 
ENDROOT
TORSDOF 0
ENDMDL
