MODEL 1
REMARK minimizedAffinity -5.15768766
REMARK minimizedRMSD -1
REMARK  0 active torsions:
REMARK  status: ('A' for Active; 'I' for Inactive)
ROOT
ATOM      1  C4' PXY d   1      -1.084   1.783  -1.372  0.00  0.00     0.077 C 
ATOM      2  C1' PXY d   1       1.049  -2.630   1.691  0.00  0.00     0.077 C 
ATOM      3  C1  PXY d   1       0.478  -1.475   0.893  0.00  0.00    -0.082 A 
ATOM      4  C2  PXY d   1       1.055  -1.115  -0.242  0.00  0.00     0.003 A 
ATOM      5  C3  PXY d   1       0.571  -0.052  -0.960  0.00  0.00     0.003 A 
ATOM      6  C4  PXY d   1      -0.548   0.616  -0.538  0.00  0.00    -0.082 A 
ATOM      7  C5  PXY d   1      -1.148   0.249   0.613  0.00  0.00     0.003 A 
ATOM      8  C6  PXY d   1      -0.617  -0.807   1.348  0.00  0.00     0.003 A 
ENDROOT
TORSDOF 0
ENDMDL
