MODEL 1
REMARK minimizedAffinity -4.0899148
REMARK minimizedRMSD -1
REMARK  0 active torsions:
REMARK  status: ('A' for Active; 'I' for Inactive)
ROOT
ATOM      1  C4' PXY d   1      -0.247  -1.538   4.199  0.00  0.00     0.077 C 
ATOM      2  C1' PXY d   1       0.168  -0.903  -1.532  0.00  0.00     0.077 C 
ATOM      3  C1  PXY d   1       0.065  -1.081  -0.030  0.00  0.00    -0.082 A 
ATOM      4  C2  PXY d   1      -0.865  -0.425   0.644  0.00  0.00     0.003 A 
ATOM      5  C3  PXY d   1      -0.952  -0.550   2.007  0.00  0.00     0.003 A 
ATOM      6  C4  PXY d   1      -0.112  -1.396   2.680  0.00  0.00    -0.082 A 
ATOM      7  C5  PXY d   1       0.833  -2.078   1.998  0.00  0.00     0.003 A 
ATOM      8  C6  PXY d   1       0.931  -1.905   0.620  0.00  0.00     0.003 A 
ENDROOT
TORSDOF 0
ENDMDL
