MODEL 1
REMARK minimizedAffinity -3.86344862
REMARK minimizedRMSD -1
REMARK  0 active torsions:
REMARK  status: ('A' for Active; 'I' for Inactive)
ROOT
ATOM      1  C4' PXY d   1      -0.823   1.744  -0.648  0.00  0.00     0.077 C 
ATOM      2  C1' PXY d   1       1.306  -3.177   1.512  0.00  0.00     0.077 C 
ATOM      3  C1  PXY d   1       0.760  -1.883   0.943  0.00  0.00    -0.082 A 
ATOM      4  C2  PXY d   1      -0.447  -1.471   1.295  0.00  0.00     0.003 A 
ATOM      5  C3  PXY d   1      -0.969  -0.319   0.766  0.00  0.00     0.003 A 
ATOM      6  C4  PXY d   1      -0.227   0.447  -0.092  0.00  0.00    -0.082 A 
ATOM      7  C5  PXY d   1       1.010   0.040  -0.448  0.00  0.00     0.003 A 
ATOM      8  C6  PXY d   1       1.505  -1.154   0.069  0.00  0.00     0.003 A 
ENDROOT
TORSDOF 0
ENDMDL
