MODEL 1
REMARK minimizedAffinity -5.74179268
REMARK minimizedRMSD -1
REMARK  0 active torsions:
REMARK  status: ('A' for Active; 'I' for Inactive)
ROOT
ATOM      1  C4' PXY d   1      -0.790   0.782  -0.442  0.00  0.00     0.077 C 
ATOM      2  C1' PXY d   1       1.273  -3.633   2.668  0.00  0.00     0.077 C 
ATOM      3  C1  PXY d   1       0.744  -2.472   1.848  0.00  0.00    -0.082 A 
ATOM      4  C2  PXY d   1      -0.402  -1.902   2.185  0.00  0.00     0.003 A 
ATOM      5  C3  PXY d   1      -0.911  -0.873   1.436  0.00  0.00     0.003 A 
ATOM      6  C4  PXY d   1      -0.214  -0.387   0.362  0.00  0.00    -0.082 A 
ATOM      7  C5  PXY d   1       0.961  -0.956   0.019  0.00  0.00     0.003 A 
ATOM      8  C6  PXY d   1       1.440  -2.027   0.768  0.00  0.00     0.003 A 
ENDROOT
TORSDOF 0
ENDMDL
