MODEL 1
REMARK minimizedAffinity -5.13681555
REMARK minimizedRMSD -1
REMARK  0 active torsions:
REMARK  status: ('A' for Active; 'I' for Inactive)
ROOT
ATOM      1  C4' PXY d   1      -1.126   1.037  -0.304  0.00  0.00     0.077 C 
ATOM      2  C1' PXY d   1       1.428  -3.491   2.225  0.00  0.00     0.077 C 
ATOM      3  C1  PXY d   1       0.747  -2.309   1.564  0.00  0.00    -0.082 A 
ATOM      4  C2  PXY d   1       1.415  -1.573   0.691  0.00  0.00     0.003 A 
ATOM      5  C3  PXY d   1       0.824  -0.481   0.108  0.00  0.00     0.003 A 
ATOM      6  C4  PXY d   1      -0.481  -0.172   0.381  0.00  0.00    -0.082 A 
ATOM      7  C5  PXY d   1      -1.173  -0.925   1.262  0.00  0.00     0.003 A 
ATOM      8  C6  PXY d   1      -0.542  -2.004   1.874  0.00  0.00     0.003 A 
ENDROOT
TORSDOF 0
ENDMDL
