MODEL 1
REMARK minimizedAffinity -5.49442863
REMARK minimizedRMSD -1
REMARK  0 active torsions:
REMARK  status: ('A' for Active; 'I' for Inactive)
ROOT
ATOM      1  C4' PXY d   1      -1.171   1.289   0.074  0.00  0.00     0.077 C 
ATOM      2  C1' PXY d   1       1.723  -3.197   2.292  0.00  0.00     0.077 C 
ATOM      3  C1  PXY d   1       0.952  -2.025   1.715  0.00  0.00    -0.082 A 
ATOM      4  C2  PXY d   1       1.439  -1.372   0.672  0.00  0.00     0.003 A 
ATOM      5  C3  PXY d   1       0.772  -0.291   0.158  0.00  0.00     0.003 A 
ATOM      6  C4  PXY d   1      -0.433   0.094   0.683  0.00  0.00    -0.082 A 
ATOM      7  C5  PXY d   1      -0.941  -0.573   1.741  0.00  0.00     0.003 A 
ATOM      8  C6  PXY d   1      -0.228  -1.643   2.274  0.00  0.00     0.003 A 
ENDROOT
TORSDOF 0
ENDMDL
