MODEL 1
REMARK minimizedAffinity -5.26990366
REMARK minimizedRMSD -1
REMARK  0 active torsions:
REMARK  status: ('A' for Active; 'I' for Inactive)
ROOT
ATOM      1  C4' PXY d   1      -0.659   1.585  -0.010  0.00  0.00     0.077 C 
ATOM      2  C1' PXY d   1       1.697  -3.347   1.872  0.00  0.00     0.077 C 
ATOM      3  C1  PXY d   1       1.091  -2.049   1.375  0.00  0.00    -0.082 A 
ATOM      4  C2  PXY d   1      -0.076  -1.648   1.851  0.00  0.00     0.003 A 
ATOM      5  C3  PXY d   1      -0.654  -0.494   1.390  0.00  0.00     0.003 A 
ATOM      6  C4  PXY d   1      -0.005   0.286   0.470  0.00  0.00    -0.082 A 
ATOM      7  C5  PXY d   1       1.191  -0.111  -0.013  0.00  0.00     0.003 A 
ATOM      8  C6  PXY d   1       1.741  -1.307   0.438  0.00  0.00     0.003 A 
ENDROOT
TORSDOF 0
ENDMDL
