MODEL 1
REMARK minimizedAffinity -5.24703312
REMARK minimizedRMSD -1
REMARK  0 active torsions:
REMARK  status: ('A' for Active; 'I' for Inactive)
ROOT
ATOM      1  C4' PXY d   1      -0.857   1.386  -0.664  0.00  0.00     0.077 C 
ATOM      2  C1' PXY d   1       1.086  -2.983   2.584  0.00  0.00     0.077 C 
ATOM      3  C1  PXY d   1       0.589  -1.835   1.728  0.00  0.00    -0.082 A 
ATOM      4  C2  PXY d   1      -0.553  -1.240   2.032  0.00  0.00     0.003 A 
ATOM      5  C3  PXY d   1      -1.034  -0.221   1.251  0.00  0.00     0.003 A 
ATOM      6  C4  PXY d   1      -0.312   0.229   0.178  0.00  0.00    -0.082 A 
ATOM      7  C5  PXY d   1       0.860  -0.366  -0.133  0.00  0.00     0.003 A 
ATOM      8  C6  PXY d   1       1.310  -1.426   0.649  0.00  0.00     0.003 A 
ENDROOT
TORSDOF 0
ENDMDL
