MODEL 1
REMARK minimizedAffinity -4.33884621
REMARK minimizedRMSD -1
REMARK  0 active torsions:
REMARK  status: ('A' for Active; 'I' for Inactive)
ROOT
ATOM      1  C4' PXY d   1      -0.583   1.304  -0.612  0.00  0.00     0.077 C 
ATOM      2  C1' PXY d   1       1.448  -3.324   2.194  0.00  0.00     0.077 C 
ATOM      3  C1  PXY d   1       0.927  -2.107   1.455  0.00  0.00    -0.082 A 
ATOM      4  C2  PXY d   1      -0.250  -1.599   1.780  0.00  0.00     0.003 A 
ATOM      5  C3  PXY d   1      -0.750  -0.518   1.100  0.00  0.00     0.003 A 
ATOM      6  C4  PXY d   1      -0.014   0.081   0.114  0.00  0.00    -0.082 A 
ATOM      7  C5  PXY d   1       1.193  -0.425  -0.216  0.00  0.00     0.003 A 
ATOM      8  C6  PXY d   1       1.665  -1.548   0.458  0.00  0.00     0.003 A 
ENDROOT
TORSDOF 0
ENDMDL
