MODEL 1
REMARK minimizedAffinity -4.9454608
REMARK minimizedRMSD -1
REMARK  0 active torsions:
REMARK  status: ('A' for Active; 'I' for Inactive)
ROOT
ATOM      1  C4' PXY d   1      -0.763   1.515  -0.157  0.00  0.00     0.077 C 
ATOM      2  C1' PXY d   1       1.227  -3.521   1.867  0.00  0.00     0.077 C 
ATOM      3  C1  PXY d   1       0.717  -2.197   1.332  0.00  0.00    -0.082 A 
ATOM      4  C2  PXY d   1      -0.381  -1.664   1.844  0.00  0.00     0.003 A 
ATOM      5  C3  PXY d   1      -0.873  -0.483   1.350  0.00  0.00     0.003 A 
ATOM      6  C4  PXY d   1      -0.206   0.185   0.358  0.00  0.00    -0.082 A 
ATOM      7  C5  PXY d   1       0.920  -0.347  -0.162  0.00  0.00     0.003 A 
ATOM      8  C6  PXY d   1       1.381  -1.567   0.325  0.00  0.00     0.003 A 
ENDROOT
TORSDOF 0
ENDMDL
