MODEL 1
REMARK minimizedAffinity -5.64587355
REMARK minimizedRMSD -1
REMARK  0 active torsions:
REMARK  status: ('A' for Active; 'I' for Inactive)
ROOT
ATOM      1  C4' PXY d   1      -0.626   1.006  -0.249  0.00  0.00     0.077 C 
ATOM      2  C1' PXY d   1       1.388  -3.685   2.462  0.00  0.00     0.077 C 
ATOM      3  C1  PXY d   1       0.848  -2.458   1.754  0.00  0.00    -0.082 A 
ATOM      4  C2  PXY d   1       1.569  -1.877   0.809  0.00  0.00     0.003 A 
ATOM      5  C3  PXY d   1       1.109  -0.749   0.181  0.00  0.00     0.003 A 
ATOM      6  C4  PXY d   1      -0.125  -0.240   0.486  0.00  0.00    -0.082 A 
ATOM      7  C5  PXY d   1      -0.871  -0.832   1.441  0.00  0.00     0.003 A 
ATOM      8  C6  PXY d   1      -0.369  -1.953   2.096  0.00  0.00     0.003 A 
ENDROOT
TORSDOF 0
ENDMDL
