MODEL 1
REMARK minimizedAffinity -5.78794193
REMARK minimizedRMSD -1
REMARK  0 active torsions:
REMARK  status: ('A' for Active; 'I' for Inactive)
ROOT
ATOM      1  C4' PXY d   1       1.200  -3.009   2.408  0.00  0.00     0.077 C 
ATOM      2  C1' PXY d   1      -0.708   1.487  -0.685  0.00  0.00     0.077 C 
ATOM      3  C1  PXY d   1      -0.213   0.313   0.137  0.00  0.00    -0.082 A 
ATOM      4  C2  PXY d   1       0.860  -0.354  -0.255  0.00  0.00     0.003 A 
ATOM      5  C3  PXY d   1       1.302  -1.438   0.459  0.00  0.00     0.003 A 
ATOM      6  C4  PXY d   1       0.670  -1.811   1.615  0.00  0.00    -0.082 A 
ATOM      7  C5  PXY d   1      -0.420  -1.129   2.027  0.00  0.00     0.003 A 
ATOM      8  C6  PXY d   1      -0.877  -0.057   1.266  0.00  0.00     0.003 A 
ENDROOT
TORSDOF 0
ENDMDL
