MODEL 1
REMARK minimizedAffinity -4.85571194
REMARK minimizedRMSD -1
REMARK  0 active torsions:
REMARK  status: ('A' for Active; 'I' for Inactive)
ROOT
ATOM      1  C4' PXY d   1       2.615   0.348  -1.276  0.00  0.00     0.077 C 
ATOM      2  C1' PXY d   1      -1.100  -2.154   2.378  0.00  0.00     0.077 C 
ATOM      3  C1  PXY d   1      -0.135  -1.490   1.417  0.00  0.00    -0.082 A 
ATOM      4  C2  PXY d   1       0.900  -2.171   0.952  0.00  0.00     0.003 A 
ATOM      5  C3  PXY d   1       1.800  -1.576   0.107  0.00  0.00     0.003 A 
ATOM      6  C4  PXY d   1       1.610  -0.286  -0.310  0.00  0.00    -0.082 A 
ATOM      7  C5  PXY d   1       0.551   0.413   0.151  0.00  0.00     0.003 A 
ATOM      8  C6  PXY d   1      -0.328  -0.196   1.041  0.00  0.00     0.003 A 
ENDROOT
TORSDOF 0
ENDMDL
