MODEL 1
REMARK minimizedAffinity -5.57432985
REMARK minimizedRMSD -1
REMARK  0 active torsions:
REMARK  status: ('A' for Active; 'I' for Inactive)
ROOT
ATOM      1  C4' PXY d   1       1.656  -2.880   2.431  0.00  0.00     0.077 C 
ATOM      2  C1' PXY d   1      -0.766   1.516  -0.436  0.00  0.00     0.077 C 
ATOM      3  C1  PXY d   1      -0.138   0.366   0.327  0.00  0.00    -0.082 A 
ATOM      4  C2  PXY d   1       1.037  -0.108  -0.056  0.00  0.00     0.003 A 
ATOM      5  C3  PXY d   1       1.604  -1.168   0.603  0.00  0.00     0.003 A 
ATOM      6  C4  PXY d   1       0.989  -1.714   1.697  0.00  0.00    -0.082 A 
ATOM      7  C5  PXY d   1      -0.205  -1.229   2.100  0.00  0.00     0.003 A 
ATOM      8  C6  PXY d   1      -0.784  -0.179   1.393  0.00  0.00     0.003 A 
ENDROOT
TORSDOF 0
ENDMDL
