MODEL 1
REMARK minimizedAffinity -6.11774492
REMARK minimizedRMSD -1
REMARK  0 active torsions:
REMARK  status: ('A' for Active; 'I' for Inactive)
ROOT
ATOM      1  C4' PXY d   1      -0.883   1.259  -1.089  0.00  0.00     0.077 C 
ATOM      2  C1' PXY d   1       1.490  -3.013   1.998  0.00  0.00     0.077 C 
ATOM      3  C1  PXY d   1       0.879  -1.886   1.188  0.00  0.00    -0.082 A 
ATOM      4  C2  PXY d   1      -0.427  -1.681   1.235  0.00  0.00     0.003 A 
ATOM      5  C3  PXY d   1      -1.000  -0.687   0.485  0.00  0.00     0.003 A 
ATOM      6  C4  PXY d   1      -0.222   0.140  -0.281  0.00  0.00    -0.082 A 
ATOM      7  C5  PXY d   1       1.113  -0.057  -0.326  0.00  0.00     0.003 A 
ATOM      8  C6  PXY d   1       1.670  -1.098   0.411  0.00  0.00     0.003 A 
ENDROOT
TORSDOF 0
ENDMDL
