MODEL 1
REMARK minimizedAffinity -2.93485022
REMARK minimizedRMSD -1
REMARK  0 active torsions:
REMARK  status: ('A' for Active; 'I' for Inactive)
ROOT
ATOM      1  C4' PXY d   1      -1.236   2.484  -1.826  0.00  0.00     0.077 C 
ATOM      2  C1' PXY d   1       0.051  -1.181   2.455  0.00  0.00     0.077 C 
ATOM      3  C1  PXY d   1      -0.299  -0.220   1.336  0.00  0.00    -0.082 A 
ATOM      4  C2  PXY d   1       0.435  -0.202   0.235  0.00  0.00     0.003 A 
ATOM      5  C3  PXY d   1       0.152   0.683  -0.773  0.00  0.00     0.003 A 
ATOM      6  C4  PXY d   1      -0.925   1.523  -0.675  0.00  0.00    -0.082 A 
ATOM      7  C5  PXY d   1      -1.685   1.504   0.441  0.00  0.00     0.003 A 
ATOM      8  C6  PXY d   1      -1.356   0.626   1.470  0.00  0.00     0.003 A 
ENDROOT
TORSDOF 0
ENDMDL
