MODEL 1
REMARK minimizedAffinity -5.85892296
REMARK minimizedRMSD -1
REMARK  0 active torsions:
REMARK  status: ('A' for Active; 'I' for Inactive)
ROOT
ATOM      1  C4' PXY d   1       0.681  -2.612   2.952  0.00  0.00     0.077 C 
ATOM      2  C1' PXY d   1      -0.580   1.588  -0.815  0.00  0.00     0.077 C 
ATOM      3  C1  PXY d   1      -0.242   0.480   0.163  0.00  0.00    -0.082 A 
ATOM      4  C2  PXY d   1      -1.034   0.260   1.200  0.00  0.00     0.003 A 
ATOM      5  C3  PXY d   1      -0.727  -0.716   2.113  0.00  0.00     0.003 A 
ATOM      6  C4  PXY d   1       0.374  -1.511   1.933  0.00  0.00    -0.082 A 
ATOM      7  C5  PXY d   1       1.181  -1.299   0.871  0.00  0.00     0.003 A 
ATOM      8  C6  PXY d   1       0.873  -0.276  -0.021  0.00  0.00     0.003 A 
ENDROOT
TORSDOF 0
ENDMDL
