MODEL 1
REMARK minimizedAffinity -5.02162933
REMARK minimizedRMSD -1
REMARK  0 active torsions:
REMARK  status: ('A' for Active; 'I' for Inactive)
ROOT
ATOM      1  C4' PXY d   1       0.829  -3.161   2.170  0.00  0.00     0.077 C 
ATOM      2  C1' PXY d   1      -0.842   1.612  -0.630  0.00  0.00     0.077 C 
ATOM      3  C1  PXY d   1      -0.411   0.364   0.115  0.00  0.00    -0.082 A 
ATOM      4  C2  PXY d   1       0.741  -0.213  -0.187  0.00  0.00     0.003 A 
ATOM      5  C3  PXY d   1       1.131  -1.361   0.454  0.00  0.00     0.003 A 
ATOM      6  C4  PXY d   1       0.359  -1.894   1.451  0.00  0.00    -0.082 A 
ATOM      7  C5  PXY d   1      -0.813  -1.305   1.772  0.00  0.00     0.003 A 
ATOM      8  C6  PXY d   1      -1.210  -0.164   1.081  0.00  0.00     0.003 A 
ENDROOT
TORSDOF 0
ENDMDL
