MODEL 1
REMARK minimizedAffinity -5.27307701
REMARK minimizedRMSD -1
REMARK  0 active torsions:
REMARK  status: ('A' for Active; 'I' for Inactive)
ROOT
ATOM      1  C4' PXY d   1      -0.824   1.609  -0.509  0.00  0.00     0.077 C 
ATOM      2  C1' PXY d   1       1.351  -3.098   2.046  0.00  0.00     0.077 C 
ATOM      3  C1  PXY d   1       0.793  -1.859   1.374  0.00  0.00    -0.082 A 
ATOM      4  C2  PXY d   1      -0.431  -1.450   1.668  0.00  0.00     0.003 A 
ATOM      5  C3  PXY d   1      -0.963  -0.351   1.046  0.00  0.00     0.003 A 
ATOM      6  C4  PXY d   1      -0.216   0.369   0.152  0.00  0.00    -0.082 A 
ATOM      7  C5  PXY d   1       1.037  -0.035  -0.145  0.00  0.00     0.003 A 
ATOM      8  C6  PXY d   1       1.544  -1.178   0.467  0.00  0.00     0.003 A 
ENDROOT
TORSDOF 0
ENDMDL
