MODEL 1
REMARK minimizedAffinity -5.0097537
REMARK minimizedRMSD -1
REMARK  0 active torsions:
REMARK  status: ('A' for Active; 'I' for Inactive)
ROOT
ATOM      1  C   UNL d   1       0.644  -0.343  -1.085  0.00  0.00     0.078 C 
ATOM      2  C1  UNL d   1      -0.267   0.049   0.040  0.00  0.00    -0.077 A 
ATOM      3  C2  UNL d   1      -1.641  -0.215  -0.019  0.00  0.00    -0.001 A 
ATOM      4  C3  UNL d   1      -2.479   0.164   1.031  0.00  0.00     0.003 A 
ATOM      5  C4  UNL d   1      -1.952   0.811   2.147  0.00  0.00    -0.005 A 
ATOM      6  C5  UNL d   1      -0.587   1.081   2.214  0.00  0.00     0.003 A 
ATOM      7  C6  UNL d   1       0.252   0.702   1.165  0.00  0.00    -0.001 A 
ENDROOT
TORSDOF 0
ENDMDL
