MODEL 1
REMARK minimizedAffinity -5.67402983
REMARK minimizedRMSD -1
REMARK  0 active torsions:
REMARK  status: ('A' for Active; 'I' for Inactive)
ROOT
ATOM      1  C   UNL d   1       0.486  -0.446  -1.430  0.00  0.00     0.078 C 
ATOM      2  C1  UNL d   1      -0.156  -0.053  -0.134  0.00  0.00    -0.077 A 
ATOM      3  C2  UNL d   1      -1.535  -0.200   0.062  0.00  0.00    -0.001 A 
ATOM      4  C3  UNL d   1      -2.120   0.179   1.271  0.00  0.00     0.003 A 
ATOM      5  C4  UNL d   1      -1.335   0.709   2.293  0.00  0.00    -0.005 A 
ATOM      6  C5  UNL d   1       0.037   0.861   2.107  0.00  0.00     0.003 A 
ATOM      7  C6  UNL d   1       0.625   0.483   0.899  0.00  0.00    -0.001 A 
ENDROOT
TORSDOF 0
ENDMDL
