MODEL 1
REMARK minimizedAffinity -3.69130898
REMARK minimizedRMSD -1
REMARK  0 active torsions:
REMARK  status: ('A' for Active; 'I' for Inactive)
ROOT
ATOM      1  C   UNL d   1      -3.120  -1.105   0.098  0.00  0.00     0.078 C 
ATOM      2  C1  UNL d   1      -2.277  -0.243   0.990  0.00  0.00    -0.077 A 
ATOM      3  C2  UNL d   1      -2.586  -0.092   2.348  0.00  0.00    -0.001 A 
ATOM      4  C3  UNL d   1      -1.799   0.721   3.164  0.00  0.00     0.003 A 
ATOM      5  C4  UNL d   1      -0.698   1.390   2.633  0.00  0.00    -0.005 A 
ATOM      6  C5  UNL d   1      -0.384   1.247   1.283  0.00  0.00     0.003 A 
ATOM      7  C6  UNL d   1      -1.170   0.435   0.464  0.00  0.00    -0.001 A 
ENDROOT
TORSDOF 0
ENDMDL
