MODEL 1
REMARK minimizedAffinity -0.718127728
REMARK minimizedRMSD -1
REMARK  0 active torsions:
REMARK  status: ('A' for Active; 'I' for Inactive)
ROOT
ATOM      1  C   UNL d   1       1.375   0.874  -3.593  0.00  0.00     0.078 C 
ATOM      2  C1  UNL d   1       1.007   0.378  -2.226  0.00  0.00    -0.077 A 
ATOM      3  C2  UNL d   1       1.141   1.200  -1.100  0.00  0.00    -0.001 A 
ATOM      4  C3  UNL d   1       0.803   0.721   0.167  0.00  0.00     0.003 A 
ATOM      5  C4  UNL d   1       0.331  -0.580   0.321  0.00  0.00    -0.005 A 
ATOM      6  C5  UNL d   1       0.197  -1.406  -0.794  0.00  0.00     0.003 A 
ATOM      7  C6  UNL d   1       0.534  -0.930  -2.062  0.00  0.00    -0.001 A 
ENDROOT
TORSDOF 0
ENDMDL
