MODEL 1
REMARK minimizedAffinity -5.01955938
REMARK minimizedRMSD -1
REMARK  0 active torsions:
REMARK  status: ('A' for Active; 'I' for Inactive)
ROOT
ATOM      1  C   UNL d   1       0.580  -0.553  -1.005  0.00  0.00     0.078 C 
ATOM      2  C1  UNL d   1      -0.065  -0.101   0.271  0.00  0.00    -0.077 A 
ATOM      3  C2  UNL d   1       0.705   0.225   1.393  0.00  0.00    -0.001 A 
ATOM      4  C3  UNL d   1       0.090   0.635   2.577  0.00  0.00     0.003 A 
ATOM      5  C4  UNL d   1      -1.298   0.722   2.650  0.00  0.00    -0.005 A 
ATOM      6  C5  UNL d   1      -2.074   0.397   1.539  0.00  0.00     0.003 A 
ATOM      7  C6  UNL d   1      -1.461  -0.013   0.355  0.00  0.00    -0.001 A 
ENDROOT
TORSDOF 0
ENDMDL
