MODEL 1
REMARK minimizedAffinity -4.47604132
REMARK minimizedRMSD -1
REMARK  0 active torsions:
REMARK  status: ('A' for Active; 'I' for Inactive)
ROOT
ATOM      1  C   UNL d   1       0.381  -0.207  -0.909  0.00  0.00     0.078 C 
ATOM      2  C1  UNL d   1      -0.247   0.323   0.345  0.00  0.00    -0.077 A 
ATOM      3  C2  UNL d   1       0.470   1.154   1.215  0.00  0.00    -0.001 A 
ATOM      4  C3  UNL d   1      -0.124   1.633   2.384  0.00  0.00     0.003 A 
ATOM      5  C4  UNL d   1      -1.438   1.284   2.694  0.00  0.00    -0.005 A 
ATOM      6  C5  UNL d   1      -2.158   0.456   1.836  0.00  0.00     0.003 A 
ATOM      7  C6  UNL d   1      -1.565  -0.023   0.666  0.00  0.00    -0.001 A 
ENDROOT
TORSDOF 0
ENDMDL
