MODEL 1
REMARK minimizedAffinity -5.56426668
REMARK minimizedRMSD -1
REMARK  0 active torsions:
REMARK  status: ('A' for Active; 'I' for Inactive)
ROOT
ATOM      1  C   UNL d   1      -1.061   1.749   2.713  0.00  0.00     0.078 C 
ATOM      2  C1  UNL d   1      -0.705   0.874   1.548  0.00  0.00    -0.077 A 
ATOM      3  C2  UNL d   1       0.630   0.559   1.265  0.00  0.00    -0.001 A 
ATOM      4  C3  UNL d   1       0.947  -0.249   0.172  0.00  0.00     0.003 A 
ATOM      5  C4  UNL d   1      -0.064  -0.747  -0.648  0.00  0.00    -0.005 A 
ATOM      6  C5  UNL d   1      -1.395  -0.436  -0.375  0.00  0.00     0.003 A 
ATOM      7  C6  UNL d   1      -1.714   0.371   0.718  0.00  0.00    -0.001 A 
ENDROOT
TORSDOF 0
ENDMDL
