MODEL 1
REMARK minimizedAffinity -3.46125364
REMARK minimizedRMSD -1
REMARK  0 active torsions:
REMARK  status: ('A' for Active; 'I' for Inactive)
ROOT
ATOM      1  C   UNL d   1       0.132  -0.328  -1.137  0.00  0.00     0.078 C 
ATOM      2  C1  UNL d   1      -0.551   0.038   0.147  0.00  0.00    -0.077 A 
ATOM      3  C2  UNL d   1      -1.948   0.024   0.250  0.00  0.00    -0.001 A 
ATOM      4  C3  UNL d   1      -2.570   0.376   1.448  0.00  0.00     0.003 A 
ATOM      5  C4  UNL d   1      -1.805   0.746   2.552  0.00  0.00    -0.005 A 
ATOM      6  C5  UNL d   1      -0.415   0.765   2.459  0.00  0.00     0.003 A 
ATOM      7  C6  UNL d   1       0.210   0.413   1.261  0.00  0.00    -0.001 A 
ENDROOT
TORSDOF 0
ENDMDL
