MODEL 1
REMARK minimizedAffinity -4.70433998
REMARK minimizedRMSD -1
REMARK  0 active torsions:
REMARK  status: ('A' for Active; 'I' for Inactive)
ROOT
ATOM      1  C   UNL d   1      -2.728  -0.256  -0.109  0.00  0.00     0.078 C 
ATOM      2  C1  UNL d   1      -1.545   0.156   0.717  0.00  0.00    -0.077 A 
ATOM      3  C2  UNL d   1      -0.261   0.207   0.162  0.00  0.00    -0.001 A 
ATOM      4  C3  UNL d   1       0.832   0.583   0.944  0.00  0.00     0.003 A 
ATOM      5  C4  UNL d   1       0.652   0.908   2.287  0.00  0.00    -0.005 A 
ATOM      6  C5  UNL d   1      -0.623   0.857   2.849  0.00  0.00     0.003 A 
ATOM      7  C6  UNL d   1      -1.717   0.482   2.068  0.00  0.00    -0.001 A 
ENDROOT
TORSDOF 0
ENDMDL
