MODEL 1
REMARK minimizedAffinity -4.30586624
REMARK minimizedRMSD -1
REMARK  0 active torsions:
REMARK  status: ('A' for Active; 'I' for Inactive)
ROOT
ATOM      1  C   UNL d   1      -0.988   1.957   2.411  0.00  0.00     0.078 C 
ATOM      2  C1  UNL d   1      -0.663   1.039   1.270  0.00  0.00    -0.077 A 
ATOM      3  C2  UNL d   1       0.659   0.854   0.847  0.00  0.00    -0.001 A 
ATOM      4  C3  UNL d   1       0.946   0.005  -0.222  0.00  0.00     0.003 A 
ATOM      5  C4  UNL d   1      -0.084  -0.666  -0.879  0.00  0.00    -0.005 A 
ATOM      6  C5  UNL d   1      -1.402  -0.486  -0.467  0.00  0.00     0.003 A 
ATOM      7  C6  UNL d   1      -1.691   0.363   0.603  0.00  0.00    -0.001 A 
ENDROOT
TORSDOF 0
ENDMDL
