MODEL 1
REMARK minimizedAffinity 5.32943201
REMARK minimizedRMSD -1
REMARK  2 active torsions:
REMARK  status: ('A' for Active; 'I' for Inactive)
REMARK    1  A    between atoms: C1_2  and  C2_3 
REMARK    2  A    between atoms: C2_3  and  C3_4 
ROOT
ATOM      1  C3  UNL d   1      -5.058   1.826  -4.787  0.00  0.00    -0.075 A 
ATOM      2  C4  UNL d   1      -4.093   2.526  -4.048  0.00  0.00     0.002 A 
ATOM      3  C5  UNL d   1      -4.085   3.921  -4.035  0.00  0.00     0.002 A 
ATOM      4  C6  UNL d   1      -5.033   4.633  -4.768  0.00  0.00    -0.004 A 
ATOM      5  C7  UNL d   1      -5.986   3.948  -5.519  0.00  0.00     0.002 A 
ATOM      6  C8  UNL d   1      -5.999   2.552  -5.529  0.00  0.00     0.002 A 
ENDROOT
BRANCH   1   7
ATOM      7  C2  UNL d   1      -5.091   0.316  -4.781  0.00  0.00     0.056 C 
BRANCH   7   8
ATOM      8  C1  UNL d   1      -5.503  -0.293  -3.437  0.00  0.00     0.007 C 
ATOM      9  C   UNL d   1      -4.668  -1.505  -3.046  0.00  0.00     0.009 C 
ENDBRANCH   7   8
ENDBRANCH   1   7
TORSDOF 2
ENDMDL
