MODEL 1
REMARK minimizedAffinity 7.55227184
REMARK minimizedRMSD -1
REMARK  2 active torsions:
REMARK  status: ('A' for Active; 'I' for Inactive)
REMARK    1  A    between atoms: C1_2  and  C2_3 
REMARK    2  A    between atoms: C2_3  and  C3_4 
ROOT
ATOM      1  C3  UNL d   1       2.641  -2.859   0.448  0.00  0.00    -0.075 A 
ATOM      2  C4  UNL d   1       1.574  -2.289   1.157  0.00  0.00     0.002 A 
ATOM      3  C5  UNL d   1       1.018  -1.077   0.747  0.00  0.00     0.002 A 
ATOM      4  C6  UNL d   1       1.527  -0.416  -0.369  0.00  0.00    -0.004 A 
ATOM      5  C7  UNL d   1       2.597  -0.966  -1.072  0.00  0.00     0.002 A 
ATOM      6  C8  UNL d   1       3.153  -2.180  -0.666  0.00  0.00     0.002 A 
ENDROOT
BRANCH   1   7
ATOM      7  C2  UNL d   1       3.227  -4.185   0.870  0.00  0.00     0.056 C 
BRANCH   7   8
ATOM      8  C1  UNL d   1       4.418  -4.064   1.827  0.00  0.00     0.007 C 
ATOM      9  C   UNL d   1       4.062  -4.391   3.271  0.00  0.00     0.009 C 
ENDBRANCH   7   8
ENDBRANCH   1   7
TORSDOF 2
ENDMDL
