MODEL 1
REMARK minimizedAffinity 4.06153584
REMARK minimizedRMSD -1
REMARK  2 active torsions:
REMARK  status: ('A' for Active; 'I' for Inactive)
REMARK    1  A    between atoms: C1_2  and  C2_3 
REMARK    2  A    between atoms: C2_3  and  C3_4 
ROOT
ATOM      1  C3  UNL d   1       3.408  -1.683  -0.313  0.00  0.00    -0.075 A 
ATOM      2  C4  UNL d   1       4.682  -1.097  -0.323  0.00  0.00     0.002 A 
ATOM      3  C5  UNL d   1       4.843   0.242  -0.681  0.00  0.00     0.002 A 
ATOM      4  C6  UNL d   1       3.736   1.008  -1.043  0.00  0.00    -0.004 A 
ATOM      5  C7  UNL d   1       2.468   0.431  -1.052  0.00  0.00     0.002 A 
ATOM      6  C8  UNL d   1       2.303  -0.907  -0.690  0.00  0.00     0.002 A 
ENDROOT
BRANCH   1   7
ATOM      7  C2  UNL d   1       3.224  -3.123   0.101  0.00  0.00     0.056 C 
BRANCH   7   8
ATOM      8  C1  UNL d   1       4.531  -3.847   0.440  0.00  0.00     0.007 C 
ATOM      9  C   UNL d   1       4.545  -4.436   1.844  0.00  0.00     0.009 C 
ENDBRANCH   7   8
ENDBRANCH   1   7
TORSDOF 2
ENDMDL
