MODEL 1
REMARK minimizedAffinity 3.38750982
REMARK minimizedRMSD -1
REMARK  2 active torsions:
REMARK  status: ('A' for Active; 'I' for Inactive)
REMARK    1  A    between atoms: C1_2  and  C2_3 
REMARK    2  A    between atoms: C2_3  and  C3_4 
ROOT
ATOM      1  C3  UNL d   1       4.463  -3.477   2.559  0.00  0.00    -0.075 A 
ATOM      2  C4  UNL d   1       3.166  -2.954   2.447  0.00  0.00     0.002 A 
ATOM      3  C5  UNL d   1       2.600  -2.728   1.192  0.00  0.00     0.002 A 
ATOM      4  C6  UNL d   1       3.325  -3.011   0.036  0.00  0.00    -0.004 A 
ATOM      5  C7  UNL d   1       4.620  -3.515   0.136  0.00  0.00     0.002 A 
ATOM      6  C8  UNL d   1       5.187  -3.747   1.391  0.00  0.00     0.002 A 
ENDROOT
BRANCH   1   7
ATOM      7  C2  UNL d   1       5.070  -3.752   3.914  0.00  0.00     0.056 C 
BRANCH   7   8
ATOM      8  C1  UNL d   1       4.943  -2.587   4.902  0.00  0.00     0.007 C 
ATOM      9  C   UNL d   1       5.999  -2.613   5.999  0.00  0.00     0.009 C 
ENDBRANCH   7   8
ENDBRANCH   1   7
TORSDOF 2
ENDMDL
