MODEL 1
REMARK minimizedAffinity 4.34880686
REMARK minimizedRMSD -1
REMARK  2 active torsions:
REMARK  status: ('A' for Active; 'I' for Inactive)
REMARK    1  A    between atoms: C1_2  and  C2_3 
REMARK    2  A    between atoms: C2_3  and  C3_4 
ROOT
ATOM      1  C3  UNL d   1       4.265  -4.269   3.048  0.00  0.00    -0.075 A 
ATOM      2  C4  UNL d   1       5.239  -4.518   2.071  0.00  0.00     0.002 A 
ATOM      3  C5  UNL d   1       4.983  -4.240   0.728  0.00  0.00     0.002 A 
ATOM      4  C6  UNL d   1       3.749  -3.720   0.344  0.00  0.00    -0.004 A 
ATOM      5  C7  UNL d   1       2.767  -3.484   1.305  0.00  0.00     0.002 A 
ATOM      6  C8  UNL d   1       3.023  -3.757   2.649  0.00  0.00     0.002 A 
ENDROOT
BRANCH   1   7
ATOM      7  C2  UNL d   1       4.546  -4.540   4.507  0.00  0.00     0.056 C 
BRANCH   7   8
ATOM      8  C1  UNL d   1       4.668  -3.276   5.364  0.00  0.00     0.007 C 
ATOM      9  C   UNL d   1       5.997  -2.554   5.183  0.00  0.00     0.009 C 
ENDBRANCH   7   8
ENDBRANCH   1   7
TORSDOF 2
ENDMDL
