MODEL 1
REMARK minimizedAffinity 11.4698858
REMARK minimizedRMSD -1
REMARK  2 active torsions:
REMARK  status: ('A' for Active; 'I' for Inactive)
REMARK    1  A    between atoms: C1_2  and  C2_3 
REMARK    2  A    between atoms: C2_3  and  C3_4 
ROOT
ATOM      1  C3  UNL d   1       1.439  -1.480   1.039  0.00  0.00    -0.075 A 
ATOM      2  C4  UNL d   1       1.613  -0.418   0.141  0.00  0.00     0.002 A 
ATOM      3  C5  UNL d   1       2.664  -0.430  -0.776  0.00  0.00     0.002 A 
ATOM      4  C6  UNL d   1       3.560  -1.496  -0.799  0.00  0.00    -0.004 A 
ATOM      5  C7  UNL d   1       3.407  -2.549   0.101  0.00  0.00     0.002 A 
ATOM      6  C8  UNL d   1       2.353  -2.542   1.016  0.00  0.00     0.002 A 
ENDROOT
BRANCH   1   7
ATOM      7  C2  UNL d   1       0.285  -1.488   2.014  0.00  0.00     0.056 C 
BRANCH   7   8
ATOM      8  C1  UNL d   1       0.236  -0.261   2.931  0.00  0.00     0.007 C 
ATOM      9  C   UNL d   1      -1.167   0.064   3.425  0.00  0.00     0.009 C 
ENDBRANCH   7   8
ENDBRANCH   1   7
TORSDOF 2
ENDMDL
