MODEL 1
REMARK minimizedAffinity 0.0241105016
REMARK minimizedRMSD -1
REMARK  2 active torsions:
REMARK  status: ('A' for Active; 'I' for Inactive)
REMARK    1  A    between atoms: C1_2  and  C2_3 
REMARK    2  A    between atoms: C2_3  and  C3_4 
ROOT
ATOM      1  C3  UNL d   1       4.103  -0.803  -0.322  0.00  0.00    -0.075 A 
ATOM      2  C4  UNL d   1       5.470  -0.923  -0.033  0.00  0.00     0.002 A 
ATOM      3  C5  UNL d   1       5.999  -2.141   0.395  0.00  0.00     0.002 A 
ATOM      4  C6  UNL d   1       5.169  -3.249   0.549  0.00  0.00    -0.004 A 
ATOM      5  C7  UNL d   1       3.806  -3.137   0.280  0.00  0.00     0.002 A 
ATOM      6  C8  UNL d   1       3.275  -1.920  -0.152  0.00  0.00     0.002 A 
ENDROOT
BRANCH   1   7
ATOM      7  C2  UNL d   1       3.530   0.505  -0.814  0.00  0.00     0.056 C 
BRANCH   7   8
ATOM      8  C1  UNL d   1       2.650   0.370  -2.061  0.00  0.00     0.007 C 
ATOM      9  C   UNL d   1       1.176   0.636  -1.788  0.00  0.00     0.009 C 
ENDBRANCH   7   8
ENDBRANCH   1   7
TORSDOF 2
ENDMDL
