MODEL 1
REMARK minimizedAffinity -1.09017777
REMARK minimizedRMSD -1
REMARK  2 active torsions:
REMARK  status: ('A' for Active; 'I' for Inactive)
REMARK    1  A    between atoms: C1_2  and  C2_3 
REMARK    2  A    between atoms: C2_3  and  C3_4 
ROOT
ATOM      1  C3  UNL d   1       3.535  -3.515   2.970  0.00  0.00    -0.075 A 
ATOM      2  C4  UNL d   1       3.772  -4.158   1.746  0.00  0.00     0.002 A 
ATOM      3  C5  UNL d   1       2.994  -3.860   0.627  0.00  0.00     0.002 A 
ATOM      4  C6  UNL d   1       1.965  -2.924   0.720  0.00  0.00    -0.004 A 
ATOM      5  C7  UNL d   1       1.711  -2.291   1.934  0.00  0.00     0.002 A 
ATOM      6  C8  UNL d   1       2.491  -2.585   3.054  0.00  0.00     0.002 A 
ENDROOT
BRANCH   1   7
ATOM      7  C2  UNL d   1       4.393  -3.812   4.177  0.00  0.00     0.056 C 
BRANCH   7   8
ATOM      8  C1  UNL d   1       4.436  -2.677   5.206  0.00  0.00     0.007 C 
ATOM      9  C   UNL d   1       5.850  -2.310   5.635  0.00  0.00     0.009 C 
ENDBRANCH   7   8
ENDBRANCH   1   7
TORSDOF 2
ENDMDL
