MODEL 1
REMARK minimizedAffinity 5.75948811
REMARK minimizedRMSD -1
REMARK  2 active torsions:
REMARK  status: ('A' for Active; 'I' for Inactive)
REMARK    1  A    between atoms: C1_2  and  C2_3 
REMARK    2  A    between atoms: C2_3  and  C3_4 
ROOT
ATOM      1  C3  UNL d   1      -0.500  -0.668   1.966  0.00  0.00    -0.075 A 
ATOM      2  C4  UNL d   1      -1.785  -0.210   2.292  0.00  0.00     0.002 A 
ATOM      3  C5  UNL d   1      -2.542   0.499   1.359  0.00  0.00     0.002 A 
ATOM      4  C6  UNL d   1      -2.022   0.768   0.095  0.00  0.00    -0.004 A 
ATOM      5  C7  UNL d   1      -0.740   0.332  -0.234  0.00  0.00     0.002 A 
ATOM      6  C8  UNL d   1       0.018  -0.381   0.697  0.00  0.00     0.002 A 
ENDROOT
BRANCH   1   7
ATOM      7  C2  UNL d   1       0.312  -1.461   2.962  0.00  0.00     0.056 C 
BRANCH   7   8
ATOM      8  C1  UNL d   1       0.247  -2.978   2.753  0.00  0.00     0.007 C 
ATOM      9  C   UNL d   1       1.554  -3.571   2.244  0.00  0.00     0.009 C 
ENDBRANCH   7   8
ENDBRANCH   1   7
TORSDOF 2
ENDMDL
