MODEL 1
REMARK minimizedAffinity -4.30938864
REMARK minimizedRMSD -1
REMARK  0 active torsions:
REMARK  status: ('A' for Active; 'I' for Inactive)
ROOT
ATOM      1  C   UNL d   1       0.840  -2.250   0.162  0.00  0.00     0.020 A 
ATOM      2  C1  UNL d   1      -0.378  -2.782   0.584  0.00  0.00     0.020 A 
ATOM      3  C2  UNL d   1      -1.463  -1.936   0.825  0.00  0.00     0.034 A 
ATOM      4  C3  UNL d   1      -1.332  -0.555   0.645  0.00  0.00     0.017 A 
ATOM      5  C4  UNL d   1      -0.110  -0.022   0.221  0.00  0.00     0.017 A 
ATOM      6  C5  UNL d   1       0.973  -0.873  -0.019  0.00  0.00     0.034 A 
ATOM      7 Cl   UNL d   1       0.128   1.672  -0.024  0.00  0.00    -0.070 Cl
ATOM      8 Cl1  UNL d   1      -2.716   0.431   0.961  0.00  0.00    -0.070 Cl
ENDROOT
TORSDOF 0
ENDMDL
