MODEL 1
REMARK minimizedAffinity -1.38193667
REMARK minimizedRMSD -1
REMARK  0 active torsions:
REMARK  status: ('A' for Active; 'I' for Inactive)
ROOT
ATOM      1  C   UNL d   1      -5.908  -5.396  -5.451  0.00  0.00     0.020 A 
ATOM      2  C1  UNL d   1      -5.949  -4.378  -4.499  0.00  0.00     0.020 A 
ATOM      3  C2  UNL d   1      -4.761  -3.844  -3.996  0.00  0.00     0.034 A 
ATOM      4  C3  UNL d   1      -3.526  -4.329  -4.443  0.00  0.00     0.017 A 
ATOM      5  C4  UNL d   1      -3.486  -5.351  -5.399  0.00  0.00     0.017 A 
ATOM      6  C5  UNL d   1      -4.679  -5.881  -5.900  0.00  0.00     0.034 A 
ATOM      7 Cl   UNL d   1      -2.001  -6.000  -6.000  0.00  0.00    -0.070 Cl
ATOM      8 Cl1  UNL d   1      -2.097  -3.622  -3.778  0.00  0.00    -0.070 Cl
ENDROOT
TORSDOF 0
ENDMDL
