MODEL 1
REMARK minimizedAffinity -2.16517758
REMARK minimizedRMSD -1
REMARK  0 active torsions:
REMARK  status: ('A' for Active; 'I' for Inactive)
ROOT
ATOM      1  C   UNL d   1      -5.202  -2.278  -3.395  0.00  0.00     0.020 A 
ATOM      2  C1  UNL d   1      -5.951  -2.286  -4.570  0.00  0.00     0.020 A 
ATOM      3  C2  UNL d   1      -6.000  -3.436  -5.360  0.00  0.00     0.034 A 
ATOM      4  C3  UNL d   1      -5.297  -4.584  -4.975  0.00  0.00     0.017 A 
ATOM      5  C4  UNL d   1      -4.546  -4.576  -3.795  0.00  0.00     0.017 A 
ATOM      6  C5  UNL d   1      -4.501  -3.421  -3.008  0.00  0.00     0.034 A 
ATOM      7 Cl   UNL d   1      -3.653  -5.953  -3.254  0.00  0.00    -0.070 Cl
ATOM      8 Cl1  UNL d   1      -5.402  -5.972  -6.000  0.00  0.00    -0.070 Cl
ENDROOT
TORSDOF 0
ENDMDL
