MODEL 1
REMARK minimizedAffinity -2.90173936
REMARK minimizedRMSD -1
REMARK  0 active torsions:
REMARK  status: ('A' for Active; 'I' for Inactive)
ROOT
ATOM      1  C   UNL d   1      -2.035  -4.925  -5.917  0.00  0.00     0.020 A 
ATOM      2  C1  UNL d   1      -2.573  -5.991  -5.198  0.00  0.00     0.020 A 
ATOM      3  C2  UNL d   1      -3.795  -5.843  -4.538  0.00  0.00     0.034 A 
ATOM      4  C3  UNL d   1      -4.483  -4.626  -4.597  0.00  0.00     0.017 A 
ATOM      5  C4  UNL d   1      -3.943  -3.556  -5.319  0.00  0.00     0.017 A 
ATOM      6  C5  UNL d   1      -2.719  -3.710  -5.978  0.00  0.00     0.034 A 
ATOM      7 Cl   UNL d   1      -4.735  -2.024  -5.437  0.00  0.00    -0.070 Cl
ATOM      8 Cl1  UNL d   1      -5.990  -4.514  -3.757  0.00  0.00    -0.070 Cl
ENDROOT
TORSDOF 0
ENDMDL
