MODEL 1
REMARK minimizedAffinity 1.26147366
REMARK minimizedRMSD -1
REMARK  0 active torsions:
REMARK  status: ('A' for Active; 'I' for Inactive)
ROOT
ATOM      1  C   UNL d   1      -2.750  -5.875  -5.034  0.00  0.00     0.020 A 
ATOM      2  C1  UNL d   1      -3.756  -5.893  -6.000  0.00  0.00     0.020 A 
ATOM      3  C2  UNL d   1      -4.742  -4.903  -6.000  0.00  0.00     0.034 A 
ATOM      4  C3  UNL d   1      -4.724  -3.892  -5.032  0.00  0.00     0.017 A 
ATOM      5  C4  UNL d   1      -3.714  -3.875  -4.063  0.00  0.00     0.017 A 
ATOM      6  C5  UNL d   1      -2.730  -4.868  -4.068  0.00  0.00     0.034 A 
ATOM      7 Cl   UNL d   1      -3.626  -2.660  -2.838  0.00  0.00    -0.070 Cl
ATOM      8 Cl1  UNL d   1      -5.974  -2.701  -5.092  0.00  0.00    -0.070 Cl
ENDROOT
TORSDOF 0
ENDMDL
