MODEL 1
REMARK minimizedAffinity -3.89357615
REMARK minimizedRMSD -1
REMARK  0 active torsions:
REMARK  status: ('A' for Active; 'I' for Inactive)
ROOT
ATOM      1  C   UNL d   1      -2.612  -6.000  -5.229  0.00  0.00     0.020 A 
ATOM      2  C1  UNL d   1      -1.962  -4.892  -5.772  0.00  0.00     0.020 A 
ATOM      3  C2  UNL d   1      -2.557  -3.631  -5.705  0.00  0.00     0.034 A 
ATOM      4  C3  UNL d   1      -3.805  -3.473  -5.092  0.00  0.00     0.017 A 
ATOM      5  C4  UNL d   1      -4.456  -4.585  -4.546  0.00  0.00     0.017 A 
ATOM      6  C5  UNL d   1      -3.856  -5.846  -4.617  0.00  0.00     0.034 A 
ATOM      7 Cl   UNL d   1      -5.999  -4.470  -3.774  0.00  0.00    -0.070 Cl
ATOM      8 Cl1  UNL d   1      -4.482  -1.884  -5.043  0.00  0.00    -0.070 Cl
ENDROOT
TORSDOF 0
ENDMDL
