MODEL 1
REMARK minimizedAffinity -3.88474822
REMARK minimizedRMSD -1
REMARK  0 active torsions:
REMARK  status: ('A' for Active; 'I' for Inactive)
ROOT
ATOM      1  C   UNL d   1      -2.846  -5.304  -5.309  0.00  0.00     0.020 A 
ATOM      2  C1  UNL d   1      -2.617  -4.107  -5.985  0.00  0.00     0.020 A 
ATOM      3  C2  UNL d   1      -3.437  -3.002  -5.745  0.00  0.00     0.034 A 
ATOM      4  C3  UNL d   1      -4.490  -3.093  -4.828  0.00  0.00     0.017 A 
ATOM      5  C4  UNL d   1      -4.719  -4.296  -4.150  0.00  0.00     0.017 A 
ATOM      6  C5  UNL d   1      -3.895  -5.399  -4.393  0.00  0.00     0.034 A 
ATOM      7 Cl   UNL d   1      -5.999  -4.484  -3.003  0.00  0.00    -0.070 Cl
ATOM      8 Cl1  UNL d   1      -5.464  -1.687  -4.581  0.00  0.00    -0.070 Cl
ENDROOT
TORSDOF 0
ENDMDL
