MODEL 1
REMARK minimizedAffinity -3.51819587
REMARK minimizedRMSD -1
REMARK  0 active torsions:
REMARK  status: ('A' for Active; 'I' for Inactive)
ROOT
ATOM      1  C   UNL d   1      -5.314  -2.261  -5.525  0.00  0.00     0.020 A 
ATOM      2  C1  UNL d   1      -5.986  -2.851  -4.455  0.00  0.00     0.020 A 
ATOM      3  C2  UNL d   1      -5.460  -3.991  -3.844  0.00  0.00     0.034 A 
ATOM      4  C3  UNL d   1      -4.259  -4.545  -4.303  0.00  0.00     0.017 A 
ATOM      5  C4  UNL d   1      -3.586  -3.952  -5.377  0.00  0.00     0.017 A 
ATOM      6  C5  UNL d   1      -4.117  -2.810  -5.985  0.00  0.00     0.034 A 
ATOM      7 Cl   UNL d   1      -2.099  -4.578  -5.999  0.00  0.00    -0.070 Cl
ATOM      8 Cl1  UNL d   1      -3.666  -5.956  -3.500  0.00  0.00    -0.070 Cl
ENDROOT
TORSDOF 0
ENDMDL
