MODEL 1
REMARK minimizedAffinity -3.01251435
REMARK minimizedRMSD -1
REMARK  0 active torsions:
REMARK  status: ('A' for Active; 'I' for Inactive)
ROOT
ATOM      1  C   UNL d   1      -4.136  -5.863  -4.290  0.00  0.00     0.020 A 
ATOM      2  C1  UNL d   1      -3.170  -5.572  -5.252  0.00  0.00     0.020 A 
ATOM      3  C2  UNL d   1      -3.064  -4.278  -5.766  0.00  0.00     0.034 A 
ATOM      4  C3  UNL d   1      -3.925  -3.270  -5.318  0.00  0.00     0.017 A 
ATOM      5  C4  UNL d   1      -4.895  -3.563  -4.353  0.00  0.00     0.017 A 
ATOM      6  C5  UNL d   1      -4.997  -4.861  -3.842  0.00  0.00     0.034 A 
ATOM      7 Cl   UNL d   1      -5.994  -2.373  -3.751  0.00  0.00    -0.070 Cl
ATOM      8 Cl1  UNL d   1      -3.738  -1.692  -5.997  0.00  0.00    -0.070 Cl
ENDROOT
TORSDOF 0
ENDMDL
