MODEL 1
REMARK minimizedAffinity -3.23557448
REMARK minimizedRMSD -1
REMARK  0 active torsions:
REMARK  status: ('A' for Active; 'I' for Inactive)
ROOT
ATOM      1  C   UNL d   1      -2.248  -5.735  -4.875  0.00  0.00     0.020 A 
ATOM      2  C1  UNL d   1      -2.189  -4.676  -5.780  0.00  0.00     0.020 A 
ATOM      3  C2  UNL d   1      -3.316  -3.881  -5.999  0.00  0.00     0.034 A 
ATOM      4  C3  UNL d   1      -4.507  -4.144  -5.313  0.00  0.00     0.017 A 
ATOM      5  C4  UNL d   1      -4.565  -5.207  -4.404  0.00  0.00     0.017 A 
ATOM      6  C5  UNL d   1      -3.433  -6.000  -4.188  0.00  0.00     0.034 A 
ATOM      7 Cl   UNL d   1      -5.999  -5.593  -3.520  0.00  0.00    -0.070 Cl
ATOM      8 Cl1  UNL d   1      -5.861  -3.121  -5.633  0.00  0.00    -0.070 Cl
ENDROOT
TORSDOF 0
ENDMDL
