MODEL 1
REMARK minimizedAffinity -1.09450328
REMARK minimizedRMSD -1
REMARK  0 active torsions:
REMARK  status: ('A' for Active; 'I' for Inactive)
ROOT
ATOM      1  C   UNL d   1      -1.855  -4.960  -5.360  0.00  0.00     0.020 A 
ATOM      2  C1  UNL d   1      -2.648  -6.000  -4.876  0.00  0.00     0.020 A 
ATOM      3  C2  UNL d   1      -3.923  -5.730  -4.376  0.00  0.00     0.034 A 
ATOM      4  C3  UNL d   1      -4.410  -4.418  -4.358  0.00  0.00     0.017 A 
ATOM      5  C4  UNL d   1      -3.613  -3.375  -4.844  0.00  0.00     0.017 A 
ATOM      6  C5  UNL d   1      -2.336  -3.651  -5.344  0.00  0.00     0.034 A 
ATOM      7 Cl   UNL d   1      -4.144  -1.730  -4.854  0.00  0.00    -0.070 Cl
ATOM      8 Cl1  UNL d   1      -5.996  -4.157  -3.725  0.00  0.00    -0.070 Cl
ENDROOT
TORSDOF 0
ENDMDL
