MODEL 1
REMARK minimizedAffinity 3.41177773
REMARK minimizedRMSD -1
REMARK  0 active torsions:
REMARK  status: ('A' for Active; 'I' for Inactive)
ROOT
ATOM      1  C   UNL d   1      -1.085  -1.497   3.005  0.00  0.00     0.020 A 
ATOM      2  C1  UNL d   1      -1.590  -0.639   2.029  0.00  0.00     0.020 A 
ATOM      3  C2  UNL d   1      -0.902  -0.468   0.826  0.00  0.00     0.034 A 
ATOM      4  C3  UNL d   1       0.295  -1.156   0.595  0.00  0.00     0.017 A 
ATOM      5  C4  UNL d   1       0.801  -2.017   1.576  0.00  0.00     0.017 A 
ATOM      6  C5  UNL d   1       0.108  -2.184   2.779  0.00  0.00     0.034 A 
ATOM      7 Cl   UNL d   1       2.272  -2.900   1.365  0.00  0.00    -0.070 Cl
ATOM      8 Cl1  UNL d   1       1.093  -0.898  -0.915  0.00  0.00    -0.070 Cl
ENDROOT
TORSDOF 0
ENDMDL
