MODEL 1
REMARK minimizedAffinity -1.54049599
REMARK minimizedRMSD -1
REMARK  0 active torsions:
REMARK  status: ('A' for Active; 'I' for Inactive)
ROOT
ATOM      1  C   UNL d   1      -2.022  -4.925  -4.032  0.00  0.00     0.020 A 
ATOM      2  C1  UNL d   1      -2.096  -5.736  -5.164  0.00  0.00     0.020 A 
ATOM      3  C2  UNL d   1      -3.333  -5.999  -5.756  0.00  0.00     0.034 A 
ATOM      4  C3  UNL d   1      -4.502  -5.450  -5.216  0.00  0.00     0.017 A 
ATOM      5  C4  UNL d   1      -4.427  -4.636  -4.080  0.00  0.00     0.017 A 
ATOM      6  C5  UNL d   1      -3.186  -4.376  -3.492  0.00  0.00     0.034 A 
ATOM      7 Cl   UNL d   1      -5.826  -3.924  -3.358  0.00  0.00    -0.070 Cl
ATOM      8 Cl1  UNL d   1      -5.998  -5.817  -6.000  0.00  0.00    -0.070 Cl
ENDROOT
TORSDOF 0
ENDMDL
