MODEL 1
REMARK minimizedAffinity -3.28326559
REMARK minimizedRMSD -1
REMARK  0 active torsions:
REMARK  status: ('A' for Active; 'I' for Inactive)
ROOT
ATOM      1  C   UNL d   1      -2.163  -5.968  -5.669  0.00  0.00     0.020 A 
ATOM      2  C1  UNL d   1      -1.606  -4.937  -4.913  0.00  0.00     0.020 A 
ATOM      3  C2  UNL d   1      -2.407  -3.879  -4.478  0.00  0.00     0.034 A 
ATOM      4  C3  UNL d   1      -3.769  -3.849  -4.799  0.00  0.00     0.017 A 
ATOM      5  C4  UNL d   1      -4.327  -4.884  -5.559  0.00  0.00     0.017 A 
ATOM      6  C5  UNL d   1      -3.520  -5.941  -5.991  0.00  0.00     0.034 A 
ATOM      7 Cl   UNL d   1      -5.999  -4.916  -5.994  0.00  0.00    -0.070 Cl
ATOM      8 Cl1  UNL d   1      -4.700  -2.510  -4.228  0.00  0.00    -0.070 Cl
ENDROOT
TORSDOF 0
ENDMDL
