MODEL 1
REMARK minimizedAffinity -2.73099065
REMARK minimizedRMSD -1
REMARK  0 active torsions:
REMARK  status: ('A' for Active; 'I' for Inactive)
ROOT
ATOM      1  C   UNL d   1      -1.885  -4.795  -4.142  0.00  0.00     0.020 A 
ATOM      2  C1  UNL d   1      -2.006  -5.734  -5.166  0.00  0.00     0.020 A 
ATOM      3  C2  UNL d   1      -3.258  -6.000  -5.725  0.00  0.00     0.034 A 
ATOM      4  C3  UNL d   1      -4.393  -5.326  -5.262  0.00  0.00     0.017 A 
ATOM      5  C4  UNL d   1      -4.271  -4.383  -4.234  0.00  0.00     0.017 A 
ATOM      6  C5  UNL d   1      -3.015  -4.121  -3.678  0.00  0.00     0.034 A 
ATOM      7 Cl   UNL d   1      -5.626  -3.511  -3.610  0.00  0.00    -0.070 Cl
ATOM      8 Cl1  UNL d   1      -5.909  -5.704  -6.000  0.00  0.00    -0.070 Cl
ENDROOT
TORSDOF 0
ENDMDL
