MODEL 1
REMARK minimizedAffinity -1.68362701
REMARK minimizedRMSD -1
REMARK  0 active torsions:
REMARK  status: ('A' for Active; 'I' for Inactive)
ROOT
ATOM      1  C   UNL d   1      -5.194  -4.922  -4.127  0.00  0.00     0.020 A 
ATOM      2  C1  UNL d   1      -4.999  -4.453  -5.425  0.00  0.00     0.020 A 
ATOM      3  C2  UNL d   1      -3.720  -4.457  -5.985  0.00  0.00     0.034 A 
ATOM      4  C3  UNL d   1      -2.630  -4.930  -5.245  0.00  0.00     0.017 A 
ATOM      5  C4  UNL d   1      -2.826  -5.400  -3.942  0.00  0.00     0.017 A 
ATOM      6  C5  UNL d   1      -4.109  -5.394  -3.386  0.00  0.00     0.034 A 
ATOM      7 Cl   UNL d   1      -1.530  -5.999  -2.968  0.00  0.00    -0.070 Cl
ATOM      8 Cl1  UNL d   1      -1.075  -4.905  -6.000  0.00  0.00    -0.070 Cl
ENDROOT
TORSDOF 0
ENDMDL
