MODEL 1
REMARK minimizedAffinity -1.41592753
REMARK minimizedRMSD -1
REMARK  0 active torsions:
REMARK  status: ('A' for Active; 'I' for Inactive)
ROOT
ATOM      1  C   UNL d   1      -4.496  -5.925  -5.793  0.00  0.00     0.020 A 
ATOM      2  C1  UNL d   1      -5.698  -5.250  -5.997  0.00  0.00     0.020 A 
ATOM      3  C2  UNL d   1      -6.000  -4.116  -5.240  0.00  0.00     0.034 A 
ATOM      4  C3  UNL d   1      -5.098  -3.654  -4.275  0.00  0.00     0.017 A 
ATOM      5  C4  UNL d   1      -3.891  -4.332  -4.070  0.00  0.00     0.017 A 
ATOM      6  C5  UNL d   1      -3.594  -5.467  -4.831  0.00  0.00     0.034 A 
ATOM      7 Cl   UNL d   1      -2.728  -3.822  -2.898  0.00  0.00    -0.070 Cl
ATOM      8 Cl1  UNL d   1      -5.536  -2.245  -3.375  0.00  0.00    -0.070 Cl
ENDROOT
TORSDOF 0
ENDMDL
