MODEL 1
REMARK minimizedAffinity -0.324391305
REMARK minimizedRMSD -1
REMARK  0 active torsions:
REMARK  status: ('A' for Active; 'I' for Inactive)
ROOT
ATOM      1  C   UNL d   1      -5.428  -5.173  -5.999  0.00  0.00     0.020 A 
ATOM      2  C1  UNL d   1      -6.000  -4.272  -5.102  0.00  0.00     0.020 A 
ATOM      3  C2  UNL d   1      -5.222  -3.705  -4.090  0.00  0.00     0.034 A 
ATOM      4  C3  UNL d   1      -3.868  -4.039  -3.973  0.00  0.00     0.017 A 
ATOM      5  C4  UNL d   1      -3.294  -4.943  -4.874  0.00  0.00     0.017 A 
ATOM      6  C5  UNL d   1      -4.078  -5.508  -5.885  0.00  0.00     0.034 A 
ATOM      7 Cl   UNL d   1      -1.630  -5.404  -4.793  0.00  0.00    -0.070 Cl
ATOM      8 Cl1  UNL d   1      -2.965  -3.299  -2.699  0.00  0.00    -0.070 Cl
ENDROOT
TORSDOF 0
ENDMDL
