MODEL 1
REMARK minimizedAffinity -3.32982898
REMARK minimizedRMSD -1
REMARK  0 active torsions:
REMARK  status: ('A' for Active; 'I' for Inactive)
ROOT
ATOM      1  C   UNL d   1      -2.012  -4.499  -5.779  0.00  0.00     0.020 A 
ATOM      2  C1  UNL d   1      -2.363  -5.767  -5.314  0.00  0.00     0.020 A 
ATOM      3  C2  UNL d   1      -3.599  -5.966  -4.696  0.00  0.00     0.034 A 
ATOM      4  C3  UNL d   1      -4.489  -4.897  -4.540  0.00  0.00     0.017 A 
ATOM      5  C4  UNL d   1      -4.136  -3.626  -5.006  0.00  0.00     0.017 A 
ATOM      6  C5  UNL d   1      -2.897  -3.431  -5.625  0.00  0.00     0.034 A 
ATOM      7 Cl   UNL d   1      -5.181  -2.258  -4.850  0.00  0.00    -0.070 Cl
ATOM      8 Cl1  UNL d   1      -6.000  -5.216  -3.766  0.00  0.00    -0.070 Cl
ENDROOT
TORSDOF 0
ENDMDL
