MODEL 1
REMARK minimizedAffinity 4.46485615
REMARK minimizedRMSD -1
REMARK  3 active torsions:
REMARK  status: ('A' for Active; 'I' for Inactive)
REMARK    1  A    between atoms: C3'_2  and  C2'_3 
REMARK    2  A    between atoms: C2'_3  and  C1'_4 
REMARK    3  A    between atoms: C1'_4  and  C1_5 
ROOT
ATOM      1  C1  N4B d   1       1.538   0.989  -0.003  0.00  0.00    -0.075 A 
ATOM      2  C2  N4B d   1       2.051   1.104  -1.314  0.00  0.00     0.002 A 
ATOM      3  C3  N4B d   1       2.501  -0.011  -1.976  0.00  0.00     0.002 A 
ATOM      4  C4  N4B d   1       2.466  -1.245  -1.344  0.00  0.00    -0.004 A 
ATOM      5  C5  N4B d   1       1.946  -1.352  -0.087  0.00  0.00     0.002 A 
ATOM      6  C6  N4B d   1       1.486  -0.240   0.589  0.00  0.00     0.002 A 
ENDROOT
BRANCH   1   7
ATOM      7  C1' N4B d   1       1.114   2.192   0.793  0.00  0.00     0.057 C 
BRANCH   7   8
ATOM      8  C2' N4B d   1      -0.404   2.181   0.947  0.00  0.00     0.009 C 
BRANCH   8   9
ATOM      9  C3' N4B d   1      -1.103   2.771  -0.265  0.00  0.00     0.004 C 
ATOM     10  C4' N4B d   1      -2.572   2.470  -0.293  0.00  0.00     0.003 C 
ENDBRANCH   8   9
ENDBRANCH   7   8
ENDBRANCH   1   7
TORSDOF 3
ENDMDL
