MODEL 1
REMARK minimizedAffinity 5.47705555
REMARK minimizedRMSD -1
REMARK  3 active torsions:
REMARK  status: ('A' for Active; 'I' for Inactive)
REMARK    1  A    between atoms: C3'_2  and  C2'_3 
REMARK    2  A    between atoms: C2'_3  and  C1'_4 
REMARK    3  A    between atoms: C1'_4  and  C1_5 
ROOT
ATOM      1  C1  N4B d   1      -0.485   2.761   1.332  0.00  0.00    -0.075 A 
ATOM      2  C2  N4B d   1      -1.508   2.934   2.290  0.00  0.00     0.002 A 
ATOM      3  C3  N4B d   1      -1.235   3.566   3.479  0.00  0.00     0.002 A 
ATOM      4  C4  N4B d   1       0.051   4.014   3.738  0.00  0.00    -0.004 A 
ATOM      5  C5  N4B d   1       1.028   3.865   2.797  0.00  0.00     0.002 A 
ATOM      6  C6  N4B d   1       0.767   3.236   1.597  0.00  0.00     0.002 A 
ENDROOT
BRANCH   1   7
ATOM      7  C1' N4B d   1      -0.714   2.001   0.054  0.00  0.00     0.057 C 
BRANCH   7   8
ATOM      8  C2' N4B d   1      -0.807   0.511   0.368  0.00  0.00     0.009 C 
BRANCH   8   9
ATOM      9  C3' N4B d   1      -2.245   0.023   0.391  0.00  0.00     0.004 C 
ATOM     10  C4' N4B d   1      -2.402  -1.352  -0.186  0.00  0.00     0.003 C 
ENDBRANCH   8   9
ENDBRANCH   7   8
ENDBRANCH   1   7
TORSDOF 3
ENDMDL
