MODEL 1
REMARK minimizedAffinity 1.8189249
REMARK minimizedRMSD -1
REMARK  3 active torsions:
REMARK  status: ('A' for Active; 'I' for Inactive)
REMARK    1  A    between atoms: C3'_2  and  C2'_3 
REMARK    2  A    between atoms: C2'_3  and  C1'_4 
REMARK    3  A    between atoms: C1'_4  and  C1_5 
ROOT
ATOM      1  C1  N4B d   1      -0.772   1.489   1.000  0.00  0.00    -0.075 A 
ATOM      2  C2  N4B d   1       0.410   0.758   0.754  0.00  0.00     0.002 A 
ATOM      3  C3  N4B d   1       0.353  -0.605   0.592  0.00  0.00     0.002 A 
ATOM      4  C4  N4B d   1      -0.867  -1.257   0.691  0.00  0.00    -0.004 A 
ATOM      5  C5  N4B d   1      -2.008  -0.540   0.903  0.00  0.00     0.002 A 
ATOM      6  C6  N4B d   1      -1.966   0.831   1.064  0.00  0.00     0.002 A 
ENDROOT
BRANCH   1   7
ATOM      7  C1' N4B d   1      -0.749   2.969   1.269  0.00  0.00     0.057 C 
BRANCH   7   8
ATOM      8  C2' N4B d   1       0.433   3.295   2.178  0.00  0.00     0.009 C 
BRANCH   8   9
ATOM      9  C3' N4B d   1       0.131   2.988   3.634  0.00  0.00     0.004 C 
ATOM     10  C4' N4B d   1      -1.215   3.489   4.066  0.00  0.00     0.003 C 
ENDBRANCH   8   9
ENDBRANCH   7   8
ENDBRANCH   1   7
TORSDOF 3
ENDMDL
