MODEL 1
REMARK minimizedAffinity 0.365324646
REMARK minimizedRMSD -1
REMARK  3 active torsions:
REMARK  status: ('A' for Active; 'I' for Inactive)
REMARK    1  A    between atoms: C3'_2  and  C2'_3 
REMARK    2  A    between atoms: C2'_3  and  C1'_4 
REMARK    3  A    between atoms: C1'_4  and  C1_5 
ROOT
ATOM      1  C1  N4B d   1       2.224   2.597  -5.238  0.00  0.00    -0.075 A 
ATOM      2  C2  N4B d   1       3.098   3.415  -5.988  0.00  0.00     0.002 A 
ATOM      3  C3  N4B d   1       4.275   3.854  -5.432  0.00  0.00     0.002 A 
ATOM      4  C4  N4B d   1       4.588   3.506  -4.126  0.00  0.00    -0.004 A 
ATOM      5  C5  N4B d   1       3.750   2.695  -3.417  0.00  0.00     0.002 A 
ATOM      6  C6  N4B d   1       2.567   2.243  -3.965  0.00  0.00     0.002 A 
ENDROOT
BRANCH   1   7
ATOM      7  C1' N4B d   1       0.887   2.164  -5.773  0.00  0.00     0.057 C 
BRANCH   7   8
ATOM      8  C2' N4B d   1      -0.213   2.957  -5.074  0.00  0.00     0.009 C 
BRANCH   8   9
ATOM      9  C3' N4B d   1      -1.385   3.239  -5.999  0.00  0.00     0.004 C 
ATOM     10  C4' N4B d   1      -2.403   2.138  -6.000  0.00  0.00     0.003 C 
ENDBRANCH   8   9
ENDBRANCH   7   8
ENDBRANCH   1   7
TORSDOF 3
ENDMDL
