MODEL 1
REMARK minimizedAffinity 2.236624
REMARK minimizedRMSD -1
REMARK  3 active torsions:
REMARK  status: ('A' for Active; 'I' for Inactive)
REMARK    1  A    between atoms: C3'_2  and  C2'_3 
REMARK    2  A    between atoms: C2'_3  and  C1'_4 
REMARK    3  A    between atoms: C1'_4  and  C1_5 
ROOT
ATOM      1  C1  N4B d   1      -0.073   0.669  -0.815  0.00  0.00    -0.075 A 
ATOM      2  C2  N4B d   1      -0.570   1.509  -1.835  0.00  0.00     0.002 A 
ATOM      3  C3  N4B d   1       0.261   1.930  -2.844  0.00  0.00     0.002 A 
ATOM      4  C4  N4B d   1       1.592   1.540  -2.844  0.00  0.00    -0.004 A 
ATOM      5  C5  N4B d   1       2.058   0.708  -1.869  0.00  0.00     0.002 A 
ATOM      6  C6  N4B d   1       1.233   0.274  -0.850  0.00  0.00     0.002 A 
ENDROOT
BRANCH   1   7
ATOM      7  C1' N4B d   1      -0.921   0.253   0.356  0.00  0.00     0.057 C 
BRANCH   7   8
ATOM      8  C2' N4B d   1      -1.877   1.388   0.710  0.00  0.00     0.009 C 
BRANCH   8   9
ATOM      9  C3' N4B d   1      -1.134   2.655   1.099  0.00  0.00     0.004 C 
ATOM     10  C4' N4B d   1      -1.104   2.879   2.581  0.00  0.00     0.003 C 
ENDBRANCH   8   9
ENDBRANCH   7   8
ENDBRANCH   1   7
TORSDOF 3
ENDMDL
