MODEL 1
REMARK minimizedAffinity -0.818478882
REMARK minimizedRMSD -1
REMARK  3 active torsions:
REMARK  status: ('A' for Active; 'I' for Inactive)
REMARK    1  A    between atoms: C3'_2  and  C2'_3 
REMARK    2  A    between atoms: C2'_3  and  C1'_4 
REMARK    3  A    between atoms: C1'_4  and  C1_5 
ROOT
ATOM      1  C1  N4B d   1      -0.596  -0.232   0.323  0.00  0.00    -0.075 A 
ATOM      2  C2  N4B d   1      -1.459   0.827   0.682  0.00  0.00     0.002 A 
ATOM      3  C3  N4B d   1      -0.938   2.040   1.061  0.00  0.00     0.002 A 
ATOM      4  C4  N4B d   1       0.437   2.211   1.106  0.00  0.00    -0.004 A 
ATOM      5  C5  N4B d   1       1.264   1.192   0.733  0.00  0.00     0.002 A 
ATOM      6  C6  N4B d   1       0.754  -0.031   0.346  0.00  0.00     0.002 A 
ENDROOT
BRANCH   1   7
ATOM      7  C1' N4B d   1      -1.117  -1.602  -0.015  0.00  0.00     0.057 C 
BRANCH   7   8
ATOM      8  C2' N4B d   1      -0.471  -2.077  -1.313  0.00  0.00     0.009 C 
BRANCH   8   9
ATOM      9  C3' N4B d   1      -1.199  -3.271  -1.906  0.00  0.00     0.004 C 
ATOM     10  C4' N4B d   1      -1.857  -4.126  -0.864  0.00  0.00     0.003 C 
ENDBRANCH   8   9
ENDBRANCH   7   8
ENDBRANCH   1   7
TORSDOF 3
ENDMDL
