MODEL 1
REMARK minimizedAffinity 2.18238592
REMARK minimizedRMSD -1
REMARK  3 active torsions:
REMARK  status: ('A' for Active; 'I' for Inactive)
REMARK    1  A    between atoms: C3'_2  and  C2'_3 
REMARK    2  A    between atoms: C2'_3  and  C1'_4 
REMARK    3  A    between atoms: C1'_4  and  C1_5 
ROOT
ATOM      1  C1  N4B d   1      -0.802  -1.615  -0.225  0.00  0.00    -0.075 A 
ATOM      2  C2  N4B d   1      -1.933  -2.417   0.044  0.00  0.00     0.002 A 
ATOM      3  C3  N4B d   1      -2.301  -3.402  -0.839  0.00  0.00     0.002 A 
ATOM      4  C4  N4B d   1      -1.568  -3.591  -2.001  0.00  0.00    -0.004 A 
ATOM      5  C5  N4B d   1      -0.462  -2.829  -2.241  0.00  0.00     0.002 A 
ATOM      6  C6  N4B d   1      -0.078  -1.838  -1.360  0.00  0.00     0.002 A 
ENDROOT
BRANCH   1   7
ATOM      7  C1' N4B d   1      -0.410  -0.470   0.668  0.00  0.00     0.057 C 
BRANCH   7   8
ATOM      8  C2' N4B d   1      -1.671   0.233   1.163  0.00  0.00     0.009 C 
BRANCH   8   9
ATOM      9  C3' N4B d   1      -1.672   1.711   0.812  0.00  0.00     0.004 C 
ATOM     10  C4' N4B d   1      -0.963   2.551   1.832  0.00  0.00     0.003 C 
ENDBRANCH   8   9
ENDBRANCH   7   8
ENDBRANCH   1   7
TORSDOF 3
ENDMDL
