MODEL 1
REMARK minimizedAffinity 4.04560041
REMARK minimizedRMSD -1
REMARK  3 active torsions:
REMARK  status: ('A' for Active; 'I' for Inactive)
REMARK    1  A    between atoms: C3'_2  and  C2'_3 
REMARK    2  A    between atoms: C2'_3  and  C1'_4 
REMARK    3  A    between atoms: C1'_4  and  C1_5 
ROOT
ATOM      1  C1  N4B d   1      -0.165   1.206   1.177  0.00  0.00    -0.075 A 
ATOM      2  C2  N4B d   1      -0.793   2.455   0.979  0.00  0.00     0.002 A 
ATOM      3  C3  N4B d   1      -2.155   2.519   0.814  0.00  0.00     0.002 A 
ATOM      4  C4  N4B d   1      -2.903   1.352   0.823  0.00  0.00    -0.004 A 
ATOM      5  C5  N4B d   1      -2.291   0.152   1.040  0.00  0.00     0.002 A 
ATOM      6  C6  N4B d   1      -0.924   0.072   1.212  0.00  0.00     0.002 A 
ENDROOT
BRANCH   1   7
ATOM      7  C1' N4B d   1       1.331   1.077   1.277  0.00  0.00     0.057 C 
BRANCH   7   8
ATOM      8  C2' N4B d   1       1.796  -0.063   0.376  0.00  0.00     0.009 C 
BRANCH   8   9
ATOM      9  C3' N4B d   1       1.925   0.374  -1.073  0.00  0.00     0.004 C 
ATOM     10  C4' N4B d   1       2.259  -0.761  -1.995  0.00  0.00     0.003 C 
ENDBRANCH   8   9
ENDBRANCH   7   8
ENDBRANCH   1   7
TORSDOF 3
ENDMDL
