MODEL 1
REMARK minimizedAffinity 0.379157871
REMARK minimizedRMSD -1
REMARK  3 active torsions:
REMARK  status: ('A' for Active; 'I' for Inactive)
REMARK    1  A    between atoms: C3'_2  and  C2'_3 
REMARK    2  A    between atoms: C2'_3  and  C1'_4 
REMARK    3  A    between atoms: C1'_4  and  C1_5 
ROOT
ATOM      1  C1  N4B d   1      -0.542   1.673   1.017  0.00  0.00    -0.075 A 
ATOM      2  C2  N4B d   1       0.124   0.433   0.897  0.00  0.00     0.002 A 
ATOM      3  C3  N4B d   1      -0.600  -0.733   0.859  0.00  0.00     0.002 A 
ATOM      4  C4  N4B d   1      -1.983  -0.686   0.957  0.00  0.00    -0.004 A 
ATOM      5  C5  N4B d   1      -2.619   0.517   1.046  0.00  0.00     0.002 A 
ATOM      6  C6  N4B d   1      -1.905   1.698   1.083  0.00  0.00     0.002 A 
ENDROOT
BRANCH   1   7
ATOM      7  C1' N4B d   1       0.211   2.969   1.150  0.00  0.00     0.057 C 
BRANCH   7   8
ATOM      8  C2' N4B d   1       0.879   3.021   2.521  0.00  0.00     0.009 C 
BRANCH   8   9
ATOM      9  C3' N4B d   1       2.356   2.674   2.447  0.00  0.00     0.004 C 
ATOM     10  C4' N4B d   1       3.146   3.248   3.585  0.00  0.00     0.003 C 
ENDBRANCH   8   9
ENDBRANCH   7   8
ENDBRANCH   1   7
TORSDOF 3
ENDMDL
