MODEL 1
REMARK minimizedAffinity 13.6887712
REMARK minimizedRMSD -1
REMARK  0 active torsions:
REMARK  status: ('A' for Active; 'I' for Inactive)
ROOT
ATOM      1  N1  IND d   1      -1.499  -0.173  -1.311  0.00  0.00    -0.196 N 
ATOM      2  C2  IND d   1      -2.745  -0.507  -0.859  0.00  0.00     0.054 A 
ATOM      3  C3  IND d   1      -3.677   0.306  -1.405  0.00  0.00    -0.031 A 
ATOM      4  C4  IND d   1      -3.393   2.184  -3.143  0.00  0.00     0.051 A 
ATOM      5  C5  IND d   1      -2.438   2.881  -3.828  0.00  0.00    -0.031 A 
ATOM      6  C6  IND d   1      -1.095   2.589  -3.710  0.00  0.00     0.015 A 
ATOM      7  C7  IND d   1      -0.655   1.576  -2.906  0.00  0.00    -0.016 A 
ATOM      8  C8  IND d   1      -1.621   0.870  -2.202  0.00  0.00    -0.047 A 
ATOM      9  C9  IND d   1      -2.982   1.189  -2.287  0.00  0.00    -0.096 A 
ATOM     10  HN1 IND d   1      -0.763  -0.551  -1.077  0.00  0.00     0.298 HD
ENDROOT
TORSDOF 0
ENDMDL
