MODEL 1
REMARK minimizedAffinity 2.99181628
REMARK minimizedRMSD -1
REMARK  0 active torsions:
REMARK  status: ('A' for Active; 'I' for Inactive)
ROOT
ATOM      1  N1  IND d   1      -5.872   1.515   2.379  0.00  0.00    -0.196 N 
ATOM      2  C2  IND d   1      -4.835   1.411   1.495  0.00  0.00     0.054 A 
ATOM      3  C3  IND d   1      -3.658   1.334   2.157  0.00  0.00    -0.031 A 
ATOM      4  C4  IND d   1      -3.209   1.259   4.691  0.00  0.00     0.051 A 
ATOM      5  C5  IND d   1      -3.839   1.361   5.900  0.00  0.00    -0.031 A 
ATOM      6  C6  IND d   1      -5.206   1.520   5.999  0.00  0.00     0.015 A 
ATOM      7  C7  IND d   1      -5.999   1.572   4.888  0.00  0.00    -0.016 A 
ATOM      8  C8  IND d   1      -5.363   1.476   3.659  0.00  0.00    -0.047 A 
ATOM      9  C9  IND d   1      -3.972   1.357   3.551  0.00  0.00    -0.096 A 
ATOM     10  HN1 IND d   1      -6.703   1.592   2.171  0.00  0.00     0.298 HD
ENDROOT
TORSDOF 0
ENDMDL
