MODEL 1
REMARK minimizedAffinity 8.54974556
REMARK minimizedRMSD -1
REMARK  0 active torsions:
REMARK  status: ('A' for Active; 'I' for Inactive)
ROOT
ATOM      1  N1  IND d   1       1.011  -3.107   0.372  0.00  0.00    -0.196 N 
ATOM      2  C2  IND d   1       2.333  -2.779   0.257  0.00  0.00     0.054 A 
ATOM      3  C3  IND d   1       2.656  -1.810   1.142  0.00  0.00    -0.031 A 
ATOM      4  C4  IND d   1       1.197  -0.687   2.942  0.00  0.00     0.051 A 
ATOM      5  C5  IND d   1      -0.087  -0.629   3.406  0.00  0.00    -0.031 A 
ATOM      6  C6  IND d   1      -1.090  -1.412   2.873  0.00  0.00     0.015 A 
ATOM      7  C7  IND d   1      -0.843  -2.294   1.860  0.00  0.00    -0.016 A 
ATOM      8  C8  IND d   1       0.458  -2.351   1.381  0.00  0.00    -0.047 A 
ATOM      9  C9  IND d   1       1.471  -1.528   1.889  0.00  0.00    -0.096 A 
ATOM     10  HN1 IND d   1       0.595  -3.688  -0.107  0.00  0.00     0.298 HD
ENDROOT
TORSDOF 0
ENDMDL
