MODEL 1
REMARK minimizedAffinity 14.7175589
REMARK minimizedRMSD -1
REMARK  0 active torsions:
REMARK  status: ('A' for Active; 'I' for Inactive)
ROOT
ATOM      1  N1  IND d   1       3.619  -2.356   3.928  0.00  0.00    -0.196 N 
ATOM      2  C2  IND d   1       4.088  -1.533   4.914  0.00  0.00     0.054 A 
ATOM      3  C3  IND d   1       4.702  -2.256   5.878  0.00  0.00    -0.031 A 
ATOM      4  C4  IND d   1       5.143  -4.789   5.992  0.00  0.00     0.051 A 
ATOM      5  C5  IND d   1       4.872  -5.960   5.341  0.00  0.00    -0.031 A 
ATOM      6  C6  IND d   1       4.158  -5.990   4.161  0.00  0.00     0.015 A 
ATOM      7  C7  IND d   1       3.696  -4.844   3.579  0.00  0.00    -0.016 A 
ATOM      8  C8  IND d   1       3.963  -3.654   4.241  0.00  0.00    -0.047 A 
ATOM      9  C9  IND d   1       4.650  -3.621   5.461  0.00  0.00    -0.096 A 
ATOM     10  HN1 IND d   1       3.184  -2.106   3.231  0.00  0.00     0.298 HD
ENDROOT
TORSDOF 0
ENDMDL
