MODEL 1
REMARK minimizedAffinity 12.2697115
REMARK minimizedRMSD -1
REMARK  0 active torsions:
REMARK  status: ('A' for Active; 'I' for Inactive)
ROOT
ATOM      1  N1  IND d   1      -0.491  -2.368   1.441  0.00  0.00    -0.196 N 
ATOM      2  C2  IND d   1      -0.362  -1.046   1.765  0.00  0.00     0.054 A 
ATOM      3  C3  IND d   1       0.926  -0.654   1.641  0.00  0.00    -0.031 A 
ATOM      4  C4  IND d   1       2.969  -1.988   0.821  0.00  0.00     0.051 A 
ATOM      5  C5  IND d   1       3.356  -3.244   0.446  0.00  0.00    -0.031 A 
ATOM      6  C6  IND d   1       2.461  -4.293   0.379  0.00  0.00     0.015 A 
ATOM      7  C7  IND d   1       1.139  -4.121   0.676  0.00  0.00    -0.016 A 
ATOM      8  C8  IND d   1       0.744  -2.849   1.064  0.00  0.00    -0.047 A 
ATOM      9  C9  IND d   1       1.656  -1.790   1.174  0.00  0.00    -0.096 A 
ATOM     10  HN1 IND d   1      -1.220  -2.822   1.468  0.00  0.00     0.298 HD
ENDROOT
TORSDOF 0
ENDMDL
