MODEL 1
REMARK minimizedAffinity 13.6821489
REMARK minimizedRMSD -1
REMARK  0 active torsions:
REMARK  status: ('A' for Active; 'I' for Inactive)
ROOT
ATOM      1  N1  IND d   1       0.860  -4.607   0.595  0.00  0.00    -0.196 N 
ATOM      2  C2  IND d   1       1.990  -5.311   0.286  0.00  0.00     0.054 A 
ATOM      3  C3  IND d   1       3.032  -4.470   0.101  0.00  0.00    -0.031 A 
ATOM      4  C4  IND d   1       3.133  -1.910   0.355  0.00  0.00     0.051 A 
ATOM      5  C5  IND d   1       2.344  -0.819   0.589  0.00  0.00    -0.031 A 
ATOM      6  C6  IND d   1       0.994  -0.937   0.845  0.00  0.00     0.015 A 
ATOM      7  C7  IND d   1       0.381  -2.157   0.888  0.00  0.00    -0.016 A 
ATOM      8  C8  IND d   1       1.178  -3.267   0.644  0.00  0.00    -0.047 A 
ATOM      9  C9  IND d   1       2.540  -3.150   0.341  0.00  0.00    -0.096 A 
ATOM     10  HN1 IND d   1       0.082  -4.944   0.736  0.00  0.00     0.298 HD
ENDROOT
TORSDOF 0
ENDMDL
