MODEL 1
REMARK minimizedAffinity 10.3698082
REMARK minimizedRMSD -1
REMARK  0 active torsions:
REMARK  status: ('A' for Active; 'I' for Inactive)
ROOT
ATOM      1  N1  IND d   1       0.897  -5.280  -0.059  0.00  0.00    -0.196 N 
ATOM      2  C2  IND d   1       2.098  -5.898  -0.267  0.00  0.00     0.054 A 
ATOM      3  C3  IND d   1       3.113  -5.019  -0.112  0.00  0.00    -0.031 A 
ATOM      4  C4  IND d   1       3.038  -2.540   0.580  0.00  0.00     0.051 A 
ATOM      5  C5  IND d   1       2.167  -1.521   0.843  0.00  0.00    -0.031 A 
ATOM      6  C6  IND d   1       0.799  -1.707   0.820  0.00  0.00     0.015 A 
ATOM      7  C7  IND d   1       0.251  -2.928   0.544  0.00  0.00    -0.016 A 
ATOM      8  C8  IND d   1       1.133  -3.963   0.271  0.00  0.00    -0.047 A 
ATOM      9  C9  IND d   1       2.520  -3.771   0.250  0.00  0.00    -0.096 A 
ATOM     10  HN1 IND d   1       0.124  -5.651  -0.123  0.00  0.00     0.298 HD
ENDROOT
TORSDOF 0
ENDMDL
