MODEL 1
REMARK minimizedAffinity 10.515233
REMARK minimizedRMSD -1
REMARK  0 active torsions:
REMARK  status: ('A' for Active; 'I' for Inactive)
ROOT
ATOM      1  N1  IND d   1      -3.747   1.481  -5.999  0.00  0.00    -0.196 N 
ATOM      2  C2  IND d   1      -4.950   1.511  -5.350  0.00  0.00     0.054 A 
ATOM      3  C3  IND d   1      -4.780   1.885  -4.062  0.00  0.00    -0.031 A 
ATOM      4  C4  IND d   1      -2.631   2.594  -2.834  0.00  0.00     0.051 A 
ATOM      5  C5  IND d   1      -1.278   2.692  -3.000  0.00  0.00    -0.031 A 
ATOM      6  C6  IND d   1      -0.667   2.388  -4.200  0.00  0.00     0.015 A 
ATOM      7  C7  IND d   1      -1.391   1.983  -5.285  0.00  0.00    -0.016 A 
ATOM      8  C8  IND d   1      -2.764   1.876  -5.118  0.00  0.00    -0.047 A 
ATOM      9  C9  IND d   1      -3.385   2.142  -3.891  0.00  0.00    -0.096 A 
ATOM     10  HN1 IND d   1      -3.626   1.254  -6.819  0.00  0.00     0.298 HD
ENDROOT
TORSDOF 0
ENDMDL
