MODEL 1
REMARK minimizedAffinity 1.10281539
REMARK minimizedRMSD -1
REMARK  0 active torsions:
REMARK  status: ('A' for Active; 'I' for Inactive)
ROOT
ATOM      1  C   UNL d   1      -5.880  -2.200  -5.999  0.00  0.00     0.077 C 
ATOM      2  C1  UNL d   1      -5.660  -3.528  -5.339  0.00  0.00    -0.074 A 
ATOM      3  C2  UNL d   1      -5.987  -4.720  -5.994  0.00  0.00    -0.005 A 
ATOM      4  C3  UNL d   1      -5.768  -5.948  -5.372  0.00  0.00     0.006 A 
ATOM      5  C4  UNL d   1      -5.221  -5.998  -4.089  0.00  0.00    -0.005 A 
ATOM      6  C5  UNL d   1      -4.886  -4.818  -3.418  0.00  0.00    -0.074 A 
ATOM      7  C6  UNL d   1      -4.288  -4.854  -2.044  0.00  0.00     0.077 C 
ATOM      8  C7  UNL d   1      -5.103  -3.587  -4.054  0.00  0.00    -0.001 A 
ENDROOT
TORSDOF 0
ENDMDL
