MODEL 1
REMARK minimizedAffinity -0.29780519
REMARK minimizedRMSD -1
REMARK  0 active torsions:
REMARK  status: ('A' for Active; 'I' for Inactive)
ROOT
ATOM      1  C   UNL d   1      -5.150  -5.307  -1.771  0.00  0.00     0.077 C 
ATOM      2  C1  UNL d   1      -4.899  -5.118  -3.237  0.00  0.00    -0.074 A 
ATOM      3  C2  UNL d   1      -4.075  -6.000  -3.944  0.00  0.00    -0.005 A 
ATOM      4  C3  UNL d   1      -3.858  -5.818  -5.310  0.00  0.00     0.006 A 
ATOM      5  C4  UNL d   1      -4.461  -4.754  -5.982  0.00  0.00    -0.005 A 
ATOM      6  C5  UNL d   1      -5.289  -3.862  -5.291  0.00  0.00    -0.074 A 
ATOM      7  C6  UNL d   1      -5.953  -2.719  -6.000  0.00  0.00     0.077 C 
ATOM      8  C7  UNL d   1      -5.508  -4.056  -3.921  0.00  0.00    -0.001 A 
ENDROOT
TORSDOF 0
ENDMDL
