MODEL 1
REMARK minimizedAffinity 3.63017416
REMARK minimizedRMSD -1
REMARK  0 active torsions:
REMARK  status: ('A' for Active; 'I' for Inactive)
ROOT
ATOM      1  C   UNL d   1       1.058  -2.592   2.459  0.00  0.00     0.077 C 
ATOM      2  C1  UNL d   1       2.309  -2.856   3.243  0.00  0.00    -0.074 A 
ATOM      3  C2  UNL d   1       2.279  -2.940   4.639  0.00  0.00    -0.005 A 
ATOM      4  C3  UNL d   1       3.449  -3.195   5.353  0.00  0.00     0.006 A 
ATOM      5  C4  UNL d   1       4.660  -3.368   4.681  0.00  0.00    -0.005 A 
ATOM      6  C5  UNL d   1       4.709  -3.288   3.285  0.00  0.00    -0.074 A 
ATOM      7  C6  UNL d   1       6.000  -3.481   2.546  0.00  0.00     0.077 C 
ATOM      8  C7  UNL d   1       3.528  -3.038   2.574  0.00  0.00    -0.001 A 
ENDROOT
TORSDOF 0
ENDMDL
