MODEL 1
REMARK minimizedAffinity 0.442769378
REMARK minimizedRMSD -1
REMARK  0 active torsions:
REMARK  status: ('A' for Active; 'I' for Inactive)
ROOT
ATOM      1  C   UNL d   1      -5.244  -5.357  -1.883  0.00  0.00     0.077 C 
ATOM      2  C1  UNL d   1      -4.881  -5.104  -3.316  0.00  0.00    -0.074 A 
ATOM      3  C2  UNL d   1      -4.060  -5.993  -4.017  0.00  0.00    -0.005 A 
ATOM      4  C3  UNL d   1      -3.739  -5.750  -5.353  0.00  0.00     0.006 A 
ATOM      5  C4  UNL d   1      -4.235  -4.617  -6.000  0.00  0.00    -0.005 A 
ATOM      6  C5  UNL d   1      -5.059  -3.718  -5.315  0.00  0.00    -0.074 A 
ATOM      7  C6  UNL d   1      -5.609  -2.501  -5.998  0.00  0.00     0.077 C 
ATOM      8  C7  UNL d   1      -5.383  -3.973  -3.975  0.00  0.00    -0.001 A 
ENDROOT
TORSDOF 0
ENDMDL
