MODEL 1
REMARK minimizedAffinity 0.704803228
REMARK minimizedRMSD -1
REMARK  0 active torsions:
REMARK  status: ('A' for Active; 'I' for Inactive)
ROOT
ATOM      1  C   UNL d   1       2.296  -5.313   2.257  0.00  0.00     0.077 C 
ATOM      2  C1  UNL d   1       1.945  -3.921   2.692  0.00  0.00    -0.074 A 
ATOM      3  C2  UNL d   1       1.603  -3.647   4.020  0.00  0.00    -0.005 A 
ATOM      4  C3  UNL d   1       1.289  -2.346   4.411  0.00  0.00     0.006 A 
ATOM      5  C4  UNL d   1       1.312  -1.307   3.480  0.00  0.00    -0.005 A 
ATOM      6  C5  UNL d   1       1.652  -1.562   2.147  0.00  0.00    -0.074 A 
ATOM      7  C6  UNL d   1       1.691  -0.455   1.136  0.00  0.00     0.077 C 
ATOM      8  C7  UNL d   1       1.974  -2.871   1.763  0.00  0.00    -0.001 A 
ENDROOT
TORSDOF 0
ENDMDL
