MODEL 1
REMARK minimizedAffinity 8.45120144
REMARK minimizedRMSD -1
REMARK  0 active torsions:
REMARK  status: ('A' for Active; 'I' for Inactive)
ROOT
ATOM      1  C   UNL d   1       6.000   6.000  -5.997  0.00  0.00     0.077 C 
ATOM      2  C1  UNL d   1       5.159   5.369  -4.927  0.00  0.00    -0.074 A 
ATOM      3  C2  UNL d   1       4.126   4.485  -5.253  0.00  0.00    -0.005 A 
ATOM      4  C3  UNL d   1       3.358   3.898  -4.247  0.00  0.00     0.006 A 
ATOM      5  C4  UNL d   1       3.616   4.189  -2.907  0.00  0.00    -0.005 A 
ATOM      6  C5  UNL d   1       4.646   5.069  -2.562  0.00  0.00    -0.074 A 
ATOM      7  C6  UNL d   1       4.943   5.385  -1.126  0.00  0.00     0.077 C 
ATOM      8  C7  UNL d   1       5.417   5.649  -3.578  0.00  0.00    -0.001 A 
ENDROOT
TORSDOF 0
ENDMDL
