MODEL 1
REMARK minimizedAffinity 3.32852268
REMARK minimizedRMSD -1
REMARK  0 active torsions:
REMARK  status: ('A' for Active; 'I' for Inactive)
ROOT
ATOM      1  C   UNL d   1      -5.062  -6.000  -6.000  0.00  0.00     0.077 C 
ATOM      2  C1  UNL d   1      -5.002  -4.979  -4.903  0.00  0.00    -0.074 A 
ATOM      3  C2  UNL d   1      -5.091  -3.612  -5.187  0.00  0.00    -0.005 A 
ATOM      4  C3  UNL d   1      -5.042  -2.675  -4.156  0.00  0.00     0.006 A 
ATOM      5  C4  UNL d   1      -4.905  -3.093  -2.832  0.00  0.00    -0.005 A 
ATOM      6  C5  UNL d   1      -4.815  -4.455  -2.528  0.00  0.00    -0.074 A 
ATOM      7  C6  UNL d   1      -4.677  -4.923  -1.109  0.00  0.00     0.077 C 
ATOM      8  C7  UNL d   1      -4.872  -5.392  -3.569  0.00  0.00    -0.001 A 
ENDROOT
TORSDOF 0
ENDMDL
