MODEL 1
REMARK minimizedAffinity -0.24646993
REMARK minimizedRMSD -1
REMARK  0 active torsions:
REMARK  status: ('A' for Active; 'I' for Inactive)
ROOT
ATOM      1  C   UNL d   1      -4.134  -5.999  -5.611  0.00  0.00     0.077 C 
ATOM      2  C1  UNL d   1      -4.706  -5.263  -4.436  0.00  0.00    -0.074 A 
ATOM      3  C2  UNL d   1      -5.071  -3.916  -4.540  0.00  0.00    -0.005 A 
ATOM      4  C3  UNL d   1      -5.610  -3.247  -3.441  0.00  0.00     0.006 A 
ATOM      5  C4  UNL d   1      -5.790  -3.917  -2.230  0.00  0.00    -0.005 A 
ATOM      6  C5  UNL d   1      -5.431  -5.263  -2.107  0.00  0.00    -0.074 A 
ATOM      7  C6  UNL d   1      -5.627  -5.999  -0.816  0.00  0.00     0.077 C 
ATOM      8  C7  UNL d   1      -4.897  -5.930  -3.218  0.00  0.00    -0.001 A 
ENDROOT
TORSDOF 0
ENDMDL
