MODEL 1
REMARK minimizedAffinity -0.664999008
REMARK minimizedRMSD -1
REMARK  0 active torsions:
REMARK  status: ('A' for Active; 'I' for Inactive)
ROOT
ATOM      1  C   UNL d   1      -6.000  -5.118  -6.000  0.00  0.00     0.077 C 
ATOM      2  C1  UNL d   1      -5.507  -5.046  -4.585  0.00  0.00    -0.074 A 
ATOM      3  C2  UNL d   1      -4.612  -5.997  -4.087  0.00  0.00    -0.005 A 
ATOM      4  C3  UNL d   1      -4.155  -5.912  -2.771  0.00  0.00     0.006 A 
ATOM      5  C4  UNL d   1      -4.588  -4.876  -1.943  0.00  0.00    -0.005 A 
ATOM      6  C5  UNL d   1      -5.482  -3.914  -2.425  0.00  0.00    -0.074 A 
ATOM      7  C6  UNL d   1      -5.950  -2.789  -1.551  0.00  0.00     0.077 C 
ATOM      8  C7  UNL d   1      -5.932  -4.003  -3.749  0.00  0.00    -0.001 A 
ENDROOT
TORSDOF 0
ENDMDL
