MODEL 1
REMARK minimizedAffinity 7.14698315
REMARK minimizedRMSD -1
REMARK  0 active torsions:
REMARK  status: ('A' for Active; 'I' for Inactive)
ROOT
ATOM      1  C   UNL d   1       5.810  -5.939  -5.994  0.00  0.00     0.077 C 
ATOM      2  C1  UNL d   1       4.741  -5.932  -4.941  0.00  0.00    -0.074 A 
ATOM      3  C2  UNL d   1       3.388  -5.993  -5.289  0.00  0.00    -0.005 A 
ATOM      4  C3  UNL d   1       2.407  -5.995  -4.298  0.00  0.00     0.006 A 
ATOM      5  C4  UNL d   1       2.767  -5.935  -2.952  0.00  0.00    -0.005 A 
ATOM      6  C5  UNL d   1       4.115  -5.874  -2.585  0.00  0.00    -0.074 A 
ATOM      7  C6  UNL d   1       4.520  -5.819  -1.141  0.00  0.00     0.077 C 
ATOM      8  C7  UNL d   1       5.096  -5.880  -3.586  0.00  0.00    -0.001 A 
ENDROOT
TORSDOF 0
ENDMDL
