MODEL 1
REMARK minimizedAffinity 10.108983
REMARK minimizedRMSD -1
REMARK  0 active torsions:
REMARK  status: ('A' for Active; 'I' for Inactive)
ROOT
ATOM      1  C   UNL d   1       4.050  -2.993   5.973  0.00  0.00     0.077 C 
ATOM      2  C1  UNL d   1       2.860  -3.451   5.183  0.00  0.00    -0.074 A 
ATOM      3  C2  UNL d   1       2.576  -2.904   3.928  0.00  0.00    -0.005 A 
ATOM      4  C3  UNL d   1       1.471  -3.347   3.201  0.00  0.00     0.006 A 
ATOM      5  C4  UNL d   1       0.640  -4.340   3.721  0.00  0.00    -0.005 A 
ATOM      6  C5  UNL d   1       0.908  -4.900   4.974  0.00  0.00    -0.074 A 
ATOM      7  C6  UNL d   1       0.031  -5.975   5.543  0.00  0.00     0.077 C 
ATOM      8  C7  UNL d   1       2.025  -4.454   5.695  0.00  0.00    -0.001 A 
ENDROOT
TORSDOF 0
ENDMDL
