MODEL 1
REMARK minimizedAffinity -4.68239594
REMARK minimizedRMSD -1
REMARK  0 active torsions:
REMARK  status: ('A' for Active; 'I' for Inactive)
ROOT
ATOM      1  C4' PXY d   1       0.325   3.841   1.062  0.00  0.00     0.077 C 
ATOM      2  C1' PXY d   1       0.597  -1.856   0.120  0.00  0.00     0.077 C 
ATOM      3  C1  PXY d   1       0.539  -0.361   0.368  0.00  0.00    -0.082 A 
ATOM      4  C2  PXY d   1      -0.569   0.179   0.850  0.00  0.00     0.003 A 
ATOM      5  C3  PXY d   1      -0.650   1.533   1.050  0.00  0.00     0.003 A 
ATOM      6  C4  PXY d   1       0.432   2.336   0.805  0.00  0.00    -0.082 A 
ATOM      7  C5  PXY d   1       1.569   1.790   0.323  0.00  0.00     0.003 A 
ATOM      8  C6  PXY d   1       1.617   0.419   0.088  0.00  0.00     0.003 A 
ENDROOT
TORSDOF 0
ENDMDL
