MODEL 1
REMARK minimizedAffinity 5.74954796
REMARK minimizedRMSD -1
REMARK  0 active torsions:
REMARK  status: ('A' for Active; 'I' for Inactive)
ROOT
ATOM      1  C4' PXY d   1       2.702  -1.916   0.504  0.00  0.00     0.077 C 
ATOM      2  C1' PXY d   1      -2.242  -4.453  -1.089  0.00  0.00     0.077 C 
ATOM      3  C1  PXY d   1      -0.952  -3.781  -0.662  0.00  0.00    -0.082 A 
ATOM      4  C2  PXY d   1       0.050  -3.684  -1.520  0.00  0.00     0.003 A 
ATOM      5  C3  PXY d   1       1.235  -3.108  -1.141  0.00  0.00     0.003 A 
ATOM      6  C4  PXY d   1       1.378  -2.578   0.113  0.00  0.00    -0.082 A 
ATOM      7  C5  PXY d   1       0.356  -2.664   0.992  0.00  0.00     0.003 A 
ATOM      8  C6  PXY d   1      -0.824  -3.289   0.600  0.00  0.00     0.003 A 
ENDROOT
TORSDOF 0
ENDMDL
