MODEL 1
REMARK minimizedAffinity -1.13677609
REMARK minimizedRMSD -1
REMARK  0 active torsions:
REMARK  status: ('A' for Active; 'I' for Inactive)
ROOT
ATOM      1  C4' PXY d   1      -0.395  -4.122   3.740  0.00  0.00     0.077 C 
ATOM      2  C1' PXY d   1      -1.730  -3.529  -1.853  0.00  0.00     0.077 C 
ATOM      3  C1  PXY d   1      -1.371  -3.674  -0.387  0.00  0.00    -0.082 A 
ATOM      4  C2  PXY d   1      -1.535  -4.842   0.213  0.00  0.00     0.003 A 
ATOM      5  C3  PXY d   1      -1.246  -4.982   1.546  0.00  0.00     0.003 A 
ATOM      6  C4  PXY d   1      -0.734  -3.931   2.259  0.00  0.00    -0.082 A 
ATOM      7  C5  PXY d   1      -0.554  -2.740   1.650  0.00  0.00     0.003 A 
ATOM      8  C6  PXY d   1      -0.893  -2.606   0.307  0.00  0.00     0.003 A 
ENDROOT
TORSDOF 0
ENDMDL
