MODEL 1
REMARK minimizedAffinity 1.77407885
REMARK minimizedRMSD -1
REMARK  0 active torsions:
REMARK  status: ('A' for Active; 'I' for Inactive)
ROOT
ATOM      1  C4' PXY d   1      -1.195  -3.759  -0.423  0.00  0.00     0.077 C 
ATOM      2  C1' PXY d   1       0.427  -5.782   4.743  0.00  0.00     0.077 C 
ATOM      3  C1  PXY d   1       0.003  -5.239   3.393  0.00  0.00    -0.082 A 
ATOM      4  C2  PXY d   1      -0.741  -5.985   2.593  0.00  0.00     0.003 A 
ATOM      5  C3  PXY d   1      -1.107  -5.522   1.355  0.00  0.00     0.003 A 
ATOM      6  C4  PXY d   1      -0.751  -4.262   0.953  0.00  0.00    -0.082 A 
ATOM      7  C5  PXY d   1      -0.000  -3.491   1.768  0.00  0.00     0.003 A 
ATOM      8  C6  PXY d   1       0.395  -3.995   3.004  0.00  0.00     0.003 A 
ENDROOT
TORSDOF 0
ENDMDL
