MODEL 1
REMARK minimizedAffinity 8.55103683
REMARK minimizedRMSD -1
REMARK  0 active torsions:
REMARK  status: ('A' for Active; 'I' for Inactive)
ROOT
ATOM      1  C4' PXY d   1      -2.581   4.723  -5.995  0.00  0.00     0.077 C 
ATOM      2  C1' PXY d   1       2.192   1.805  -4.537  0.00  0.00     0.077 C 
ATOM      3  C1  PXY d   1       0.933   2.560  -4.917  0.00  0.00    -0.082 A 
ATOM      4  C2  PXY d   1       1.022   3.642  -5.672  0.00  0.00     0.003 A 
ATOM      5  C3  PXY d   1      -0.103   4.355  -5.999  0.00  0.00     0.003 A 
ATOM      6  C4  PXY d   1      -1.337   3.924  -5.594  0.00  0.00    -0.082 A 
ATOM      7  C5  PXY d   1      -1.438   2.815  -4.832  0.00  0.00     0.003 A 
ATOM      8  C6  PXY d   1      -0.280   2.129  -4.476  0.00  0.00     0.003 A 
ENDROOT
TORSDOF 0
ENDMDL
