MODEL 1
REMARK minimizedAffinity 2.726825
REMARK minimizedRMSD -1
REMARK  0 active torsions:
REMARK  status: ('A' for Active; 'I' for Inactive)
ROOT
ATOM      1  C4' PXY d   1       3.339   1.774   0.815  0.00  0.00     0.077 C 
ATOM      2  C1' PXY d   1      -1.978   2.948   2.755  0.00  0.00     0.077 C 
ATOM      3  C1  PXY d   1      -0.587   2.644   2.235  0.00  0.00    -0.082 A 
ATOM      4  C2  PXY d   1       0.167   1.758   2.863  0.00  0.00     0.003 A 
ATOM      5  C3  PXY d   1       1.440   1.494   2.425  0.00  0.00     0.003 A 
ATOM      6  C4  PXY d   1       1.925   2.105   1.300  0.00  0.00    -0.082 A 
ATOM      7  C5  PXY d   1       1.157   3.003   0.646  0.00  0.00     0.003 A 
ATOM      8  C6  PXY d   1      -0.116   3.287   1.132  0.00  0.00     0.003 A 
ENDROOT
TORSDOF 0
ENDMDL
