MODEL 1
REMARK minimizedAffinity 2.72797823
REMARK minimizedRMSD -1
REMARK  0 active torsions:
REMARK  status: ('A' for Active; 'I' for Inactive)
ROOT
ATOM      1  C4' PXY d   1      -3.717   4.886  -6.000  0.00  0.00     0.077 C 
ATOM      2  C1' PXY d   1       1.238   2.185  -4.752  0.00  0.00     0.077 C 
ATOM      3  C1  PXY d   1      -0.055   2.905  -5.079  0.00  0.00    -0.082 A 
ATOM      4  C2  PXY d   1      -1.213   2.338  -4.780  0.00  0.00     0.003 A 
ATOM      5  C3  PXY d   1      -2.392   2.961  -5.098  0.00  0.00     0.003 A 
ATOM      6  C4  PXY d   1      -2.386   4.200  -5.679  0.00  0.00    -0.082 A 
ATOM      7  C5  PXY d   1      -1.209   4.790  -5.978  0.00  0.00     0.003 A 
ATOM      8  C6  PXY d   1      -0.023   4.123  -5.684  0.00  0.00     0.003 A 
ENDROOT
TORSDOF 0
ENDMDL
