MODEL 1
REMARK minimizedAffinity 0.247985661
REMARK minimizedRMSD -1
REMARK  0 active torsions:
REMARK  status: ('A' for Active; 'I' for Inactive)
ROOT
ATOM      1  C4' PXY d   1       1.002   2.913  -5.597  0.00  0.00     0.077 C 
ATOM      2  C1' PXY d   1      -4.031   2.064  -2.883  0.00  0.00     0.077 C 
ATOM      3  C1  PXY d   1      -2.717   2.284  -3.606  0.00  0.00    -0.082 A 
ATOM      4  C2  PXY d   1      -1.580   2.209  -2.933  0.00  0.00     0.003 A 
ATOM      5  C3  PXY d   1      -0.384   2.436  -3.565  0.00  0.00     0.003 A 
ATOM      6  C4  PXY d   1      -0.348   2.690  -4.910  0.00  0.00    -0.082 A 
ATOM      7  C5  PXY d   1      -1.503   2.757  -5.605  0.00  0.00     0.003 A 
ATOM      8  C6  PXY d   1      -2.709   2.564  -4.937  0.00  0.00     0.003 A 
ENDROOT
TORSDOF 0
ENDMDL
