MODEL 1
REMARK minimizedAffinity 8.7908268
REMARK minimizedRMSD -1
REMARK  0 active torsions:
REMARK  status: ('A' for Active; 'I' for Inactive)
ROOT
ATOM      1  C4' PXY d   1       2.460  -4.018  -1.478  0.00  0.00     0.077 C 
ATOM      2  C1' PXY d   1       1.567   1.008   1.234  0.00  0.00     0.077 C 
ATOM      3  C1  PXY d   1       1.804  -0.304   0.512  0.00  0.00    -0.082 A 
ATOM      4  C2  PXY d   1       1.247  -1.413   0.971  0.00  0.00     0.003 A 
ATOM      5  C3  PXY d   1       1.476  -2.613   0.348  0.00  0.00     0.003 A 
ATOM      6  C4  PXY d   1       2.241  -2.670  -0.786  0.00  0.00    -0.082 A 
ATOM      7  C5  PXY d   1       2.804  -1.541  -1.266  0.00  0.00     0.003 A 
ATOM      8  C6  PXY d   1       2.592  -0.340  -0.596  0.00  0.00     0.003 A 
ENDROOT
TORSDOF 0
ENDMDL
