MODEL 1
REMARK minimizedAffinity -2.07015848
REMARK minimizedRMSD -1
REMARK  0 active torsions:
REMARK  status: ('A' for Active; 'I' for Inactive)
ROOT
ATOM      1  C4' PXY d   1      -2.066  -3.054   0.394  0.00  0.00     0.077 C 
ATOM      2  C1' PXY d   1       1.814   1.135   1.294  0.00  0.00     0.077 C 
ATOM      3  C1  PXY d   1       0.789   0.042   1.067  0.00  0.00    -0.082 A 
ATOM      4  C2  PXY d   1       1.165  -1.106   0.528  0.00  0.00     0.003 A 
ATOM      5  C3  PXY d   1       0.245  -2.094   0.287  0.00  0.00     0.003 A 
ATOM      6  C4  PXY d   1      -1.064  -1.925   0.650  0.00  0.00    -0.082 A 
ATOM      7  C5  PXY d   1      -1.454  -0.761   1.211  0.00  0.00     0.003 A 
ATOM      8  C6  PXY d   1      -0.512   0.245   1.410  0.00  0.00     0.003 A 
ENDROOT
TORSDOF 0
ENDMDL
