MODEL 1
REMARK minimizedAffinity 4.59124565
REMARK minimizedRMSD -1
REMARK  0 active torsions:
REMARK  status: ('A' for Active; 'I' for Inactive)
ROOT
ATOM      1  C4' PXY d   1       1.689   1.945  -4.755  0.00  0.00     0.077 C 
ATOM      2  C1' PXY d   1      -4.009   1.687  -3.818  0.00  0.00     0.077 C 
ATOM      3  C1  PXY d   1      -2.514   1.764  -4.055  0.00  0.00    -0.082 A 
ATOM      4  C2  PXY d   1      -2.012   1.349  -5.206  0.00  0.00     0.003 A 
ATOM      5  C3  PXY d   1      -0.658   1.382  -5.425  0.00  0.00     0.003 A 
ATOM      6  C4  PXY d   1       0.185   1.895  -4.475  0.00  0.00    -0.082 A 
ATOM      7  C5  PXY d   1      -0.321   2.330  -3.302  0.00  0.00     0.003 A 
ATOM      8  C6  PXY d   1      -1.694   2.250  -3.084  0.00  0.00     0.003 A 
ENDROOT
TORSDOF 0
ENDMDL
