MODEL 1
REMARK minimizedAffinity -1.67121649
REMARK minimizedRMSD -1
REMARK  0 active torsions:
REMARK  status: ('A' for Active; 'I' for Inactive)
ROOT
ATOM      1  C4' PXY d   1      -2.677  -2.796   0.738  0.00  0.00     0.077 C 
ATOM      2  C1' PXY d   1       3.007  -3.477  -0.065  0.00  0.00     0.077 C 
ATOM      3  C1  PXY d   1       1.518  -3.300   0.158  0.00  0.00    -0.082 A 
ATOM      4  C2  PXY d   1       0.677  -3.511  -0.841  0.00  0.00     0.003 A 
ATOM      5  C3  PXY d   1      -0.670  -3.325  -0.666  0.00  0.00     0.003 A 
ATOM      6  C4  PXY d   1      -1.166  -2.971   0.561  0.00  0.00    -0.082 A 
ATOM      7  C5  PXY d   1      -0.316  -2.764   1.588  0.00  0.00     0.003 A 
ATOM      8  C6  PXY d   1       1.052  -2.919   1.378  0.00  0.00     0.003 A 
ENDROOT
TORSDOF 0
ENDMDL
