MODEL 1
REMARK minimizedAffinity 3.83279467
REMARK minimizedRMSD -1
REMARK  0 active torsions:
REMARK  status: ('A' for Active; 'I' for Inactive)
ROOT
ATOM      1  C4' PXY d   1       5.849   5.999   3.659  0.00  0.00     0.077 C 
ATOM      2  C1' PXY d   1       6.000   3.045  -1.307  0.00  0.00     0.077 C 
ATOM      3  C1  PXY d   1       5.955   3.809   0.002  0.00  0.00    -0.082 A 
ATOM      4  C2  PXY d   1       5.925   5.132  -0.014  0.00  0.00     0.003 A 
ATOM      5  C3  PXY d   1       5.916   5.840   1.160  0.00  0.00     0.003 A 
ATOM      6  C4  PXY d   1       5.885   5.186   2.363  0.00  0.00    -0.082 A 
ATOM      7  C5  PXY d   1       5.905   3.837   2.387  0.00  0.00     0.003 A 
ATOM      8  C6  PXY d   1       5.955   3.137   1.185  0.00  0.00     0.003 A 
ENDROOT
TORSDOF 0
ENDMDL
