MODEL 1
REMARK minimizedAffinity 4.37746334
REMARK minimizedRMSD -1
REMARK  0 active torsions:
REMARK  status: ('A' for Active; 'I' for Inactive)
ROOT
ATOM      1  C4' PXY d   1      -3.814   3.902  -6.000  0.00  0.00     0.077 C 
ATOM      2  C1' PXY d   1       1.418   1.941  -4.520  0.00  0.00     0.077 C 
ATOM      3  C1  PXY d   1       0.041   2.443  -4.906  0.00  0.00    -0.082 A 
ATOM      4  C2  PXY d   1      -0.073   3.520  -5.667  0.00  0.00     0.003 A 
ATOM      5  C3  PXY d   1      -1.311   4.006  -6.000  0.00  0.00     0.003 A 
ATOM      6  C4  PXY d   1      -2.444   3.354  -5.593  0.00  0.00    -0.082 A 
ATOM      7  C5  PXY d   1      -2.336   2.249  -4.825  0.00  0.00     0.003 A 
ATOM      8  C6  PXY d   1      -1.071   1.795  -4.464  0.00  0.00     0.003 A 
ENDROOT
TORSDOF 0
ENDMDL
