MODEL 1
REMARK minimizedAffinity 4.47898388
REMARK minimizedRMSD -1
REMARK  0 active torsions:
REMARK  status: ('A' for Active; 'I' for Inactive)
ROOT
ATOM      1  C4' PXY d   1       1.283  -1.494   0.572  0.00  0.00     0.077 C 
ATOM      2  C1' PXY d   1      -3.433  -4.732  -0.261  0.00  0.00     0.077 C 
ATOM      3  C1  PXY d   1      -2.202  -3.877  -0.032  0.00  0.00    -0.082 A 
ATOM      4  C2  PXY d   1      -1.397  -3.606  -1.046  0.00  0.00     0.003 A 
ATOM      5  C3  PXY d   1      -0.262  -2.861  -0.850  0.00  0.00     0.003 A 
ATOM      6  C4  PXY d   1       0.024  -2.345   0.385  0.00  0.00    -0.082 A 
ATOM      7  C5  PXY d   1      -0.799  -2.609   1.423  0.00  0.00     0.003 A 
ATOM      8  C6  PXY d   1      -1.924  -3.401   1.212  0.00  0.00     0.003 A 
ENDROOT
TORSDOF 0
ENDMDL
