MODEL 1
REMARK minimizedAffinity -1.05346394
REMARK minimizedRMSD -1
REMARK  0 active torsions:
REMARK  status: ('A' for Active; 'I' for Inactive)
ROOT
ATOM      1  C4' PXY d   1       3.010   1.826  -0.704  0.00  0.00     0.077 C 
ATOM      2  C1' PXY d   1      -1.004   3.058   3.268  0.00  0.00     0.077 C 
ATOM      3  C1  PXY d   1       0.043   2.744   2.219  0.00  0.00    -0.082 A 
ATOM      4  C2  PXY d   1       0.635   1.560   2.218  0.00  0.00     0.003 A 
ATOM      5  C3  PXY d   1       1.607   1.271   1.296  0.00  0.00     0.003 A 
ATOM      6  C4  PXY d   1       1.940   2.183   0.331  0.00  0.00    -0.082 A 
ATOM      7  C5  PXY d   1       1.333   3.389   0.318  0.00  0.00     0.003 A 
ATOM      8  C6  PXY d   1       0.378   3.678   1.288  0.00  0.00     0.003 A 
ENDROOT
TORSDOF 0
ENDMDL
