MODEL 1
REMARK minimizedAffinity 8.13723946
REMARK minimizedRMSD -1
REMARK  0 active torsions:
REMARK  status: ('A' for Active; 'I' for Inactive)
ROOT
ATOM      1  C4' PXY d   1      -6.000   0.040   0.728  0.00  0.00     0.077 C 
ATOM      2  C1' PXY d   1      -0.505   1.282   2.026  0.00  0.00     0.077 C 
ATOM      3  C1  PXY d   1      -1.944   0.944   1.688  0.00  0.00    -0.082 A 
ATOM      4  C2  PXY d   1      -2.630   1.735   0.879  0.00  0.00     0.003 A 
ATOM      5  C3  PXY d   1      -3.941   1.461   0.589  0.00  0.00     0.003 A 
ATOM      6  C4  PXY d   1      -4.542   0.337   1.089  0.00  0.00    -0.082 A 
ATOM      7  C5  PXY d   1      -3.846  -0.481   1.907  0.00  0.00     0.003 A 
ATOM      8  C6  PXY d   1      -2.528  -0.163   2.222  0.00  0.00     0.003 A 
ENDROOT
TORSDOF 0
ENDMDL
