MODEL 1
REMARK minimizedAffinity 3.71250558
REMARK minimizedRMSD -1
REMARK  0 active torsions:
REMARK  status: ('A' for Active; 'I' for Inactive)
ROOT
ATOM      1  C4' PXY d   1      -3.688   1.859  -3.198  0.00  0.00     0.077 C 
ATOM      2  C1' PXY d   1       1.455   2.233  -5.809  0.00  0.00     0.077 C 
ATOM      3  C1  PXY d   1       0.101   2.139  -5.135  0.00  0.00    -0.082 A 
ATOM      4  C2  PXY d   1       0.025   2.147  -3.814  0.00  0.00     0.003 A 
ATOM      5  C3  PXY d   1      -1.189   2.031  -3.188  0.00  0.00     0.003 A 
ATOM      6  C4  PXY d   1      -2.343   1.960  -3.921  0.00  0.00    -0.082 A 
ATOM      7  C5  PXY d   1      -2.275   1.963  -5.269  0.00  0.00     0.003 A 
ATOM      8  C6  PXY d   1      -1.030   2.040  -5.886  0.00  0.00     0.003 A 
ENDROOT
TORSDOF 0
ENDMDL
