MODEL 1
REMARK minimizedAffinity 6.53755331
REMARK minimizedRMSD -1
REMARK  0 active torsions:
REMARK  status: ('A' for Active; 'I' for Inactive)
ROOT
ATOM      1  C4' PXY d   1      -2.903   4.476  -5.657  0.00  0.00     0.077 C 
ATOM      2  C1' PXY d   1       2.614   2.757  -5.513  0.00  0.00     0.077 C 
ATOM      3  C1  PXY d   1       1.164   3.195  -5.552  0.00  0.00    -0.082 A 
ATOM      4  C2  PXY d   1       0.858   4.407  -5.987  0.00  0.00     0.003 A 
ATOM      5  C3  PXY d   1      -0.446   4.831  -5.998  0.00  0.00     0.003 A 
ATOM      6  C4  PXY d   1      -1.452   3.988  -5.610  0.00  0.00    -0.082 A 
ATOM      7  C5  PXY d   1      -1.149   2.746  -5.175  0.00  0.00     0.003 A 
ATOM      8  C6  PXY d   1       0.184   2.349  -5.132  0.00  0.00     0.003 A 
ENDROOT
TORSDOF 0
ENDMDL
