MODEL 1
REMARK minimizedAffinity 14.6506348
REMARK minimizedRMSD -1
REMARK  0 active torsions:
REMARK  status: ('A' for Active; 'I' for Inactive)
ROOT
ATOM      1  C4' PXY d   1       2.490  -0.734  -1.493  0.00  0.00     0.077 C 
ATOM      2  C1' PXY d   1      -3.271  -1.090  -1.803  0.00  0.00     0.077 C 
ATOM      3  C1  PXY d   1      -1.759  -1.000  -1.734  0.00  0.00    -0.082 A 
ATOM      4  C2  PXY d   1      -1.149  -1.129  -0.567  0.00  0.00     0.003 A 
ATOM      5  C3  PXY d   1       0.215  -1.018  -0.483  0.00  0.00     0.003 A 
ATOM      6  C4  PXY d   1       0.966  -0.827  -1.611  0.00  0.00    -0.082 A 
ATOM      7  C5  PXY d   1       0.352  -0.706  -2.807  0.00  0.00     0.003 A 
ATOM      8  C6  PXY d   1      -1.037  -0.780  -2.866  0.00  0.00     0.003 A 
ENDROOT
TORSDOF 0
ENDMDL
