MODEL 1
REMARK minimizedAffinity 8.65121365
REMARK minimizedRMSD -1
REMARK  0 active torsions:
REMARK  status: ('A' for Active; 'I' for Inactive)
ROOT
ATOM      1  C4' PXY d   1       5.475   5.999   5.997  0.00  0.00     0.077 C 
ATOM      2  C1' PXY d   1       3.743   0.484   5.958  0.00  0.00     0.077 C 
ATOM      3  C1  PXY d   1       4.208   1.927   5.974  0.00  0.00    -0.082 A 
ATOM      4  C2  PXY d   1       3.315   2.902   5.975  0.00  0.00     0.003 A 
ATOM      5  C3  PXY d   1       3.719   4.213   5.957  0.00  0.00     0.003 A 
ATOM      6  C4  PXY d   1       5.051   4.528   5.991  0.00  0.00    -0.082 A 
ATOM      7  C5  PXY d   1       5.968   3.538   6.000  0.00  0.00     0.003 A 
ATOM      8  C6  PXY d   1       5.538   2.214   5.976  0.00  0.00     0.003 A 
ENDROOT
TORSDOF 0
ENDMDL
