MODEL 1
REMARK minimizedAffinity 7.82130241
REMARK minimizedRMSD -1
REMARK  0 active torsions:
REMARK  status: ('A' for Active; 'I' for Inactive)
ROOT
ATOM      1  C4' PXY d   1       3.499   2.582   0.361  0.00  0.00     0.077 C 
ATOM      2  C1' PXY d   1       4.282   3.993   5.912  0.00  0.00     0.077 C 
ATOM      3  C1  PXY d   1       4.089   3.623   4.455  0.00  0.00    -0.082 A 
ATOM      4  C2  PXY d   1       2.941   3.896   3.857  0.00  0.00     0.003 A 
ATOM      5  C3  PXY d   1       2.739   3.540   2.548  0.00  0.00     0.003 A 
ATOM      6  C4  PXY d   1       3.741   2.946   1.829  0.00  0.00    -0.082 A 
ATOM      7  C5  PXY d   1       4.919   2.674   2.429  0.00  0.00     0.003 A 
ATOM      8  C6  PXY d   1       5.090   3.006   3.770  0.00  0.00     0.003 A 
ENDROOT
TORSDOF 0
ENDMDL
