MODEL 1
REMARK minimizedAffinity 4.69407463
REMARK minimizedRMSD -1
REMARK  0 active torsions:
REMARK  status: ('A' for Active; 'I' for Inactive)
ROOT
ATOM      1  C4' PXY d   1       5.895   5.986   5.915  0.00  0.00     0.077 C 
ATOM      2  C1' PXY d   1       2.892   1.047   5.993  0.00  0.00     0.077 C 
ATOM      3  C1  PXY d   1       3.690   2.336   5.978  0.00  0.00    -0.082 A 
ATOM      4  C2  PXY d   1       3.056   3.498   5.988  0.00  0.00     0.003 A 
ATOM      5  C3  PXY d   1       3.761   4.673   5.942  0.00  0.00     0.003 A 
ATOM      6  C4  PXY d   1       5.130   4.660   5.940  0.00  0.00    -0.082 A 
ATOM      7  C5  PXY d   1       5.784   3.479   5.940  0.00  0.00     0.003 A 
ATOM      8  C6  PXY d   1       5.049   2.297   5.945  0.00  0.00     0.003 A 
ENDROOT
TORSDOF 0
ENDMDL
