MODEL 1
REMARK minimizedAffinity 3.96815062
REMARK minimizedRMSD -1
REMARK  0 active torsions:
REMARK  status: ('A' for Active; 'I' for Inactive)
ROOT
ATOM      1  C4' PXY d   1       1.012   6.000   5.823  0.00  0.00     0.077 C 
ATOM      2  C1' PXY d   1       5.998   3.082   5.999  0.00  0.00     0.077 C 
ATOM      3  C1  PXY d   1       4.685   3.837   5.948  0.00  0.00    -0.082 A 
ATOM      4  C2  PXY d   1       4.691   5.160   5.933  0.00  0.00     0.003 A 
ATOM      5  C3  PXY d   1       3.511   5.858   5.919  0.00  0.00     0.003 A 
ATOM      6  C4  PXY d   1       2.314   5.196   5.865  0.00  0.00    -0.082 A 
ATOM      7  C5  PXY d   1       2.300   3.846   5.869  0.00  0.00     0.003 A 
ATOM      8  C6  PXY d   1       3.507   3.156   5.925  0.00  0.00     0.003 A 
ENDROOT
TORSDOF 0
ENDMDL
