MODEL 1
REMARK minimizedAffinity 8.05160046
REMARK minimizedRMSD -1
REMARK  0 active torsions:
REMARK  status: ('A' for Active; 'I' for Inactive)
ROOT
ATOM      1  C4' PXY d   1      -4.305  -2.828   2.033  0.00  0.00     0.077 C 
ATOM      2  C1' PXY d   1       0.157  -0.722  -0.978  0.00  0.00     0.077 C 
ATOM      3  C1  PXY d   1      -1.007  -1.286  -0.188  0.00  0.00    -0.082 A 
ATOM      4  C2  PXY d   1      -2.186  -0.687  -0.242  0.00  0.00     0.003 A 
ATOM      5  C3  PXY d   1      -3.241  -1.165   0.491  0.00  0.00     0.003 A 
ATOM      6  C4  PXY d   1      -3.104  -2.299   1.245  0.00  0.00    -0.082 A 
ATOM      7  C5  PXY d   1      -1.907  -2.923   1.297  0.00  0.00     0.003 A 
ATOM      8  C6  PXY d   1      -0.838  -2.398   0.578  0.00  0.00     0.003 A 
ENDROOT
TORSDOF 0
ENDMDL
