MODEL 1
REMARK minimizedAffinity 10.6388111
REMARK minimizedRMSD -1
REMARK  0 active torsions:
REMARK  status: ('A' for Active; 'I' for Inactive)
ROOT
ATOM      1  C4' PXY d   1       0.673  -0.791  -1.953  0.00  0.00     0.077 C 
ATOM      2  C1' PXY d   1       4.333   3.237  -0.003  0.00  0.00     0.077 C 
ATOM      3  C1  PXY d   1       3.381   2.178  -0.524  0.00  0.00    -0.082 A 
ATOM      4  C2  PXY d   1       2.091   2.261  -0.241  0.00  0.00     0.003 A 
ATOM      5  C3  PXY d   1       1.222   1.295  -0.677  0.00  0.00     0.003 A 
ATOM      6  C4  PXY d   1       1.669   0.261  -1.456  0.00  0.00    -0.082 A 
ATOM      7  C5  PXY d   1       2.982   0.175  -1.758  0.00  0.00     0.003 A 
ATOM      8  C6  PXY d   1       3.855   1.144  -1.270  0.00  0.00     0.003 A 
ENDROOT
TORSDOF 0
ENDMDL
