MODEL 1
REMARK minimizedAffinity 25.1638298
REMARK minimizedRMSD -1
REMARK  0 active torsions:
REMARK  status: ('A' for Active; 'I' for Inactive)
ROOT
ATOM      1  C4' PXY d   1      -5.988   5.945  -5.987  0.00  0.00     0.077 C 
ATOM      2  C1' PXY d   1      -2.827   1.432  -4.239  0.00  0.00     0.077 C 
ATOM      3  C1  PXY d   1      -3.660   2.609  -4.708  0.00  0.00    -0.082 A 
ATOM      4  C2  PXY d   1      -3.371   3.827  -4.278  0.00  0.00     0.003 A 
ATOM      5  C3  PXY d   1      -4.134   4.898  -4.667  0.00  0.00     0.003 A 
ATOM      6  C4  PXY d   1      -5.169   4.728  -5.547  0.00  0.00    -0.082 A 
ATOM      7  C5  PXY d   1      -5.463   3.491  -5.998  0.00  0.00     0.003 A 
ATOM      8  C6  PXY d   1      -4.702   2.411  -5.559  0.00  0.00     0.003 A 
ENDROOT
TORSDOF 0
ENDMDL
