MODEL 1
REMARK minimizedAffinity 13.3422966
REMARK minimizedRMSD -1
REMARK  0 active torsions:
REMARK  status: ('A' for Active; 'I' for Inactive)
ROOT
ATOM      1  C4' PXY d   1      -3.593   0.860  -3.426  0.00  0.00     0.077 C 
ATOM      2  C1' PXY d   1      -1.100  -2.316   0.710  0.00  0.00     0.077 C 
ATOM      3  C1  PXY d   1      -1.765  -1.485  -0.369  0.00  0.00    -0.082 A 
ATOM      4  C2  PXY d   1      -1.153  -1.307  -1.529  0.00  0.00     0.003 A 
ATOM      5  C3  PXY d   1      -1.726  -0.533  -2.504  0.00  0.00     0.003 A 
ATOM      6  C4  PXY d   1      -2.963   0.022  -2.311  0.00  0.00    -0.082 A 
ATOM      7  C5  PXY d   1      -3.599  -0.164  -1.135  0.00  0.00     0.003 A 
ATOM      8  C6  PXY d   1      -2.982  -0.920  -0.142  0.00  0.00     0.003 A 
ENDROOT
TORSDOF 0
ENDMDL
