MODEL 1
REMARK minimizedAffinity 15.6921024
REMARK minimizedRMSD -1
REMARK  0 active torsions:
REMARK  status: ('A' for Active; 'I' for Inactive)
ROOT
ATOM      1  C4' PXY d   1       3.354   3.539   0.914  0.00  0.00     0.077 C 
ATOM      2  C1' PXY d   1       5.999   1.577  -3.837  0.00  0.00     0.077 C 
ATOM      3  C1  PXY d   1       5.295   2.093  -2.598  0.00  0.00    -0.082 A 
ATOM      4  C2  PXY d   1       5.999   2.662  -1.634  0.00  0.00     0.003 A 
ATOM      5  C3  PXY d   1       5.382   3.105  -0.492  0.00  0.00     0.003 A 
ATOM      6  C4  PXY d   1       4.023   3.012  -0.359  0.00  0.00    -0.082 A 
ATOM      7  C5  PXY d   1       3.295   2.442  -1.343  0.00  0.00     0.003 A 
ATOM      8  C6  PXY d   1       3.946   1.962  -2.476  0.00  0.00     0.003 A 
ENDROOT
TORSDOF 0
ENDMDL
