MODEL 1
REMARK minimizedAffinity 2.6914165
REMARK minimizedRMSD -1
REMARK  0 active torsions:
REMARK  status: ('A' for Active; 'I' for Inactive)
ROOT
ATOM      1  C4' PXY d   1       2.628   2.621   1.132  0.00  0.00     0.077 C 
ATOM      2  C1' PXY d   1       5.174   4.424   5.999  0.00  0.00     0.077 C 
ATOM      3  C1  PXY d   1       4.516   3.956   4.716  0.00  0.00    -0.082 A 
ATOM      4  C2  PXY d   1       3.204   3.793   4.675  0.00  0.00     0.003 A 
ATOM      5  C3  PXY d   1       2.596   3.339   3.533  0.00  0.00     0.003 A 
ATOM      6  C4  PXY d   1       3.334   3.101   2.404  0.00  0.00    -0.082 A 
ATOM      7  C5  PXY d   1       4.672   3.276   2.434  0.00  0.00     0.003 A 
ATOM      8  C6  PXY d   1       5.274   3.697   3.616  0.00  0.00     0.003 A 
ENDROOT
TORSDOF 0
ENDMDL
