MODEL 1
REMARK minimizedAffinity 8.47953987
REMARK minimizedRMSD -1
REMARK  0 active torsions:
REMARK  status: ('A' for Active; 'I' for Inactive)
ROOT
ATOM      1  C4' PXY d   1       6.000   2.668   5.945  0.00  0.00     0.077 C 
ATOM      2  C1' PXY d   1       1.331   5.998   5.218  0.00  0.00     0.077 C 
ATOM      3  C1  PXY d   1       2.563   5.135   5.405  0.00  0.00    -0.082 A 
ATOM      4  C2  PXY d   1       2.455   3.817   5.341  0.00  0.00     0.003 A 
ATOM      5  C3  PXY d   1       3.553   3.021   5.540  0.00  0.00     0.003 A 
ATOM      6  C4  PXY d   1       4.785   3.579   5.753  0.00  0.00    -0.082 A 
ATOM      7  C5  PXY d   1       4.905   4.923   5.809  0.00  0.00     0.003 A 
ATOM      8  C6  PXY d   1       3.771   5.713   5.646  0.00  0.00     0.003 A 
ENDROOT
TORSDOF 0
ENDMDL
