MODEL 1
REMARK minimizedAffinity 16.840683
REMARK minimizedRMSD -1
REMARK  0 active torsions:
REMARK  status: ('A' for Active; 'I' for Inactive)
ROOT
ATOM      1  C4' PXY d   1      -5.999   5.997   3.998  0.00  0.00     0.077 C 
ATOM      2  C1' PXY d   1      -3.920   4.019  -1.020  0.00  0.00     0.077 C 
ATOM      3  C1  PXY d   1      -4.462   4.527   0.302  0.00  0.00    -0.082 A 
ATOM      4  C2  PXY d   1      -5.351   5.507   0.311  0.00  0.00     0.003 A 
ATOM      5  C3  PXY d   1      -5.828   5.999   1.499  0.00  0.00     0.003 A 
ATOM      6  C4  PXY d   1      -5.431   5.447   2.687  0.00  0.00    -0.082 A 
ATOM      7  C5  PXY d   1      -4.533   4.440   2.685  0.00  0.00     0.003 A 
ATOM      8  C6  PXY d   1      -4.030   3.982   1.471  0.00  0.00     0.003 A 
ENDROOT
TORSDOF 0
ENDMDL
