MODEL 1
REMARK minimizedAffinity 20.9569569
REMARK minimizedRMSD -1
REMARK  0 active torsions:
REMARK  status: ('A' for Active; 'I' for Inactive)
ROOT
ATOM      1  C4' PXY d   1      -3.142   4.931  -3.691  0.00  0.00     0.077 C 
ATOM      2  C1' PXY d   1      -3.125  -0.810  -3.015  0.00  0.00     0.077 C 
ATOM      3  C1  PXY d   1      -3.138   0.696  -3.182  0.00  0.00    -0.082 A 
ATOM      4  C2  PXY d   1      -2.805   1.228  -4.347  0.00  0.00     0.003 A 
ATOM      5  C3  PXY d   1      -2.781   2.590  -4.507  0.00  0.00     0.003 A 
ATOM      6  C4  PXY d   1      -3.152   3.414  -3.479  0.00  0.00    -0.082 A 
ATOM      7  C5  PXY d   1      -3.503   2.879  -2.290  0.00  0.00     0.003 A 
ATOM      8  C6  PXY d   1      -3.481   1.496  -2.136  0.00  0.00     0.003 A 
ENDROOT
TORSDOF 0
ENDMDL
