MODEL 1
REMARK minimizedAffinity 12.4596052
REMARK minimizedRMSD -1
REMARK  0 active torsions:
REMARK  status: ('A' for Active; 'I' for Inactive)
ROOT
ATOM      1  C4' PXY d   1       6.000   1.932  -2.637  0.00  0.00     0.077 C 
ATOM      2  C1' PXY d   1       1.235   2.263   0.620  0.00  0.00     0.077 C 
ATOM      3  C1  PXY d   1       2.481   2.165  -0.239  0.00  0.00    -0.082 A 
ATOM      4  C2  PXY d   1       3.571   2.828   0.111  0.00  0.00     0.003 A 
ATOM      5  C3  PXY d   1       4.696   2.776  -0.671  0.00  0.00     0.003 A 
ATOM      6  C4  PXY d   1       4.723   1.995  -1.795  0.00  0.00    -0.082 A 
ATOM      7  C5  PXY d   1       3.618   1.306  -2.153  0.00  0.00     0.003 A 
ATOM      8  C6  PXY d   1       2.473   1.405  -1.368  0.00  0.00     0.003 A 
ENDROOT
TORSDOF 0
ENDMDL
