MODEL 1
REMARK minimizedAffinity 4.53403473
REMARK minimizedRMSD -1
REMARK  0 active torsions:
REMARK  status: ('A' for Active; 'I' for Inactive)
ROOT
ATOM      1  C4' PXY d   1       5.968   5.944   5.971  0.00  0.00     0.077 C 
ATOM      2  C1' PXY d   1       3.338   0.796   5.995  0.00  0.00     0.077 C 
ATOM      3  C1  PXY d   1       4.017   2.151   5.984  0.00  0.00    -0.082 A 
ATOM      4  C2  PXY d   1       5.338   2.221   5.973  0.00  0.00     0.003 A 
ATOM      5  C3  PXY d   1       5.969   3.439   5.995  0.00  0.00     0.003 A 
ATOM      6  C4  PXY d   1       5.239   4.597   5.973  0.00  0.00    -0.082 A 
ATOM      7  C5  PXY d   1       3.891   4.534   5.973  0.00  0.00     0.003 A 
ATOM      8  C6  PXY d   1       3.270   3.289   5.993  0.00  0.00     0.003 A 
ENDROOT
TORSDOF 0
ENDMDL
