MODEL 1
REMARK minimizedAffinity 9.03905678
REMARK minimizedRMSD -1
REMARK  0 active torsions:
REMARK  status: ('A' for Active; 'I' for Inactive)
ROOT
ATOM      1  C4' PXY d   1       1.568   5.997   5.967  0.00  0.00     0.077 C 
ATOM      2  C1' PXY d   1       5.998   2.291   5.734  0.00  0.00     0.077 C 
ATOM      3  C1  PXY d   1       4.845   3.272   5.799  0.00  0.00    -0.082 A 
ATOM      4  C2  PXY d   1       3.608   2.820   5.926  0.00  0.00     0.003 A 
ATOM      5  C3  PXY d   1       2.550   3.692   5.954  0.00  0.00     0.003 A 
ATOM      6  C4  PXY d   1       2.765   5.043   5.906  0.00  0.00    -0.082 A 
ATOM      7  C5  PXY d   1       4.025   5.513   5.788  0.00  0.00     0.003 A 
ATOM      8  C6  PXY d   1       5.081   4.609   5.719  0.00  0.00     0.003 A 
ENDROOT
TORSDOF 0
ENDMDL
