MODEL 1
REMARK minimizedAffinity 6.87935638
REMARK minimizedRMSD -1
REMARK  0 active torsions:
REMARK  status: ('A' for Active; 'I' for Inactive)
ROOT
ATOM      1  C4' PXY d   1       1.520   6.000   3.418  0.00  0.00     0.077 C 
ATOM      2  C1' PXY d   1       5.998   3.412   5.999  0.00  0.00     0.077 C 
ATOM      3  C1  PXY d   1       4.819   4.094   5.334  0.00  0.00    -0.082 A 
ATOM      4  C2  PXY d   1       4.455   3.729   4.116  0.00  0.00     0.003 A 
ATOM      5  C3  PXY d   1       3.411   4.357   3.487  0.00  0.00     0.003 A 
ATOM      6  C4  PXY d   1       2.699   5.332   4.132  0.00  0.00    -0.082 A 
ATOM      7  C5  PXY d   1       3.058   5.703   5.380  0.00  0.00     0.003 A 
ATOM      8  C6  PXY d   1       4.146   5.081   5.985  0.00  0.00     0.003 A 
ENDROOT
TORSDOF 0
ENDMDL
