MODEL 1
REMARK minimizedAffinity 17.2595425
REMARK minimizedRMSD -1
REMARK  0 active torsions:
REMARK  status: ('A' for Active; 'I' for Inactive)
ROOT
ATOM      1  C4' PXY d   1      -5.074  -1.504   1.237  0.00  0.00     0.077 C 
ATOM      2  C1' PXY d   1      -0.237  -1.132  -1.907  0.00  0.00     0.077 C 
ATOM      3  C1  PXY d   1      -1.510  -1.218  -1.088  0.00  0.00    -0.082 A 
ATOM      4  C2  PXY d   1      -1.520  -1.920   0.034  0.00  0.00     0.003 A 
ATOM      5  C3  PXY d   1      -2.670  -2.036   0.770  0.00  0.00     0.003 A 
ATOM      6  C4  PXY d   1      -3.809  -1.381   0.383  0.00  0.00    -0.082 A 
ATOM      7  C5  PXY d   1      -3.804  -0.654  -0.754  0.00  0.00     0.003 A 
ATOM      8  C6  PXY d   1      -2.637  -0.584  -1.509  0.00  0.00     0.003 A 
ENDROOT
TORSDOF 0
ENDMDL
