MODEL 1
REMARK minimizedAffinity 15.1475601
REMARK minimizedRMSD -1
REMARK  0 active torsions:
REMARK  status: ('A' for Active; 'I' for Inactive)
ROOT
ATOM      1  C4' PXY d   1       3.790   3.937   0.827  0.00  0.00     0.077 C 
ATOM      2  C1' PXY d   1       2.694  -0.521  -2.687  0.00  0.00     0.077 C 
ATOM      3  C1  PXY d   1       2.993   0.643  -1.763  0.00  0.00    -0.082 A 
ATOM      4  C2  PXY d   1       1.995   1.297  -1.189  0.00  0.00     0.003 A 
ATOM      5  C3  PXY d   1       2.247   2.372  -0.377  0.00  0.00     0.003 A 
ATOM      6  C4  PXY d   1       3.535   2.749  -0.106  0.00  0.00    -0.082 A 
ATOM      7  C5  PXY d   1       4.558   2.081  -0.678  0.00  0.00     0.003 A 
ATOM      8  C6  PXY d   1       4.281   1.018  -1.533  0.00  0.00     0.003 A 
ENDROOT
TORSDOF 0
ENDMDL
