MODEL 1
REMARK minimizedAffinity 8.68166161
REMARK minimizedRMSD -1
REMARK  0 active torsions:
REMARK  status: ('A' for Active; 'I' for Inactive)
ROOT
ATOM      1  C4' PXY d   1      -4.518   0.534  -0.127  0.00  0.00     0.077 C 
ATOM      2  C1' PXY d   1      -5.253   5.801   2.139  0.00  0.00     0.077 C 
ATOM      3  C1  PXY d   1      -5.048   4.422   1.545  0.00  0.00    -0.082 A 
ATOM      4  C2  PXY d   1      -6.000   3.880   0.803  0.00  0.00     0.003 A 
ATOM      5  C3  PXY d   1      -5.844   2.620   0.286  0.00  0.00     0.003 A 
ATOM      6  C4  PXY d   1      -4.679   1.929   0.485  0.00  0.00    -0.082 A 
ATOM      7  C5  PXY d   1      -3.698   2.479   1.231  0.00  0.00     0.003 A 
ATOM      8  C6  PXY d   1      -3.893   3.742   1.782  0.00  0.00     0.003 A 
ENDROOT
TORSDOF 0
ENDMDL
