MODEL 1
REMARK minimizedAffinity 10.7671537
REMARK minimizedRMSD -1
REMARK  0 active torsions:
REMARK  status: ('A' for Active; 'I' for Inactive)
ROOT
ATOM      1  C4' PXY d   1       1.183  -0.662   5.922  0.00  0.00     0.077 C 
ATOM      2  C1' PXY d   1       6.000  -3.054   3.803  0.00  0.00     0.077 C 
ATOM      3  C1  PXY d   1       4.734  -2.438   4.364  0.00  0.00    -0.082 A 
ATOM      4  C2  PXY d   1       4.192  -1.393   3.761  0.00  0.00     0.003 A 
ATOM      5  C3  PXY d   1       3.065  -0.803   4.273  0.00  0.00     0.003 A 
ATOM      6  C4  PXY d   1       2.456  -1.322   5.385  0.00  0.00    -0.082 A 
ATOM      7  C5  PXY d   1       2.997  -2.395   6.000  0.00  0.00     0.003 A 
ATOM      8  C6  PXY d   1       4.164  -2.953   5.488  0.00  0.00     0.003 A 
ENDROOT
TORSDOF 0
ENDMDL
