MODEL 1
REMARK minimizedAffinity 4.14963055
REMARK minimizedRMSD -1
REMARK  0 active torsions:
REMARK  status: ('A' for Active; 'I' for Inactive)
ROOT
ATOM      1  C4' PXY d   1       0.754   1.130   1.513  0.00  0.00     0.077 C 
ATOM      2  C1' PXY d   1       2.811   5.992  -0.842  0.00  0.00     0.077 C 
ATOM      3  C1  PXY d   1       2.259   4.721  -0.227  0.00  0.00    -0.082 A 
ATOM      4  C2  PXY d   1       2.986   4.051   0.653  0.00  0.00     0.003 A 
ATOM      5  C3  PXY d   1       2.516   2.883   1.195  0.00  0.00     0.003 A 
ATOM      6  C4  PXY d   1       1.267   2.423   0.874  0.00  0.00    -0.082 A 
ATOM      7  C5  PXY d   1       0.514   3.107  -0.015  0.00  0.00     0.003 A 
ATOM      8  C6  PXY d   1       1.027   4.269  -0.585  0.00  0.00     0.003 A 
ENDROOT
TORSDOF 0
ENDMDL
