MODEL 1
REMARK minimizedAffinity 10.4808817
REMARK minimizedRMSD -1
REMARK  0 active torsions:
REMARK  status: ('A' for Active; 'I' for Inactive)
ROOT
ATOM      1  C4' PXY d   1       2.300   6.000  -1.813  0.00  0.00     0.077 C 
ATOM      2  C1' PXY d   1      -1.998   3.241   0.894  0.00  0.00     0.077 C 
ATOM      3  C1  PXY d   1      -0.863   3.961   0.194  0.00  0.00    -0.082 A 
ATOM      4  C2  PXY d   1      -1.133   4.939  -0.656  0.00  0.00     0.003 A 
ATOM      5  C3  PXY d   1      -0.120   5.579  -1.322  0.00  0.00     0.003 A 
ATOM      6  C4  PXY d   1       1.186   5.251  -1.076  0.00  0.00    -0.082 A 
ATOM      7  C5  PXY d   1       1.471   4.262  -0.202  0.00  0.00     0.003 A 
ATOM      8  C6  PXY d   1       0.426   3.597   0.433  0.00  0.00     0.003 A 
ENDROOT
TORSDOF 0
ENDMDL
