MODEL 1
REMARK minimizedAffinity 15.2769785
REMARK minimizedRMSD -1
REMARK  0 active torsions:
REMARK  status: ('A' for Active; 'I' for Inactive)
ROOT
ATOM      1  C4' PXY d   1       2.271   6.000  -1.216  0.00  0.00     0.077 C 
ATOM      2  C1' PXY d   1      -1.823   2.275   0.452  0.00  0.00     0.077 C 
ATOM      3  C1  PXY d   1      -0.757   3.256   0.005  0.00  0.00    -0.082 A 
ATOM      4  C2  PXY d   1       0.511   3.027   0.307  0.00  0.00     0.003 A 
ATOM      5  C3  PXY d   1       1.483   3.920  -0.061  0.00  0.00     0.003 A 
ATOM      6  C4  PXY d   1       1.162   5.032  -0.794  0.00  0.00    -0.082 A 
ATOM      7  C5  PXY d   1      -0.128   5.266  -1.116  0.00  0.00     0.003 A 
ATOM      8  C6  PXY d   1      -1.105   4.369  -0.696  0.00  0.00     0.003 A 
ENDROOT
TORSDOF 0
ENDMDL
