MODEL 1
REMARK minimizedAffinity 3.88052869
REMARK minimizedRMSD -1
REMARK  0 active torsions:
REMARK  status: ('A' for Active; 'I' for Inactive)
ROOT
ATOM      1  C4' PXY d   1       1.918   5.998  -1.729  0.00  0.00     0.077 C 
ATOM      2  C1' PXY d   1      -1.689   2.030   0.430  0.00  0.00     0.077 C 
ATOM      3  C1  PXY d   1      -0.752   3.074  -0.145  0.00  0.00    -0.082 A 
ATOM      4  C2  PXY d   1       0.555   2.931   0.001  0.00  0.00     0.003 A 
ATOM      5  C3  PXY d   1       1.415   3.883  -0.485  0.00  0.00     0.003 A 
ATOM      6  C4  PXY d   1       0.935   4.964  -1.173  0.00  0.00    -0.082 A 
ATOM      7  C5  PXY d   1      -0.397   5.111  -1.336  0.00  0.00     0.003 A 
ATOM      8  C6  PXY d   1      -1.255   4.156  -0.799  0.00  0.00     0.003 A 
ENDROOT
TORSDOF 0
ENDMDL
