MODEL 1
REMARK minimizedAffinity 1.35531306
REMARK minimizedRMSD -1
REMARK  0 active torsions:
REMARK  status: ('A' for Active; 'I' for Inactive)
ROOT
ATOM      1  C4' PXY d   1       2.233  -0.742   0.749  0.00  0.00     0.077 C 
ATOM      2  C1' PXY d   1       6.000  -3.381   4.252  0.00  0.00     0.077 C 
ATOM      3  C1  PXY d   1       5.020  -2.690   3.323  0.00  0.00    -0.082 A 
ATOM      4  C2  PXY d   1       4.123  -1.855   3.822  0.00  0.00     0.003 A 
ATOM      5  C3  PXY d   1       3.209  -1.247   3.001  0.00  0.00     0.003 A 
ATOM      6  C4  PXY d   1       3.248  -1.454   1.648  0.00  0.00    -0.082 A 
ATOM      7  C5  PXY d   1       4.167  -2.296   1.130  0.00  0.00     0.003 A 
ATOM      8  C6  PXY d   1       5.059  -2.936   1.986  0.00  0.00     0.003 A 
ENDROOT
TORSDOF 0
ENDMDL
