MODEL 1
REMARK minimizedAffinity 9.26200676
REMARK minimizedRMSD -1
REMARK  0 active torsions:
REMARK  status: ('A' for Active; 'I' for Inactive)
ROOT
ATOM      1  C4' PXY d   1       0.323   2.766  -0.041  0.00  0.00     0.077 C 
ATOM      2  C1' PXY d   1      -1.707   0.443  -4.929  0.00  0.00     0.077 C 
ATOM      3  C1  PXY d   1      -1.181   1.063  -3.650  0.00  0.00    -0.082 A 
ATOM      4  C2  PXY d   1      -0.097   0.563  -3.079  0.00  0.00     0.003 A 
ATOM      5  C3  PXY d   1       0.374   1.092  -1.905  0.00  0.00     0.003 A 
ATOM      6  C4  PXY d   1      -0.239   2.178  -1.338  0.00  0.00    -0.082 A 
ATOM      7  C5  PXY d   1      -1.338   2.700  -1.921  0.00  0.00     0.003 A 
ATOM      8  C6  PXY d   1      -1.825   2.123  -3.091  0.00  0.00     0.003 A 
ENDROOT
TORSDOF 0
ENDMDL
