MODEL 1
REMARK minimizedAffinity 13.2239532
REMARK minimizedRMSD -1
REMARK  0 active torsions:
REMARK  status: ('A' for Active; 'I' for Inactive)
ROOT
ATOM      1  C4' PXY d   1      -1.818   2.244   0.052  0.00  0.00     0.077 C 
ATOM      2  C1' PXY d   1       2.168   6.000  -1.796  0.00  0.00     0.077 C 
ATOM      3  C1  PXY d   1       1.131   5.005  -1.312  0.00  0.00    -0.082 A 
ATOM      4  C2  PXY d   1      -0.154   5.258  -1.497  0.00  0.00     0.003 A 
ATOM      5  C3  PXY d   1      -1.106   4.384  -1.037  0.00  0.00     0.003 A 
ATOM      6  C4  PXY d   1      -0.737   3.215  -0.428  0.00  0.00    -0.082 A 
ATOM      7  C5  PXY d   1       0.573   2.945  -0.245  0.00  0.00     0.003 A 
ATOM      8  C6  PXY d   1       1.523   3.864  -0.683  0.00  0.00     0.003 A 
ENDROOT
TORSDOF 0
ENDMDL
