MODEL 1
REMARK minimizedAffinity -4.18716669
REMARK minimizedRMSD -1
REMARK  1 active torsions:
REMARK  status: ('A' for Active; 'I' for Inactive)
REMARK    1  A    between atoms: C3_4  and  O_7 
ROOT
ATOM      1  C   UNL d   1      -0.948  -1.624   2.948  0.00  0.00    -0.033 A 
ATOM      2  C1  UNL d   1      -1.235  -0.687   1.953  0.00  0.00     0.039 A 
ATOM      3  C2  UNL d   1      -0.349  -0.502   0.890  0.00  0.00    -0.080 A 
ATOM      4  C3  UNL d   1       0.818  -1.259   0.833  0.00  0.00     0.150 A 
ATOM      5  C4  UNL d   1       1.107  -2.198   1.818  0.00  0.00    -0.007 A 
ATOM      6  C5  UNL d   1       0.222  -2.381   2.879  0.00  0.00     0.039 A 
ENDROOT
BRANCH   4   7
ATOM      7  O   UNL d   1       1.715  -1.111  -0.183  0.00  0.00    -0.526 OA
ATOM      8  H5  UNL d   1       1.397  -0.408  -0.774  0.00  0.00     0.418 HD
ENDBRANCH   4   7
TORSDOF 1
ENDMDL
