MODEL 1
REMARK minimizedAffinity -4.30421114
REMARK minimizedRMSD -1
REMARK  1 active torsions:
REMARK  status: ('A' for Active; 'I' for Inactive)
REMARK    1  A    between atoms: C3_4  and  O_7 
ROOT
ATOM      1  C   UNL d   1       1.754  -2.527   0.196  0.00  0.00    -0.033 A 
ATOM      2  C1  UNL d   1       0.755  -2.382   1.160  0.00  0.00     0.039 A 
ATOM      3  C2  UNL d   1       0.010  -1.203   1.225  0.00  0.00    -0.080 A 
ATOM      4  C3  UNL d   1       0.273  -0.178   0.320  0.00  0.00     0.150 A 
ATOM      5  C4  UNL d   1       1.264  -0.317  -0.646  0.00  0.00    -0.007 A 
ATOM      6  C5  UNL d   1       2.008  -1.495  -0.709  0.00  0.00     0.039 A 
ENDROOT
BRANCH   4   7
ATOM      7  O   UNL d   1      -0.425   0.993   0.347  0.00  0.00    -0.526 OA
ATOM      8  H5  UNL d   1      -1.057   0.957   1.085  0.00  0.00     0.418 HD
ENDBRANCH   4   7
TORSDOF 1
ENDMDL
