MODEL 1
REMARK minimizedAffinity -3.11325836
REMARK minimizedRMSD -1
REMARK  1 active torsions:
REMARK  status: ('A' for Active; 'I' for Inactive)
REMARK    1  A    between atoms: C3_4  and  O_7 
ROOT
ATOM      1  C   UNL d   1      -0.134   2.960  -2.297  0.00  0.00    -0.033 A 
ATOM      2  C1  UNL d   1       0.420   3.037  -1.017  0.00  0.00     0.039 A 
ATOM      3  C2  UNL d   1       0.519   1.891  -0.227  0.00  0.00    -0.080 A 
ATOM      4  C3  UNL d   1       0.062   0.674  -0.727  0.00  0.00     0.150 A 
ATOM      5  C4  UNL d   1      -0.487   0.589  -2.002  0.00  0.00    -0.007 A 
ATOM      6  C5  UNL d   1      -0.586   1.736  -2.790  0.00  0.00     0.039 A 
ENDROOT
BRANCH   4   7
ATOM      7  O   UNL d   1       0.133  -0.471   0.009  0.00  0.00    -0.526 OA
ATOM      8  H5  UNL d   1       0.508  -0.255   0.879  0.00  0.00     0.418 HD
ENDBRANCH   4   7
TORSDOF 1
ENDMDL
