MODEL 1
REMARK minimizedAffinity -4.03491879
REMARK minimizedRMSD -1
REMARK  1 active torsions:
REMARK  status: ('A' for Active; 'I' for Inactive)
REMARK    1  A    between atoms: C3_4  and  O_7 
ROOT
ATOM      1  C   UNL d   1       0.678  -0.447  -0.126  0.00  0.00    -0.033 A 
ATOM      2  C1  UNL d   1       1.971  -0.613   0.374  0.00  0.00     0.039 A 
ATOM      3  C2  UNL d   1       2.363  -1.845   0.903  0.00  0.00    -0.080 A 
ATOM      4  C3  UNL d   1       1.455  -2.900   0.925  0.00  0.00     0.150 A 
ATOM      5  C4  UNL d   1       0.167  -2.742   0.424  0.00  0.00    -0.007 A 
ATOM      6  C5  UNL d   1      -0.223  -1.511  -0.103  0.00  0.00     0.039 A 
ENDROOT
BRANCH   4   7
ATOM      7  O   UNL d   1       1.791  -4.118   1.435  0.00  0.00    -0.526 OA
ATOM      8  H5  UNL d   1       2.702  -4.071   1.770  0.00  0.00     0.418 HD
ENDBRANCH   4   7
TORSDOF 1
ENDMDL
