MODEL 1
REMARK minimizedAffinity -4.8582325
REMARK minimizedRMSD -1
REMARK  1 active torsions:
REMARK  status: ('A' for Active; 'I' for Inactive)
REMARK    1  A    between atoms: C3_4  and  O_7 
ROOT
ATOM      1  C   UNL d   1       0.192   0.531  -0.156  0.00  0.00    -0.033 A 
ATOM      2  C1  UNL d   1      -0.665  -0.357   0.498  0.00  0.00     0.039 A 
ATOM      3  C2  UNL d   1      -0.190  -1.596   0.932  0.00  0.00    -0.080 A 
ATOM      4  C3  UNL d   1       1.141  -1.935   0.707  0.00  0.00     0.150 A 
ATOM      5  C4  UNL d   1       2.001  -1.054   0.059  0.00  0.00    -0.007 A 
ATOM      6  C5  UNL d   1       1.525   0.183  -0.374  0.00  0.00     0.039 A 
ENDROOT
BRANCH   4   7
ATOM      7  O   UNL d   1       1.649  -3.135   1.108  0.00  0.00    -0.526 OA
ATOM      8  H5  UNL d   1       0.933  -3.651   1.515  0.00  0.00     0.418 HD
ENDBRANCH   4   7
TORSDOF 1
ENDMDL
