MODEL 1
REMARK minimizedAffinity -3.18882561
REMARK minimizedRMSD -1
REMARK  1 active torsions:
REMARK  status: ('A' for Active; 'I' for Inactive)
REMARK    1  A    between atoms: C3_4  and  O_7 
ROOT
ATOM      1  C   UNL d   1       1.443  -2.690   1.161  0.00  0.00    -0.033 A 
ATOM      2  C1  UNL d   1       2.285  -1.831   0.454  0.00  0.00     0.039 A 
ATOM      3  C2  UNL d   1       1.810  -0.598   0.002  0.00  0.00    -0.080 A 
ATOM      4  C3  UNL d   1       0.491  -0.237   0.266  0.00  0.00     0.150 A 
ATOM      5  C4  UNL d   1      -0.353  -1.086   0.974  0.00  0.00    -0.007 A 
ATOM      6  C5  UNL d   1       0.124  -2.317   1.423  0.00  0.00     0.039 A 
ENDROOT
BRANCH   4   7
ATOM      7  O   UNL d   1      -0.020   0.954  -0.158  0.00  0.00    -0.526 OA
ATOM      8  H5  UNL d   1       0.669   1.423  -0.658  0.00  0.00     0.418 HD
ENDBRANCH   4   7
TORSDOF 1
ENDMDL
