MODEL 1
REMARK minimizedAffinity -2.73656082
REMARK minimizedRMSD -1
REMARK  1 active torsions:
REMARK  status: ('A' for Active; 'I' for Inactive)
REMARK    1  A    between atoms: C3_4  and  O_7 
ROOT
ATOM      1  C   UNL d   1      -0.763   0.609  -0.364  0.00  0.00    -0.033 A 
ATOM      2  C1  UNL d   1       0.440   0.826  -1.040  0.00  0.00     0.039 A 
ATOM      3  C2  UNL d   1       1.601   0.168  -0.630  0.00  0.00    -0.080 A 
ATOM      4  C3  UNL d   1       1.547  -0.703   0.455  0.00  0.00     0.150 A 
ATOM      5  C4  UNL d   1       0.351  -0.927   1.130  0.00  0.00    -0.007 A 
ATOM      6  C5  UNL d   1      -0.807  -0.269   0.720  0.00  0.00     0.039 A 
ENDROOT
BRANCH   4   7
ATOM      7  O   UNL d   1       2.655  -1.364   0.894  0.00  0.00    -0.526 OA
ATOM      8  H5  UNL d   1       3.413  -1.090   0.351  0.00  0.00     0.418 HD
ENDBRANCH   4   7
TORSDOF 1
ENDMDL
