MODEL 1
REMARK minimizedAffinity -3.99315858
REMARK minimizedRMSD -1
REMARK  1 active torsions:
REMARK  status: ('A' for Active; 'I' for Inactive)
REMARK    1  A    between atoms: C3_4  and  O_7 
ROOT
ATOM      1  C   UNL d   1       2.081  -1.472   1.134  0.00  0.00    -0.033 A 
ATOM      2  C1  UNL d   1       0.991  -2.294   0.837  0.00  0.00     0.039 A 
ATOM      3  C2  UNL d   1      -0.038  -1.823   0.019  0.00  0.00    -0.080 A 
ATOM      4  C3  UNL d   1       0.035  -0.531  -0.495  0.00  0.00     0.150 A 
ATOM      5  C4  UNL d   1       1.119   0.291  -0.206  0.00  0.00    -0.007 A 
ATOM      6  C5  UNL d   1       2.145  -0.180   0.611  0.00  0.00     0.039 A 
ENDROOT
BRANCH   4   7
ATOM      7  O   UNL d   1      -0.947  -0.026  -1.294  0.00  0.00    -0.526 OA
ATOM      8  H5  UNL d   1      -1.646  -0.695  -1.384  0.00  0.00     0.418 HD
ENDBRANCH   4   7
TORSDOF 1
ENDMDL
