MODEL 1
REMARK minimizedAffinity -3.76334
REMARK minimizedRMSD -1
REMARK  1 active torsions:
REMARK  status: ('A' for Active; 'I' for Inactive)
REMARK    1  A    between atoms: C3_4  and  O_7 
ROOT
ATOM      1  C   UNL d   1      -1.077   1.248   0.672  0.00  0.00    -0.033 A 
ATOM      2  C1  UNL d   1       0.011   1.018  -0.172  0.00  0.00     0.039 A 
ATOM      3  C2  UNL d   1       0.583  -0.254  -0.246  0.00  0.00    -0.080 A 
ATOM      4  C3  UNL d   1       0.058  -1.285   0.527  0.00  0.00     0.150 A 
ATOM      5  C4  UNL d   1      -1.028  -1.064   1.368  0.00  0.00    -0.007 A 
ATOM      6  C5  UNL d   1      -1.598   0.206   1.441  0.00  0.00     0.039 A 
ENDROOT
BRANCH   4   7
ATOM      7  O   UNL d   1       0.586  -2.542   0.493  0.00  0.00    -0.526 OA
ATOM      8  H5  UNL d   1       1.349  -2.539  -0.109  0.00  0.00     0.418 HD
ENDBRANCH   4   7
TORSDOF 1
ENDMDL
