MODEL 1
REMARK minimizedAffinity -4.76983881
REMARK minimizedRMSD -1
REMARK  1 active torsions:
REMARK  status: ('A' for Active; 'I' for Inactive)
REMARK    1  A    between atoms: C3_4  and  O_7 
ROOT
ATOM      1  C   UNL d   1      -0.509   0.653   0.449  0.00  0.00    -0.033 A 
ATOM      2  C1  UNL d   1       0.607   0.402  -0.351  0.00  0.00     0.039 A 
ATOM      3  C2  UNL d   1       1.273  -0.822  -0.257  0.00  0.00    -0.080 A 
ATOM      4  C3  UNL d   1       0.813  -1.784   0.637  0.00  0.00     0.150 A 
ATOM      5  C4  UNL d   1      -0.301  -1.542   1.434  0.00  0.00    -0.007 A 
ATOM      6  C5  UNL d   1      -0.965  -0.319   1.340  0.00  0.00     0.039 A 
ENDROOT
BRANCH   4   7
ATOM      7  O   UNL d   1       1.433  -2.991   0.767  0.00  0.00    -0.526 OA
ATOM      8  H5  UNL d   1       2.203  -3.007   0.175  0.00  0.00     0.418 HD
ENDBRANCH   4   7
TORSDOF 1
ENDMDL
