MODEL 1
REMARK minimizedAffinity -5.55420589
REMARK minimizedRMSD -1
REMARK  1 active torsions:
REMARK  status: ('A' for Active; 'I' for Inactive)
REMARK    1  A    between atoms: C3_4  and  O_7 
ROOT
ATOM      1  C   UNL d   1       1.822  -2.860   0.598  0.00  0.00    -0.033 A 
ATOM      2  C1  UNL d   1       2.524  -1.765   0.091  0.00  0.00     0.039 A 
ATOM      3  C2  UNL d   1       1.902  -0.518  -0.004  0.00  0.00    -0.080 A 
ATOM      4  C3  UNL d   1       0.581  -0.380   0.411  0.00  0.00     0.150 A 
ATOM      5  C4  UNL d   1      -0.123  -1.466   0.921  0.00  0.00    -0.007 A 
ATOM      6  C5  UNL d   1       0.499  -2.710   1.015  0.00  0.00     0.039 A 
ENDROOT
BRANCH   4   7
ATOM      7  O   UNL d   1      -0.070   0.816   0.333  0.00  0.00    -0.526 OA
ATOM      8  H5  UNL d   1       0.531   1.467  -0.065  0.00  0.00     0.418 HD
ENDBRANCH   4   7
TORSDOF 1
ENDMDL
