MODEL 1
REMARK minimizedAffinity -5.25436211
REMARK minimizedRMSD -1
REMARK  1 active torsions:
REMARK  status: ('A' for Active; 'I' for Inactive)
REMARK    1  A    between atoms: C3_4  and  O_7 
ROOT
ATOM      1  C   UNL d   1      -1.234  -0.907   1.818  0.00  0.00    -0.033 A 
ATOM      2  C1  UNL d   1      -0.473  -0.742   0.659  0.00  0.00     0.039 A 
ATOM      3  C2  UNL d   1       0.698  -1.481   0.479  0.00  0.00    -0.080 A 
ATOM      4  C3  UNL d   1       1.096  -2.380   1.465  0.00  0.00     0.150 A 
ATOM      5  C4  UNL d   1       0.341  -2.552   2.620  0.00  0.00    -0.007 A 
ATOM      6  C5  UNL d   1      -0.828  -1.813   2.798  0.00  0.00     0.039 A 
ENDROOT
BRANCH   4   7
ATOM      7  O   UNL d   1       2.234  -3.120   1.337  0.00  0.00    -0.526 OA
ATOM      8  H5  UNL d   1       2.668  -2.875   0.502  0.00  0.00     0.418 HD
ENDBRANCH   4   7
TORSDOF 1
ENDMDL
