MODEL 1
REMARK minimizedAffinity -4.54549789
REMARK minimizedRMSD -1
REMARK  1 active torsions:
REMARK  status: ('A' for Active; 'I' for Inactive)
REMARK    1  A    between atoms: C3_4  and  O_7 
ROOT
ATOM      1  C   UNL d   1       2.125  -1.811   0.761  0.00  0.00    -0.033 A 
ATOM      2  C1  UNL d   1       0.749  -1.955   0.948  0.00  0.00     0.039 A 
ATOM      3  C2  UNL d   1      -0.132  -1.016   0.408  0.00  0.00    -0.080 A 
ATOM      4  C3  UNL d   1       0.375   0.060  -0.315  0.00  0.00     0.150 A 
ATOM      5  C4  UNL d   1       1.744   0.208  -0.508  0.00  0.00    -0.007 A 
ATOM      6  C5  UNL d   1       2.623  -0.730   0.032  0.00  0.00     0.039 A 
ENDROOT
BRANCH   4   7
ATOM      7  O   UNL d   1      -0.446   1.005  -0.857  0.00  0.00    -0.526 OA
ATOM      8  H5  UNL d   1      -1.363   0.789  -0.618  0.00  0.00     0.418 HD
ENDBRANCH   4   7
TORSDOF 1
ENDMDL
