MODEL 1
REMARK minimizedAffinity -3.84334159
REMARK minimizedRMSD -1
REMARK  1 active torsions:
REMARK  status: ('A' for Active; 'I' for Inactive)
REMARK    1  A    between atoms: C3_4  and  O_7 
ROOT
ATOM      1  C   UNL d   1      -1.940   1.125  -1.684  0.00  0.00    -0.033 A 
ATOM      2  C1  UNL d   1      -2.397   0.925  -2.988  0.00  0.00     0.039 A 
ATOM      3  C2  UNL d   1      -1.782   1.585  -4.054  0.00  0.00    -0.080 A 
ATOM      4  C3  UNL d   1      -0.712   2.439  -3.803  0.00  0.00     0.150 A 
ATOM      5  C4  UNL d   1      -0.248   2.639  -2.507  0.00  0.00    -0.007 A 
ATOM      6  C5  UNL d   1      -0.864   1.981  -1.444  0.00  0.00     0.039 A 
ENDROOT
BRANCH   4   7
ATOM      7  O   UNL d   1      -0.083   3.108  -4.811  0.00  0.00    -0.526 OA
ATOM      8  H5  UNL d   1      -0.529   2.894  -5.647  0.00  0.00     0.418 HD
ENDBRANCH   4   7
TORSDOF 1
ENDMDL
