MODEL 1
REMARK minimizedAffinity -4.9814682
REMARK minimizedRMSD -1
REMARK  1 active torsions:
REMARK  status: ('A' for Active; 'I' for Inactive)
REMARK    1  A    between atoms: C3_4  and  O_7 
ROOT
ATOM      1  C   UNL d   1      -0.068  -1.302   1.300  0.00  0.00    -0.033 A 
ATOM      2  C1  UNL d   1       0.383  -0.349   0.384  0.00  0.00     0.039 A 
ATOM      3  C2  UNL d   1       1.612  -0.521  -0.257  0.00  0.00    -0.080 A 
ATOM      4  C3  UNL d   1       2.378  -1.648   0.025  0.00  0.00     0.150 A 
ATOM      5  C4  UNL d   1       1.932  -2.604   0.933  0.00  0.00    -0.007 A 
ATOM      6  C5  UNL d   1       0.706  -2.430   1.573  0.00  0.00     0.039 A 
ENDROOT
BRANCH   4   7
ATOM      7  O   UNL d   1       3.585  -1.857  -0.572  0.00  0.00    -0.526 OA
ATOM      8  H5  UNL d   1       3.776  -1.102  -1.152  0.00  0.00     0.418 HD
ENDBRANCH   4   7
TORSDOF 1
ENDMDL
