MODEL 1
REMARK minimizedAffinity 19.9699802
REMARK minimizedRMSD -1
REMARK  0 active torsions:
REMARK  status: ('A' for Active; 'I' for Inactive)
ROOT
ATOM      1  C   UNL d   1      -1.129  -5.515  -3.418  0.00  0.00     0.020 A 
ATOM      2  C1  UNL d   1      -1.712  -4.339  -2.947  0.00  0.00     0.020 A 
ATOM      3  C2  UNL d   1      -1.127  -3.646  -1.886  0.00  0.00     0.034 A 
ATOM      4  C3  UNL d   1       0.045  -4.128  -1.292  0.00  0.00     0.017 A 
ATOM      5  C4  UNL d   1       0.630  -5.308  -1.765  0.00  0.00     0.017 A 
ATOM      6  C5  UNL d   1       0.040  -5.998  -2.828  0.00  0.00     0.034 A 
ATOM      7 Cl   UNL d   1       2.076  -5.965  -1.083  0.00  0.00    -0.070 Cl
ATOM      8 Cl1  UNL d   1       0.715  -3.220   0.017  0.00  0.00    -0.070 Cl
ENDROOT
TORSDOF 0
ENDMDL
