MODEL 1
REMARK minimizedAffinity 23.8631439
REMARK minimizedRMSD -1
REMARK  0 active torsions:
REMARK  status: ('A' for Active; 'I' for Inactive)
ROOT
ATOM      1  C   UNL d   1       3.000  -6.000  -0.765  0.00  0.00     0.020 A 
ATOM      2  C1  UNL d   1       4.291  -5.477  -0.822  0.00  0.00     0.020 A 
ATOM      3  C2  UNL d   1       4.497  -4.106  -0.656  0.00  0.00     0.034 A 
ATOM      4  C3  UNL d   1       3.411  -3.253  -0.433  0.00  0.00     0.017 A 
ATOM      5  C4  UNL d   1       2.115  -3.778  -0.376  0.00  0.00     0.017 A 
ATOM      6  C5  UNL d   1       1.914  -5.152  -0.543  0.00  0.00     0.034 A 
ATOM      7 Cl   UNL d   1       0.724  -2.788  -0.104  0.00  0.00    -0.070 Cl
ATOM      8 Cl1  UNL d   1       3.739  -1.568  -0.236  0.00  0.00    -0.070 Cl
ENDROOT
TORSDOF 0
ENDMDL
