MODEL 1
REMARK minimizedAffinity 21.3984737
REMARK minimizedRMSD -1
REMARK  0 active torsions:
REMARK  status: ('A' for Active; 'I' for Inactive)
ROOT
ATOM      1  C   UNL d   1       4.134   1.341  -0.429  0.00  0.00     0.020 A 
ATOM      2  C1  UNL d   1       3.843   0.244   0.382  0.00  0.00     0.020 A 
ATOM      3  C2  UNL d   1       2.760  -0.583   0.075  0.00  0.00     0.034 A 
ATOM      4  C3  UNL d   1       1.965  -0.315  -1.045  0.00  0.00     0.017 A 
ATOM      5  C4  UNL d   1       2.258   0.786  -1.859  0.00  0.00     0.017 A 
ATOM      6  C5  UNL d   1       3.344   1.611  -1.547  0.00  0.00     0.034 A 
ATOM      7 Cl   UNL d   1       1.323   1.180  -3.257  0.00  0.00    -0.070 Cl
ATOM      8 Cl1  UNL d   1       0.642  -1.379  -1.365  0.00  0.00    -0.070 Cl
ENDROOT
TORSDOF 0
ENDMDL
