MODEL 1
REMARK minimizedAffinity 16.5647335
REMARK minimizedRMSD -1
REMARK  0 active torsions:
REMARK  status: ('A' for Active; 'I' for Inactive)
ROOT
ATOM      1  C   UNL d   1       5.598  -4.136  -0.666  0.00  0.00     0.020 A 
ATOM      2  C1  UNL d   1       5.503  -5.441  -1.146  0.00  0.00     0.020 A 
ATOM      3  C2  UNL d   1       4.251  -5.998  -1.413  0.00  0.00     0.034 A 
ATOM      4  C3  UNL d   1       3.088  -5.248  -1.200  0.00  0.00     0.017 A 
ATOM      5  C4  UNL d   1       3.184  -3.937  -0.719  0.00  0.00     0.017 A 
ATOM      6  C5  UNL d   1       4.441  -3.385  -0.453  0.00  0.00     0.034 A 
ATOM      7 Cl   UNL d   1       1.795  -2.951  -0.431  0.00  0.00    -0.070 Cl
ATOM      8 Cl1  UNL d   1       1.572  -5.999  -1.552  0.00  0.00    -0.070 Cl
ENDROOT
TORSDOF 0
ENDMDL
