MODEL 1
REMARK minimizedAffinity 10.0841942
REMARK minimizedRMSD -1
REMARK  0 active torsions:
REMARK  status: ('A' for Active; 'I' for Inactive)
ROOT
ATOM      1  C   UNL d   1       1.161  -0.258  -1.615  0.00  0.00     0.020 A 
ATOM      2  C1  UNL d   1       2.156  -0.427  -0.653  0.00  0.00     0.020 A 
ATOM      3  C2  UNL d   1       2.476  -1.708  -0.197  0.00  0.00     0.034 A 
ATOM      4  C3  UNL d   1       1.801  -2.824  -0.703  0.00  0.00     0.017 A 
ATOM      5  C4  UNL d   1       0.802  -2.654  -1.669  0.00  0.00     0.017 A 
ATOM      6  C5  UNL d   1       0.486  -1.369  -2.122  0.00  0.00     0.034 A 
ATOM      7 Cl   UNL d   1      -0.074  -3.983  -2.340  0.00  0.00    -0.070 Cl
ATOM      8 Cl1  UNL d   1       2.249  -4.378  -0.095  0.00  0.00    -0.070 Cl
ENDROOT
TORSDOF 0
ENDMDL
