MODEL 1
REMARK minimizedAffinity 14.4186506
REMARK minimizedRMSD -1
REMARK  0 active torsions:
REMARK  status: ('A' for Active; 'I' for Inactive)
ROOT
ATOM      1  C   UNL d   1       0.370   2.206   5.999  0.00  0.00     0.020 A 
ATOM      2  C1  UNL d   1       1.477   1.459   5.598  0.00  0.00     0.020 A 
ATOM      3  C2  UNL d   1       1.450   0.766   4.386  0.00  0.00     0.034 A 
ATOM      4  C3  UNL d   1       0.314   0.818   3.571  0.00  0.00     0.017 A 
ATOM      5  C4  UNL d   1      -0.797   1.568   3.974  0.00  0.00     0.017 A 
ATOM      6  C5  UNL d   1      -0.764   2.260   5.189  0.00  0.00     0.034 A 
ATOM      7 Cl   UNL d   1      -2.235   1.681   3.022  0.00  0.00    -0.070 Cl
ATOM      8 Cl1  UNL d   1       0.349  -0.063   2.085  0.00  0.00    -0.070 Cl
ENDROOT
TORSDOF 0
ENDMDL
