MODEL 1
REMARK minimizedAffinity 3.3984642
REMARK minimizedRMSD -1
REMARK  0 active torsions:
REMARK  status: ('A' for Active; 'I' for Inactive)
ROOT
ATOM      1  C   UNL d   1       1.333   0.099  -1.770  0.00  0.00     0.020 A 
ATOM      2  C1  UNL d   1       2.578  -0.159  -1.196  0.00  0.00     0.020 A 
ATOM      3  C2  UNL d   1       2.933  -1.466  -0.857  0.00  0.00     0.034 A 
ATOM      4  C3  UNL d   1       2.044  -2.521  -1.092  0.00  0.00     0.017 A 
ATOM      5  C4  UNL d   1       0.796  -2.262  -1.669  0.00  0.00     0.017 A 
ATOM      6  C5  UNL d   1       0.445  -0.951  -2.006  0.00  0.00     0.034 A 
ATOM      7 Cl   UNL d   1      -0.355  -3.511  -1.990  0.00  0.00    -0.070 Cl
ATOM      8 Cl1  UNL d   1       2.550  -4.112  -0.649  0.00  0.00    -0.070 Cl
ENDROOT
TORSDOF 0
ENDMDL
