MODEL 1
REMARK minimizedAffinity 15.0632296
REMARK minimizedRMSD -1
REMARK  0 active torsions:
REMARK  status: ('A' for Active; 'I' for Inactive)
ROOT
ATOM      1  C   UNL d   1       4.398   0.545   0.008  0.00  0.00     0.020 A 
ATOM      2  C1  UNL d   1       4.104  -0.660  -0.629  0.00  0.00     0.020 A 
ATOM      3  C2  UNL d   1       3.154  -0.696  -1.652  0.00  0.00     0.034 A 
ATOM      4  C3  UNL d   1       2.496   0.476  -2.042  0.00  0.00     0.017 A 
ATOM      5  C4  UNL d   1       2.792   1.686  -1.403  0.00  0.00     0.017 A 
ATOM      6  C5  UNL d   1       3.744   1.715  -0.379  0.00  0.00     0.034 A 
ATOM      7 Cl   UNL d   1       2.021   3.173  -1.829  0.00  0.00    -0.070 Cl
ATOM      8 Cl1  UNL d   1       1.334   0.359  -3.316  0.00  0.00    -0.070 Cl
ENDROOT
TORSDOF 0
ENDMDL
