MODEL 1
REMARK minimizedAffinity 10.3776617
REMARK minimizedRMSD -1
REMARK  0 active torsions:
REMARK  status: ('A' for Active; 'I' for Inactive)
ROOT
ATOM      1  C   UNL d   1       0.947  -3.069  -1.221  0.00  0.00     0.020 A 
ATOM      2  C1  UNL d   1       0.477  -1.920  -1.855  0.00  0.00     0.020 A 
ATOM      3  C2  UNL d   1       1.285  -0.783  -1.931  0.00  0.00     0.034 A 
ATOM      4  C3  UNL d   1       2.568  -0.794  -1.371  0.00  0.00     0.017 A 
ATOM      5  C4  UNL d   1       3.039  -1.948  -0.735  0.00  0.00     0.017 A 
ATOM      6  C5  UNL d   1       2.226  -3.083  -0.662  0.00  0.00     0.034 A 
ATOM      7 Cl   UNL d   1       4.611  -2.036  -0.021  0.00  0.00    -0.070 Cl
ATOM      8 Cl1  UNL d   1       3.513   0.647  -1.502  0.00  0.00    -0.070 Cl
ENDROOT
TORSDOF 0
ENDMDL
