MODEL 1
REMARK minimizedAffinity 15.2034397
REMARK minimizedRMSD -1
REMARK  0 active torsions:
REMARK  status: ('A' for Active; 'I' for Inactive)
ROOT
ATOM      1  C   UNL d   1      -5.967  -1.832   3.438  0.00  0.00     0.020 A 
ATOM      2  C1  UNL d   1      -5.999  -1.093   2.256  0.00  0.00     0.020 A 
ATOM      3  C2  UNL d   1      -5.178   0.027   2.111  0.00  0.00     0.034 A 
ATOM      4  C3  UNL d   1      -4.322   0.412   3.149  0.00  0.00     0.017 A 
ATOM      5  C4  UNL d   1      -4.290  -0.331   4.334  0.00  0.00     0.017 A 
ATOM      6  C5  UNL d   1      -5.114  -1.452   4.474  0.00  0.00     0.034 A 
ATOM      7 Cl   UNL d   1      -3.259   0.081   5.659  0.00  0.00    -0.070 Cl
ATOM      8 Cl1  UNL d   1      -3.334   1.808   2.900  0.00  0.00    -0.070 Cl
ENDROOT
TORSDOF 0
ENDMDL
