MODEL 1
REMARK minimizedAffinity 22.5451241
REMARK minimizedRMSD -1
REMARK  0 active torsions:
REMARK  status: ('A' for Active; 'I' for Inactive)
ROOT
ATOM      1  C   UNL d   1      -2.974   3.006  -5.999  0.00  0.00     0.020 A 
ATOM      2  C1  UNL d   1      -4.092   2.663  -5.239  0.00  0.00     0.020 A 
ATOM      3  C2  UNL d   1      -3.954   1.816  -4.138  0.00  0.00     0.034 A 
ATOM      4  C3  UNL d   1      -2.696   1.308  -3.793  0.00  0.00     0.017 A 
ATOM      5  C4  UNL d   1      -1.575   1.653  -4.557  0.00  0.00     0.017 A 
ATOM      6  C5  UNL d   1      -1.719   2.502  -5.659  0.00  0.00     0.034 A 
ATOM      7 Cl   UNL d   1       0.010   1.067  -4.194  0.00  0.00    -0.070 Cl
ATOM      8 Cl1  UNL d   1      -2.598   0.266  -2.418  0.00  0.00    -0.070 Cl
ENDROOT
TORSDOF 0
ENDMDL
