MODEL 1
REMARK minimizedAffinity 11.5126467
REMARK minimizedRMSD -1
REMARK  0 active torsions:
REMARK  status: ('A' for Active; 'I' for Inactive)
ROOT
ATOM      1  C   UNL d   1      -0.018  -2.543  -1.547  0.00  0.00     0.020 A 
ATOM      2  C1  UNL d   1       0.701  -2.375  -0.364  0.00  0.00     0.020 A 
ATOM      3  C2  UNL d   1       1.647  -1.353  -0.262  0.00  0.00     0.034 A 
ATOM      4  C3  UNL d   1       1.877  -0.495  -1.344  0.00  0.00     0.017 A 
ATOM      5  C4  UNL d   1       1.154  -0.665  -2.530  0.00  0.00     0.017 A 
ATOM      6  C5  UNL d   1       0.208  -1.690  -2.627  0.00  0.00     0.034 A 
ATOM      7 Cl   UNL d   1       1.382   0.354  -3.908  0.00  0.00    -0.070 Cl
ATOM      8 Cl1  UNL d   1       3.062   0.747  -1.147  0.00  0.00    -0.070 Cl
ENDROOT
TORSDOF 0
ENDMDL
