MODEL 1
REMARK minimizedAffinity 10.7994976
REMARK minimizedRMSD -1
REMARK  0 active torsions:
REMARK  status: ('A' for Active; 'I' for Inactive)
ROOT
ATOM      1  C   UNL d   1       1.033  -2.383  -0.964  0.00  0.00     0.020 A 
ATOM      2  C1  UNL d   1       0.743  -1.245  -1.715  0.00  0.00     0.020 A 
ATOM      3  C2  UNL d   1       1.651  -0.185  -1.755  0.00  0.00     0.034 A 
ATOM      4  C3  UNL d   1       2.853  -0.261  -1.043  0.00  0.00     0.017 A 
ATOM      5  C4  UNL d   1       3.143  -1.404  -0.289  0.00  0.00     0.017 A 
ATOM      6  C5  UNL d   1       2.230  -2.463  -0.253  0.00  0.00     0.034 A 
ATOM      7 Cl   UNL d   1       4.606  -1.571   0.616  0.00  0.00    -0.070 Cl
ATOM      8 Cl1  UNL d   1       3.930   1.087  -1.137  0.00  0.00    -0.070 Cl
ENDROOT
TORSDOF 0
ENDMDL
