MODEL 1
REMARK minimizedAffinity 10.1962309
REMARK minimizedRMSD -1
REMARK  0 active torsions:
REMARK  status: ('A' for Active; 'I' for Inactive)
ROOT
ATOM      1  C   UNL d   1       0.453  -1.768  -1.783  0.00  0.00     0.020 A 
ATOM      2  C1  UNL d   1       0.933  -3.017  -1.391  0.00  0.00     0.020 A 
ATOM      3  C2  UNL d   1       2.229  -3.140  -0.885  0.00  0.00     0.034 A 
ATOM      4  C3  UNL d   1       3.049  -2.012  -0.770  0.00  0.00     0.017 A 
ATOM      5  C4  UNL d   1       2.567  -0.759  -1.163  0.00  0.00     0.017 A 
ATOM      6  C5  UNL d   1       1.269  -0.641  -1.669  0.00  0.00     0.034 A 
ATOM      7 Cl   UNL d   1       3.520   0.678  -1.050  0.00  0.00    -0.070 Cl
ATOM      8 Cl1  UNL d   1       4.641  -2.238  -0.135  0.00  0.00    -0.070 Cl
ENDROOT
TORSDOF 0
ENDMDL
