MODEL 1
REMARK minimizedAffinity 11.7612782
REMARK minimizedRMSD -1
REMARK  0 active torsions:
REMARK  status: ('A' for Active; 'I' for Inactive)
ROOT
ATOM      1  C   UNL d   1      -3.562   1.732   3.623  0.00  0.00     0.020 A 
ATOM      2  C1  UNL d   1      -3.046   1.383   4.871  0.00  0.00     0.020 A 
ATOM      3  C2  UNL d   1      -3.353   0.141   5.430  0.00  0.00     0.034 A 
ATOM      4  C3  UNL d   1      -4.177  -0.757   4.742  0.00  0.00     0.017 A 
ATOM      5  C4  UNL d   1      -4.694  -0.406   3.490  0.00  0.00     0.017 A 
ATOM      6  C5  UNL d   1      -4.384   0.839   2.934  0.00  0.00     0.034 A 
ATOM      7 Cl   UNL d   1      -5.717  -1.461   2.580  0.00  0.00    -0.070 Cl
ATOM      8 Cl1  UNL d   1      -4.514  -2.276   5.493  0.00  0.00    -0.070 Cl
ENDROOT
TORSDOF 0
ENDMDL
