MODEL 1
REMARK minimizedAffinity 21.2553024
REMARK minimizedRMSD -1
REMARK  0 active torsions:
REMARK  status: ('A' for Active; 'I' for Inactive)
ROOT
ATOM      1  C   UNL d   1      -0.864  -4.714  -2.258  0.00  0.00     0.020 A 
ATOM      2  C1  UNL d   1      -1.977  -3.906  -2.029  0.00  0.00     0.020 A 
ATOM      3  C2  UNL d   1      -2.933  -3.733  -3.033  0.00  0.00     0.034 A 
ATOM      4  C3  UNL d   1      -2.777  -4.369  -4.270  0.00  0.00     0.017 A 
ATOM      5  C4  UNL d   1      -1.660  -5.180  -4.499  0.00  0.00     0.017 A 
ATOM      6  C5  UNL d   1      -0.706  -5.350  -3.490  0.00  0.00     0.034 A 
ATOM      7 Cl   UNL d   1      -1.399  -5.997  -5.999  0.00  0.00    -0.070 Cl
ATOM      8 Cl1  UNL d   1      -3.998  -4.111  -5.465  0.00  0.00    -0.070 Cl
ENDROOT
TORSDOF 0
ENDMDL
