MODEL 1
REMARK minimizedAffinity 13.7018127
REMARK minimizedRMSD -1
REMARK  0 active torsions:
REMARK  status: ('A' for Active; 'I' for Inactive)
ROOT
ATOM      1  C   UNL d   1      -3.114   1.372   3.549  0.00  0.00     0.020 A 
ATOM      2  C1  UNL d   1      -2.966   1.738   2.212  0.00  0.00     0.020 A 
ATOM      3  C2  UNL d   1      -1.719   1.629   1.593  0.00  0.00     0.034 A 
ATOM      4  C3  UNL d   1      -0.616   1.152   2.310  0.00  0.00     0.017 A 
ATOM      5  C4  UNL d   1      -0.766   0.784   3.652  0.00  0.00     0.017 A 
ATOM      6  C5  UNL d   1      -2.017   0.896   4.268  0.00  0.00     0.034 A 
ATOM      7 Cl   UNL d   1       0.549   0.187   4.602  0.00  0.00    -0.070 Cl
ATOM      8 Cl1  UNL d   1       0.896   1.042   1.480  0.00  0.00    -0.070 Cl
ENDROOT
TORSDOF 0
ENDMDL
