MODEL 1
REMARK minimizedAffinity 15.1865892
REMARK minimizedRMSD -1
REMARK  0 active torsions:
REMARK  status: ('A' for Active; 'I' for Inactive)
ROOT
ATOM      1  C   UNL d   1       1.551   0.012  -1.174  0.00  0.00     0.020 A 
ATOM      2  C1  UNL d   1       0.732  -0.764  -0.355  0.00  0.00     0.020 A 
ATOM      3  C2  UNL d   1       0.234  -1.983  -0.820  0.00  0.00     0.034 A 
ATOM      4  C3  UNL d   1       0.554  -2.429  -2.108  0.00  0.00     0.017 A 
ATOM      5  C4  UNL d   1       1.376  -1.649  -2.929  0.00  0.00     0.017 A 
ATOM      6  C5  UNL d   1       1.872  -0.429  -2.458  0.00  0.00     0.034 A 
ATOM      7 Cl   UNL d   1       1.816  -2.133  -4.529  0.00  0.00    -0.070 Cl
ATOM      8 Cl1  UNL d   1      -0.096  -3.947  -2.617  0.00  0.00    -0.070 Cl
ENDROOT
TORSDOF 0
ENDMDL
