MODEL 1
REMARK minimizedAffinity 4.0079174
REMARK minimizedRMSD -1
REMARK  0 active torsions:
REMARK  status: ('A' for Active; 'I' for Inactive)
ROOT
ATOM      1  C   UNL d   1       0.353  -0.761   1.077  0.00  0.00     0.020 A 
ATOM      2  C1  UNL d   1       1.054  -1.959   0.940  0.00  0.00     0.020 A 
ATOM      3  C2  UNL d   1       2.150  -2.032   0.078  0.00  0.00     0.034 A 
ATOM      4  C3  UNL d   1       2.549  -0.905  -0.651  0.00  0.00     0.017 A 
ATOM      5  C4  UNL d   1       1.844   0.297  -0.513  0.00  0.00     0.017 A 
ATOM      6  C5  UNL d   1       0.748   0.364   0.352  0.00  0.00     0.034 A 
ATOM      7 Cl   UNL d   1       2.277   1.729  -1.378  0.00  0.00    -0.070 Cl
ATOM      8 Cl1  UNL d   1       3.913  -1.067  -1.698  0.00  0.00    -0.070 Cl
ENDROOT
TORSDOF 0
ENDMDL
