MODEL 1
REMARK minimizedAffinity -0.129887477
REMARK minimizedRMSD -1
REMARK  0 active torsions:
REMARK  status: ('A' for Active; 'I' for Inactive)
ROOT
ATOM      1  C   UNL d   1       1.559  -0.545   0.365  0.00  0.00     0.020 A 
ATOM      2  C1  UNL d   1       2.222  -1.717   0.002  0.00  0.00     0.020 A 
ATOM      3  C2  UNL d   1       3.257  -1.672  -0.934  0.00  0.00     0.034 A 
ATOM      4  C3  UNL d   1       3.633  -0.453  -1.510  0.00  0.00     0.017 A 
ATOM      5  C4  UNL d   1       2.968   0.722  -1.144  0.00  0.00     0.017 A 
ATOM      6  C5  UNL d   1       1.931   0.672  -0.207  0.00  0.00     0.034 A 
ATOM      7 Cl   UNL d   1       3.375   2.264  -1.812  0.00  0.00    -0.070 Cl
ATOM      8 Cl1  UNL d   1       4.923  -0.472  -2.660  0.00  0.00    -0.070 Cl
ENDROOT
TORSDOF 0
ENDMDL
