MODEL 1
REMARK minimizedAffinity 2.15008855
REMARK minimizedRMSD -1
REMARK  0 active torsions:
REMARK  status: ('A' for Active; 'I' for Inactive)
ROOT
ATOM      1  C   UNL d   1       3.575  -0.708  -1.137  0.00  0.00     0.020 A 
ATOM      2  C1  UNL d   1       2.687  -1.779  -1.224  0.00  0.00     0.020 A 
ATOM      3  C2  UNL d   1       1.488  -1.753  -0.509  0.00  0.00     0.034 A 
ATOM      4  C3  UNL d   1       1.174  -0.653   0.298  0.00  0.00     0.017 A 
ATOM      5  C4  UNL d   1       2.066   0.422   0.386  0.00  0.00     0.017 A 
ATOM      6  C5  UNL d   1       3.265   0.390  -0.333  0.00  0.00     0.034 A 
ATOM      7 Cl   UNL d   1       1.748   1.814   1.360  0.00  0.00    -0.070 Cl
ATOM      8 Cl1  UNL d   1      -0.326  -0.687   1.155  0.00  0.00    -0.070 Cl
ENDROOT
TORSDOF 0
ENDMDL
