MODEL 1
REMARK minimizedAffinity 0.957883835
REMARK minimizedRMSD -1
REMARK  0 active torsions:
REMARK  status: ('A' for Active; 'I' for Inactive)
ROOT
ATOM      1  C   UNL d   1       0.905   0.235   0.550  0.00  0.00     0.020 A 
ATOM      2  C1  UNL d   1       1.262  -1.094   0.327  0.00  0.00     0.020 A 
ATOM      3  C2  UNL d   1       2.397  -1.395  -0.429  0.00  0.00     0.034 A 
ATOM      4  C3  UNL d   1       3.179  -0.366  -0.964  0.00  0.00     0.017 A 
ATOM      5  C4  UNL d   1       2.821   0.968  -0.740  0.00  0.00     0.017 A 
ATOM      6  C5  UNL d   1       1.683   1.264   0.018  0.00  0.00     0.034 A 
ATOM      7 Cl   UNL d   1       3.736   2.293  -1.368  0.00  0.00    -0.070 Cl
ATOM      8 Cl1  UNL d   1       4.570  -0.811  -1.888  0.00  0.00    -0.070 Cl
ENDROOT
TORSDOF 0
ENDMDL
