MODEL 1
REMARK minimizedAffinity -0.976859033
REMARK minimizedRMSD -1
REMARK  0 active torsions:
REMARK  status: ('A' for Active; 'I' for Inactive)
ROOT
ATOM      1  C   UNL d   1       1.034  -0.996   0.484  0.00  0.00     0.020 A 
ATOM      2  C1  UNL d   1       1.661  -1.417  -0.688  0.00  0.00     0.020 A 
ATOM      3  C2  UNL d   1       2.464  -0.530  -1.408  0.00  0.00     0.034 A 
ATOM      4  C3  UNL d   1       2.641   0.783  -0.958  0.00  0.00     0.017 A 
ATOM      5  C4  UNL d   1       2.011   1.205   0.218  0.00  0.00     0.017 A 
ATOM      6  C5  UNL d   1       1.208   0.313   0.936  0.00  0.00     0.034 A 
ATOM      7 Cl   UNL d   1       2.182   2.810   0.836  0.00  0.00    -0.070 Cl
ATOM      8 Cl1  UNL d   1       3.647   1.826  -1.899  0.00  0.00    -0.070 Cl
ENDROOT
TORSDOF 0
ENDMDL
