MODEL 1
REMARK minimizedAffinity 2.7865026
REMARK minimizedRMSD -1
REMARK  0 active torsions:
REMARK  status: ('A' for Active; 'I' for Inactive)
ROOT
ATOM      1  C   UNL d   1       0.247   0.141   0.515  0.00  0.00     0.020 A 
ATOM      2  C1  UNL d   1       1.213   1.012   0.014  0.00  0.00     0.020 A 
ATOM      3  C2  UNL d   1       2.467   0.524  -0.359  0.00  0.00     0.034 A 
ATOM      4  C3  UNL d   1       2.758  -0.839  -0.232  0.00  0.00     0.017 A 
ATOM      5  C4  UNL d   1       1.787  -1.713   0.271  0.00  0.00     0.017 A 
ATOM      6  C5  UNL d   1       0.533  -1.219   0.643  0.00  0.00     0.034 A 
ATOM      7 Cl   UNL d   1       2.072  -3.408   0.457  0.00  0.00    -0.070 Cl
ATOM      8 Cl1  UNL d   1       4.329  -1.374  -0.714  0.00  0.00    -0.070 Cl
ENDROOT
TORSDOF 0
ENDMDL
