MODEL 1
REMARK minimizedAffinity 8.07761574
REMARK minimizedRMSD -1
REMARK  0 active torsions:
REMARK  status: ('A' for Active; 'I' for Inactive)
ROOT
ATOM      1  C   UNL d   1       1.957  -1.955  -0.154  0.00  0.00     0.020 A 
ATOM      2  C1  UNL d   1       1.254  -0.756  -0.046  0.00  0.00     0.020 A 
ATOM      3  C2  UNL d   1       1.731   0.393  -0.679  0.00  0.00     0.034 A 
ATOM      4  C3  UNL d   1       2.916   0.346  -1.423  0.00  0.00     0.017 A 
ATOM      5  C4  UNL d   1       3.621  -0.857  -1.532  0.00  0.00     0.017 A 
ATOM      6  C5  UNL d   1       3.138  -2.005  -0.896  0.00  0.00     0.034 A 
ATOM      7 Cl   UNL d   1       5.090  -0.993  -2.433  0.00  0.00    -0.070 Cl
ATOM      8 Cl1  UNL d   1       3.448   1.806  -2.180  0.00  0.00    -0.070 Cl
ENDROOT
TORSDOF 0
ENDMDL
