MODEL 1
REMARK minimizedAffinity -4.65564013
REMARK minimizedRMSD -1
REMARK  0 active torsions:
REMARK  status: ('A' for Active; 'I' for Inactive)
ROOT
ATOM      1  C   UNL d   1       1.463   1.329   0.125  0.00  0.00     0.020 A 
ATOM      2  C1  UNL d   1       0.659   0.284   0.578  0.00  0.00     0.020 A 
ATOM      3  C2  UNL d   1       0.940  -1.030   0.195  0.00  0.00     0.034 A 
ATOM      4  C3  UNL d   1       2.028  -1.301  -0.643  0.00  0.00     0.017 A 
ATOM      5  C4  UNL d   1       2.834  -0.251  -1.097  0.00  0.00     0.017 A 
ATOM      6  C5  UNL d   1       2.548   1.062  -0.710  0.00  0.00     0.034 A 
ATOM      7 Cl   UNL d   1       4.193  -0.507  -2.133  0.00  0.00    -0.070 Cl
ATOM      8 Cl1  UNL d   1       2.317  -2.948  -1.076  0.00  0.00    -0.070 Cl
ENDROOT
TORSDOF 0
ENDMDL
