MODEL 1
REMARK minimizedAffinity -4.73103333
REMARK minimizedRMSD -1
REMARK  0 active torsions:
REMARK  status: ('A' for Active; 'I' for Inactive)
ROOT
ATOM      1  C   UNL d   1       1.694  -0.012   0.296  0.00  0.00     0.020 A 
ATOM      2  C1  UNL d   1       1.242  -1.156  -0.360  0.00  0.00     0.020 A 
ATOM      3  C2  UNL d   1       0.021  -1.731  -0.001  0.00  0.00     0.034 A 
ATOM      4  C3  UNL d   1      -0.752  -1.161   1.018  0.00  0.00     0.017 A 
ATOM      5  C4  UNL d   1      -0.298  -0.013   1.676  0.00  0.00     0.017 A 
ATOM      6  C5  UNL d   1       0.926   0.558   1.312  0.00  0.00     0.034 A 
ATOM      7 Cl   UNL d   1      -1.196   0.747   2.942  0.00  0.00    -0.070 Cl
ATOM      8 Cl1  UNL d   1      -2.252  -1.924   1.410  0.00  0.00    -0.070 Cl
ENDROOT
TORSDOF 0
ENDMDL
