MODEL 1
REMARK minimizedAffinity -2.89767551
REMARK minimizedRMSD -1
REMARK  0 active torsions:
REMARK  status: ('A' for Active; 'I' for Inactive)
ROOT
ATOM      1  C   UNL d   1       3.388  -1.589  -1.303  0.00  0.00     0.020 A 
ATOM      2  C1  UNL d   1       3.698  -0.344  -1.850  0.00  0.00     0.020 A 
ATOM      3  C2  UNL d   1       2.943   0.779  -1.502  0.00  0.00     0.034 A 
ATOM      4  C3  UNL d   1       1.876   0.659  -0.605  0.00  0.00     0.017 A 
ATOM      5  C4  UNL d   1       1.566  -0.591  -0.056  0.00  0.00     0.017 A 
ATOM      6  C5  UNL d   1       2.325  -1.711  -0.408  0.00  0.00     0.034 A 
ATOM      7 Cl   UNL d   1       0.264  -0.817   1.057  0.00  0.00    -0.070 Cl
ATOM      8 Cl1  UNL d   1       0.986   2.089  -0.219  0.00  0.00    -0.070 Cl
ENDROOT
TORSDOF 0
ENDMDL
