MODEL 1
REMARK minimizedAffinity 6.20346308
REMARK minimizedRMSD -1
REMARK  0 active torsions:
REMARK  status: ('A' for Active; 'I' for Inactive)
ROOT
ATOM      1  C   UNL d   1       1.485  -1.093  -0.688  0.00  0.00     0.020 A 
ATOM      2  C1  UNL d   1       1.490  -1.904   0.447  0.00  0.00     0.020 A 
ATOM      3  C2  UNL d   1       1.649  -1.334   1.712  0.00  0.00     0.034 A 
ATOM      4  C3  UNL d   1       1.803   0.050   1.846  0.00  0.00     0.017 A 
ATOM      5  C4  UNL d   1       1.797   0.863   0.707  0.00  0.00     0.017 A 
ATOM      6  C5  UNL d   1       1.638   0.288  -0.558  0.00  0.00     0.034 A 
ATOM      7 Cl   UNL d   1       1.982   2.580   0.792  0.00  0.00    -0.070 Cl
ATOM      8 Cl1  UNL d   1       1.994   0.687   3.440  0.00  0.00    -0.070 Cl
ENDROOT
TORSDOF 0
ENDMDL
