MODEL 1
REMARK minimizedAffinity -0.869780838
REMARK minimizedRMSD -1
REMARK  0 active torsions:
REMARK  status: ('A' for Active; 'I' for Inactive)
ROOT
ATOM      1  C   UNL d   1       0.553  -0.192   0.566  0.00  0.00     0.020 A 
ATOM      2  C1  UNL d   1       1.447   0.861   0.375  0.00  0.00     0.020 A 
ATOM      3  C2  UNL d   1       2.707   0.617  -0.175  0.00  0.00     0.034 A 
ATOM      4  C3  UNL d   1       3.076  -0.684  -0.537  0.00  0.00     0.017 A 
ATOM      5  C4  UNL d   1       2.178  -1.740  -0.345  0.00  0.00     0.017 A 
ATOM      6  C5  UNL d   1       0.918  -1.490   0.206  0.00  0.00     0.034 A 
ATOM      7 Cl   UNL d   1       2.563  -3.372  -0.767  0.00  0.00    -0.070 Cl
ATOM      8 Cl1  UNL d   1       4.650  -0.913  -1.213  0.00  0.00    -0.070 Cl
ENDROOT
TORSDOF 0
ENDMDL
