MODEL 1
REMARK minimizedAffinity -5.12514973
REMARK minimizedRMSD -1
REMARK  0 active torsions:
REMARK  status: ('A' for Active; 'I' for Inactive)
ROOT
ATOM      1  C   UNL d   1       1.031  -1.540   0.353  0.00  0.00     0.020 A 
ATOM      2  C1  UNL d   1       0.459  -0.274   0.467  0.00  0.00     0.020 A 
ATOM      3  C2  UNL d   1       1.060   0.823  -0.154  0.00  0.00     0.034 A 
ATOM      4  C3  UNL d   1       2.237   0.655  -0.893  0.00  0.00     0.017 A 
ATOM      5  C4  UNL d   1       2.810  -0.616  -1.008  0.00  0.00     0.017 A 
ATOM      6  C5  UNL d   1       2.204  -1.711  -0.383  0.00  0.00     0.034 A 
ATOM      7 Cl   UNL d   1       4.261  -0.901  -1.903  0.00  0.00    -0.070 Cl
ATOM      8 Cl1  UNL d   1       2.925   2.055  -1.635  0.00  0.00    -0.070 Cl
ENDROOT
TORSDOF 0
ENDMDL
