MODEL 1
REMARK minimizedAffinity 1.01104689
REMARK minimizedRMSD -1
REMARK  0 active torsions:
REMARK  status: ('A' for Active; 'I' for Inactive)
ROOT
ATOM      1  C   UNL d   1       0.945   0.277   0.508  0.00  0.00     0.020 A 
ATOM      2  C1  UNL d   1       1.577   1.342  -0.133  0.00  0.00     0.020 A 
ATOM      3  C2  UNL d   1       2.642   1.101  -1.003  0.00  0.00     0.034 A 
ATOM      4  C3  UNL d   1       3.079  -0.208  -1.235  0.00  0.00     0.017 A 
ATOM      5  C4  UNL d   1       2.444  -1.277  -0.591  0.00  0.00     0.017 A 
ATOM      6  C5  UNL d   1       1.378  -1.030   0.279  0.00  0.00     0.034 A 
ATOM      7 Cl   UNL d   1       2.927  -2.920  -0.827  0.00  0.00    -0.070 Cl
ATOM      8 Cl1  UNL d   1       4.402  -0.433  -2.323  0.00  0.00    -0.070 Cl
ENDROOT
TORSDOF 0
ENDMDL
