MODEL 1
REMARK minimizedAffinity -4.23473167
REMARK minimizedRMSD -1
REMARK  0 active torsions:
REMARK  status: ('A' for Active; 'I' for Inactive)
ROOT
ATOM      1  C   UNL d   1       1.377   1.194  -0.151  0.00  0.00     0.020 A 
ATOM      2  C1  UNL d   1       0.803   0.062   0.426  0.00  0.00     0.020 A 
ATOM      3  C2  UNL d   1       1.297  -1.207   0.115  0.00  0.00     0.034 A 
ATOM      4  C3  UNL d   1       2.367  -1.346  -0.775  0.00  0.00     0.017 A 
ATOM      5  C4  UNL d   1       2.943  -0.209  -1.354  0.00  0.00     0.017 A 
ATOM      6  C5  UNL d   1       2.444   1.059  -1.039  0.00  0.00     0.034 A 
ATOM      7 Cl   UNL d   1       4.266  -0.302  -2.461  0.00  0.00    -0.070 Cl
ATOM      8 Cl1  UNL d   1       2.927  -2.945  -1.115  0.00  0.00    -0.070 Cl
ENDROOT
TORSDOF 0
ENDMDL
