MODEL 1
REMARK minimizedAffinity 6.02722836
REMARK minimizedRMSD -1
REMARK  0 active torsions:
REMARK  status: ('A' for Active; 'I' for Inactive)
ROOT
ATOM      1  C   UNL d   1       0.169   0.415   1.297  0.00  0.00     0.020 A 
ATOM      2  C1  UNL d   1       0.345  -0.956   1.117  0.00  0.00     0.020 A 
ATOM      3  C2  UNL d   1       1.458  -1.431   0.419  0.00  0.00     0.034 A 
ATOM      4  C3  UNL d   1       2.398  -0.535  -0.102  0.00  0.00     0.017 A 
ATOM      5  C4  UNL d   1       2.220   0.842   0.080  0.00  0.00     0.017 A 
ATOM      6  C5  UNL d   1       1.105   1.312   0.780  0.00  0.00     0.034 A 
ATOM      7 Cl   UNL d   1       3.338   2.009  -0.533  0.00  0.00    -0.070 Cl
ATOM      8 Cl1  UNL d   1       3.749  -1.192  -0.954  0.00  0.00    -0.070 Cl
ENDROOT
TORSDOF 0
ENDMDL
