MODEL 1
REMARK minimizedAffinity -1.97016561
REMARK minimizedRMSD -1
REMARK  0 active torsions:
REMARK  status: ('A' for Active; 'I' for Inactive)
ROOT
ATOM      1  C   UNL d   1       3.757  -0.800  -1.616  0.00  0.00     0.020 A 
ATOM      2  C1  UNL d   1       3.417  -1.908  -0.840  0.00  0.00     0.020 A 
ATOM      3  C2  UNL d   1       2.387  -1.813   0.099  0.00  0.00     0.034 A 
ATOM      4  C3  UNL d   1       1.693  -0.609   0.264  0.00  0.00     0.017 A 
ATOM      5  C4  UNL d   1       2.035   0.502  -0.516  0.00  0.00     0.017 A 
ATOM      6  C5  UNL d   1       3.067   0.402  -1.454  0.00  0.00     0.034 A 
ATOM      7 Cl   UNL d   1       1.225   2.022  -0.369  0.00  0.00    -0.070 Cl
ATOM      8 Cl1  UNL d   1       0.431  -0.564   1.443  0.00  0.00    -0.070 Cl
ENDROOT
TORSDOF 0
ENDMDL
