MODEL 1
REMARK minimizedAffinity 1.41105723
REMARK minimizedRMSD -1
REMARK  0 active torsions:
REMARK  status: ('A' for Active; 'I' for Inactive)
ROOT
ATOM      1  C   UNL d   1       0.700   0.149   0.526  0.00  0.00     0.020 A 
ATOM      2  C1  UNL d   1       1.018  -1.201   0.386  0.00  0.00     0.020 A 
ATOM      3  C2  UNL d   1       2.129  -1.582  -0.370  0.00  0.00     0.034 A 
ATOM      4  C3  UNL d   1       2.926  -0.612  -0.988  0.00  0.00     0.017 A 
ATOM      5  C4  UNL d   1       2.606   0.743  -0.846  0.00  0.00     0.017 A 
ATOM      6  C5  UNL d   1       1.493   1.119  -0.088  0.00  0.00     0.034 A 
ATOM      7 Cl   UNL d   1       3.542   1.998  -1.579  0.00  0.00    -0.070 Cl
ATOM      8 Cl1  UNL d   1       4.284  -1.155  -1.907  0.00  0.00    -0.070 Cl
ENDROOT
TORSDOF 0
ENDMDL
