MODEL 1
REMARK minimizedAffinity -2.2243824
REMARK minimizedRMSD -1
REMARK  0 active torsions:
REMARK  status: ('A' for Active; 'I' for Inactive)
ROOT
ATOM      1  C   UNL d   1       1.068  -1.291   0.346  0.00  0.00     0.020 A 
ATOM      2  C1  UNL d   1       0.715   0.030   0.617  0.00  0.00     0.020 A 
ATOM      3  C2  UNL d   1       1.503   1.077   0.134  0.00  0.00     0.034 A 
ATOM      4  C3  UNL d   1       2.648   0.804  -0.623  0.00  0.00     0.017 A 
ATOM      5  C4  UNL d   1       3.002  -0.523  -0.895  0.00  0.00     0.017 A 
ATOM      6  C5  UNL d   1       2.209  -1.567  -0.409  0.00  0.00     0.034 A 
ATOM      7 Cl   UNL d   1       4.400  -0.938  -1.823  0.00  0.00    -0.070 Cl
ATOM      8 Cl1  UNL d   1       3.576   2.147  -1.190  0.00  0.00    -0.070 Cl
ENDROOT
TORSDOF 0
ENDMDL
