MODEL 1
REMARK minimizedAffinity 5.40867376
REMARK minimizedRMSD -1
REMARK  0 active torsions:
REMARK  status: ('A' for Active; 'I' for Inactive)
ROOT
ATOM      1  N1  IND d   1       3.093  -0.125  -1.216  0.00  0.00    -0.196 N 
ATOM      2  C2  IND d   1       3.461  -1.423  -1.437  0.00  0.00     0.054 A 
ATOM      3  C3  IND d   1       2.722  -2.258  -0.673  0.00  0.00    -0.031 A 
ATOM      4  C4  IND d   1       0.783  -1.720   0.933  0.00  0.00     0.051 A 
ATOM      5  C5  IND d   1       0.107  -0.673   1.493  0.00  0.00    -0.031 A 
ATOM      6  C6  IND d   1       0.395   0.638   1.169  0.00  0.00     0.015 A 
ATOM      7  C7  IND d   1       1.368   0.950   0.261  0.00  0.00    -0.016 A 
ATOM      8  C8  IND d   1       2.061  -0.111  -0.303  0.00  0.00    -0.047 A 
ATOM      9  C9  IND d   1       1.802  -1.441   0.053  0.00  0.00    -0.096 A 
ATOM     10  HN1 IND d   1       3.446   0.566  -1.586  0.00  0.00     0.298 HD
ENDROOT
TORSDOF 0
ENDMDL
