MODEL 1
REMARK minimizedAffinity -0.237132341
REMARK minimizedRMSD -1
REMARK  0 active torsions:
REMARK  status: ('A' for Active; 'I' for Inactive)
ROOT
ATOM      1  N1  IND d   1       2.316  -2.029   0.102  0.00  0.00    -0.196 N 
ATOM      2  C2  IND d   1       1.363  -1.452   0.895  0.00  0.00     0.054 A 
ATOM      3  C3  IND d   1       1.319  -0.117   0.681  0.00  0.00    -0.031 A 
ATOM      4  C4  IND d   1       2.647   1.316  -0.995  0.00  0.00     0.051 A 
ATOM      5  C5  IND d   1       3.660   1.242  -1.910  0.00  0.00    -0.031 A 
ATOM      6  C6  IND d   1       4.287   0.050  -2.209  0.00  0.00     0.015 A 
ATOM      7  C7  IND d   1       3.916  -1.120  -1.609  0.00  0.00    -0.016 A 
ATOM      8  C8  IND d   1       2.893  -1.048  -0.675  0.00  0.00    -0.047 A 
ATOM      9  C9  IND d   1       2.281   0.166  -0.336  0.00  0.00    -0.096 A 
ATOM     10  HN1 IND d   1       2.521  -2.864   0.091  0.00  0.00     0.298 HD
ENDROOT
TORSDOF 0
ENDMDL
