MODEL 1
REMARK minimizedAffinity -5.3518672
REMARK minimizedRMSD -1
REMARK  0 active torsions:
REMARK  status: ('A' for Active; 'I' for Inactive)
ROOT
ATOM      1  N1  IND d   1       0.811  -2.098   0.724  0.00  0.00    -0.196 N 
ATOM      2  C2  IND d   1      -0.173  -1.378   1.343  0.00  0.00     0.054 A 
ATOM      3  C3  IND d   1       0.008  -0.055   1.131  0.00  0.00    -0.031 A 
ATOM      4  C4  IND d   1       1.793   1.146  -0.283  0.00  0.00     0.051 A 
ATOM      5  C5  IND d   1       2.928   0.913  -1.010  0.00  0.00    -0.031 A 
ATOM      6  C6  IND d   1       3.423  -0.360  -1.201  0.00  0.00     0.015 A 
ATOM      7  C7  IND d   1       2.793  -1.455  -0.681  0.00  0.00    -0.016 A 
ATOM      8  C8  IND d   1       1.645  -1.223   0.063  0.00  0.00    -0.047 A 
ATOM      9  C9  IND d   1       1.161   0.071   0.297  0.00  0.00    -0.096 A 
ATOM     10  HN1 IND d   1       0.895  -2.953   0.745  0.00  0.00     0.298 HD
ENDROOT
TORSDOF 0
ENDMDL
