MODEL 1
REMARK minimizedAffinity -4.57782316
REMARK minimizedRMSD -1
REMARK  0 active torsions:
REMARK  status: ('A' for Active; 'I' for Inactive)
ROOT
ATOM      1  N1  IND d   1       3.364   0.247  -1.903  0.00  0.00    -0.196 N 
ATOM      2  C2  IND d   1       3.881  -1.017  -1.949  0.00  0.00     0.054 A 
ATOM      3  C3  IND d   1       3.270  -1.808  -1.038  0.00  0.00    -0.031 A 
ATOM      4  C4  IND d   1       1.327  -1.263   0.560  0.00  0.00     0.051 A 
ATOM      5  C5  IND d   1       0.544  -0.229   0.991  0.00  0.00    -0.031 A 
ATOM      6  C6  IND d   1       0.662   1.042   0.466  0.00  0.00     0.015 A 
ATOM      7  C7  IND d   1       1.563   1.325  -0.521  0.00  0.00    -0.016 A 
ATOM      8  C8  IND d   1       2.364   0.278  -0.956  0.00  0.00    -0.047 A 
ATOM      9  C9  IND d   1       2.279  -1.003  -0.397  0.00  0.00    -0.096 A 
ATOM     10  HN1 IND d   1       3.620   0.911  -2.386  0.00  0.00     0.298 HD
ENDROOT
TORSDOF 0
ENDMDL
