MODEL 1
REMARK minimizedAffinity -5.06359196
REMARK minimizedRMSD -1
REMARK  0 active torsions:
REMARK  status: ('A' for Active; 'I' for Inactive)
ROOT
ATOM      1  N1  IND d   1       4.033  -1.301  -1.656  0.00  0.00    -0.196 N 
ATOM      2  C2  IND d   1       4.390  -0.135  -2.274  0.00  0.00     0.054 A 
ATOM      3  C3  IND d   1       3.519   0.850  -1.960  0.00  0.00    -0.031 A 
ATOM      4  C4  IND d   1       1.494   0.797  -0.371  0.00  0.00     0.051 A 
ATOM      5  C5  IND d   1       0.749  -0.053   0.397  0.00  0.00    -0.031 A 
ATOM      6  C6  IND d   1       1.069  -1.390   0.524  0.00  0.00     0.015 A 
ATOM      7  C7  IND d   1       2.157  -1.925  -0.105  0.00  0.00    -0.016 A 
ATOM      8  C8  IND d   1       2.911  -1.066  -0.891  0.00  0.00    -0.047 A 
ATOM      9  C9  IND d   1       2.567   0.282  -1.059  0.00  0.00    -0.096 A 
ATOM     10  HN1 IND d   1       4.440  -2.055  -1.733  0.00  0.00     0.298 HD
ENDROOT
TORSDOF 0
ENDMDL
