MODEL 1
REMARK minimizedAffinity 0.111238897
REMARK minimizedRMSD -1
REMARK  0 active torsions:
REMARK  status: ('A' for Active; 'I' for Inactive)
ROOT
ATOM      1  N1  IND d   1       3.821  -0.507  -0.780  0.00  0.00    -0.196 N 
ATOM      2  C2  IND d   1       3.894  -1.858  -0.971  0.00  0.00     0.054 A 
ATOM      3  C3  IND d   1       2.778  -2.460  -0.502  0.00  0.00    -0.031 A 
ATOM      4  C4  IND d   1       0.663  -1.412   0.525  0.00  0.00     0.051 A 
ATOM      5  C5  IND d   1       0.144  -0.217   0.937  0.00  0.00    -0.031 A 
ATOM      6  C6  IND d   1       0.838   0.967   0.793  0.00  0.00     0.015 A 
ATOM      7  C7  IND d   1       2.077   1.002   0.218  0.00  0.00    -0.016 A 
ATOM      8  C8  IND d   1       2.609  -0.211  -0.195  0.00  0.00    -0.047 A 
ATOM      9  C9  IND d   1       1.928  -1.422  -0.013  0.00  0.00    -0.096 A 
ATOM     10  HN1 IND d   1       4.430   0.063  -0.989  0.00  0.00     0.298 HD
ENDROOT
TORSDOF 0
ENDMDL
