MODEL 1
REMARK minimizedAffinity -2.63723779
REMARK minimizedRMSD -1
REMARK  0 active torsions:
REMARK  status: ('A' for Active; 'I' for Inactive)
ROOT
ATOM      1  N1  IND d   1       3.464   0.138  -1.738  0.00  0.00    -0.196 N 
ATOM      2  C2  IND d   1       4.038  -1.103  -1.743  0.00  0.00     0.054 A 
ATOM      3  C3  IND d   1       3.476  -1.885  -0.794  0.00  0.00    -0.031 A 
ATOM      4  C4  IND d   1       1.532  -1.368   0.811  0.00  0.00     0.051 A 
ATOM      5  C5  IND d   1       0.709  -0.355   1.215  0.00  0.00    -0.031 A 
ATOM      6  C6  IND d   1       0.761   0.899   0.641  0.00  0.00     0.015 A 
ATOM      7  C7  IND d   1       1.635   1.184  -0.370  0.00  0.00    -0.016 A 
ATOM      8  C8  IND d   1       2.477   0.160  -0.777  0.00  0.00    -0.047 A 
ATOM      9  C9  IND d   1       2.458  -1.103  -0.170  0.00  0.00    -0.096 A 
ATOM     10  HN1 IND d   1       3.683   0.794  -2.248  0.00  0.00     0.298 HD
ENDROOT
TORSDOF 0
ENDMDL
