MODEL 1
REMARK minimizedAffinity -0.375617623
REMARK minimizedRMSD -1
REMARK  0 active torsions:
REMARK  status: ('A' for Active; 'I' for Inactive)
ROOT
ATOM      1  N1  IND d   1       3.407   1.750  -1.480  0.00  0.00    -0.196 N 
ATOM      2  C2  IND d   1       4.193   1.035  -2.340  0.00  0.00     0.054 A 
ATOM      3  C3  IND d   1       3.954  -0.289  -2.206  0.00  0.00    -0.031 A 
ATOM      4  C4  IND d   1       2.244  -1.499  -0.711  0.00  0.00     0.051 A 
ATOM      5  C5  IND d   1       1.325  -1.273   0.275  0.00  0.00    -0.031 A 
ATOM      6  C6  IND d   1       1.045  -0.002   0.734  0.00  0.00     0.015 A 
ATOM      7  C7  IND d   1       1.669   1.096   0.214  0.00  0.00    -0.016 A 
ATOM      8  C8  IND d   1       2.608   0.870  -0.783  0.00  0.00    -0.047 A 
ATOM      9  C9  IND d   1       2.926  -0.421  -1.223  0.00  0.00    -0.096 A 
ATOM     10  HN1 IND d   1       3.411   2.605  -1.389  0.00  0.00     0.298 HD
ENDROOT
TORSDOF 0
ENDMDL
