MODEL 1
REMARK minimizedAffinity -0.443910897
REMARK minimizedRMSD -1
REMARK  0 active torsions:
REMARK  status: ('A' for Active; 'I' for Inactive)
ROOT
ATOM      1  N1  IND d   1       1.047  -1.081   0.670  0.00  0.00    -0.196 N 
ATOM      2  C2  IND d   1       0.439   0.116   0.933  0.00  0.00     0.054 A 
ATOM      3  C3  IND d   1       1.061   1.115   0.267  0.00  0.00    -0.031 A 
ATOM      4  C4  IND d   1       3.030   1.000  -1.388  0.00  0.00     0.051 A 
ATOM      5  C5  IND d   1       3.941   0.132  -1.919  0.00  0.00    -0.031 A 
ATOM      6  C6  IND d   1       3.933  -1.213  -1.610  0.00  0.00     0.015 A 
ATOM      7  C7  IND d   1       3.001  -1.744  -0.763  0.00  0.00    -0.016 A 
ATOM      8  C8  IND d   1       2.078  -0.863  -0.217  0.00  0.00    -0.047 A 
ATOM      9  C9  IND d   1       2.108   0.510  -0.493  0.00  0.00    -0.096 A 
ATOM     10  HN1 IND d   1       0.823  -1.841   1.004  0.00  0.00     0.298 HD
ENDROOT
TORSDOF 0
ENDMDL
