MODEL 1
REMARK minimizedAffinity -5.56035709
REMARK minimizedRMSD -1
REMARK  0 active torsions:
REMARK  status: ('A' for Active; 'I' for Inactive)
ROOT
ATOM      1  N1  IND d   1       3.127   0.720  -1.618  0.00  0.00    -0.196 N 
ATOM      2  C2  IND d   1       3.920  -0.343  -1.947  0.00  0.00     0.054 A 
ATOM      3  C3  IND d   1       3.486  -1.463  -1.327  0.00  0.00    -0.031 A 
ATOM      4  C4  IND d   1       1.435  -1.802   0.192  0.00  0.00     0.051 A 
ATOM      5  C5  IND d   1       0.427  -1.116   0.810  0.00  0.00    -0.031 A 
ATOM      6  C6  IND d   1       0.263   0.245   0.645  0.00  0.00     0.015 A 
ATOM      7  C7  IND d   1       1.098   0.971  -0.157  0.00  0.00    -0.016 A 
ATOM      8  C8  IND d   1       2.126   0.278  -0.781  0.00  0.00    -0.047 A 
ATOM      9  C9  IND d   1       2.323  -1.094  -0.583  0.00  0.00    -0.096 A 
ATOM     10  HN1 IND d   1       3.235   1.529  -1.889  0.00  0.00     0.298 HD
ENDROOT
TORSDOF 0
ENDMDL
