MODEL 1
REMARK minimizedAffinity 8.41604614
REMARK minimizedRMSD -1
REMARK  0 active torsions:
REMARK  status: ('A' for Active; 'I' for Inactive)
ROOT
ATOM      1  N1  IND d   1       1.669  -1.543   1.583  0.00  0.00    -0.196 N 
ATOM      2  C2  IND d   1       1.503  -2.069   0.332  0.00  0.00     0.054 A 
ATOM      3  C3  IND d   1       1.535  -1.088  -0.598  0.00  0.00    -0.031 A 
ATOM      4  C4  IND d   1       1.950   1.435  -0.301  0.00  0.00     0.051 A 
ATOM      5  C5  IND d   1       2.118   2.393   0.658  0.00  0.00    -0.031 A 
ATOM      6  C6  IND d   1       2.149   2.082   2.002  0.00  0.00     0.015 A 
ATOM      7  C7  IND d   1       2.023   0.793   2.438  0.00  0.00    -0.016 A 
ATOM      8  C8  IND d   1       1.845  -0.182   1.467  0.00  0.00    -0.047 A 
ATOM      9  C9  IND d   1       1.771   0.133   0.104  0.00  0.00    -0.096 A 
ATOM     10  HN1 IND d   1       1.665  -1.988   2.319  0.00  0.00     0.298 HD
ENDROOT
TORSDOF 0
ENDMDL
