MODEL 1
REMARK minimizedAffinity 1.72768617
REMARK minimizedRMSD -1
REMARK  0 active torsions:
REMARK  status: ('A' for Active; 'I' for Inactive)
ROOT
ATOM      1  N1  IND d   1       4.130   0.581  -1.696  0.00  0.00    -0.196 N 
ATOM      2  C2  IND d   1       4.540  -0.696  -1.960  0.00  0.00     0.054 A 
ATOM      3  C3  IND d   1       3.736  -1.586  -1.335  0.00  0.00    -0.031 A 
ATOM      4  C4  IND d   1       1.630  -1.172   0.086  0.00  0.00     0.051 A 
ATOM      5  C5  IND d   1       0.882  -0.169   0.637  0.00  0.00    -0.031 A 
ATOM      6  C6  IND d   1       1.183   1.162   0.431  0.00  0.00     0.015 A 
ATOM      7  C7  IND d   1       2.241   1.542  -0.345  0.00  0.00    -0.016 A 
ATOM      8  C8  IND d   1       3.007   0.526  -0.900  0.00  0.00    -0.047 A 
ATOM      9  C9  IND d   1       2.732  -0.826  -0.660  0.00  0.00    -0.096 A 
ATOM     10  HN1 IND d   1       4.509   1.299  -1.980  0.00  0.00     0.298 HD
ENDROOT
TORSDOF 0
ENDMDL
