MODEL 1
REMARK minimizedAffinity 3.61764979
REMARK minimizedRMSD -1
REMARK  0 active torsions:
REMARK  status: ('A' for Active; 'I' for Inactive)
ROOT
ATOM      1  N1  IND d   1       3.706  -1.361  -0.481  0.00  0.00    -0.196 N 
ATOM      2  C2  IND d   1       3.379  -2.672  -0.273  0.00  0.00     0.054 A 
ATOM      3  C3  IND d   1       2.106  -2.775   0.169  0.00  0.00    -0.031 A 
ATOM      4  C4  IND d   1       0.345  -0.932   0.526  0.00  0.00     0.051 A 
ATOM      5  C5  IND d   1       0.186   0.425   0.504  0.00  0.00    -0.031 A 
ATOM      6  C6  IND d   1       1.213   1.273   0.142  0.00  0.00     0.015 A 
ATOM      7  C7  IND d   1       2.438   0.793  -0.223  0.00  0.00    -0.016 A 
ATOM      8  C8  IND d   1       2.605  -0.584  -0.195  0.00  0.00    -0.047 A 
ATOM      9  C9  IND d   1       1.580  -1.448   0.212  0.00  0.00    -0.096 A 
ATOM     10  HN1 IND d   1       4.471  -1.071  -0.746  0.00  0.00     0.298 HD
ENDROOT
TORSDOF 0
ENDMDL
