MODEL 1
REMARK minimizedAffinity 8.56440449
REMARK minimizedRMSD -1
REMARK  0 active torsions:
REMARK  status: ('A' for Active; 'I' for Inactive)
ROOT
ATOM      1  N1  IND d   1      -2.271   5.273  -2.260  0.00  0.00    -0.196 N 
ATOM      2  C2  IND d   1      -1.259   6.000  -1.698  0.00  0.00     0.054 A 
ATOM      3  C3  IND d   1      -0.065   5.419  -1.952  0.00  0.00    -0.031 A 
ATOM      4  C4  IND d   1       0.471   3.328  -3.354  0.00  0.00     0.051 A 
ATOM      5  C5  IND d   1      -0.128   2.306  -4.037  0.00  0.00    -0.031 A 
ATOM      6  C6  IND d   1      -1.499   2.221  -4.168  0.00  0.00     0.015 A 
ATOM      7  C7  IND d   1      -2.326   3.165  -3.628  0.00  0.00    -0.016 A 
ATOM      8  C8  IND d   1      -1.722   4.200  -2.927  0.00  0.00    -0.047 A 
ATOM      9  C9  IND d   1      -0.333   4.268  -2.755  0.00  0.00    -0.096 A 
ATOM     10  HN1 IND d   1      -3.110   5.455  -2.207  0.00  0.00     0.298 HD
ENDROOT
TORSDOF 0
ENDMDL
