MODEL 1
REMARK minimizedAffinity 5.27105379
REMARK minimizedRMSD -1
REMARK  0 active torsions:
REMARK  status: ('A' for Active; 'I' for Inactive)
ROOT
ATOM      1  N1  IND d   1       3.008  -0.152  -1.607  0.00  0.00    -0.196 N 
ATOM      2  C2  IND d   1       3.053  -1.511  -1.751  0.00  0.00     0.054 A 
ATOM      3  C3  IND d   1       2.307  -2.109  -0.796  0.00  0.00    -0.031 A 
ATOM      4  C4  IND d   1       0.846  -1.051   1.041  0.00  0.00     0.051 A 
ATOM      5  C5  IND d   1       0.515   0.155   1.593  0.00  0.00    -0.031 A 
ATOM      6  C6  IND d   1       1.006   1.344   1.094  0.00  0.00     0.015 A 
ATOM      7  C7  IND d   1       1.841   1.373   0.013  0.00  0.00    -0.016 A 
ATOM      8  C8  IND d   1       2.185   0.150  -0.545  0.00  0.00    -0.047 A 
ATOM      9  C9  IND d   1       1.724  -1.063  -0.017  0.00  0.00    -0.096 A 
ATOM     10  HN1 IND d   1       3.425   0.418  -2.098  0.00  0.00     0.298 HD
ENDROOT
TORSDOF 0
ENDMDL
