MODEL 1
REMARK minimizedAffinity -6.48758507
REMARK minimizedRMSD -1
REMARK  0 active torsions:
REMARK  status: ('A' for Active; 'I' for Inactive)
ROOT
ATOM      1  N1  IND d   1       3.894  -1.288  -1.720  0.00  0.00    -0.196 N 
ATOM      2  C2  IND d   1       4.464  -0.113  -2.124  0.00  0.00     0.054 A 
ATOM      3  C3  IND d   1       3.734   0.938  -1.687  0.00  0.00    -0.031 A 
ATOM      4  C4  IND d   1       1.628   0.964  -0.207  0.00  0.00     0.051 A 
ATOM      5  C5  IND d   1       0.714   0.135   0.381  0.00  0.00    -0.031 A 
ATOM      6  C6  IND d   1       0.818  -1.239   0.300  0.00  0.00     0.015 A 
ATOM      7  C7  IND d   1       1.849  -1.837  -0.367  0.00  0.00    -0.016 A 
ATOM      8  C8  IND d   1       2.775  -0.998  -0.971  0.00  0.00    -0.047 A 
ATOM      9  C9  IND d   1       2.652   0.397  -0.928  0.00  0.00    -0.096 A 
ATOM     10  HN1 IND d   1       4.186  -2.076  -1.904  0.00  0.00     0.298 HD
ENDROOT
TORSDOF 0
ENDMDL
