MODEL 1
REMARK minimizedAffinity 2.52421713
REMARK minimizedRMSD -1
REMARK  0 active torsions:
REMARK  status: ('A' for Active; 'I' for Inactive)
ROOT
ATOM      1  N1  IND d   1       2.522  -2.014  -1.058  0.00  0.00    -0.196 N 
ATOM      2  C2  IND d   1       3.686  -1.409  -1.444  0.00  0.00     0.054 A 
ATOM      3  C3  IND d   1       3.765  -0.165  -0.921  0.00  0.00    -0.031 A 
ATOM      4  C4  IND d   1       2.149   1.043   0.679  0.00  0.00     0.051 A 
ATOM      5  C5  IND d   1       0.931   0.908   1.284  0.00  0.00    -0.031 A 
ATOM      6  C6  IND d   1       0.167  -0.232   1.138  0.00  0.00     0.015 A 
ATOM      7  C7  IND d   1       0.599  -1.288   0.388  0.00  0.00    -0.016 A 
ATOM      8  C8  IND d   1       1.833  -1.153  -0.233  0.00  0.00    -0.047 A 
ATOM      9  C9  IND d   1       2.594   0.018  -0.124  0.00  0.00    -0.096 A 
ATOM     10  HN1 IND d   1       2.264  -2.801  -1.291  0.00  0.00     0.298 HD
ENDROOT
TORSDOF 0
ENDMDL
