MODEL 1
REMARK minimizedAffinity 2.27016902
REMARK minimizedRMSD -1
REMARK  0 active torsions:
REMARK  status: ('A' for Active; 'I' for Inactive)
ROOT
ATOM      1  N1  IND d   1       3.580   0.933  -1.399  0.00  0.00    -0.196 N 
ATOM      2  C2  IND d   1       4.196  -0.163  -1.936  0.00  0.00     0.054 A 
ATOM      3  C3  IND d   1       3.579  -1.295  -1.532  0.00  0.00    -0.031 A 
ATOM      4  C4  IND d   1       1.478  -1.581  -0.072  0.00  0.00     0.051 A 
ATOM      5  C5  IND d   1       0.585  -0.871   0.682  0.00  0.00    -0.031 A 
ATOM      6  C6  IND d   1       0.644   0.504   0.779  0.00  0.00     0.015 A 
ATOM      7  C7  IND d   1       1.596   1.225   0.115  0.00  0.00    -0.016 A 
ATOM      8  C8  IND d   1       2.509   0.507  -0.645  0.00  0.00    -0.047 A 
ATOM      9  C9  IND d   1       2.479  -0.892  -0.713  0.00  0.00    -0.096 A 
ATOM     10  HN1 IND d   1       3.820   1.750  -1.513  0.00  0.00     0.298 HD
ENDROOT
TORSDOF 0
ENDMDL
