MODEL 1
REMARK minimizedAffinity -0.699348867
REMARK minimizedRMSD -1
REMARK  0 active torsions:
REMARK  status: ('A' for Active; 'I' for Inactive)
ROOT
ATOM      1  N1  IND d   1       3.886   0.265  -1.441  0.00  0.00    -0.196 N 
ATOM      2  C2  IND d   1       4.109  -1.036  -1.797  0.00  0.00     0.054 A 
ATOM      3  C3  IND d   1       3.192  -1.845  -1.221  0.00  0.00    -0.031 A 
ATOM      4  C4  IND d   1       1.176  -1.238   0.260  0.00  0.00     0.051 A 
ATOM      5  C5  IND d   1       0.581  -0.181   0.889  0.00  0.00    -0.031 A 
ATOM      6  C6  IND d   1       1.066   1.106   0.769  0.00  0.00     0.015 A 
ATOM      7  C7  IND d   1       2.162   1.385   0.003  0.00  0.00    -0.016 A 
ATOM      8  C8  IND d   1       2.772   0.313  -0.632  0.00  0.00    -0.047 A 
ATOM      9  C9  IND d   1       2.310  -1.000  -0.480  0.00  0.00    -0.096 A 
ATOM     10  HN1 IND d   1       4.362   0.940  -1.682  0.00  0.00     0.298 HD
ENDROOT
TORSDOF 0
ENDMDL
