MODEL 1
REMARK minimizedAffinity 5.90754414
REMARK minimizedRMSD -1
REMARK  0 active torsions:
REMARK  status: ('A' for Active; 'I' for Inactive)
ROOT
ATOM      1  C   UNL d   1       1.218   4.050   4.052  0.00  0.00     0.023 A 
ATOM      2  C1  UNL d   1       2.353   3.261   4.245  0.00  0.00     0.003 A 
ATOM      3  C2  UNL d   1       3.505   3.819   4.804  0.00  0.00     0.048 A 
ATOM      4  C3  UNL d   1       3.515   5.165   5.168  0.00  0.00     0.023 A 
ATOM      5  C4  UNL d   1       2.382   5.957   4.977  0.00  0.00     0.048 A 
ATOM      6  C5  UNL d   1       1.233   5.396   4.418  0.00  0.00     0.003 A 
ATOM      7  I   UNL d   1       5.229   5.997   5.999  0.00  0.00    -0.146 I 
ENDROOT
TORSDOF 0
ENDMDL
