MODEL 1
REMARK minimizedAffinity 0.653922975
REMARK minimizedRMSD -1
REMARK  0 active torsions:
REMARK  status: ('A' for Active; 'I' for Inactive)
ROOT
ATOM      1  C   UNL d   1       1.179   6.000   5.383  0.00  0.00     0.023 A 
ATOM      2  C1  UNL d   1       2.522   5.635   5.482  0.00  0.00     0.003 A 
ATOM      3  C2  UNL d   1       3.086   4.779   4.534  0.00  0.00     0.048 A 
ATOM      4  C3  UNL d   1       2.302   4.291   3.490  0.00  0.00     0.023 A 
ATOM      5  C4  UNL d   1       0.958   4.653   3.386  0.00  0.00     0.048 A 
ATOM      6  C5  UNL d   1       0.398   5.509   4.336  0.00  0.00     0.003 A 
ATOM      7  I   UNL d   1       3.139   3.015   2.078  0.00  0.00    -0.146 I 
ENDROOT
TORSDOF 0
ENDMDL
