MODEL 1
REMARK minimizedAffinity -0.398146421
REMARK minimizedRMSD -1
REMARK  0 active torsions:
REMARK  status: ('A' for Active; 'I' for Inactive)
ROOT
ATOM      1  C   UNL d   1       2.549   5.704  -5.992  0.00  0.00     0.023 A 
ATOM      2  C1  UNL d   1       1.874   4.483  -5.997  0.00  0.00     0.003 A 
ATOM      3  C2  UNL d   1       2.592   3.286  -6.000  0.00  0.00     0.048 A 
ATOM      4  C3  UNL d   1       3.986   3.316  -5.996  0.00  0.00     0.023 A 
ATOM      5  C4  UNL d   1       4.667   4.535  -5.991  0.00  0.00     0.048 A 
ATOM      6  C5  UNL d   1       3.944   5.729  -5.989  0.00  0.00     0.003 A 
ATOM      7  I   UNL d   1       5.058   1.535  -6.000  0.00  0.00    -0.146 I 
ENDROOT
TORSDOF 0
ENDMDL
