MODEL 1
REMARK minimizedAffinity 5.55735064
REMARK minimizedRMSD -1
REMARK  0 active torsions:
REMARK  status: ('A' for Active; 'I' for Inactive)
ROOT
ATOM      1  C   UNL d   1       1.122   5.215   4.131  0.00  0.00     0.023 A 
ATOM      2  C1  UNL d   1       2.224   4.881   3.345  0.00  0.00     0.003 A 
ATOM      3  C2  UNL d   1       3.517   5.105   3.821  0.00  0.00     0.048 A 
ATOM      4  C3  UNL d   1       3.701   5.663   5.086  0.00  0.00     0.023 A 
ATOM      5  C4  UNL d   1       2.601   5.998   5.877  0.00  0.00     0.048 A 
ATOM      6  C5  UNL d   1       1.310   5.773   5.396  0.00  0.00     0.003 A 
ATOM      7  I   UNL d   1       5.625   5.997   5.798  0.00  0.00    -0.146 I 
ENDROOT
TORSDOF 0
ENDMDL
