MODEL 1
REMARK minimizedAffinity -6.26480675
REMARK minimizedRMSD -1
REMARK  1 active torsions:
REMARK  status: ('A' for Active; 'I' for Inactive)
REMARK    1  A    between atoms: C1_2  and  C2_3 
ROOT
ATOM      1  C2  UNL d   1      -0.065  -2.167   0.075  0.00  0.00    -0.076 A 
ATOM      2  C3  UNL d   1       0.584  -2.413  -1.147  0.00  0.00     0.004 A 
ATOM      3  C4  UNL d   1       1.181  -1.377  -1.864  0.00  0.00    -0.003 A 
ATOM      4  C5  UNL d   1       1.140  -0.078  -1.369  0.00  0.00     0.000 A 
ATOM      5  C6  UNL d   1       0.516   0.181  -0.149  0.00  0.00     0.000 A 
ATOM      6  C7  UNL d   1      -0.078  -0.854   0.593  0.00  0.00    -0.073 A 
ATOM      7  C8  UNL d   1      -0.743  -0.517   1.900  0.00  0.00     0.078 C 
ENDROOT
BRANCH   1   8
ATOM      8  C1  UNL d   1      -0.719  -3.325   0.794  0.00  0.00     0.053 C 
ATOM      9  C   UNL d   1      -1.838  -3.958  -0.018  0.00  0.00     0.018 C 
ENDBRANCH   1   8
TORSDOF 1
ENDMDL
