MODEL 1
REMARK minimizedAffinity 4.20739698
REMARK minimizedRMSD -1
REMARK  1 active torsions:
REMARK  status: ('A' for Active; 'I' for Inactive)
REMARK    1  A    between atoms: C1_2  and  C2_3 
ROOT
ATOM      1  C2  UNL d   1      -1.639  -3.018  -2.443  0.00  0.00    -0.076 A 
ATOM      2  C3  UNL d   1      -0.535  -2.148  -2.387  0.00  0.00     0.004 A 
ATOM      3  C4  UNL d   1      -0.468  -1.134  -1.434  0.00  0.00    -0.003 A 
ATOM      4  C5  UNL d   1      -1.503  -0.973  -0.520  0.00  0.00     0.000 A 
ATOM      5  C6  UNL d   1      -2.597  -1.837  -0.548  0.00  0.00     0.000 A 
ATOM      6  C7  UNL d   1      -2.673  -2.875  -1.493  0.00  0.00    -0.073 A 
ATOM      7  C8  UNL d   1      -3.879  -3.774  -1.482  0.00  0.00     0.078 C 
ENDROOT
BRANCH   1   8
ATOM      8  C1  UNL d   1      -1.669  -4.082  -3.516  0.00  0.00     0.053 C 
ATOM      9  C   UNL d   1      -0.876  -3.686  -4.752  0.00  0.00     0.018 C 
ENDBRANCH   1   8
TORSDOF 1
ENDMDL
