MODEL 1
REMARK minimizedAffinity -4.76972389
REMARK minimizedRMSD -1
REMARK  1 active torsions:
REMARK  status: ('A' for Active; 'I' for Inactive)
REMARK    1  A    between atoms: C1_2  and  C2_3 
ROOT
ATOM      1  C2  UNL d   1      -0.519  -3.417  -1.512  0.00  0.00    -0.076 A 
ATOM      2  C3  UNL d   1      -1.348  -3.362  -0.379  0.00  0.00     0.004 A 
ATOM      3  C4  UNL d   1      -1.122  -2.427   0.631  0.00  0.00    -0.003 A 
ATOM      4  C5  UNL d   1      -0.062  -1.533   0.522  0.00  0.00     0.000 A 
ATOM      5  C6  UNL d   1       0.760  -1.562  -0.604  0.00  0.00     0.000 A 
ATOM      6  C7  UNL d   1       0.535  -2.487  -1.638  0.00  0.00    -0.073 A 
ATOM      7  C8  UNL d   1       1.457  -2.479  -2.827  0.00  0.00     0.078 C 
ENDROOT
BRANCH   1   8
ATOM      8  C1  UNL d   1      -0.796  -4.470  -2.562  0.00  0.00     0.053 C 
ATOM      9  C   UNL d   1      -1.777  -3.992  -3.622  0.00  0.00     0.018 C 
ENDBRANCH   1   8
TORSDOF 1
ENDMDL
