MODEL 1
REMARK minimizedAffinity -0.612536073
REMARK minimizedRMSD -1
REMARK  1 active torsions:
REMARK  status: ('A' for Active; 'I' for Inactive)
REMARK    1  A    between atoms: C1_2  and  C2_3 
ROOT
ATOM      1  C2  UNL d   1       0.333   0.804  -0.215  0.00  0.00    -0.076 A 
ATOM      2  C3  UNL d   1      -0.249   0.518   1.033  0.00  0.00     0.004 A 
ATOM      3  C4  UNL d   1      -1.066  -0.598   1.204  0.00  0.00    -0.003 A 
ATOM      4  C5  UNL d   1      -1.315  -1.447   0.131  0.00  0.00     0.000 A 
ATOM      5  C6  UNL d   1      -0.732  -1.188  -1.109  0.00  0.00     0.000 A 
ATOM      6  C7  UNL d   1       0.108  -0.076  -1.295  0.00  0.00    -0.073 A 
ATOM      7  C8  UNL d   1       0.705   0.158  -2.655  0.00  0.00     0.078 C 
ENDROOT
BRANCH   1   8
ATOM      8  C1  UNL d   1       1.188   2.043  -0.348  0.00  0.00     0.053 C 
ATOM      9  C   UNL d   1       1.012   3.001   0.820  0.00  0.00     0.018 C 
ENDBRANCH   1   8
TORSDOF 1
ENDMDL
