MODEL 1
REMARK minimizedAffinity -6.20474386
REMARK minimizedRMSD -1
REMARK  1 active torsions:
REMARK  status: ('A' for Active; 'I' for Inactive)
REMARK    1  A    between atoms: C1_2  and  C2_3 
ROOT
ATOM      1  C2  UNL d   1      -0.187  -0.322  -0.340  0.00  0.00    -0.076 A 
ATOM      2  C3  UNL d   1      -0.526  -0.885   0.903  0.00  0.00     0.004 A 
ATOM      3  C4  UNL d   1      -0.471  -2.262   1.106  0.00  0.00    -0.003 A 
ATOM      4  C5  UNL d   1      -0.075  -3.100   0.069  0.00  0.00     0.000 A 
ATOM      5  C6  UNL d   1       0.282  -2.558  -1.165  0.00  0.00     0.000 A 
ATOM      6  C7  UNL d   1       0.247  -1.170  -1.381  0.00  0.00    -0.073 A 
ATOM      7  C8  UNL d   1       0.636  -0.641  -2.734  0.00  0.00     0.078 C 
ENDROOT
BRANCH   1   8
ATOM      8  C1  UNL d   1      -0.292   1.177  -0.510  0.00  0.00     0.053 C 
ATOM      9  C   UNL d   1       0.885   1.917   0.107  0.00  0.00     0.018 C 
ENDBRANCH   1   8
TORSDOF 1
ENDMDL
