MODEL 1
REMARK minimizedAffinity -0.0852209181
REMARK minimizedRMSD -1
REMARK  1 active torsions:
REMARK  status: ('A' for Active; 'I' for Inactive)
REMARK    1  A    between atoms: C1_2  and  C2_3 
ROOT
ATOM      1  C2  UNL d   1       0.101   1.113   0.223  0.00  0.00    -0.076 A 
ATOM      2  C3  UNL d   1      -0.205   0.749   1.546  0.00  0.00     0.004 A 
ATOM      3  C4  UNL d   1      -0.723  -0.511   1.842  0.00  0.00    -0.003 A 
ATOM      4  C5  UNL d   1      -0.942  -1.428   0.820  0.00  0.00     0.000 A 
ATOM      5  C6  UNL d   1      -0.627  -1.090  -0.496  0.00  0.00     0.000 A 
ATOM      6  C7  UNL d   1      -0.090   0.170  -0.810  0.00  0.00    -0.073 A 
ATOM      7  C8  UNL d   1       0.225   0.483  -2.247  0.00  0.00     0.078 C 
ENDROOT
BRANCH   1   8
ATOM      8  C1  UNL d   1       0.634   2.503  -0.041  0.00  0.00     0.053 C 
ATOM      9  C   UNL d   1       1.789   2.868   0.879  0.00  0.00     0.018 C 
ENDBRANCH   1   8
TORSDOF 1
ENDMDL
