MODEL 1
REMARK minimizedAffinity -5.77123642
REMARK minimizedRMSD -1
REMARK  1 active torsions:
REMARK  status: ('A' for Active; 'I' for Inactive)
REMARK    1  A    between atoms: C1_2  and  C2_3 
ROOT
ATOM      1  C2  UNL d   1       0.277  -1.354  -0.645  0.00  0.00    -0.076 A 
ATOM      2  C3  UNL d   1       0.015  -1.897   0.625  0.00  0.00     0.004 A 
ATOM      3  C4  UNL d   1      -0.117  -3.273   0.805  0.00  0.00    -0.003 A 
ATOM      4  C5  UNL d   1       0.012  -4.129  -0.283  0.00  0.00     0.000 A 
ATOM      5  C6  UNL d   1       0.289  -3.610  -1.547  0.00  0.00     0.000 A 
ATOM      6  C7  UNL d   1       0.441  -2.226  -1.743  0.00  0.00    -0.073 A 
ATOM      7  C8  UNL d   1       0.734  -1.721  -3.129  0.00  0.00     0.078 C 
ENDROOT
BRANCH   1   8
ATOM      8  C1  UNL d   1       0.382   0.147  -0.784  0.00  0.00     0.053 C 
ATOM      9  C   UNL d   1      -0.066   0.881   0.471  0.00  0.00     0.018 C 
ENDBRANCH   1   8
TORSDOF 1
ENDMDL
