MODEL 1
REMARK minimizedAffinity -4.4675436
REMARK minimizedRMSD -1
REMARK  1 active torsions:
REMARK  status: ('A' for Active; 'I' for Inactive)
REMARK    1  A    between atoms: C1_2  and  C2_3 
ROOT
ATOM      1  C2  UNL d   1      -0.093  -1.097  -0.768  0.00  0.00    -0.076 A 
ATOM      2  C3  UNL d   1       0.552  -1.692  -1.866  0.00  0.00     0.004 A 
ATOM      3  C4  UNL d   1       0.860  -3.051  -1.867  0.00  0.00    -0.003 A 
ATOM      4  C5  UNL d   1       0.528  -3.838  -0.770  0.00  0.00     0.000 A 
ATOM      5  C6  UNL d   1      -0.128  -3.268   0.321  0.00  0.00     0.000 A 
ATOM      6  C7  UNL d   1      -0.460  -1.903   0.331  0.00  0.00    -0.073 A 
ATOM      7  C8  UNL d   1      -1.162  -1.339   1.537  0.00  0.00     0.078 C 
ENDROOT
BRANCH   1   8
ATOM      8  C1  UNL d   1      -0.378   0.388  -0.812  0.00  0.00     0.053 C 
ATOM      9  C   UNL d   1       0.751   1.215  -0.216  0.00  0.00     0.018 C 
ENDBRANCH   1   8
TORSDOF 1
ENDMDL
