MODEL 1
REMARK minimizedAffinity -5.9525013
REMARK minimizedRMSD -1
REMARK  1 active torsions:
REMARK  status: ('A' for Active; 'I' for Inactive)
REMARK    1  A    between atoms: C1_2  and  C2_3 
ROOT
ATOM      1  C2  UNL d   1      -0.106  -1.153  -0.127  0.00  0.00    -0.076 A 
ATOM      2  C3  UNL d   1      -1.002  -1.673   0.823  0.00  0.00     0.004 A 
ATOM      3  C4  UNL d   1      -1.811  -0.830   1.583  0.00  0.00    -0.003 A 
ATOM      4  C5  UNL d   1      -1.738   0.547   1.405  0.00  0.00     0.000 A 
ATOM      5  C6  UNL d   1      -0.868   1.079   0.454  0.00  0.00     0.000 A 
ATOM      6  C7  UNL d   1      -0.057   0.242  -0.331  0.00  0.00    -0.073 A 
ATOM      7  C8  UNL d   1       0.868   0.871  -1.337  0.00  0.00     0.078 C 
ENDROOT
BRANCH   1   8
ATOM      8  C1  UNL d   1       0.766  -2.115  -0.902  0.00  0.00     0.053 C 
ATOM      9  C   UNL d   1       0.730  -3.524  -0.331  0.00  0.00     0.018 C 
ENDBRANCH   1   8
TORSDOF 1
ENDMDL
