MODEL 1
REMARK minimizedAffinity -5.13992119
REMARK minimizedRMSD -1
REMARK  1 active torsions:
REMARK  status: ('A' for Active; 'I' for Inactive)
REMARK    1  A    between atoms: C1_2  and  C2_3 
ROOT
ATOM      1  C2  UNL d   1      -0.091  -1.669  -0.594  0.00  0.00    -0.076 A 
ATOM      2  C3  UNL d   1      -0.178  -2.331   0.643  0.00  0.00     0.004 A 
ATOM      3  C4  UNL d   1      -0.045  -3.716   0.726  0.00  0.00    -0.003 A 
ATOM      4  C5  UNL d   1       0.178  -4.462  -0.426  0.00  0.00     0.000 A 
ATOM      5  C6  UNL d   1       0.286  -3.820  -1.659  0.00  0.00     0.000 A 
ATOM      6  C7  UNL d   1       0.170  -2.423  -1.759  0.00  0.00    -0.073 A 
ATOM      7  C8  UNL d   1       0.288  -1.783  -3.115  0.00  0.00     0.078 C 
ENDROOT
BRANCH   1   8
ATOM      8  C1  UNL d   1      -0.270  -0.168  -0.626  0.00  0.00     0.053 C 
ATOM      9  C   UNL d   1      -1.240   0.326   0.436  0.00  0.00     0.018 C 
ENDBRANCH   1   8
TORSDOF 1
ENDMDL
