MODEL 1
REMARK minimizedAffinity -4.42482615
REMARK minimizedRMSD -1
REMARK  1 active torsions:
REMARK  status: ('A' for Active; 'I' for Inactive)
REMARK    1  A    between atoms: C1_2  and  C2_3 
ROOT
ATOM      1  C2  UNL d   1       1.556   2.264  -0.354  0.00  0.00    -0.076 A 
ATOM      2  C3  UNL d   1       0.167   2.060  -0.285  0.00  0.00     0.004 A 
ATOM      3  C4  UNL d   1      -0.444   1.036  -1.007  0.00  0.00    -0.003 A 
ATOM      4  C5  UNL d   1       0.325   0.200  -1.809  0.00  0.00     0.000 A 
ATOM      5  C6  UNL d   1       1.706   0.377  -1.876  0.00  0.00     0.000 A 
ATOM      6  C7  UNL d   1       2.340   1.394  -1.142  0.00  0.00    -0.073 A 
ATOM      7  C8  UNL d   1       3.832   1.544  -1.256  0.00  0.00     0.078 C 
ENDROOT
BRANCH   1   8
ATOM      8  C1  UNL d   1       2.160   3.408   0.430  0.00  0.00     0.053 C 
ATOM      9  C   UNL d   1       1.504   3.592   1.790  0.00  0.00     0.018 C 
ENDBRANCH   1   8
TORSDOF 1
ENDMDL
