MODEL 1
REMARK minimizedAffinity -4.74439955
REMARK minimizedRMSD -1
REMARK  1 active torsions:
REMARK  status: ('A' for Active; 'I' for Inactive)
REMARK    1  A    between atoms: C1_2  and  C2_3 
ROOT
ATOM      1  C2  UNL d   1       0.163  -0.662  -0.811  0.00  0.00    -0.076 A 
ATOM      2  C3  UNL d   1       0.469  -1.538  -1.867  0.00  0.00     0.004 A 
ATOM      3  C4  UNL d   1       0.085  -2.877  -1.823  0.00  0.00    -0.003 A 
ATOM      4  C5  UNL d   1      -0.613  -3.362  -0.723  0.00  0.00     0.000 A 
ATOM      5  C6  UNL d   1      -0.941  -2.503   0.326  0.00  0.00     0.000 A 
ATOM      6  C7  UNL d   1      -0.575  -1.147   0.290  0.00  0.00    -0.073 A 
ATOM      7  C8  UNL d   1      -0.950  -0.267   1.451  0.00  0.00     0.078 C 
ENDROOT
BRANCH   1   8
ATOM      8  C1  UNL d   1       0.629   0.773  -0.902  0.00  0.00     0.053 C 
ATOM      9  C   UNL d   1       0.188   1.449  -2.191  0.00  0.00     0.018 C 
ENDBRANCH   1   8
TORSDOF 1
ENDMDL
