MODEL 1
REMARK minimizedAffinity 9.64208031
REMARK minimizedRMSD -1
REMARK  0 active torsions:
REMARK  status: ('A' for Active; 'I' for Inactive)
ROOT
ATOM      1  C   UNL d   1       1.318   4.394   2.053  0.00  0.00     0.124 A 
ATOM      2  C1  UNL d   1       0.629   4.564   0.860  0.00  0.00     0.062 A 
ATOM      3  C2  UNL d   1       0.074   3.466   0.210  0.00  0.00     0.162 A 
ATOM      4  C3  UNL d   1       0.205   2.187   0.752  0.00  0.00    -0.034 A 
ATOM      5  C4  UNL d   1       0.899   2.024   1.951  0.00  0.00     0.162 A 
ATOM      6  C5  UNL d   1       1.452   3.125   2.598  0.00  0.00     0.062 A 
ATOM      7  F   UNL d   1       2.117   2.959   3.750  0.00  0.00    -0.097 F 
ATOM      8  F1  UNL d   1       1.043   0.809   2.500  0.00  0.00    -0.096 F 
ATOM      9  I   UNL d   1      -0.623   0.542  -0.218  0.00  0.00    -0.060 I 
ATOM     10  F2  UNL d   1      -0.586   3.659  -0.942  0.00  0.00    -0.096 F 
ATOM     11  F3  UNL d   1       0.499   5.789   0.332  0.00  0.00    -0.097 F 
ATOM     12  F4  UNL d   1       1.851   5.453   2.677  0.00  0.00    -0.092 F 
ENDROOT
TORSDOF 0
ENDMDL
