MODEL 1
REMARK minimizedAffinity 3.37886405
REMARK minimizedRMSD -1
REMARK  0 active torsions:
REMARK  status: ('A' for Active; 'I' for Inactive)
ROOT
ATOM      1  C   UNL d   1       0.602  -0.552  -1.131  0.00  0.00     0.124 A 
ATOM      2  C1  UNL d   1       0.691  -0.755   0.239  0.00  0.00     0.062 A 
ATOM      3  C2  UNL d   1       0.345   0.263   1.122  0.00  0.00     0.162 A 
ATOM      4  C3  UNL d   1      -0.095   1.495   0.637  0.00  0.00    -0.034 A 
ATOM      5  C4  UNL d   1      -0.181   1.693  -0.742  0.00  0.00     0.162 A 
ATOM      6  C5  UNL d   1       0.166   0.672  -1.620  0.00  0.00     0.062 A 
ATOM      7  F   UNL d   1       0.080   0.870  -2.944  0.00  0.00    -0.097 F 
ATOM      8  F1  UNL d   1      -0.600   2.865  -1.242  0.00  0.00    -0.096 F 
ATOM      9  I   UNL d   1      -0.614   3.021   1.954  0.00  0.00    -0.060 I 
ATOM     10  F2  UNL d   1       0.440   0.039   2.441  0.00  0.00    -0.096 F 
ATOM     11  F3  UNL d   1       1.113  -1.936   0.714  0.00  0.00    -0.097 F 
ATOM     12  F4  UNL d   1       0.937  -1.533  -1.979  0.00  0.00    -0.092 F 
ENDROOT
TORSDOF 0
ENDMDL
