MODEL 1
REMARK minimizedAffinity 0.898008585
REMARK minimizedRMSD -1
REMARK  0 active torsions:
REMARK  status: ('A' for Active; 'I' for Inactive)
ROOT
ATOM      1  C   UNL d   1      -0.826  -0.503   0.555  0.00  0.00     0.124 A 
ATOM      2  C1  UNL d   1      -1.514   0.521   1.193  0.00  0.00     0.062 A 
ATOM      3  C2  UNL d   1      -0.818   1.584   1.760  0.00  0.00     0.162 A 
ATOM      4  C3  UNL d   1       0.574   1.630   1.693  0.00  0.00    -0.034 A 
ATOM      5  C4  UNL d   1       1.259   0.596   1.051  0.00  0.00     0.162 A 
ATOM      6  C5  UNL d   1       0.559  -0.464   0.485  0.00  0.00     0.062 A 
ATOM      7  F   UNL d   1       1.225  -1.452  -0.130  0.00  0.00    -0.097 F 
ATOM      8  F1  UNL d   1       2.598   0.609   0.967  0.00  0.00    -0.096 F 
ATOM      9  I   UNL d   1       1.619   3.218   2.540  0.00  0.00    -0.060 I 
ATOM     10  F2  UNL d   1      -1.509   2.559   2.370  0.00  0.00    -0.096 F 
ATOM     11  F3  UNL d   1      -2.853   0.485   1.263  0.00  0.00    -0.097 F 
ATOM     12  F4  UNL d   1      -1.499  -1.525   0.011  0.00  0.00    -0.092 F 
ENDROOT
TORSDOF 0
ENDMDL
