MODEL 1
REMARK minimizedAffinity -1.39546895
REMARK minimizedRMSD -1
REMARK  0 active torsions:
REMARK  status: ('A' for Active; 'I' for Inactive)
ROOT
ATOM      1  C   UNL d   1      -1.323   2.221   0.307  0.00  0.00     0.124 A 
ATOM      2  C1  UNL d   1      -1.033   1.896  -1.011  0.00  0.00     0.062 A 
ATOM      3  C2  UNL d   1      -0.433   0.677  -1.315  0.00  0.00     0.162 A 
ATOM      4  C3  UNL d   1      -0.121  -0.227  -0.299  0.00  0.00    -0.034 A 
ATOM      5  C4  UNL d   1      -0.415   0.108   1.024  0.00  0.00     0.162 A 
ATOM      6  C5  UNL d   1      -1.013   1.327   1.323  0.00  0.00     0.062 A 
ATOM      7  F   UNL d   1      -1.293   1.640   2.597  0.00  0.00    -0.097 F 
ATOM      8  F1  UNL d   1      -0.127  -0.737   2.025  0.00  0.00    -0.096 F 
ATOM      9  I   UNL d   1       0.776  -2.050  -0.750  0.00  0.00    -0.060 I 
ATOM     10  F2  UNL d   1      -0.164   0.388  -2.597  0.00  0.00    -0.096 F 
ATOM     11  F3  UNL d   1      -1.329   2.758  -1.994  0.00  0.00    -0.097 F 
ATOM     12  F4  UNL d   1      -1.898   3.395   0.597  0.00  0.00    -0.092 F 
ENDROOT
TORSDOF 0
ENDMDL
