MODEL 1
REMARK minimizedAffinity -0.206527635
REMARK minimizedRMSD -1
REMARK  0 active torsions:
REMARK  status: ('A' for Active; 'I' for Inactive)
ROOT
ATOM      1  C   UNL d   1       0.048   0.951   0.172  0.00  0.00     0.124 A 
ATOM      2  C1  UNL d   1      -0.155  -0.052   1.110  0.00  0.00     0.062 A 
ATOM      3  C2  UNL d   1      -0.332  -1.370   0.698  0.00  0.00     0.162 A 
ATOM      4  C3  UNL d   1      -0.305  -1.693  -0.659  0.00  0.00    -0.034 A 
ATOM      5  C4  UNL d   1      -0.101  -0.678  -1.596  0.00  0.00     0.162 A 
ATOM      6  C5  UNL d   1       0.075   0.637  -1.179  0.00  0.00     0.062 A 
ATOM      7  F   UNL d   1       0.272   1.605  -2.086  0.00  0.00    -0.097 F 
ATOM      8  F1  UNL d   1      -0.069  -0.953  -2.908  0.00  0.00    -0.096 F 
ATOM      9  I   UNL d   1      -0.569  -3.662  -1.279  0.00  0.00    -0.060 I 
ATOM     10  F2  UNL d   1      -0.527  -2.319   1.625  0.00  0.00    -0.096 F 
ATOM     11  F3  UNL d   1      -0.183   0.249   2.416  0.00  0.00    -0.097 F 
ATOM     12  F4  UNL d   1       0.217   2.218   0.571  0.00  0.00    -0.092 F 
ENDROOT
TORSDOF 0
ENDMDL
