MODEL 1
REMARK minimizedAffinity 1.59949148
REMARK minimizedRMSD -1
REMARK  0 active torsions:
REMARK  status: ('A' for Active; 'I' for Inactive)
ROOT
ATOM      1  C   UNL d   1      -0.148   2.093   0.788  0.00  0.00     0.124 A 
ATOM      2  C1  UNL d   1      -0.254   1.740  -0.550  0.00  0.00     0.062 A 
ATOM      3  C2  UNL d   1       0.020   0.436  -0.954  0.00  0.00     0.162 A 
ATOM      4  C3  UNL d   1       0.403  -0.525  -0.019  0.00  0.00    -0.034 A 
ATOM      5  C4  UNL d   1       0.508  -0.162   1.325  0.00  0.00     0.162 A 
ATOM      6  C5  UNL d   1       0.233   1.142   1.724  0.00  0.00     0.062 A 
ATOM      7  F   UNL d   1       0.335   1.481   3.018  0.00  0.00    -0.097 F 
ATOM      8  F1  UNL d   1       0.873  -1.061   2.251  0.00  0.00    -0.096 F 
ATOM      9  I   UNL d   1       0.814  -2.475  -0.619  0.00  0.00    -0.060 I 
ATOM     10  F2  UNL d   1      -0.090   0.124  -2.254  0.00  0.00    -0.096 F 
ATOM     11  F3  UNL d   1      -0.621   2.657  -1.457  0.00  0.00    -0.097 F 
ATOM     12  F4  UNL d   1      -0.412   3.347   1.174  0.00  0.00    -0.092 F 
ENDROOT
TORSDOF 0
ENDMDL
