MODEL 1
REMARK minimizedAffinity 0.532475352
REMARK minimizedRMSD -1
REMARK  0 active torsions:
REMARK  status: ('A' for Active; 'I' for Inactive)
ROOT
ATOM      1  C   UNL d   1      -0.940   1.994   1.137  0.00  0.00     0.124 A 
ATOM      2  C1  UNL d   1      -1.028   1.566  -0.180  0.00  0.00     0.062 A 
ATOM      3  C2  UNL d   1      -0.475   0.347  -0.559  0.00  0.00     0.162 A 
ATOM      4  C3  UNL d   1       0.172  -0.455   0.381  0.00  0.00    -0.034 A 
ATOM      5  C4  UNL d   1       0.257  -0.018   1.705  0.00  0.00     0.162 A 
ATOM      6  C5  UNL d   1      -0.298   1.201   2.078  0.00  0.00     0.062 A 
ATOM      7  F   UNL d   1      -0.211   1.613   3.352  0.00  0.00    -0.097 F 
ATOM      8  F1  UNL d   1       0.872  -0.765   2.635  0.00  0.00    -0.096 F 
ATOM      9  I   UNL d   1       1.001  -2.280  -0.181  0.00  0.00    -0.060 I 
ATOM     10  F2  UNL d   1      -0.575  -0.041  -1.839  0.00  0.00    -0.096 F 
ATOM     11  F3  UNL d   1      -1.648   2.330  -1.091  0.00  0.00    -0.097 F 
ATOM     12  F4  UNL d   1      -1.473   3.168   1.499  0.00  0.00    -0.092 F 
ENDROOT
TORSDOF 0
ENDMDL
