MODEL 1
REMARK minimizedAffinity 0.460197449
REMARK minimizedRMSD -1
REMARK  0 active torsions:
REMARK  status: ('A' for Active; 'I' for Inactive)
ROOT
ATOM      1  C   UNL d   1       0.154   1.346   1.535  0.00  0.00     0.124 A 
ATOM      2  C1  UNL d   1       1.064   0.325   1.299  0.00  0.00     0.062 A 
ATOM      3  C2  UNL d   1       0.745  -0.707   0.421  0.00  0.00     0.162 A 
ATOM      4  C3  UNL d   1      -0.490  -0.723  -0.228  0.00  0.00    -0.034 A 
ATOM      5  C4  UNL d   1      -1.400   0.308   0.015  0.00  0.00     0.162 A 
ATOM      6  C5  UNL d   1      -1.076   1.337   0.893  0.00  0.00     0.062 A 
ATOM      7  F   UNL d   1      -1.956   2.323   1.120  0.00  0.00    -0.097 F 
ATOM      8  F1  UNL d   1      -2.595   0.324  -0.593  0.00  0.00    -0.096 F 
ATOM      9  I   UNL d   1      -0.970  -2.264  -1.541  0.00  0.00    -0.060 I 
ATOM     10  F2  UNL d   1       1.643  -1.681   0.212  0.00  0.00    -0.096 F 
ATOM     11  F3  UNL d   1       2.253   0.331   1.919  0.00  0.00    -0.097 F 
ATOM     12  F4  UNL d   1       0.463   2.338   2.381  0.00  0.00    -0.092 F 
ENDROOT
TORSDOF 0
ENDMDL
