MODEL 1
REMARK minimizedAffinity -3.79259014
REMARK minimizedRMSD -1
REMARK  2 active torsions:
REMARK  status: ('A' for Active; 'I' for Inactive)
REMARK    1  A    between atoms: C2'_3  and  C1'_4 
REMARK    2  A    between atoms: C1'_4  and  C1_5 
ROOT
ATOM      1  C1  I4B d   1       0.264  -1.092   0.021  0.00  0.00    -0.075 A 
ATOM      2  C2  I4B d   1      -0.523  -1.530   1.056  0.00  0.00     0.003 A 
ATOM      3  C3  I4B d   1       0.063  -2.161   2.180  0.00  0.00     0.002 A 
ATOM      4  C4  I4B d   1       1.426  -2.376   2.204  0.00  0.00    -0.004 A 
ATOM      5  C5  I4B d   1       2.225  -1.911   1.164  0.00  0.00     0.002 A 
ATOM      6  C6  I4B d   1       1.642  -1.253   0.071  0.00  0.00     0.003 A 
ENDROOT
BRANCH   1   7
ATOM      7  C1' I4B d   1      -0.392  -0.460  -1.166  0.00  0.00     0.060 C 
BRANCH   7   8
ATOM      8  C2' I4B d   1      -1.191   0.732  -0.678  0.00  0.00    -0.013 C 
ATOM      9  C4' I4B d   1      -0.286   1.860  -0.259  0.00  0.00     0.013 C 
ATOM     10  C3' I4B d   1      -2.109   1.157  -1.785  0.00  0.00     0.013 C 
ENDBRANCH   7   8
ENDBRANCH   1   7
TORSDOF 2
ENDMDL
