MODEL 1
REMARK minimizedAffinity -6.18930578
REMARK minimizedRMSD -1
REMARK  2 active torsions:
REMARK  status: ('A' for Active; 'I' for Inactive)
REMARK    1  A    between atoms: C2'_3  and  C1'_4 
REMARK    2  A    between atoms: C1'_4  and  C1_5 
ROOT
ATOM      1  C1  I4B d   1      -0.144   0.132   0.121  0.00  0.00    -0.075 A 
ATOM      2  C2  I4B d   1       1.141   0.603   0.024  0.00  0.00     0.003 A 
ATOM      3  C3  I4B d   1       2.237  -0.287   0.137  0.00  0.00     0.002 A 
ATOM      4  C4  I4B d   1       2.004  -1.622   0.396  0.00  0.00    -0.004 A 
ATOM      5  C5  I4B d   1       0.699  -2.101   0.472  0.00  0.00     0.002 A 
ATOM      6  C6  I4B d   1      -0.382  -1.221   0.321  0.00  0.00     0.003 A 
ENDROOT
BRANCH   1   7
ATOM      7  C1' I4B d   1      -1.277   1.105   0.030  0.00  0.00     0.060 C 
BRANCH   7   8
ATOM      8  C2' I4B d   1      -1.707   1.186  -1.421  0.00  0.00    -0.013 C 
ATOM      9  C4' I4B d   1      -3.191   0.972  -1.562  0.00  0.00     0.013 C 
ATOM     10  C3' I4B d   1      -1.301   2.529  -1.950  0.00  0.00     0.013 C 
ENDBRANCH   7   8
ENDBRANCH   1   7
TORSDOF 2
ENDMDL
