MODEL 1
REMARK minimizedAffinity -1.10130525
REMARK minimizedRMSD -1
REMARK  2 active torsions:
REMARK  status: ('A' for Active; 'I' for Inactive)
REMARK    1  A    between atoms: C2'_3  and  C1'_4 
REMARK    2  A    between atoms: C1'_4  and  C1_5 
ROOT
ATOM      1  C1  I4B d   1       0.724  -1.845   0.831  0.00  0.00    -0.075 A 
ATOM      2  C2  I4B d   1      -0.489  -1.799   1.472  0.00  0.00     0.003 A 
ATOM      3  C3  I4B d   1      -1.433  -0.798   1.140  0.00  0.00     0.002 A 
ATOM      4  C4  I4B d   1      -1.106   0.161   0.204  0.00  0.00    -0.004 A 
ATOM      5  C5  I4B d   1       0.115   0.100  -0.461  0.00  0.00     0.002 A 
ATOM      6  C6  I4B d   1       1.031  -0.916  -0.155  0.00  0.00     0.003 A 
ENDROOT
BRANCH   1   7
ATOM      7  C1' I4B d   1       1.711  -2.896   1.229  0.00  0.00     0.060 C 
BRANCH   7   8
ATOM      8  C2' I4B d   1       2.993  -2.200   1.640  0.00  0.00    -0.013 C 
ATOM      9  C4' I4B d   1       3.305  -1.045   0.725  0.00  0.00     0.013 C 
ATOM     10  C3' I4B d   1       2.836  -1.740   3.059  0.00  0.00     0.013 C 
ENDBRANCH   7   8
ENDBRANCH   1   7
TORSDOF 2
ENDMDL
