MODEL 1
REMARK minimizedAffinity -3.43119264
REMARK minimizedRMSD -1
REMARK  2 active torsions:
REMARK  status: ('A' for Active; 'I' for Inactive)
REMARK    1  A    between atoms: C2'_3  and  C1'_4 
REMARK    2  A    between atoms: C1'_4  and  C1_5 
ROOT
ATOM      1  C1  I4B d   1      -0.319  -0.102   0.055  0.00  0.00    -0.075 A 
ATOM      2  C2  I4B d   1      -0.888  -1.284   0.458  0.00  0.00     0.003 A 
ATOM      3  C3  I4B d   1      -0.078  -2.422   0.691  0.00  0.00     0.002 A 
ATOM      4  C4  I4B d   1       1.281  -2.347   0.463  0.00  0.00    -0.004 A 
ATOM      5  C5  I4B d   1       1.859  -1.142   0.077  0.00  0.00     0.002 A 
ATOM      6  C6  I4B d   1       1.056  -0.008  -0.116  0.00  0.00     0.003 A 
ENDROOT
BRANCH   1   7
ATOM      7  C1' I4B d   1      -1.207   1.071  -0.214  0.00  0.00     0.060 C 
BRANCH   7   8
ATOM      8  C2' I4B d   1      -1.221   1.312  -1.710  0.00  0.00    -0.013 C 
ATOM      9  C4' I4B d   1      -2.568   0.988  -2.302  0.00  0.00     0.013 C 
ATOM     10  C3' I4B d   1      -0.854   2.746  -1.951  0.00  0.00     0.013 C 
ENDBRANCH   7   8
ENDBRANCH   1   7
TORSDOF 2
ENDMDL
