MODEL 1
REMARK minimizedAffinity -4.90869141
REMARK minimizedRMSD -1
REMARK  2 active torsions:
REMARK  status: ('A' for Active; 'I' for Inactive)
REMARK    1  A    between atoms: C2'_3  and  C1'_4 
REMARK    2  A    between atoms: C1'_4  and  C1_5 
ROOT
ATOM      1  C1  I4B d   1      -0.123   0.583  -0.168  0.00  0.00    -0.075 A 
ATOM      2  C2  I4B d   1       1.149   0.868  -0.598  0.00  0.00     0.003 A 
ATOM      3  C3  I4B d   1       2.207  -0.039  -0.344  0.00  0.00     0.002 A 
ATOM      4  C4  I4B d   1       1.959  -1.186   0.381  0.00  0.00    -0.004 A 
ATOM      5  C5  I4B d   1       0.665  -1.484   0.796  0.00  0.00     0.002 A 
ATOM      6  C6  I4B d   1      -0.386  -0.600   0.510  0.00  0.00     0.003 A 
ENDROOT
BRANCH   1   7
ATOM      7  C1' I4B d   1      -1.209   1.579  -0.423  0.00  0.00     0.060 C 
BRANCH   7   8
ATOM      8  C2' I4B d   1      -1.289   1.810  -1.919  0.00  0.00    -0.013 C 
ATOM      9  C4' I4B d   1      -2.497   1.133  -2.512  0.00  0.00     0.013 C 
ATOM     10  C3' I4B d   1      -1.325   3.290  -2.158  0.00  0.00     0.013 C 
ENDBRANCH   7   8
ENDBRANCH   1   7
TORSDOF 2
ENDMDL
