MODEL 1
REMARK minimizedAffinity -3.35613036
REMARK minimizedRMSD -1
REMARK  2 active torsions:
REMARK  status: ('A' for Active; 'I' for Inactive)
REMARK    1  A    between atoms: C2'_3  and  C1'_4 
REMARK    2  A    between atoms: C1'_4  and  C1_5 
ROOT
ATOM      1  C1  I4B d   1      -1.038   0.457   0.133  0.00  0.00    -0.075 A 
ATOM      2  C2  I4B d   1      -1.656  -0.154   1.196  0.00  0.00     0.003 A 
ATOM      3  C3  I4B d   1      -1.172  -1.391   1.687  0.00  0.00     0.002 A 
ATOM      4  C4  I4B d   1      -0.106  -2.001   1.059  0.00  0.00    -0.004 A 
ATOM      5  C5  I4B d   1       0.533  -1.369  -0.004  0.00  0.00     0.002 A 
ATOM      6  C6  I4B d   1       0.073  -0.127  -0.462  0.00  0.00     0.003 A 
ENDROOT
BRANCH   1   7
ATOM      7  C1' I4B d   1      -1.596   1.746  -0.381  0.00  0.00     0.060 C 
BRANCH   7   8
ATOM      8  C2' I4B d   1      -1.673   1.652  -1.891  0.00  0.00    -0.013 C 
ATOM      9  C4' I4B d   1      -3.098   1.506  -2.357  0.00  0.00     0.013 C 
ATOM     10  C3' I4B d   1      -1.039   2.884  -2.465  0.00  0.00     0.013 C 
ENDBRANCH   7   8
ENDBRANCH   1   7
TORSDOF 2
ENDMDL
