MODEL 1
REMARK minimizedAffinity -4.7291851
REMARK minimizedRMSD -1
REMARK  2 active torsions:
REMARK  status: ('A' for Active; 'I' for Inactive)
REMARK    1  A    between atoms: C2'_3  and  C1'_4 
REMARK    2  A    between atoms: C1'_4  and  C1_5 
ROOT
ATOM      1  C1  I4B d   1       0.425  -0.602  -0.382  0.00  0.00    -0.075 A 
ATOM      2  C2  I4B d   1       1.567  -0.252   0.294  0.00  0.00     0.003 A 
ATOM      3  C3  I4B d   1       2.132  -1.137   1.244  0.00  0.00     0.002 A 
ATOM      4  C4  I4B d   1       1.499  -2.331   1.521  0.00  0.00    -0.004 A 
ATOM      5  C5  I4B d   1       0.354  -2.694   0.818  0.00  0.00     0.002 A 
ATOM      6  C6  I4B d   1      -0.180  -1.830  -0.149  0.00  0.00     0.003 A 
ENDROOT
BRANCH   1   7
ATOM      7  C1' I4B d   1      -0.163   0.370  -1.355  0.00  0.00     0.060 C 
BRANCH   7   8
ATOM      8  C2' I4B d   1      -1.516   0.801  -0.824  0.00  0.00    -0.013 C 
ATOM      9  C4' I4B d   1      -1.377   1.574   0.460  0.00  0.00     0.013 C 
ATOM     10  C3' I4B d   1      -2.188   1.624  -1.882  0.00  0.00     0.013 C 
ENDBRANCH   7   8
ENDBRANCH   1   7
TORSDOF 2
ENDMDL
