MODEL 1
REMARK minimizedAffinity -3.20671654
REMARK minimizedRMSD -1
REMARK  2 active torsions:
REMARK  status: ('A' for Active; 'I' for Inactive)
REMARK    1  A    between atoms: C2'_3  and  C1'_4 
REMARK    2  A    between atoms: C1'_4  and  C1_5 
ROOT
ATOM      1  C1  I4B d   1       0.047  -0.208   0.008  0.00  0.00    -0.075 A 
ATOM      2  C2  I4B d   1       1.310   0.325   0.065  0.00  0.00     0.003 A 
ATOM      3  C3  I4B d   1       2.421  -0.504   0.354  0.00  0.00     0.002 A 
ATOM      4  C4  I4B d   1       2.219  -1.841   0.627  0.00  0.00    -0.004 A 
ATOM      5  C5  I4B d   1       0.940  -2.385   0.546  0.00  0.00     0.002 A 
ATOM      6  C6  I4B d   1      -0.151  -1.566   0.222  0.00  0.00     0.003 A 
ENDROOT
BRANCH   1   7
ATOM      7  C1' I4B d   1      -1.108   0.702  -0.267  0.00  0.00     0.060 C 
BRANCH   7   8
ATOM      8  C2' I4B d   1      -1.248   0.837  -1.770  0.00  0.00    -0.013 C 
ATOM      9  C4' I4B d   1      -2.601   0.366  -2.236  0.00  0.00     0.013 C 
ATOM     10  C3' I4B d   1      -1.023   2.276  -2.128  0.00  0.00     0.013 C 
ENDBRANCH   7   8
ENDBRANCH   1   7
TORSDOF 2
ENDMDL
