MODEL 1
REMARK minimizedAffinity -2.86613774
REMARK minimizedRMSD -1
REMARK  2 active torsions:
REMARK  status: ('A' for Active; 'I' for Inactive)
REMARK    1  A    between atoms: C2'_3  and  C1'_4 
REMARK    2  A    between atoms: C1'_4  and  C1_5 
ROOT
ATOM      1  C1  I4B d   1      -0.410   0.344  -0.324  0.00  0.00    -0.075 A 
ATOM      2  C2  I4B d   1       0.904   0.588  -0.634  0.00  0.00     0.003 A 
ATOM      3  C3  I4B d   1       1.906  -0.349  -0.282  0.00  0.00     0.002 A 
ATOM      4  C4  I4B d   1       1.557  -1.485   0.419  0.00  0.00    -0.004 A 
ATOM      5  C5  I4B d   1       0.221  -1.742   0.713  0.00  0.00     0.002 A 
ATOM      6  C6  I4B d   1      -0.770  -0.828   0.329  0.00  0.00     0.003 A 
ENDROOT
BRANCH   1   7
ATOM      7  C1' I4B d   1      -1.438   1.371  -0.681  0.00  0.00     0.060 C 
BRANCH   7   8
ATOM      8  C2' I4B d   1      -1.630   1.336  -2.183  0.00  0.00    -0.013 C 
ATOM      9  C4' I4B d   1      -2.972   0.760  -2.548  0.00  0.00     0.013 C 
ATOM     10  C3' I4B d   1      -1.482   2.736  -2.701  0.00  0.00     0.013 C 
ENDBRANCH   7   8
ENDBRANCH   1   7
TORSDOF 2
ENDMDL
