MODEL 1
REMARK minimizedAffinity -3.21004152
REMARK minimizedRMSD -1
REMARK  2 active torsions:
REMARK  status: ('A' for Active; 'I' for Inactive)
REMARK    1  A    between atoms: C2'_3  and  C1'_4 
REMARK    2  A    between atoms: C1'_4  and  C1_5 
ROOT
ATOM      1  C1  I4B d   1      -0.151   0.131  -0.056  0.00  0.00    -0.075 A 
ATOM      2  C2  I4B d   1      -0.655  -1.023   0.490  0.00  0.00     0.003 A 
ATOM      3  C3  I4B d   1       0.215  -2.082   0.846  0.00  0.00     0.002 A 
ATOM      4  C4  I4B d   1       1.566  -1.966   0.594  0.00  0.00    -0.004 A 
ATOM      5  C5  I4B d   1       2.078  -0.786   0.062  0.00  0.00     0.002 A 
ATOM      6  C6  I4B d   1       1.216   0.274  -0.254  0.00  0.00     0.003 A 
ENDROOT
BRANCH   1   7
ATOM      7  C1' I4B d   1      -1.102   1.216  -0.451  0.00  0.00     0.060 C 
BRANCH   7   8
ATOM      8  C2' I4B d   1      -1.683   0.858  -1.803  0.00  0.00    -0.013 C 
ATOM      9  C4' I4B d   1      -3.139   0.488  -1.690  0.00  0.00     0.013 C 
ATOM     10  C3' I4B d   1      -1.493   2.033  -2.715  0.00  0.00     0.013 C 
ENDBRANCH   7   8
ENDBRANCH   1   7
TORSDOF 2
ENDMDL
