MODEL 1
REMARK minimizedAffinity -5.82803154
REMARK minimizedRMSD -1
REMARK  2 active torsions:
REMARK  status: ('A' for Active; 'I' for Inactive)
REMARK    1  A    between atoms: C2'_3  and  C1'_4 
REMARK    2  A    between atoms: C1'_4  and  C1_5 
ROOT
ATOM      1  C1  I4B d   1      -0.352   0.117   0.122  0.00  0.00    -0.075 A 
ATOM      2  C2  I4B d   1      -0.754  -1.018   0.779  0.00  0.00     0.003 A 
ATOM      3  C3  I4B d   1       0.178  -2.046   1.063  0.00  0.00     0.002 A 
ATOM      4  C4  I4B d   1       1.481  -1.920   0.629  0.00  0.00    -0.004 A 
ATOM      5  C5  I4B d   1       1.893  -0.758  -0.017  0.00  0.00     0.002 A 
ATOM      6  C6  I4B d   1       0.974   0.273  -0.262  0.00  0.00     0.003 A 
ENDROOT
BRANCH   1   7
ATOM      7  C1' I4B d   1      -1.370   1.168  -0.190  0.00  0.00     0.060 C 
BRANCH   7   8
ATOM      8  C2' I4B d   1      -1.757   1.024  -1.648  0.00  0.00    -0.013 C 
ATOM      9  C4' I4B d   1      -3.228   0.734  -1.795  0.00  0.00     0.013 C 
ATOM     10  C3' I4B d   1      -1.382   2.293  -2.354  0.00  0.00     0.013 C 
ENDBRANCH   7   8
ENDBRANCH   1   7
TORSDOF 2
ENDMDL
