MODEL 1
REMARK minimizedAffinity -0.456780314
REMARK minimizedRMSD -1
REMARK  0 active torsions:
REMARK  status: ('A' for Active; 'I' for Inactive)
ROOT
ATOM      1  C1  DEN d   1      -0.943   4.602   5.980  0.00  0.00     0.130 A 
ATOM      2  C2  DEN d   1      -1.387   5.992   5.930  0.00  0.00    -0.031 A 
ATOM      3  C3  DEN d   1      -2.863   6.000   5.913  0.00  0.00     0.027 A 
ATOM      4  C4  DEN d   1      -4.497   4.005   5.964  0.00  0.00     0.027 A 
ATOM      5  C5  DEN d   1      -4.590   2.631   5.996  0.00  0.00    -0.003 A 
ATOM      6  C6  DEN d   1      -3.484   1.823   5.991  0.00  0.00     0.001 A 
ATOM      7  C7  DEN d   1      -2.234   2.385   5.998  0.00  0.00     0.017 A 
ATOM      8  C8  DEN d   1      -2.132   3.769   5.958  0.00  0.00    -0.094 A 
ATOM      9  C9  DEN d   1      -3.262   4.568   5.976  0.00  0.00    -0.072 A 
ENDROOT
TORSDOF 0
ENDMDL
