MODEL 1
REMARK minimizedAffinity 5.73450947
REMARK minimizedRMSD -1
REMARK  0 active torsions:
REMARK  status: ('A' for Active; 'I' for Inactive)
ROOT
ATOM      1  C1  DEN d   1       0.411   4.301  -4.518  0.00  0.00     0.130 A 
ATOM      2  C2  DEN d   1       0.834   5.210  -5.579  0.00  0.00    -0.031 A 
ATOM      3  C3  DEN d   1      -0.342   5.999  -6.000  0.00  0.00     0.027 A 
ATOM      4  C4  DEN d   1      -2.762   5.904  -5.112  0.00  0.00     0.027 A 
ATOM      5  C5  DEN d   1      -3.607   5.281  -4.221  0.00  0.00    -0.003 A 
ATOM      6  C6  DEN d   1      -3.183   4.273  -3.396  0.00  0.00     0.001 A 
ATOM      7  C7  DEN d   1      -1.869   3.888  -3.415  0.00  0.00     0.017 A 
ATOM      8  C8  DEN d   1      -1.013   4.506  -4.316  0.00  0.00    -0.094 A 
ATOM      9  C9  DEN d   1      -1.457   5.532  -5.132  0.00  0.00    -0.072 A 
ENDROOT
TORSDOF 0
ENDMDL
