MODEL 1
REMARK minimizedAffinity 8.19538784
REMARK minimizedRMSD -1
REMARK  0 active torsions:
REMARK  status: ('A' for Active; 'I' for Inactive)
ROOT
ATOM      1  C1  DEN d   1       2.544  -1.897   1.149  0.00  0.00     0.130 A 
ATOM      2  C2  DEN d   1       1.258  -1.380   1.610  0.00  0.00    -0.031 A 
ATOM      3  C3  DEN d   1       1.372  -1.096   3.054  0.00  0.00     0.027 A 
ATOM      4  C4  DEN d   1       3.405  -1.399   4.613  0.00  0.00     0.027 A 
ATOM      5  C5  DEN d   1       4.715  -1.818   4.680  0.00  0.00    -0.003 A 
ATOM      6  C6  DEN d   1       5.378  -2.320   3.591  0.00  0.00     0.001 A 
ATOM      7  C7  DEN d   1       4.746  -2.374   2.377  0.00  0.00     0.017 A 
ATOM      8  C8  DEN d   1       3.422  -1.961   2.303  0.00  0.00    -0.094 A 
ATOM      9  C9  DEN d   1       2.773  -1.445   3.412  0.00  0.00    -0.072 A 
ENDROOT
TORSDOF 0
ENDMDL
