MODEL 1
REMARK minimizedAffinity 8.28280163
REMARK minimizedRMSD -1
REMARK  0 active torsions:
REMARK  status: ('A' for Active; 'I' for Inactive)
ROOT
ATOM      1  C1  DEN d   1      -1.406   1.578  -3.947  0.00  0.00     0.130 A 
ATOM      2  C2  DEN d   1      -2.023   2.897  -4.052  0.00  0.00    -0.031 A 
ATOM      3  C3  DEN d   1      -3.144   2.955  -3.092  0.00  0.00     0.027 A 
ATOM      4  C4  DEN d   1      -3.975   1.142  -1.457  0.00  0.00     0.027 A 
ATOM      5  C5  DEN d   1      -3.775  -0.147  -1.014  0.00  0.00    -0.003 A 
ATOM      6  C6  DEN d   1      -2.801  -0.956  -1.537  0.00  0.00     0.001 A 
ATOM      7  C7  DEN d   1      -1.960  -0.469  -2.503  0.00  0.00     0.017 A 
ATOM      8  C8  DEN d   1      -2.161   0.827  -2.960  0.00  0.00    -0.094 A 
ATOM      9  C9  DEN d   1      -3.143   1.633  -2.410  0.00  0.00    -0.072 A 
ENDROOT
TORSDOF 0
ENDMDL
