MODEL 1
REMARK minimizedAffinity 14.0916758
REMARK minimizedRMSD -1
REMARK  0 active torsions:
REMARK  status: ('A' for Active; 'I' for Inactive)
ROOT
ATOM      1  C1  DEN d   1      -3.349   3.263  -4.611  0.00  0.00     0.130 A 
ATOM      2  C2  DEN d   1      -4.389   3.107  -3.598  0.00  0.00    -0.031 A 
ATOM      3  C3  DEN d   1      -3.800   2.397  -2.445  0.00  0.00     0.027 A 
ATOM      4  C4  DEN d   1      -1.390   1.534  -2.131  0.00  0.00     0.027 A 
ATOM      5  C5  DEN d   1      -0.151   1.422  -2.723  0.00  0.00    -0.003 A 
ATOM      6  C6  DEN d   1       0.098   1.883  -3.988  0.00  0.00     0.001 A 
ATOM      7  C7  DEN d   1      -0.896   2.517  -4.687  0.00  0.00     0.017 A 
ATOM      8  C8  DEN d   1      -2.149   2.626  -4.100  0.00  0.00    -0.094 A 
ATOM      9  C9  DEN d   1      -2.377   2.165  -2.814  0.00  0.00    -0.072 A 
ENDROOT
TORSDOF 0
ENDMDL
