MODEL 1
REMARK minimizedAffinity 18.4948406
REMARK minimizedRMSD -1
REMARK  0 active torsions:
REMARK  status: ('A' for Active; 'I' for Inactive)
ROOT
ATOM      1  C1  DEN d   1      -5.520   4.760   6.000  0.00  0.00     0.130 A 
ATOM      2  C2  DEN d   1      -4.751   6.000   5.946  0.00  0.00    -0.031 A 
ATOM      3  C3  DEN d   1      -3.380   5.668   5.507  0.00  0.00     0.027 A 
ATOM      4  C4  DEN d   1      -2.382   3.367   4.906  0.00  0.00     0.027 A 
ATOM      5  C5  DEN d   1      -2.646   2.018   4.812  0.00  0.00    -0.003 A 
ATOM      6  C6  DEN d   1      -3.867   1.489   5.137  0.00  0.00     0.001 A 
ATOM      7  C7  DEN d   1      -4.884   2.319   5.529  0.00  0.00     0.017 A 
ATOM      8  C8  DEN d   1      -4.623   3.679   5.633  0.00  0.00    -0.094 A 
ATOM      9  C9  DEN d   1      -3.386   4.196   5.288  0.00  0.00    -0.072 A 
ENDROOT
TORSDOF 0
ENDMDL
