MODEL 1
REMARK minimizedAffinity 14.2027349
REMARK minimizedRMSD -1
REMARK  0 active torsions:
REMARK  status: ('A' for Active; 'I' for Inactive)
ROOT
ATOM      1  C1  DEN d   1      -1.546   0.120   3.660  0.00  0.00     0.130 A 
ATOM      2  C2  DEN d   1      -1.371  -0.890   2.620  0.00  0.00    -0.031 A 
ATOM      3  C3  DEN d   1      -2.537  -0.823   1.717  0.00  0.00     0.027 A 
ATOM      4  C4  DEN d   1      -4.584   0.742   1.824  0.00  0.00     0.027 A 
ATOM      5  C5  DEN d   1      -5.184   1.759   2.533  0.00  0.00    -0.003 A 
ATOM      6  C6  DEN d   1      -4.634   2.274   3.677  0.00  0.00     0.001 A 
ATOM      7  C7  DEN d   1      -3.427   1.804   4.121  0.00  0.00     0.017 A 
ATOM      8  C8  DEN d   1      -2.820   0.773   3.416  0.00  0.00    -0.094 A 
ATOM      9  C9  DEN d   1      -3.385   0.274   2.254  0.00  0.00    -0.072 A 
ENDROOT
TORSDOF 0
ENDMDL
