MODEL 1
REMARK minimizedAffinity 10.3139791
REMARK minimizedRMSD -1
REMARK  0 active torsions:
REMARK  status: ('A' for Active; 'I' for Inactive)
ROOT
ATOM      1  C   UNL d   1       2.947   0.364   1.285  0.00  0.00     0.077 C 
ATOM      2  C1  UNL d   1       1.516  -0.084   1.298  0.00  0.00    -0.074 A 
ATOM      3  C2  UNL d   1       0.471   0.845   1.263  0.00  0.00    -0.005 A 
ATOM      4  C3  UNL d   1      -0.855   0.413   1.266  0.00  0.00     0.006 A 
ATOM      5  C4  UNL d   1      -1.150  -0.950   1.305  0.00  0.00    -0.005 A 
ATOM      6  C5  UNL d   1      -0.119  -1.894   1.340  0.00  0.00    -0.074 A 
ATOM      7  C6  UNL d   1      -0.418  -3.364   1.371  0.00  0.00     0.077 C 
ATOM      8  C7  UNL d   1       1.212  -1.453   1.329  0.00  0.00    -0.001 A 
ENDROOT
TORSDOF 0
ENDMDL
