MODEL 1
REMARK minimizedAffinity 12.5175076
REMARK minimizedRMSD -1
REMARK  0 active torsions:
REMARK  status: ('A' for Active; 'I' for Inactive)
ROOT
ATOM      1  C   UNL d   1       1.581   1.420   2.860  0.00  0.00     0.077 C 
ATOM      2  C1  UNL d   1       1.425  -0.067   2.735  0.00  0.00    -0.074 A 
ATOM      3  C2  UNL d   1       1.837  -0.738   1.580  0.00  0.00    -0.005 A 
ATOM      4  C3  UNL d   1       1.694  -2.122   1.482  0.00  0.00     0.006 A 
ATOM      5  C4  UNL d   1       1.139  -2.848   2.537  0.00  0.00    -0.005 A 
ATOM      6  C5  UNL d   1       0.723  -2.193   3.701  0.00  0.00    -0.074 A 
ATOM      7  C6  UNL d   1       0.133  -2.959   4.848  0.00  0.00     0.077 C 
ATOM      8  C7  UNL d   1       0.876  -0.803   3.794  0.00  0.00    -0.001 A 
ENDROOT
TORSDOF 0
ENDMDL
