MODEL 1
REMARK minimizedAffinity 8.56576252
REMARK minimizedRMSD -1
REMARK  0 active torsions:
REMARK  status: ('A' for Active; 'I' for Inactive)
ROOT
ATOM      1  C   UNL d   1       0.490  -2.490   5.044  0.00  0.00     0.077 C 
ATOM      2  C1  UNL d   1       0.986  -1.761   3.830  0.00  0.00    -0.074 A 
ATOM      3  C2  UNL d   1       0.329  -0.621   3.358  0.00  0.00    -0.005 A 
ATOM      4  C3  UNL d   1       0.808   0.052   2.234  0.00  0.00     0.006 A 
ATOM      5  C4  UNL d   1       1.947  -0.408   1.572  0.00  0.00    -0.005 A 
ATOM      6  C5  UNL d   1       2.618  -1.546   2.030  0.00  0.00    -0.074 A 
ATOM      7  C6  UNL d   1       3.850  -2.048   1.337  0.00  0.00     0.077 C 
ATOM      8  C7  UNL d   1       2.135  -2.213   3.165  0.00  0.00    -0.001 A 
ENDROOT
TORSDOF 0
ENDMDL
