MODEL 1
REMARK minimizedAffinity 9.52659512
REMARK minimizedRMSD -1
REMARK  0 active torsions:
REMARK  status: ('A' for Active; 'I' for Inactive)
ROOT
ATOM      1  C   UNL d   1      -3.810  -5.995  -3.888  0.00  0.00     0.077 C 
ATOM      2  C1  UNL d   1      -4.458  -4.747  -4.408  0.00  0.00    -0.074 A 
ATOM      3  C2  UNL d   1      -5.369  -4.798  -5.468  0.00  0.00    -0.005 A 
ATOM      4  C3  UNL d   1      -5.971  -3.630  -5.935  0.00  0.00     0.006 A 
ATOM      5  C4  UNL d   1      -5.669  -2.401  -5.348  0.00  0.00    -0.005 A 
ATOM      6  C5  UNL d   1      -4.762  -2.330  -4.287  0.00  0.00    -0.074 A 
ATOM      7  C6  UNL d   1      -4.434  -1.018  -3.638  0.00  0.00     0.077 C 
ATOM      8  C7  UNL d   1      -4.166  -3.509  -3.818  0.00  0.00    -0.001 A 
ENDROOT
TORSDOF 0
ENDMDL
