MODEL 1
REMARK minimizedAffinity 8.67613029
REMARK minimizedRMSD -1
REMARK  0 active torsions:
REMARK  status: ('A' for Active; 'I' for Inactive)
ROOT
ATOM      1  C   UNL d   1      -5.018  -1.337  -1.727  0.00  0.00     0.077 C 
ATOM      2  C1  UNL d   1      -4.255  -0.048  -1.808  0.00  0.00    -0.074 A 
ATOM      3  C2  UNL d   1      -4.227   0.697  -2.991  0.00  0.00    -0.005 A 
ATOM      4  C3  UNL d   1      -3.522   1.899  -3.048  0.00  0.00     0.006 A 
ATOM      5  C4  UNL d   1      -2.839   2.368  -1.925  0.00  0.00    -0.005 A 
ATOM      6  C5  UNL d   1      -2.857   1.637  -0.733  0.00  0.00    -0.074 A 
ATOM      7  C6  UNL d   1      -2.137   2.131   0.487  0.00  0.00     0.077 C 
ATOM      8  C7  UNL d   1      -3.574   0.433  -0.681  0.00  0.00    -0.001 A 
ENDROOT
TORSDOF 0
ENDMDL
