MODEL 1
REMARK minimizedAffinity 13.6619987
REMARK minimizedRMSD -1
REMARK  0 active torsions:
REMARK  status: ('A' for Active; 'I' for Inactive)
ROOT
ATOM      1  C   UNL d   1      -3.369   1.880  -1.941  0.00  0.00     0.077 C 
ATOM      2  C1  UNL d   1      -3.413   2.259  -0.490  0.00  0.00    -0.074 A 
ATOM      3  C2  UNL d   1      -2.253   2.245   0.291  0.00  0.00    -0.005 A 
ATOM      4  C3  UNL d   1      -2.308   2.609   1.637  0.00  0.00     0.006 A 
ATOM      5  C4  UNL d   1      -3.521   2.990   2.213  0.00  0.00    -0.005 A 
ATOM      6  C5  UNL d   1      -4.690   3.010   1.447  0.00  0.00    -0.074 A 
ATOM      7  C6  UNL d   1      -6.000   3.425   2.048  0.00  0.00     0.077 C 
ATOM      8  C7  UNL d   1      -4.626   2.649   0.094  0.00  0.00    -0.001 A 
ENDROOT
TORSDOF 0
ENDMDL
