MODEL 1
REMARK minimizedAffinity 14.7264538
REMARK minimizedRMSD -1
REMARK  0 active torsions:
REMARK  status: ('A' for Active; 'I' for Inactive)
ROOT
ATOM      1  C   UNL d   1      -2.190   3.787  -1.678  0.00  0.00     0.077 C 
ATOM      2  C1  UNL d   1      -2.792   3.183  -0.444  0.00  0.00    -0.074 A 
ATOM      3  C2  UNL d   1      -2.219   2.059   0.160  0.00  0.00    -0.005 A 
ATOM      4  C3  UNL d   1      -2.785   1.514   1.312  0.00  0.00     0.006 A 
ATOM      5  C4  UNL d   1      -3.927   2.087   1.873  0.00  0.00    -0.005 A 
ATOM      6  C5  UNL d   1      -4.513   3.212   1.284  0.00  0.00    -0.074 A 
ATOM      7  C6  UNL d   1      -5.735   3.846   1.879  0.00  0.00     0.077 C 
ATOM      8  C7  UNL d   1      -3.935   3.758   0.130  0.00  0.00    -0.001 A 
ENDROOT
TORSDOF 0
ENDMDL
