MODEL 1
REMARK minimizedAffinity 6.58854151
REMARK minimizedRMSD -1
REMARK  0 active torsions:
REMARK  status: ('A' for Active; 'I' for Inactive)
ROOT
ATOM      1  C   UNL d   1      -0.838   2.295   1.829  0.00  0.00     0.077 C 
ATOM      2  C1  UNL d   1      -1.999   2.828   1.042  0.00  0.00    -0.074 A 
ATOM      3  C2  UNL d   1      -1.904   3.018  -0.340  0.00  0.00    -0.005 A 
ATOM      4  C3  UNL d   1      -2.994   3.506  -1.060  0.00  0.00     0.006 A 
ATOM      5  C4  UNL d   1      -4.189   3.809  -0.405  0.00  0.00    -0.005 A 
ATOM      6  C5  UNL d   1      -4.303   3.626   0.976  0.00  0.00    -0.074 A 
ATOM      7  C6  UNL d   1      -5.582   3.938   1.693  0.00  0.00     0.077 C 
ATOM      8  C7  UNL d   1      -3.205   3.128   1.691  0.00  0.00    -0.001 A 
ENDROOT
TORSDOF 0
ENDMDL
