MODEL 1
REMARK minimizedAffinity 6.83581877
REMARK minimizedRMSD -1
REMARK  0 active torsions:
REMARK  status: ('A' for Active; 'I' for Inactive)
ROOT
ATOM      1  C   UNL d   1      -2.678  -2.515  -0.678  0.00  0.00     0.077 C 
ATOM      2  C1  UNL d   1      -1.185  -2.373  -0.726  0.00  0.00    -0.074 A 
ATOM      3  C2  UNL d   1      -0.487  -2.527  -1.928  0.00  0.00    -0.005 A 
ATOM      4  C3  UNL d   1       0.900  -2.382  -1.960  0.00  0.00     0.006 A 
ATOM      5  C4  UNL d   1       1.601  -2.082  -0.791  0.00  0.00    -0.005 A 
ATOM      6  C5  UNL d   1       0.920  -1.924   0.420  0.00  0.00    -0.074 A 
ATOM      7  C6  UNL d   1       1.658  -1.591   1.683  0.00  0.00     0.077 C 
ATOM      8  C7  UNL d   1      -0.474  -2.064   0.442  0.00  0.00    -0.001 A 
ENDROOT
TORSDOF 0
ENDMDL
