MODEL 1
REMARK minimizedAffinity -6.09271908
REMARK minimizedRMSD -1
REMARK  2 active torsions:
REMARK  status: ('A' for Active; 'I' for Inactive)
REMARK    1  A    between atoms: C2'_3  and  C1'_4 
REMARK    2  A    between atoms: C1'_4  and  C1_5 
ROOT
ATOM      1  C1  I4B d   1      -0.328   1.514   0.964  0.00  0.00    -0.075 A 
ATOM      2  C2  I4B d   1      -0.899   2.268   1.959  0.00  0.00     0.003 A 
ATOM      3  C3  I4B d   1      -1.437   3.545   1.666  0.00  0.00     0.002 A 
ATOM      4  C4  I4B d   1      -1.337   4.047   0.385  0.00  0.00    -0.004 A 
ATOM      5  C5  I4B d   1      -0.779   3.272  -0.628  0.00  0.00     0.002 A 
ATOM      6  C6  I4B d   1      -0.282   1.992  -0.340  0.00  0.00     0.003 A 
ENDROOT
BRANCH   1   7
ATOM      7  C1' I4B d   1       0.259   0.184   1.314  0.00  0.00     0.060 C 
BRANCH   7   8
ATOM      8  C2' I4B d   1       1.080  -0.290   0.132  0.00  0.00    -0.013 C 
ATOM      9  C4' I4B d   1       2.515  -0.524   0.523  0.00  0.00     0.013 C 
ATOM     10  C3' I4B d   1       0.451  -1.546  -0.395  0.00  0.00     0.013 C 
ENDBRANCH   7   8
ENDBRANCH   1   7
TORSDOF 2
ENDMDL
