MODEL 1
REMARK minimizedAffinity -3.19879794
REMARK minimizedRMSD -1
REMARK  2 active torsions:
REMARK  status: ('A' for Active; 'I' for Inactive)
REMARK    1  A    between atoms: C2'_3  and  C1'_4 
REMARK    2  A    between atoms: C1'_4  and  C1_5 
ROOT
ATOM      1  C1  I4B d   1       0.856   0.223   1.521  0.00  0.00    -0.075 A 
ATOM      2  C2  I4B d   1       0.266  -0.030   0.309  0.00  0.00     0.003 A 
ATOM      3  C3  I4B d   1      -0.833   0.750  -0.126  0.00  0.00     0.002 A 
ATOM      4  C4  I4B d   1      -1.338   1.733   0.700  0.00  0.00    -0.004 A 
ATOM      5  C5  I4B d   1      -0.723   2.004   1.919  0.00  0.00     0.002 A 
ATOM      6  C6  I4B d   1       0.388   1.253   2.328  0.00  0.00     0.003 A 
ENDROOT
BRANCH   1   7
ATOM      7  C1' I4B d   1       1.994  -0.641   1.964  0.00  0.00     0.060 C 
BRANCH   7   8
ATOM      8  C2' I4B d   1       3.253  -0.137   1.289  0.00  0.00    -0.013 C 
ATOM      9  C4' I4B d   1       4.449  -0.274   2.194  0.00  0.00     0.013 C 
ATOM     10  C3' I4B d   1       3.442  -0.914   0.020  0.00  0.00     0.013 C 
ENDBRANCH   7   8
ENDBRANCH   1   7
TORSDOF 2
ENDMDL
