MODEL 1
REMARK minimizedAffinity -0.506467462
REMARK minimizedRMSD -1
REMARK  2 active torsions:
REMARK  status: ('A' for Active; 'I' for Inactive)
REMARK    1  A    between atoms: C2'_3  and  C1'_4 
REMARK    2  A    between atoms: C1'_4  and  C1_5 
ROOT
ATOM      1  C1  I4B d   1       1.536  -0.126   0.777  0.00  0.00    -0.075 A 
ATOM      2  C2  I4B d   1       1.400   0.740   1.833  0.00  0.00     0.003 A 
ATOM      3  C3  I4B d   1       0.314   1.648   1.874  0.00  0.00     0.002 A 
ATOM      4  C4  I4B d   1      -0.577   1.691   0.821  0.00  0.00    -0.004 A 
ATOM      5  C5  I4B d   1      -0.450   0.796  -0.237  0.00  0.00     0.002 A 
ATOM      6  C6  I4B d   1       0.606  -0.127  -0.254  0.00  0.00     0.003 A 
ENDROOT
BRANCH   1   7
ATOM      7  C1' I4B d   1       2.713  -1.050   0.750  0.00  0.00     0.060 C 
BRANCH   7   8
ATOM      8  C2' I4B d   1       3.853  -0.374   1.484  0.00  0.00    -0.013 C 
ATOM      9  C4' I4B d   1       4.299  -1.190   2.669  0.00  0.00     0.013 C 
ATOM     10  C3' I4B d   1       4.977  -0.175   0.510  0.00  0.00     0.013 C 
ENDBRANCH   7   8
ENDBRANCH   1   7
TORSDOF 2
ENDMDL
