MODEL 1
REMARK minimizedAffinity -2.39463305
REMARK minimizedRMSD -1
REMARK  2 active torsions:
REMARK  status: ('A' for Active; 'I' for Inactive)
REMARK    1  A    between atoms: C2'_3  and  C1'_4 
REMARK    2  A    between atoms: C1'_4  and  C1_5 
ROOT
ATOM      1  C1  I4B d   1       0.592  -3.124  -0.616  0.00  0.00    -0.075 A 
ATOM      2  C2  I4B d   1      -0.555  -3.660  -1.145  0.00  0.00     0.003 A 
ATOM      3  C3  I4B d   1      -0.716  -5.065  -1.223  0.00  0.00     0.002 A 
ATOM      4  C4  I4B d   1       0.309  -5.890  -0.809  0.00  0.00    -0.004 A 
ATOM      5  C5  I4B d   1       1.462  -5.345  -0.252  0.00  0.00     0.002 A 
ATOM      6  C6  I4B d   1       1.600  -3.954  -0.143  0.00  0.00     0.003 A 
ENDROOT
BRANCH   1   7
ATOM      7  C1' I4B d   1       0.743  -1.636  -0.579  0.00  0.00     0.060 C 
BRANCH   7   8
ATOM      8  C2' I4B d   1       1.623  -1.285   0.602  0.00  0.00    -0.013 C 
ATOM      9  C4' I4B d   1       3.043  -1.030   0.168  0.00  0.00     0.013 C 
ATOM     10  C3' I4B d   1       1.038  -0.079   1.274  0.00  0.00     0.013 C 
ENDBRANCH   7   8
ENDBRANCH   1   7
TORSDOF 2
ENDMDL
