MODEL 1
REMARK minimizedAffinity -0.231840357
REMARK minimizedRMSD -1
REMARK  2 active torsions:
REMARK  status: ('A' for Active; 'I' for Inactive)
REMARK    1  A    between atoms: C2'_3  and  C1'_4 
REMARK    2  A    between atoms: C1'_4  and  C1_5 
ROOT
ATOM      1  C1  I4B d   1       0.066  -2.054  -0.871  0.00  0.00    -0.075 A 
ATOM      2  C2  I4B d   1       0.310  -3.166  -0.104  0.00  0.00     0.003 A 
ATOM      3  C3  I4B d   1      -0.318  -4.397  -0.412  0.00  0.00     0.002 A 
ATOM      4  C4  I4B d   1      -1.215  -4.458  -1.458  0.00  0.00    -0.004 A 
ATOM      5  C5  I4B d   1      -1.444  -3.336  -2.249  0.00  0.00     0.002 A 
ATOM      6  C6  I4B d   1      -0.790  -2.129  -1.962  0.00  0.00     0.003 A 
ENDROOT
BRANCH   1   7
ATOM      7  C1' I4B d   1       0.721  -0.762  -0.497  0.00  0.00     0.060 C 
BRANCH   7   8
ATOM      8  C2' I4B d   1      -0.347   0.313  -0.474  0.00  0.00    -0.013 C 
ATOM      9  C4' I4B d   1      -0.411   0.989   0.870  0.00  0.00     0.013 C 
ATOM     10  C3' I4B d   1      -0.036   1.298  -1.561  0.00  0.00     0.013 C 
ENDBRANCH   7   8
ENDBRANCH   1   7
TORSDOF 2
ENDMDL
