MODEL 1
REMARK minimizedAffinity -2.15916896
REMARK minimizedRMSD -1
REMARK  2 active torsions:
REMARK  status: ('A' for Active; 'I' for Inactive)
REMARK    1  A    between atoms: C2'_3  and  C1'_4 
REMARK    2  A    between atoms: C1'_4  and  C1_5 
ROOT
ATOM      1  C1  I4B d   1       0.271  -0.118  -0.405  0.00  0.00    -0.075 A 
ATOM      2  C2  I4B d   1      -0.776  -0.279   0.468  0.00  0.00     0.003 A 
ATOM      3  C3  I4B d   1      -1.895   0.587   0.407  0.00  0.00     0.002 A 
ATOM      4  C4  I4B d   1      -1.901   1.625  -0.503  0.00  0.00    -0.004 A 
ATOM      5  C5  I4B d   1      -0.849   1.772  -1.402  0.00  0.00     0.002 A 
ATOM      6  C6  I4B d   1       0.238   0.888  -1.361  0.00  0.00     0.003 A 
ENDROOT
BRANCH   1   7
ATOM      7  C1' I4B d   1       1.451  -1.031  -0.291  0.00  0.00     0.060 C 
BRANCH   7   8
ATOM      8  C2' I4B d   1       2.492  -0.342   0.568  0.00  0.00    -0.013 C 
ATOM      9  C4' I4B d   1       2.092  -0.347   2.020  0.00  0.00     0.013 C 
ATOM     10  C3' I4B d   1       3.800  -1.046   0.364  0.00  0.00     0.013 C 
ENDBRANCH   7   8
ENDBRANCH   1   7
TORSDOF 2
ENDMDL
