MODEL 1
REMARK minimizedAffinity -5.65399837
REMARK minimizedRMSD -1
REMARK  1 active torsions:
REMARK  status: ('A' for Active; 'I' for Inactive)
REMARK    1  A    between atoms: C1_2  and  C2_3 
ROOT
ATOM      1  C2  UNL d   1       0.250   0.098   0.317  0.00  0.00    -0.077 A 
ATOM      2  C3  UNL d   1       1.120   0.684   1.247  0.00  0.00     0.002 A 
ATOM      3  C4  UNL d   1       0.966   0.434   2.612  0.00  0.00     0.002 A 
ATOM      4  C5  UNL d   1      -0.054  -0.404   3.059  0.00  0.00    -0.004 A 
ATOM      5  C6  UNL d   1      -0.925  -0.990   2.141  0.00  0.00     0.002 A 
ATOM      6  C7  UNL d   1      -0.774  -0.741   0.777  0.00  0.00     0.002 A 
ENDROOT
BRANCH   1   7
ATOM      7  C1  UNL d   1       0.445   0.326  -1.159  0.00  0.00     0.055 C 
ATOM      8  C   UNL d   1       0.565  -0.991  -1.912  0.00  0.00     0.019 C 
ENDBRANCH   1   7
TORSDOF 1
ENDMDL
