MODEL 1
REMARK minimizedAffinity -1.7209028
REMARK minimizedRMSD -1
REMARK  1 active torsions:
REMARK  status: ('A' for Active; 'I' for Inactive)
REMARK    1  A    between atoms: C1_2  and  C2_3 
ROOT
ATOM      1  C2  UNL d   1      -0.319  -0.151  -0.365  0.00  0.00    -0.077 A 
ATOM      2  C3  UNL d   1       0.799   0.688  -0.470  0.00  0.00     0.002 A 
ATOM      3  C4  UNL d   1       1.553   0.715  -1.645  0.00  0.00     0.002 A 
ATOM      4  C5  UNL d   1       1.195  -0.091  -2.724  0.00  0.00    -0.004 A 
ATOM      5  C6  UNL d   1       0.086  -0.930  -2.628  0.00  0.00     0.002 A 
ATOM      6  C7  UNL d   1      -0.668  -0.959  -1.454  0.00  0.00     0.002 A 
ENDROOT
BRANCH   1   7
ATOM      7  C1  UNL d   1      -1.162  -0.145   0.883  0.00  0.00     0.055 C 
ATOM      8  C   UNL d   1      -2.629   0.096   0.559  0.00  0.00     0.019 C 
ENDBRANCH   1   7
TORSDOF 1
ENDMDL
