MODEL 1
REMARK minimizedAffinity -0.180119246
REMARK minimizedRMSD -1
REMARK  1 active torsions:
REMARK  status: ('A' for Active; 'I' for Inactive)
REMARK    1  A    between atoms: C1_2  and  C2_3 
ROOT
ATOM      1  C2  UNL d   1       0.849  -0.322  -2.715  0.00  0.00    -0.077 A 
ATOM      2  C3  UNL d   1       0.071  -1.216  -3.464  0.00  0.00     0.002 A 
ATOM      3  C4  UNL d   1       0.681  -2.187  -4.261  0.00  0.00     0.002 A 
ATOM      4  C5  UNL d   1       2.071  -2.276  -4.312  0.00  0.00    -0.004 A 
ATOM      5  C6  UNL d   1       2.853  -1.390  -3.572  0.00  0.00     0.002 A 
ATOM      6  C7  UNL d   1       2.245  -0.418  -2.777  0.00  0.00     0.002 A 
ENDROOT
BRANCH   1   7
ATOM      7  C1  UNL d   1       0.192   0.694  -1.818  0.00  0.00     0.055 C 
ATOM      8  C   UNL d   1      -0.153   0.095  -0.462  0.00  0.00     0.019 C 
ENDBRANCH   1   7
TORSDOF 1
ENDMDL
