MODEL 1
REMARK minimizedAffinity 1.77686393
REMARK minimizedRMSD -1
REMARK  1 active torsions:
REMARK  status: ('A' for Active; 'I' for Inactive)
REMARK    1  A    between atoms: C1_2  and  C2_3 
ROOT
ATOM      1  C2  UNL d   1       4.269   0.877  -4.843  0.00  0.00    -0.077 A 
ATOM      2  C3  UNL d   1       3.052   1.348  -4.330  0.00  0.00     0.002 A 
ATOM      3  C4  UNL d   1       2.004   0.462  -4.074  0.00  0.00     0.002 A 
ATOM      4  C5  UNL d   1       2.163  -0.899  -4.324  0.00  0.00    -0.004 A 
ATOM      5  C6  UNL d   1       3.369  -1.377  -4.836  0.00  0.00     0.002 A 
ATOM      6  C7  UNL d   1       4.417  -0.493  -5.093  0.00  0.00     0.002 A 
ENDROOT
BRANCH   1   7
ATOM      7  C1  UNL d   1       5.418   1.824  -5.073  0.00  0.00     0.055 C 
ATOM      8  C   UNL d   1       5.007   2.988  -5.964  0.00  0.00     0.019 C 
ENDBRANCH   1   7
TORSDOF 1
ENDMDL
