MODEL 1
REMARK minimizedAffinity -4.00214434
REMARK minimizedRMSD -1
REMARK  1 active torsions:
REMARK  status: ('A' for Active; 'I' for Inactive)
REMARK    1  A    between atoms: C1_2  and  C2_3 
ROOT
ATOM      1  C2  UNL d   1      -1.235   0.748   1.221  0.00  0.00    -0.077 A 
ATOM      2  C3  UNL d   1      -0.489   0.602   0.043  0.00  0.00     0.002 A 
ATOM      3  C4  UNL d   1       0.895   0.428   0.100  0.00  0.00     0.002 A 
ATOM      4  C5  UNL d   1       1.544   0.394   1.332  0.00  0.00    -0.004 A 
ATOM      5  C6  UNL d   1       0.812   0.541   2.510  0.00  0.00     0.002 A 
ATOM      6  C7  UNL d   1      -0.572   0.717   2.454  0.00  0.00     0.002 A 
ENDROOT
BRANCH   1   7
ATOM      7  C1  UNL d   1      -2.734   0.887   1.164  0.00  0.00     0.055 C 
ATOM      8  C   UNL d   1      -3.294   1.395   2.485  0.00  0.00     0.019 C 
ENDBRANCH   1   7
TORSDOF 1
ENDMDL
