MODEL 1
REMARK minimizedAffinity -3.18426418
REMARK minimizedRMSD -1
REMARK  1 active torsions:
REMARK  status: ('A' for Active; 'I' for Inactive)
REMARK    1  A    between atoms: C1_2  and  C2_3 
ROOT
ATOM      1  C2  UNL d   1      -0.020   0.412   0.112  0.00  0.00    -0.077 A 
ATOM      2  C3  UNL d   1      -1.193  -0.111   0.675  0.00  0.00     0.002 A 
ATOM      3  C4  UNL d   1      -1.288  -0.307   2.054  0.00  0.00     0.002 A 
ATOM      4  C5  UNL d   1      -0.217   0.020   2.882  0.00  0.00    -0.004 A 
ATOM      5  C6  UNL d   1       0.955   0.539   2.332  0.00  0.00     0.002 A 
ATOM      6  C7  UNL d   1       1.053   0.735   0.953  0.00  0.00     0.002 A 
ENDROOT
BRANCH   1   7
ATOM      7  C1  UNL d   1       0.067   0.670  -1.369  0.00  0.00     0.055 C 
ATOM      8  C   UNL d   1       0.624  -0.537  -2.110  0.00  0.00     0.019 C 
ENDBRANCH   1   7
TORSDOF 1
ENDMDL
