MODEL 1
REMARK minimizedAffinity -0.707156599
REMARK minimizedRMSD -1
REMARK  1 active torsions:
REMARK  status: ('A' for Active; 'I' for Inactive)
REMARK    1  A    between atoms: C1_2  and  C2_3 
ROOT
ATOM      1  C2  UNL d   1      -0.169   0.083   1.491  0.00  0.00    -0.077 A 
ATOM      2  C3  UNL d   1       1.022   0.241   0.769  0.00  0.00     0.002 A 
ATOM      3  C4  UNL d   1       1.011   0.216  -0.627  0.00  0.00     0.002 A 
ATOM      4  C5  UNL d   1      -0.189   0.036  -1.313  0.00  0.00    -0.004 A 
ATOM      5  C6  UNL d   1      -1.379  -0.125  -0.604  0.00  0.00     0.002 A 
ATOM      6  C7  UNL d   1      -1.369  -0.101   0.791  0.00  0.00     0.002 A 
ENDROOT
BRANCH   1   7
ATOM      7  C1  UNL d   1      -0.167   0.159   2.995  0.00  0.00     0.055 C 
ATOM      8  C   UNL d   1       0.247   1.542   3.478  0.00  0.00     0.019 C 
ENDBRANCH   1   7
TORSDOF 1
ENDMDL
