MODEL 1
REMARK minimizedAffinity -6.0255723
REMARK minimizedRMSD -1
REMARK  1 active torsions:
REMARK  status: ('A' for Active; 'I' for Inactive)
REMARK    1  A    between atoms: C1_2  and  C2_3 
ROOT
ATOM      1  C2  UNL d   1       0.209   0.182   0.083  0.00  0.00    -0.077 A 
ATOM      2  C3  UNL d   1       1.459   0.586   0.573  0.00  0.00     0.002 A 
ATOM      3  C4  UNL d   1       1.844   0.266   1.877  0.00  0.00     0.002 A 
ATOM      4  C5  UNL d   1       0.987  -0.463   2.699  0.00  0.00    -0.004 A 
ATOM      5  C6  UNL d   1      -0.259  -0.867   2.222  0.00  0.00     0.002 A 
ATOM      6  C7  UNL d   1      -0.646  -0.547   0.919  0.00  0.00     0.002 A 
ENDROOT
BRANCH   1   7
ATOM      7  C1  UNL d   1      -0.187   0.483  -1.338  0.00  0.00     0.055 C 
ATOM      8  C   UNL d   1       0.254  -0.625  -2.283  0.00  0.00     0.019 C 
ENDBRANCH   1   7
TORSDOF 1
ENDMDL
