MODEL 1
REMARK minimizedAffinity -3.6337626
REMARK minimizedRMSD -1
REMARK  1 active torsions:
REMARK  status: ('A' for Active; 'I' for Inactive)
REMARK    1  A    between atoms: C1_2  and  C2_3 
ROOT
ATOM      1  C2  UNL d   1      -0.952  -0.239   2.262  0.00  0.00    -0.077 A 
ATOM      2  C3  UNL d   1       0.174   0.339   2.866  0.00  0.00     0.002 A 
ATOM      3  C4  UNL d   1       1.347   0.532   2.134  0.00  0.00     0.002 A 
ATOM      4  C5  UNL d   1       1.405   0.154   0.795  0.00  0.00    -0.004 A 
ATOM      5  C6  UNL d   1       0.291  -0.422   0.185  0.00  0.00     0.002 A 
ATOM      6  C7  UNL d   1      -0.882  -0.617   0.915  0.00  0.00     0.002 A 
ENDROOT
BRANCH   1   7
ATOM      7  C1  UNL d   1      -2.234  -0.402   3.035  0.00  0.00     0.055 C 
ATOM      8  C   UNL d   1      -3.400   0.269   2.323  0.00  0.00     0.019 C 
ENDBRANCH   1   7
TORSDOF 1
ENDMDL
