MODEL 1
REMARK minimizedAffinity -3.0221045
REMARK minimizedRMSD -1
REMARK  1 active torsions:
REMARK  status: ('A' for Active; 'I' for Inactive)
REMARK    1  A    between atoms: C1_2  and  C2_3 
ROOT
ATOM      1  C2  UNL d   1       0.455   0.346   0.140  0.00  0.00    -0.077 A 
ATOM      2  C3  UNL d   1       1.519   0.709   0.979  0.00  0.00     0.002 A 
ATOM      3  C4  UNL d   1       1.314   0.869   2.351  0.00  0.00     0.002 A 
ATOM      4  C5  UNL d   1       0.048   0.664   2.896  0.00  0.00    -0.004 A 
ATOM      5  C6  UNL d   1      -1.016   0.304   2.071  0.00  0.00     0.002 A 
ATOM      6  C7  UNL d   1      -0.813   0.145   0.699  0.00  0.00     0.002 A 
ENDROOT
BRANCH   1   7
ATOM      7  C1  UNL d   1       0.685   0.125  -1.332  0.00  0.00     0.055 C 
ATOM      8  C   UNL d   1       0.712  -1.358  -1.671  0.00  0.00     0.019 C 
ENDBRANCH   1   7
TORSDOF 1
ENDMDL
