MODEL 1
REMARK minimizedAffinity 9.29149055
REMARK minimizedRMSD -1
REMARK  0 active torsions:
REMARK  status: ('A' for Active; 'I' for Inactive)
ROOT
ATOM      1  C   UNL d   1      -5.998   4.592  -5.997  0.00  0.00     0.020 A 
ATOM      2  C1  UNL d   1      -5.825   3.209  -5.998  0.00  0.00     0.020 A 
ATOM      3  C2  UNL d   1      -4.538   2.667  -5.999  0.00  0.00     0.034 A 
ATOM      4  C3  UNL d   1      -3.419   3.508  -5.998  0.00  0.00     0.017 A 
ATOM      5  C4  UNL d   1      -3.595   4.897  -5.997  0.00  0.00     0.017 A 
ATOM      6  C5  UNL d   1      -4.886   5.434  -5.997  0.00  0.00     0.034 A 
ATOM      7 Cl   UNL d   1      -2.264   5.999  -5.997  0.00  0.00    -0.070 Cl
ATOM      8 Cl1  UNL d   1      -1.858   2.769  -5.999  0.00  0.00    -0.070 Cl
ENDROOT
TORSDOF 0
ENDMDL
