MODEL 1
REMARK minimizedAffinity 10.7747087
REMARK minimizedRMSD -1
REMARK  0 active torsions:
REMARK  status: ('A' for Active; 'I' for Inactive)
ROOT
ATOM      1  C   UNL d   1       3.615   3.039   4.822  0.00  0.00     0.020 A 
ATOM      2  C1  UNL d   1       3.425   2.317   6.000  0.00  0.00     0.020 A 
ATOM      3  C2  UNL d   1       2.610   1.182   6.000  0.00  0.00     0.034 A 
ATOM      4  C3  UNL d   1       1.982   0.768   4.820  0.00  0.00     0.017 A 
ATOM      5  C4  UNL d   1       2.172   1.493   3.639  0.00  0.00     0.017 A 
ATOM      6  C5  UNL d   1       2.989   2.628   3.644  0.00  0.00     0.034 A 
ATOM      7 Cl   UNL d   1       1.430   1.043   2.144  0.00  0.00    -0.070 Cl
ATOM      8 Cl1  UNL d   1       0.988  -0.644   4.893  0.00  0.00    -0.070 Cl
ENDROOT
TORSDOF 0
ENDMDL
