MODEL 1
REMARK minimizedAffinity 17.1985416
REMARK minimizedRMSD -1
REMARK  0 active torsions:
REMARK  status: ('A' for Active; 'I' for Inactive)
ROOT
ATOM      1  C   UNL d   1       1.615  -5.007  -1.111  0.00  0.00     0.020 A 
ATOM      2  C1  UNL d   1       2.179  -6.000  -1.912  0.00  0.00     0.020 A 
ATOM      3  C2  UNL d   1       3.534  -5.944  -2.243  0.00  0.00     0.034 A 
ATOM      4  C3  UNL d   1       4.331  -4.894  -1.772  0.00  0.00     0.017 A 
ATOM      5  C4  UNL d   1       3.764  -3.898  -0.969  0.00  0.00     0.017 A 
ATOM      6  C5  UNL d   1       2.406  -3.959  -0.641  0.00  0.00     0.034 A 
ATOM      7 Cl   UNL d   1       4.684  -2.571  -0.351  0.00  0.00    -0.070 Cl
ATOM      8 Cl1  UNL d   1       6.000  -4.889  -2.220  0.00  0.00    -0.070 Cl
ENDROOT
TORSDOF 0
ENDMDL
