MODEL 1
REMARK minimizedAffinity 13.4572954
REMARK minimizedRMSD -1
REMARK  0 active torsions:
REMARK  status: ('A' for Active; 'I' for Inactive)
ROOT
ATOM      1  C   UNL d   1       0.493  -2.046  -1.886  0.00  0.00     0.020 A 
ATOM      2  C1  UNL d   1       1.002  -3.338  -1.749  0.00  0.00     0.020 A 
ATOM      3  C2  UNL d   1       2.287  -3.531  -1.238  0.00  0.00     0.034 A 
ATOM      4  C3  UNL d   1       3.068  -2.432  -0.863  0.00  0.00     0.017 A 
ATOM      5  C4  UNL d   1       2.557  -1.137  -1.001  0.00  0.00     0.017 A 
ATOM      6  C5  UNL d   1       1.269  -0.949  -1.513  0.00  0.00     0.034 A 
ATOM      7 Cl   UNL d   1       3.461   0.268  -0.560  0.00  0.00    -0.070 Cl
ATOM      8 Cl1  UNL d   1       4.648  -2.746  -0.239  0.00  0.00    -0.070 Cl
ENDROOT
TORSDOF 0
ENDMDL
