MODEL 1
REMARK minimizedAffinity 2.27549386
REMARK minimizedRMSD -1
REMARK  0 active torsions:
REMARK  status: ('A' for Active; 'I' for Inactive)
ROOT
ATOM      1  C   UNL d   1       3.517  -0.947  -0.078  0.00  0.00     0.020 A 
ATOM      2  C1  UNL d   1       3.808   0.341  -0.525  0.00  0.00     0.020 A 
ATOM      3  C2  UNL d   1       2.970   0.964  -1.452  0.00  0.00     0.034 A 
ATOM      4  C3  UNL d   1       1.836   0.300  -1.934  0.00  0.00     0.017 A 
ATOM      5  C4  UNL d   1       1.545  -0.993  -1.484  0.00  0.00     0.017 A 
ATOM      6  C5  UNL d   1       2.387  -1.612  -0.556  0.00  0.00     0.034 A 
ATOM      7 Cl   UNL d   1       0.164  -1.876  -2.033  0.00  0.00    -0.070 Cl
ATOM      8 Cl1  UNL d   1       0.844   1.131  -3.079  0.00  0.00    -0.070 Cl
ENDROOT
TORSDOF 0
ENDMDL
