MODEL 1
REMARK minimizedAffinity 13.3049517
REMARK minimizedRMSD -1
REMARK  0 active torsions:
REMARK  status: ('A' for Active; 'I' for Inactive)
ROOT
ATOM      1  C   UNL d   1       3.886   1.139  -0.542  0.00  0.00     0.020 A 
ATOM      2  C1  UNL d   1       3.713  -0.132   0.005  0.00  0.00     0.020 A 
ATOM      3  C2  UNL d   1       2.617  -0.911  -0.371  0.00  0.00     0.034 A 
ATOM      4  C3  UNL d   1       1.688  -0.419  -1.295  0.00  0.00     0.017 A 
ATOM      5  C4  UNL d   1       1.863   0.857  -1.844  0.00  0.00     0.017 A 
ATOM      6  C5  UNL d   1       2.963   1.632  -1.464  0.00  0.00     0.034 A 
ATOM      7 Cl   UNL d   1       0.760   1.531  -2.991  0.00  0.00    -0.070 Cl
ATOM      8 Cl1  UNL d   1       0.356  -1.436  -1.715  0.00  0.00    -0.070 Cl
ENDROOT
TORSDOF 0
ENDMDL
