MODEL 1
REMARK minimizedAffinity 2.72520876
REMARK minimizedRMSD -1
REMARK  0 active torsions:
REMARK  status: ('A' for Active; 'I' for Inactive)
ROOT
ATOM      1  C   UNL d   1       2.254   1.406   1.377  0.00  0.00     0.020 A 
ATOM      2  C1  UNL d   1       2.871   2.610   1.717  0.00  0.00     0.020 A 
ATOM      3  C2  UNL d   1       2.965   2.992   3.057  0.00  0.00     0.034 A 
ATOM      4  C3  UNL d   1       2.441   2.171   4.062  0.00  0.00     0.017 A 
ATOM      5  C4  UNL d   1       1.822   0.963   3.720  0.00  0.00     0.017 A 
ATOM      6  C5  UNL d   1       1.731   0.585   2.376  0.00  0.00     0.034 A 
ATOM      7 Cl   UNL d   1       1.152  -0.103   4.903  0.00  0.00    -0.070 Cl
ATOM      8 Cl1  UNL d   1       2.592   2.706   5.698  0.00  0.00    -0.070 Cl
ENDROOT
TORSDOF 0
ENDMDL
