MODEL 1
REMARK minimizedAffinity 8.55025196
REMARK minimizedRMSD -1
REMARK  0 active torsions:
REMARK  status: ('A' for Active; 'I' for Inactive)
ROOT
ATOM      1  C   UNL d   1       1.490  -0.148  -2.946  0.00  0.00     0.020 A 
ATOM      2  C1  UNL d   1       2.222  -0.225  -1.761  0.00  0.00     0.020 A 
ATOM      3  C2  UNL d   1       2.136  -1.365  -0.960  0.00  0.00     0.034 A 
ATOM      4  C3  UNL d   1       1.318  -2.434  -1.343  0.00  0.00     0.017 A 
ATOM      5  C4  UNL d   1       0.584  -2.357  -2.532  0.00  0.00     0.017 A 
ATOM      6  C5  UNL d   1       0.673  -1.212  -3.330  0.00  0.00     0.034 A 
ATOM      7 Cl   UNL d   1      -0.447  -3.635  -3.071  0.00  0.00    -0.070 Cl
ATOM      8 Cl1  UNL d   1       1.260  -3.814  -0.304  0.00  0.00    -0.070 Cl
ENDROOT
TORSDOF 0
ENDMDL
