MODEL 1
REMARK minimizedAffinity 12.6586256
REMARK minimizedRMSD -1
REMARK  0 active torsions:
REMARK  status: ('A' for Active; 'I' for Inactive)
ROOT
ATOM      1  C   UNL d   1       3.131   1.618  -1.507  0.00  0.00     0.020 A 
ATOM      2  C1  UNL d   1       3.340   0.293  -1.127  0.00  0.00     0.020 A 
ATOM      3  C2  UNL d   1       2.474  -0.706  -1.575  0.00  0.00     0.034 A 
ATOM      4  C3  UNL d   1       1.394  -0.382  -2.405  0.00  0.00     0.017 A 
ATOM      5  C4  UNL d   1       1.186   0.949  -2.786  0.00  0.00     0.017 A 
ATOM      6  C5  UNL d   1       2.056   1.945  -2.335  0.00  0.00     0.034 A 
ATOM      7 Cl   UNL d   1      -0.124   1.426  -3.808  0.00  0.00    -0.070 Cl
ATOM      8 Cl1  UNL d   1       0.363  -1.669  -2.921  0.00  0.00    -0.070 Cl
ENDROOT
TORSDOF 0
ENDMDL
