MODEL 1
REMARK minimizedAffinity 2.18120718
REMARK minimizedRMSD -1
REMARK  0 active torsions:
REMARK  status: ('A' for Active; 'I' for Inactive)
ROOT
ATOM      1  C   UNL d   1      -3.148  -2.567  -3.587  0.00  0.00     0.020 A 
ATOM      2  C1  UNL d   1      -2.559  -1.522  -2.877  0.00  0.00     0.020 A 
ATOM      3  C2  UNL d   1      -1.348  -1.725  -2.212  0.00  0.00     0.034 A 
ATOM      4  C3  UNL d   1      -0.723  -2.976  -2.255  0.00  0.00     0.017 A 
ATOM      5  C4  UNL d   1      -1.316  -4.025  -2.967  0.00  0.00     0.017 A 
ATOM      6  C5  UNL d   1      -2.528  -3.816  -3.631  0.00  0.00     0.034 A 
ATOM      7 Cl   UNL d   1      -0.604  -5.597  -3.065  0.00  0.00    -0.070 Cl
ATOM      8 Cl1  UNL d   1       0.773  -3.156  -1.409  0.00  0.00    -0.070 Cl
ENDROOT
TORSDOF 0
ENDMDL
