MODEL 1
REMARK minimizedAffinity 15.1550703
REMARK minimizedRMSD -1
REMARK  0 active torsions:
REMARK  status: ('A' for Active; 'I' for Inactive)
ROOT
ATOM      1  C   UNL d   1      -2.825  -2.130  -2.988  0.00  0.00     0.020 A 
ATOM      2  C1  UNL d   1      -2.062  -1.118  -2.407  0.00  0.00     0.020 A 
ATOM      3  C2  UNL d   1      -0.938  -1.441  -1.644  0.00  0.00     0.034 A 
ATOM      4  C3  UNL d   1      -0.573  -2.780  -1.460  0.00  0.00     0.017 A 
ATOM      5  C4  UNL d   1      -1.339  -3.795  -2.044  0.00  0.00     0.017 A 
ATOM      6  C5  UNL d   1      -2.464  -3.466  -2.807  0.00  0.00     0.034 A 
ATOM      7 Cl   UNL d   1      -0.952  -5.470  -1.862  0.00  0.00    -0.070 Cl
ATOM      8 Cl1  UNL d   1       0.829  -3.106  -0.505  0.00  0.00    -0.070 Cl
ENDROOT
TORSDOF 0
ENDMDL
