MODEL 1
REMARK minimizedAffinity 15.6134615
REMARK minimizedRMSD -1
REMARK  0 active torsions:
REMARK  status: ('A' for Active; 'I' for Inactive)
ROOT
ATOM      1  C   UNL d   1       3.793   2.219  -0.249  0.00  0.00     0.020 A 
ATOM      2  C1  UNL d   1       3.351   2.824   0.927  0.00  0.00     0.020 A 
ATOM      3  C2  UNL d   1       2.299   2.258   1.650  0.00  0.00     0.034 A 
ATOM      4  C3  UNL d   1       1.685   1.084   1.199  0.00  0.00     0.017 A 
ATOM      5  C4  UNL d   1       2.130   0.478   0.018  0.00  0.00     0.017 A 
ATOM      6  C5  UNL d   1       3.183   1.048  -0.702  0.00  0.00     0.034 A 
ATOM      7 Cl   UNL d   1       1.422  -0.972  -0.602  0.00  0.00    -0.070 Cl
ATOM      8 Cl1  UNL d   1       0.390   0.440   2.144  0.00  0.00    -0.070 Cl
ENDROOT
TORSDOF 0
ENDMDL
