MODEL 1
REMARK minimizedAffinity 12.7942629
REMARK minimizedRMSD -1
REMARK  0 active torsions:
REMARK  status: ('A' for Active; 'I' for Inactive)
ROOT
ATOM      1  C   UNL d   1       1.250   3.322  -2.362  0.00  0.00     0.020 A 
ATOM      2  C1  UNL d   1       0.533   2.555  -3.280  0.00  0.00     0.020 A 
ATOM      3  C2  UNL d   1       0.647   1.163  -3.267  0.00  0.00     0.034 A 
ATOM      4  C3  UNL d   1       1.480   0.534  -2.335  0.00  0.00     0.017 A 
ATOM      5  C4  UNL d   1       2.200   1.304  -1.414  0.00  0.00     0.017 A 
ATOM      6  C5  UNL d   1       2.081   2.697  -1.431  0.00  0.00     0.034 A 
ATOM      7 Cl   UNL d   1       3.248   0.599  -0.234  0.00  0.00    -0.070 Cl
ATOM      8 Cl1  UNL d   1       1.573  -1.191  -2.376  0.00  0.00    -0.070 Cl
ENDROOT
TORSDOF 0
ENDMDL
