MODEL 1
REMARK minimizedAffinity 5.26920652
REMARK minimizedRMSD -1
REMARK  0 active torsions:
REMARK  status: ('A' for Active; 'I' for Inactive)
ROOT
ATOM      1  C   UNL d   1       1.609  -1.006  -3.257  0.00  0.00     0.020 A 
ATOM      2  C1  UNL d   1       2.396  -0.821  -2.121  0.00  0.00     0.020 A 
ATOM      3  C2  UNL d   1       2.141  -1.563  -0.966  0.00  0.00     0.034 A 
ATOM      4  C3  UNL d   1       1.096  -2.494  -0.944  0.00  0.00     0.017 A 
ATOM      5  C4  UNL d   1       0.307  -2.680  -2.085  0.00  0.00     0.017 A 
ATOM      6  C5  UNL d   1       0.567  -1.934  -3.239  0.00  0.00     0.034 A 
ATOM      7 Cl   UNL d   1      -0.999  -3.811  -2.134  0.00  0.00    -0.070 Cl
ATOM      8 Cl1  UNL d   1       0.838  -3.378   0.518  0.00  0.00    -0.070 Cl
ENDROOT
TORSDOF 0
ENDMDL
