MODEL 1
REMARK minimizedAffinity 10.2907362
REMARK minimizedRMSD -1
REMARK  0 active torsions:
REMARK  status: ('A' for Active; 'I' for Inactive)
ROOT
ATOM      1  C   UNL d   1      -1.315  -4.968  -2.087  0.00  0.00     0.020 A 
ATOM      2  C1  UNL d   1      -2.627  -4.534  -2.273  0.00  0.00     0.020 A 
ATOM      3  C2  UNL d   1      -2.901  -3.169  -2.387  0.00  0.00     0.034 A 
ATOM      4  C3  UNL d   1      -1.862  -2.234  -2.316  0.00  0.00     0.017 A 
ATOM      5  C4  UNL d   1      -0.546  -2.671  -2.129  0.00  0.00     0.017 A 
ATOM      6  C5  UNL d   1      -0.277  -4.038  -2.015  0.00  0.00     0.034 A 
ATOM      7 Cl   UNL d   1       0.789  -1.577  -2.031  0.00  0.00    -0.070 Cl
ATOM      8 Cl1  UNL d   1      -2.274  -0.563  -2.465  0.00  0.00    -0.070 Cl
ENDROOT
TORSDOF 0
ENDMDL
