MODEL 1
REMARK minimizedAffinity 6.73050356
REMARK minimizedRMSD -1
REMARK  0 active torsions:
REMARK  status: ('A' for Active; 'I' for Inactive)
ROOT
ATOM      1  C   UNL d   1       0.298  -3.735  -0.737  0.00  0.00     0.020 A 
ATOM      2  C1  UNL d   1      -0.355  -3.522  -1.950  0.00  0.00     0.020 A 
ATOM      3  C2  UNL d   1      -0.107  -2.359  -2.682  0.00  0.00     0.034 A 
ATOM      4  C3  UNL d   1       0.796  -1.404  -2.200  0.00  0.00     0.017 A 
ATOM      5  C4  UNL d   1       1.451  -1.618  -0.982  0.00  0.00     0.017 A 
ATOM      6  C5  UNL d   1       1.199  -2.785  -0.254  0.00  0.00     0.034 A 
ATOM      7 Cl   UNL d   1       2.578  -0.486  -0.324  0.00  0.00    -0.070 Cl
ATOM      8 Cl1  UNL d   1       1.055   0.012  -3.157  0.00  0.00    -0.070 Cl
ENDROOT
TORSDOF 0
ENDMDL
