MODEL 1
REMARK minimizedAffinity 8.77386951
REMARK minimizedRMSD -1
REMARK  0 active torsions:
REMARK  status: ('A' for Active; 'I' for Inactive)
ROOT
ATOM      1  C   UNL d   1       3.401   3.812   1.782  0.00  0.00     0.020 A 
ATOM      2  C1  UNL d   1       2.124   3.761   2.338  0.00  0.00     0.020 A 
ATOM      3  C2  UNL d   1       1.398   2.568   2.310  0.00  0.00     0.034 A 
ATOM      4  C3  UNL d   1       1.948   1.422   1.725  0.00  0.00     0.017 A 
ATOM      5  C4  UNL d   1       3.231   1.475   1.167  0.00  0.00     0.017 A 
ATOM      6  C5  UNL d   1       3.954   2.671   1.198  0.00  0.00     0.034 A 
ATOM      7 Cl   UNL d   1       3.977   0.102   0.428  0.00  0.00    -0.070 Cl
ATOM      8 Cl1  UNL d   1       0.994  -0.018   1.726  0.00  0.00    -0.070 Cl
ENDROOT
TORSDOF 0
ENDMDL
