MODEL 1
REMARK minimizedAffinity 19.2722816
REMARK minimizedRMSD -1
REMARK  0 active torsions:
REMARK  status: ('A' for Active; 'I' for Inactive)
ROOT
ATOM      1  C   UNL d   1       1.385   2.313  -3.192  0.00  0.00     0.020 A 
ATOM      2  C1  UNL d   1       0.863   1.085  -3.594  0.00  0.00     0.020 A 
ATOM      3  C2  UNL d   1       1.240  -0.085  -2.931  0.00  0.00     0.034 A 
ATOM      4  C3  UNL d   1       2.143  -0.029  -1.863  0.00  0.00     0.017 A 
ATOM      5  C4  UNL d   1       2.667   1.205  -1.460  0.00  0.00     0.017 A 
ATOM      6  C5  UNL d   1       2.286   2.373  -2.128  0.00  0.00     0.034 A 
ATOM      7 Cl   UNL d   1       3.786   1.354  -0.151  0.00  0.00    -0.070 Cl
ATOM      8 Cl1  UNL d   1       2.566  -1.514  -1.089  0.00  0.00    -0.070 Cl
ENDROOT
TORSDOF 0
ENDMDL
