MODEL 1
REMARK minimizedAffinity 15.7843084
REMARK minimizedRMSD -1
REMARK  0 active torsions:
REMARK  status: ('A' for Active; 'I' for Inactive)
ROOT
ATOM      1  C2' OXE d   1      -5.833   5.167   1.428  0.00  0.00     0.078 C 
ATOM      2  C1' OXE d   1      -5.994   2.534   2.388  0.00  0.00     0.078 C 
ATOM      3  C1  OXE d   1      -5.904   3.648   3.401  0.00  0.00    -0.078 A 
ATOM      4  C2  OXE d   1      -5.778   4.930   2.922  0.00  0.00    -0.078 A 
ATOM      5  C3  OXE d   1      -5.747   5.999   3.812  0.00  0.00     0.003 A 
ATOM      6  C4  OXE d   1      -5.686   5.770   5.192  0.00  0.00    -0.002 A 
ATOM      7  C5  OXE d   1      -5.772   4.470   5.701  0.00  0.00    -0.002 A 
ATOM      8  C6  OXE d   1      -5.924   3.403   4.822  0.00  0.00     0.003 A 
ENDROOT
TORSDOF 0
ENDMDL
