MODEL 1
REMARK minimizedAffinity 12.3880415
REMARK minimizedRMSD -1
REMARK  0 active torsions:
REMARK  status: ('A' for Active; 'I' for Inactive)
ROOT
ATOM      1  C2' OXE d   1      -5.324   0.305  -3.799  0.00  0.00     0.078 C 
ATOM      2  C1' OXE d   1      -2.629   0.367  -3.016  0.00  0.00     0.078 C 
ATOM      3  C1  OXE d   1      -3.677   0.350  -1.931  0.00  0.00    -0.078 A 
ATOM      4  C2  OXE d   1      -4.994   0.367  -2.324  0.00  0.00    -0.078 A 
ATOM      5  C3  OXE d   1      -6.000   0.297  -1.364  0.00  0.00     0.003 A 
ATOM      6  C4  OXE d   1      -5.686   0.365  -0.001  0.00  0.00    -0.002 A 
ATOM      7  C5  OXE d   1      -4.352   0.388   0.419  0.00  0.00    -0.002 A 
ATOM      8  C6  OXE d   1      -3.337   0.338  -0.530  0.00  0.00     0.003 A 
ENDROOT
TORSDOF 0
ENDMDL
