MODEL 1
REMARK minimizedAffinity 14.6048613
REMARK minimizedRMSD -1
REMARK  0 active torsions:
REMARK  status: ('A' for Active; 'I' for Inactive)
ROOT
ATOM      1  C2' OXE d   1      -1.493  -5.997   1.770  0.00  0.00     0.078 C 
ATOM      2  C1' OXE d   1       0.451  -4.303   0.661  0.00  0.00     0.078 C 
ATOM      3  C1  OXE d   1      -0.689  -4.741  -0.225  0.00  0.00    -0.078 A 
ATOM      4  C2  OXE d   1      -1.610  -5.607   0.312  0.00  0.00    -0.078 A 
ATOM      5  C3  OXE d   1      -2.711  -6.000  -0.444  0.00  0.00     0.003 A 
ATOM      6  C4  OXE d   1      -2.806  -5.644  -1.795  0.00  0.00    -0.002 A 
ATOM      7  C5  OXE d   1      -1.857  -4.794  -2.373  0.00  0.00    -0.002 A 
ATOM      8  C6  OXE d   1      -0.818  -4.301  -1.592  0.00  0.00     0.003 A 
ENDROOT
TORSDOF 0
ENDMDL
