MODEL 1
REMARK minimizedAffinity 3.08311367
REMARK minimizedRMSD -1
REMARK  0 active torsions:
REMARK  status: ('A' for Active; 'I' for Inactive)
ROOT
ATOM      1  C2' OXE d   1       2.405  -1.897   1.046  0.00  0.00     0.078 C 
ATOM      2  C1' OXE d   1       1.884  -1.766  -1.710  0.00  0.00     0.078 C 
ATOM      3  C1  OXE d   1       2.565  -0.584  -1.065  0.00  0.00    -0.078 A 
ATOM      4  C2  OXE d   1       2.773  -0.637   0.292  0.00  0.00    -0.078 A 
ATOM      5  C3  OXE d   1       3.446   0.403   0.927  0.00  0.00     0.003 A 
ATOM      6  C4  OXE d   1       3.774   1.568   0.224  0.00  0.00    -0.002 A 
ATOM      7  C5  OXE d   1       3.535   1.659  -1.151  0.00  0.00    -0.002 A 
ATOM      8  C6  OXE d   1       2.971   0.577  -1.817  0.00  0.00     0.003 A 
ENDROOT
TORSDOF 0
ENDMDL
