MODEL 1
REMARK minimizedAffinity 9.17054844
REMARK minimizedRMSD -1
REMARK  0 active torsions:
REMARK  status: ('A' for Active; 'I' for Inactive)
ROOT
ATOM      1  C2' OXE d   1       3.412   0.168  -4.118  0.00  0.00     0.078 C 
ATOM      2  C1' OXE d   1       6.000   0.761  -5.029  0.00  0.00     0.078 C 
ATOM      3  C1  OXE d   1       5.337   1.749  -4.102  0.00  0.00    -0.078 A 
ATOM      4  C2  OXE d   1       4.053   1.473  -3.698  0.00  0.00    -0.078 A 
ATOM      5  C3  OXE d   1       3.415   2.324  -2.800  0.00  0.00     0.003 A 
ATOM      6  C4  OXE d   1       4.011   3.534  -2.425  0.00  0.00    -0.002 A 
ATOM      7  C5  OXE d   1       5.303   3.853  -2.856  0.00  0.00    -0.002 A 
ATOM      8  C6  OXE d   1       5.995   2.953  -3.659  0.00  0.00     0.003 A 
ENDROOT
TORSDOF 0
ENDMDL
