MODEL 1
REMARK minimizedAffinity 6.62387657
REMARK minimizedRMSD -1
REMARK  0 active torsions:
REMARK  status: ('A' for Active; 'I' for Inactive)
ROOT
ATOM      1  C2' OXE d   1       1.412  -2.072  -1.353  0.00  0.00     0.078 C 
ATOM      2  C1' OXE d   1      -0.655  -1.825  -3.236  0.00  0.00     0.078 C 
ATOM      3  C1  OXE d   1      -0.779  -2.908  -2.193  0.00  0.00    -0.078 A 
ATOM      4  C2  OXE d   1       0.259  -3.051  -1.304  0.00  0.00    -0.078 A 
ATOM      5  C3  OXE d   1       0.170  -3.998  -0.288  0.00  0.00     0.003 A 
ATOM      6  C4  OXE d   1      -0.895  -4.906  -0.256  0.00  0.00    -0.002 A 
ATOM      7  C5  OXE d   1      -1.944  -4.803  -1.176  0.00  0.00    -0.002 A 
ATOM      8  C6  OXE d   1      -1.922  -3.785  -2.123  0.00  0.00     0.003 A 
ENDROOT
TORSDOF 0
ENDMDL
