MODEL 1
REMARK minimizedAffinity 13.717845
REMARK minimizedRMSD -1
REMARK  0 active torsions:
REMARK  status: ('A' for Active; 'I' for Inactive)
ROOT
ATOM      1  C2' OXE d   1       4.887   4.081  -1.184  0.00  0.00     0.078 C 
ATOM      2  C1' OXE d   1       4.742   3.449   1.548  0.00  0.00     0.078 C 
ATOM      3  C1  OXE d   1       4.178   2.454   0.565  0.00  0.00    -0.078 A 
ATOM      4  C2  OXE d   1       4.211   2.792  -0.767  0.00  0.00    -0.078 A 
ATOM      5  C3  OXE d   1       3.754   1.887  -1.720  0.00  0.00     0.003 A 
ATOM      6  C4  OXE d   1       3.121   0.701  -1.325  0.00  0.00    -0.002 A 
ATOM      7  C5  OXE d   1       3.042   0.356   0.028  0.00  0.00    -0.002 A 
ATOM      8  C6  OXE d   1       3.602   1.199   0.981  0.00  0.00     0.003 A 
ENDROOT
TORSDOF 0
ENDMDL
