MODEL 1
REMARK minimizedAffinity 23.1561184
REMARK minimizedRMSD -1
REMARK  0 active torsions:
REMARK  status: ('A' for Active; 'I' for Inactive)
ROOT
ATOM      1  C2' OXE d   1       5.265   1.187   0.787  0.00  0.00     0.078 C 
ATOM      2  C1' OXE d   1       5.847   3.759   1.748  0.00  0.00     0.078 C 
ATOM      3  C1  OXE d   1       5.792   3.562   0.253  0.00  0.00    -0.078 A 
ATOM      4  C2  OXE d   1       5.552   2.290  -0.208  0.00  0.00    -0.078 A 
ATOM      5  C3  OXE d   1       5.436   2.064  -1.577  0.00  0.00     0.003 A 
ATOM      6  C4  OXE d   1       5.713   3.088  -2.490  0.00  0.00    -0.002 A 
ATOM      7  C5  OXE d   1       5.998   4.382  -2.042  0.00  0.00    -0.002 A 
ATOM      8  C6  OXE d   1       5.999   4.645  -0.676  0.00  0.00     0.003 A 
ENDROOT
TORSDOF 0
ENDMDL
