MODEL 1
REMARK minimizedAffinity 0.562176108
REMARK minimizedRMSD -1
REMARK  0 active torsions:
REMARK  status: ('A' for Active; 'I' for Inactive)
ROOT
ATOM      1  C2' OXE d   1      -4.799  -0.393  -1.115  0.00  0.00     0.078 C 
ATOM      2  C1' OXE d   1      -6.000   0.831  -3.337  0.00  0.00     0.078 C 
ATOM      3  C1  OXE d   1      -5.486   1.723  -2.235  0.00  0.00    -0.078 A 
ATOM      4  C2  OXE d   1      -4.942   1.114  -1.130  0.00  0.00    -0.078 A 
ATOM      5  C3  OXE d   1      -4.403   1.891  -0.109  0.00  0.00     0.003 A 
ATOM      6  C4  OXE d   1      -4.548   3.284  -0.126  0.00  0.00    -0.002 A 
ATOM      7  C5  OXE d   1      -5.135   3.923  -1.223  0.00  0.00    -0.002 A 
ATOM      8  C6  OXE d   1      -5.570   3.161  -2.303  0.00  0.00     0.003 A 
ENDROOT
TORSDOF 0
ENDMDL
