MODEL 1
REMARK minimizedAffinity 0.296963781
REMARK minimizedRMSD -1
REMARK  1 active torsions:
REMARK  status: ('A' for Active; 'I' for Inactive)
REMARK    1  A    between atoms: C1_2  and  C2_3 
ROOT
ATOM      1  C2  UNL d   1       0.320   0.484   0.263  0.00  0.00    -0.077 A 
ATOM      2  C3  UNL d   1      -0.107   1.433   1.204  0.00  0.00     0.002 A 
ATOM      3  C4  UNL d   1       0.073   1.203   2.569  0.00  0.00     0.002 A 
ATOM      4  C5  UNL d   1       0.683   0.029   3.006  0.00  0.00    -0.004 A 
ATOM      5  C6  UNL d   1       1.108  -0.921   2.078  0.00  0.00     0.002 A 
ATOM      6  C7  UNL d   1       0.928  -0.694   0.713  0.00  0.00     0.002 A 
ENDROOT
BRANCH   1   7
ATOM      7  C1  UNL d   1       0.171   0.752  -1.212  0.00  0.00     0.055 C 
ATOM      8  C   UNL d   1      -0.619   2.027  -1.466  0.00  0.00     0.019 C 
ENDBRANCH   1   7
TORSDOF 1
ENDMDL
