MODEL 1
REMARK minimizedAffinity 4.66450071
REMARK minimizedRMSD -1
REMARK  1 active torsions:
REMARK  status: ('A' for Active; 'I' for Inactive)
REMARK    1  A    between atoms: C1_2  and  C2_3 
ROOT
ATOM      1  C2  UNL d   1       0.393  -0.050   0.708  0.00  0.00    -0.077 A 
ATOM      2  C3  UNL d   1       1.461  -0.862   0.302  0.00  0.00     0.002 A 
ATOM      3  C4  UNL d   1       1.842  -0.909  -1.041  0.00  0.00     0.002 A 
ATOM      4  C5  UNL d   1       1.165  -0.143  -1.986  0.00  0.00    -0.004 A 
ATOM      5  C6  UNL d   1       0.100   0.667  -1.593  0.00  0.00     0.002 A 
ATOM      6  C7  UNL d   1      -0.284   0.714  -0.252  0.00  0.00     0.002 A 
ENDROOT
BRANCH   1   7
ATOM      7  C1  UNL d   1       0.012   0.040   2.162  0.00  0.00     0.055 C 
ATOM      8  C   UNL d   1       0.000   1.483   2.643  0.00  0.00     0.019 C 
ENDBRANCH   1   7
TORSDOF 1
ENDMDL
