MODEL 1
REMARK minimizedAffinity 4.62270212
REMARK minimizedRMSD -1
REMARK  1 active torsions:
REMARK  status: ('A' for Active; 'I' for Inactive)
REMARK    1  A    between atoms: C1_2  and  C2_3 
ROOT
ATOM      1  C2  UNL d   1      -0.055   2.690   0.757  0.00  0.00    -0.077 A 
ATOM      2  C3  UNL d   1      -0.189   1.579  -0.088  0.00  0.00     0.002 A 
ATOM      3  C4  UNL d   1      -0.442   1.754  -1.450  0.00  0.00     0.002 A 
ATOM      4  C5  UNL d   1      -0.557   3.038  -1.979  0.00  0.00    -0.004 A 
ATOM      5  C6  UNL d   1      -0.427   4.149  -1.147  0.00  0.00     0.002 A 
ATOM      6  C7  UNL d   1      -0.176   3.976   0.215  0.00  0.00     0.002 A 
ENDROOT
BRANCH   1   7
ATOM      7  C1  UNL d   1       0.267   2.504   2.217  0.00  0.00     0.055 C 
ATOM      8  C   UNL d   1      -0.437   1.281   2.787  0.00  0.00     0.019 C 
ENDBRANCH   1   7
TORSDOF 1
ENDMDL
