MODEL 1
REMARK minimizedAffinity 2.73531795
REMARK minimizedRMSD -1
REMARK  1 active torsions:
REMARK  status: ('A' for Active; 'I' for Inactive)
REMARK    1  A    between atoms: C1_2  and  C2_3 
ROOT
ATOM      1  C2  UNL d   1      -0.798   2.190  -0.141  0.00  0.00    -0.077 A 
ATOM      2  C3  UNL d   1       0.156   1.221  -0.482  0.00  0.00     0.002 A 
ATOM      3  C4  UNL d   1       0.277   0.783  -1.802  0.00  0.00     0.002 A 
ATOM      4  C5  UNL d   1      -0.549   1.312  -2.792  0.00  0.00    -0.004 A 
ATOM      5  C6  UNL d   1      -1.501   2.275  -2.463  0.00  0.00     0.002 A 
ATOM      6  C7  UNL d   1      -1.625   2.713  -1.144  0.00  0.00     0.002 A 
ENDROOT
BRANCH   1   7
ATOM      7  C1  UNL d   1      -0.897   2.700   1.273  0.00  0.00     0.055 C 
ATOM      8  C   UNL d   1       0.103   2.002   2.184  0.00  0.00     0.019 C 
ENDBRANCH   1   7
TORSDOF 1
ENDMDL
