MODEL 1
REMARK minimizedAffinity 3.04648352
REMARK minimizedRMSD -1
REMARK  1 active torsions:
REMARK  status: ('A' for Active; 'I' for Inactive)
REMARK    1  A    between atoms: C1_2  and  C2_3 
ROOT
ATOM      1  C2  UNL d   1       1.949  -3.228  -2.496  0.00  0.00    -0.077 A 
ATOM      2  C3  UNL d   1       1.921  -3.317  -3.895  0.00  0.00     0.002 A 
ATOM      3  C4  UNL d   1       2.211  -4.526  -4.532  0.00  0.00     0.002 A 
ATOM      4  C5  UNL d   1       2.525  -5.655  -3.777  0.00  0.00    -0.004 A 
ATOM      5  C6  UNL d   1       2.557  -5.576  -2.386  0.00  0.00     0.002 A 
ATOM      6  C7  UNL d   1       2.269  -4.368  -1.748  0.00  0.00     0.002 A 
ENDROOT
BRANCH   1   7
ATOM      7  C1  UNL d   1       1.588  -1.938  -1.806  0.00  0.00     0.055 C 
ATOM      8  C   UNL d   1       2.721  -1.453  -0.914  0.00  0.00     0.019 C 
ENDBRANCH   1   7
TORSDOF 1
ENDMDL
