MODEL 1
REMARK minimizedAffinity 5.27253056
REMARK minimizedRMSD -1
REMARK  0 active torsions:
REMARK  status: ('A' for Active; 'I' for Inactive)
ROOT
ATOM      1  C   UNL d   1       3.179   0.586   3.374  0.00  0.00     0.172 C 
ATOM      2  N   UNL d   1       1.886   0.031   3.051  0.00  0.00    -0.070 N 
ATOM      3  C1  UNL d   1       1.453  -1.227   3.378  0.00  0.00    -0.004 A 
ATOM      4  C2  UNL d   1       0.171  -1.371   2.893  0.00  0.00    -0.047 A 
ATOM      5  C3  UNL d   1      -0.178  -0.158   2.253  0.00  0.00    -0.047 A 
ATOM      6  C4  UNL d   1       0.902   0.692   2.365  0.00  0.00    -0.004 A 
ENDROOT
TORSDOF 0
ENDMDL
