MODEL 1
REMARK minimizedAffinity 2.97905445
REMARK minimizedRMSD -1
REMARK  0 active torsions:
REMARK  status: ('A' for Active; 'I' for Inactive)
ROOT
ATOM      1  C   UNL d   1       0.013  -0.987   1.986  0.00  0.00     0.172 C 
ATOM      2  N   UNL d   1       0.152   0.016   3.015  0.00  0.00    -0.070 N 
ATOM      3  C1  UNL d   1       0.957  -0.080   4.119  0.00  0.00    -0.004 A 
ATOM      4  C2  UNL d   1       0.808   1.078   4.852  0.00  0.00    -0.047 A 
ATOM      5  C3  UNL d   1      -0.120   1.897   4.165  0.00  0.00    -0.047 A 
ATOM      6  C4  UNL d   1      -0.510   1.215   3.032  0.00  0.00    -0.004 A 
ENDROOT
TORSDOF 0
ENDMDL
