MODEL 1
REMARK minimizedAffinity 8.16174603
REMARK minimizedRMSD -1
REMARK  0 active torsions:
REMARK  status: ('A' for Active; 'I' for Inactive)
ROOT
ATOM      1  C   UNL d   1       0.336  -0.665  -4.274  0.00  0.00     0.172 C 
ATOM      2  N   UNL d   1       0.707  -1.917  -4.890  0.00  0.00    -0.070 N 
ATOM      3  C1  UNL d   1       1.972  -2.437  -4.944  0.00  0.00    -0.004 A 
ATOM      4  C2  UNL d   1       1.907  -3.640  -5.613  0.00  0.00    -0.047 A 
ATOM      5  C3  UNL d   1       0.555  -3.850  -5.975  0.00  0.00    -0.047 A 
ATOM      6  C4  UNL d   1      -0.166  -2.768  -5.515  0.00  0.00    -0.004 A 
ENDROOT
TORSDOF 0
ENDMDL
