MODEL 1
REMARK minimizedAffinity 6.32948256
REMARK minimizedRMSD -1
REMARK  0 active torsions:
REMARK  status: ('A' for Active; 'I' for Inactive)
ROOT
ATOM      1  C   UNL d   1       1.310  -3.108   3.704  0.00  0.00     0.172 C 
ATOM      2  N   UNL d   1       0.716  -1.896   3.192  0.00  0.00    -0.070 N 
ATOM      3  C1  UNL d   1      -0.341  -1.829   2.324  0.00  0.00    -0.004 A 
ATOM      4  C2  UNL d   1      -0.605  -0.499   2.081  0.00  0.00    -0.047 A 
ATOM      5  C3  UNL d   1       0.326   0.261   2.828  0.00  0.00    -0.047 A 
ATOM      6  C4  UNL d   1       1.132  -0.629   3.507  0.00  0.00    -0.004 A 
ENDROOT
TORSDOF 0
ENDMDL
