MODEL 1
REMARK minimizedAffinity 2.1941402
REMARK minimizedRMSD -1
REMARK  0 active torsions:
REMARK  status: ('A' for Active; 'I' for Inactive)
ROOT
ATOM      1  C   UNL d   1       0.759  -1.473   3.577  0.00  0.00     0.172 C 
ATOM      2  N   UNL d   1      -0.244  -0.465   3.326  0.00  0.00    -0.070 N 
ATOM      3  C1  UNL d   1      -0.240   0.808   3.830  0.00  0.00    -0.004 A 
ATOM      4  C2  UNL d   1      -1.363   1.452   3.358  0.00  0.00    -0.047 A 
ATOM      5  C3  UNL d   1      -2.066   0.535   2.542  0.00  0.00    -0.047 A 
ATOM      6  C4  UNL d   1      -1.351  -0.645   2.540  0.00  0.00    -0.004 A 
ENDROOT
TORSDOF 0
ENDMDL
