MODEL 1
REMARK minimizedAffinity 4.09127712
REMARK minimizedRMSD -1
REMARK  0 active torsions:
REMARK  status: ('A' for Active; 'I' for Inactive)
ROOT
ATOM      1  C   UNL d   1      -1.629  -0.543   1.954  0.00  0.00     0.172 C 
ATOM      2  N   UNL d   1      -0.297  -0.373   2.484  0.00  0.00    -0.070 N 
ATOM      3  C1  UNL d   1       0.092   0.597   3.369  0.00  0.00    -0.004 A 
ATOM      4  C2  UNL d   1       1.434   0.419   3.627  0.00  0.00    -0.047 A 
ATOM      5  C3  UNL d   1       1.867  -0.696   2.871  0.00  0.00    -0.047 A 
ATOM      6  C4  UNL d   1       0.775  -1.167   2.173  0.00  0.00    -0.004 A 
ENDROOT
TORSDOF 0
ENDMDL
