MODEL 1
REMARK minimizedAffinity 6.73159075
REMARK minimizedRMSD -1
REMARK  0 active torsions:
REMARK  status: ('A' for Active; 'I' for Inactive)
ROOT
ATOM      1  C   UNL d   1      -0.553  -2.741  -2.150  0.00  0.00     0.172 C 
ATOM      2  N   UNL d   1      -0.144  -1.832  -3.195  0.00  0.00    -0.070 N 
ATOM      3  C1  UNL d   1      -0.170  -0.465  -3.120  0.00  0.00    -0.004 A 
ATOM      4  C2  UNL d   1       0.298   0.032  -4.317  0.00  0.00    -0.047 A 
ATOM      5  C3  UNL d   1       0.616  -1.074  -5.141  0.00  0.00    -0.047 A 
ATOM      6  C4  UNL d   1       0.332  -2.216  -4.421  0.00  0.00    -0.004 A 
ENDROOT
TORSDOF 0
ENDMDL
