MODEL 1
REMARK minimizedAffinity 11.0390825
REMARK minimizedRMSD -1
REMARK  0 active torsions:
REMARK  status: ('A' for Active; 'I' for Inactive)
ROOT
ATOM      1  C   UNL d   1      -0.202   0.484   3.103  0.00  0.00     0.172 C 
ATOM      2  N   UNL d   1      -0.463   1.503   4.094  0.00  0.00    -0.070 N 
ATOM      3  C1  UNL d   1       0.010   1.506   5.379  0.00  0.00    -0.004 A 
ATOM      4  C2  UNL d   1      -0.460   2.643   5.999  0.00  0.00    -0.047 A 
ATOM      5  C3  UNL d   1      -1.242   3.348   5.053  0.00  0.00    -0.047 A 
ATOM      6  C4  UNL d   1      -1.227   2.620   3.883  0.00  0.00    -0.004 A 
ENDROOT
TORSDOF 0
ENDMDL
