MODEL 1
REMARK minimizedAffinity 3.46466303
REMARK minimizedRMSD -1
REMARK  0 active torsions:
REMARK  status: ('A' for Active; 'I' for Inactive)
ROOT
ATOM      1  C   UNL d   1       0.747   1.518   5.478  0.00  0.00     0.172 C 
ATOM      2  N   UNL d   1       0.690   0.613   4.354  0.00  0.00    -0.070 N 
ATOM      3  C1  UNL d   1       1.525  -0.452   4.142  0.00  0.00    -0.004 A 
ATOM      4  C2  UNL d   1       1.144  -1.060   2.966  0.00  0.00    -0.047 A 
ATOM      5  C3  UNL d   1       0.042  -0.336   2.452  0.00  0.00    -0.047 A 
ATOM      6  C4  UNL d   1      -0.218   0.694   3.331  0.00  0.00    -0.004 A 
ENDROOT
TORSDOF 0
ENDMDL
