MODEL 1
REMARK minimizedAffinity 6.36569071
REMARK minimizedRMSD -1
REMARK  0 active torsions:
REMARK  status: ('A' for Active; 'I' for Inactive)
ROOT
ATOM      1  C   UNL d   1       2.971   0.191  -4.818  0.00  0.00     0.172 C 
ATOM      2  N   UNL d   1       1.670  -0.325  -4.464  0.00  0.00    -0.070 N 
ATOM      3  C1  UNL d   1       0.759  -0.861  -5.335  0.00  0.00    -0.004 A 
ATOM      4  C2  UNL d   1      -0.350  -1.235  -4.607  0.00  0.00    -0.047 A 
ATOM      5  C3  UNL d   1      -0.098  -0.912  -3.253  0.00  0.00    -0.047 A 
ATOM      6  C4  UNL d   1       1.160  -0.350  -3.192  0.00  0.00    -0.004 A 
ENDROOT
TORSDOF 0
ENDMDL
