MODEL 1
REMARK minimizedAffinity 7.92058611
REMARK minimizedRMSD -1
REMARK  0 active torsions:
REMARK  status: ('A' for Active; 'I' for Inactive)
ROOT
ATOM      1  C   UNL d   1      -2.476  -0.772   2.334  0.00  0.00     0.172 C 
ATOM      2  N   UNL d   1      -1.043  -0.645   2.455  0.00  0.00    -0.070 N 
ATOM      3  C1  UNL d   1      -0.386   0.261   3.244  0.00  0.00    -0.004 A 
ATOM      4  C2  UNL d   1       0.968   0.059   3.081  0.00  0.00    -0.047 A 
ATOM      5  C3  UNL d   1       1.129  -1.005   2.162  0.00  0.00    -0.047 A 
ATOM      6  C4  UNL d   1      -0.131  -1.422   1.791  0.00  0.00    -0.004 A 
ENDROOT
TORSDOF 0
ENDMDL
