MODEL 1
REMARK minimizedAffinity -0.140463889
REMARK minimizedRMSD -1
REMARK  0 active torsions:
REMARK  status: ('A' for Active; 'I' for Inactive)
ROOT
ATOM      1  O1  BZF d   1       2.647  -1.356   0.806  0.00  0.00    -0.204 OA
ATOM      2  C2  BZF d   1       2.415  -0.961   2.109  0.00  0.00     0.174 A 
ATOM      3  C3  BZF d   1       1.342  -0.146   2.179  0.00  0.00    -0.012 A 
ATOM      4  C3A BZF d   1       0.820  -0.097   0.848  0.00  0.00    -0.107 A 
ATOM      5  C4  BZF d   1      -0.250   0.535   0.282  0.00  0.00     0.055 A 
ATOM      6  C5  BZF d   1      -0.442   0.436  -1.060  0.00  0.00    -0.016 A 
ATOM      7  C6  BZF d   1       0.418  -0.282  -1.865  0.00  0.00     0.022 A 
ATOM      8  C7  BZF d   1       1.490  -0.930  -1.349  0.00  0.00     0.029 A 
ATOM      9  C7A BZF d   1       1.668  -0.859   0.011  0.00  0.00     0.058 A 
ENDROOT
TORSDOF 0
ENDMDL
