MODEL 1
REMARK minimizedAffinity -3.89763093
REMARK minimizedRMSD -1
REMARK  0 active torsions:
REMARK  status: ('A' for Active; 'I' for Inactive)
ROOT
ATOM      1  O1  BZF d   1      -1.653  -0.128  -0.894  0.00  0.00    -0.204 OA
ATOM      2  C2  BZF d   1      -0.744  -0.036  -1.930  0.00  0.00     0.174 A 
ATOM      3  C3  BZF d   1       0.519  -0.140  -1.469  0.00  0.00    -0.012 A 
ATOM      4  C3A BZF d   1       0.388  -0.400  -0.068  0.00  0.00    -0.107 A 
ATOM      5  C4  BZF d   1       1.290  -0.615   0.935  0.00  0.00     0.055 A 
ATOM      6  C5  BZF d   1       0.838  -0.765   2.208  0.00  0.00    -0.016 A 
ATOM      7  C6  BZF d   1      -0.505  -0.700   2.514  0.00  0.00     0.022 A 
ATOM      8  C7  BZF d   1      -1.438  -0.494   1.552  0.00  0.00     0.029 A 
ATOM      9  C7A BZF d   1      -0.987  -0.375   0.260  0.00  0.00     0.058 A 
ENDROOT
TORSDOF 0
ENDMDL
