MODEL 1
REMARK minimizedAffinity -3.35220623
REMARK minimizedRMSD -1
REMARK  0 active torsions:
REMARK  status: ('A' for Active; 'I' for Inactive)
ROOT
ATOM      1  O1  BZF d   1       1.708  -1.056   0.775  0.00  0.00    -0.204 OA
ATOM      2  C2  BZF d   1       1.414  -1.289   2.105  0.00  0.00     0.174 A 
ATOM      3  C3  BZF d   1       0.216  -0.761   2.429  0.00  0.00    -0.012 A 
ATOM      4  C3A BZF d   1      -0.310  -0.241   1.204  0.00  0.00    -0.107 A 
ATOM      5  C4  BZF d   1      -1.475   0.392   0.876  0.00  0.00     0.055 A 
ATOM      6  C5  BZF d   1      -1.649   0.837  -0.396  0.00  0.00    -0.016 A 
ATOM      7  C6  BZF d   1      -0.679   0.672  -1.363  0.00  0.00     0.022 A 
ATOM      8  C7  BZF d   1       0.491   0.046  -1.086  0.00  0.00     0.029 A 
ATOM      9  C7A BZF d   1       0.657  -0.434   0.190  0.00  0.00     0.058 A 
ENDROOT
TORSDOF 0
ENDMDL
