MODEL 1
REMARK minimizedAffinity -3.57206154
REMARK minimizedRMSD -1
REMARK  0 active torsions:
REMARK  status: ('A' for Active; 'I' for Inactive)
ROOT
ATOM      1  O1  BZF d   1       0.466   0.431   1.527  0.00  0.00    -0.204 OA
ATOM      2  C2  BZF d   1       1.736  -0.077   1.721  0.00  0.00     0.174 A 
ATOM      3  C3  BZF d   1       2.234  -0.573   0.570  0.00  0.00    -0.012 A 
ATOM      4  C3A BZF d   1       1.247  -0.278  -0.424  0.00  0.00    -0.107 A 
ATOM      5  C4  BZF d   1       1.173  -0.506  -1.769  0.00  0.00     0.055 A 
ATOM      6  C5  BZF d   1       0.040  -0.159  -2.435  0.00  0.00    -0.016 A 
ATOM      7  C6  BZF d   1      -1.037   0.412  -1.789  0.00  0.00     0.022 A 
ATOM      8  C7  BZF d   1      -1.007   0.662  -0.457  0.00  0.00     0.029 A 
ATOM      9  C7A BZF d   1       0.148   0.342   0.213  0.00  0.00     0.058 A 
ENDROOT
TORSDOF 0
ENDMDL
