MODEL 1
REMARK minimizedAffinity -3.05496335
REMARK minimizedRMSD -1
REMARK  0 active torsions:
REMARK  status: ('A' for Active; 'I' for Inactive)
ROOT
ATOM      1  O1  BZF d   1       1.663  -0.943  -0.154  0.00  0.00    -0.204 OA
ATOM      2  C2  BZF d   1       1.189  -0.623  -1.412  0.00  0.00     0.174 A 
ATOM      3  C3  BZF d   1      -0.113  -0.275  -1.357  0.00  0.00    -0.012 A 
ATOM      4  C3A BZF d   1      -0.450  -0.295   0.033  0.00  0.00    -0.107 A 
ATOM      5  C4  BZF d   1      -1.596  -0.025   0.726  0.00  0.00     0.055 A 
ATOM      6  C5  BZF d   1      -1.613  -0.211   2.072  0.00  0.00    -0.016 A 
ATOM      7  C6  BZF d   1      -0.507  -0.670   2.756  0.00  0.00     0.022 A 
ATOM      8  C7  BZF d   1       0.654  -0.947   2.113  0.00  0.00     0.029 A 
ATOM      9  C7A BZF d   1       0.685  -0.728   0.757  0.00  0.00     0.058 A 
ENDROOT
TORSDOF 0
ENDMDL
