MODEL 1
REMARK minimizedAffinity -5.3184309
REMARK minimizedRMSD -1
REMARK  0 active torsions:
REMARK  status: ('A' for Active; 'I' for Inactive)
ROOT
ATOM      1  O1  BZF d   1       0.169  -0.724   2.888  0.00  0.00    -0.204 OA
ATOM      2  C2  BZF d   1       1.541  -0.884   2.875  0.00  0.00     0.174 A 
ATOM      3  C3  BZF d   1       2.032  -0.702   1.632  0.00  0.00    -0.012 A 
ATOM      4  C3A BZF d   1       0.906  -0.320   0.835  0.00  0.00    -0.107 A 
ATOM      5  C4  BZF d   1       0.757   0.011  -0.481  0.00  0.00     0.055 A 
ATOM      6  C5  BZF d   1      -0.489   0.264  -0.961  0.00  0.00    -0.016 A 
ATOM      7  C6  BZF d   1      -1.606   0.190  -0.156  0.00  0.00     0.022 A 
ATOM      8  C7  BZF d   1      -1.508  -0.130   1.157  0.00  0.00     0.029 A 
ATOM      9  C7A BZF d   1      -0.247  -0.353   1.653  0.00  0.00     0.058 A 
ENDROOT
TORSDOF 0
ENDMDL
