MODEL 1
REMARK minimizedAffinity -2.4486053
REMARK minimizedRMSD -1
REMARK  0 active torsions:
REMARK  status: ('A' for Active; 'I' for Inactive)
ROOT
ATOM      1  C   UNL d   1       1.398  -0.737   3.271  0.00  0.00     0.077 C 
ATOM      2  C1  UNL d   1       0.505  -0.737   2.066  0.00  0.00    -0.074 A 
ATOM      3  C2  UNL d   1       1.036  -0.616   0.778  0.00  0.00    -0.005 A 
ATOM      4  C3  UNL d   1       0.194  -0.627  -0.334  0.00  0.00     0.006 A 
ATOM      5  C4  UNL d   1      -1.185  -0.758  -0.169  0.00  0.00    -0.005 A 
ATOM      6  C5  UNL d   1      -1.734  -0.880   1.111  0.00  0.00    -0.074 A 
ATOM      7  C6  UNL d   1      -3.214  -1.032   1.306  0.00  0.00     0.077 C 
ATOM      8  C7  UNL d   1      -0.881  -0.875   2.223  0.00  0.00    -0.001 A 
ENDROOT
TORSDOF 0
ENDMDL
