MODEL 1
REMARK minimizedAffinity 0.640084743
REMARK minimizedRMSD -1
REMARK  0 active torsions:
REMARK  status: ('A' for Active; 'I' for Inactive)
ROOT
ATOM      1  C   UNL d   1      -0.662  -1.812   3.175  0.00  0.00     0.077 C 
ATOM      2  C1  UNL d   1       0.555  -1.238   2.513  0.00  0.00    -0.074 A 
ATOM      3  C2  UNL d   1       1.526  -0.560   3.258  0.00  0.00    -0.005 A 
ATOM      4  C3  UNL d   1       2.657  -0.040   2.629  0.00  0.00     0.006 A 
ATOM      5  C4  UNL d   1       2.830  -0.193   1.253  0.00  0.00    -0.005 A 
ATOM      6  C5  UNL d   1       1.870  -0.869   0.493  0.00  0.00    -0.074 A 
ATOM      7  C6  UNL d   1       2.045  -1.050  -0.986  0.00  0.00     0.077 C 
ATOM      8  C7  UNL d   1       0.739  -1.394   1.132  0.00  0.00    -0.001 A 
ENDROOT
TORSDOF 0
ENDMDL
