MODEL 1
REMARK minimizedAffinity -4.32501411
REMARK minimizedRMSD -1
REMARK  0 active torsions:
REMARK  status: ('A' for Active; 'I' for Inactive)
ROOT
ATOM      1  C   UNL d   1       2.931  -2.365  -0.305  0.00  0.00     0.077 C 
ATOM      2  C1  UNL d   1       1.698  -1.545  -0.542  0.00  0.00    -0.074 A 
ATOM      3  C2  UNL d   1       1.172  -1.394  -1.829  0.00  0.00    -0.005 A 
ATOM      4  C3  UNL d   1       0.019  -0.636  -2.033  0.00  0.00     0.006 A 
ATOM      5  C4  UNL d   1      -0.619  -0.023  -0.954  0.00  0.00    -0.005 A 
ATOM      6  C5  UNL d   1      -0.108  -0.164   0.341  0.00  0.00    -0.074 A 
ATOM      7  C6  UNL d   1      -0.787   0.481   1.513  0.00  0.00     0.077 C 
ATOM      8  C7  UNL d   1       1.047  -0.932   0.538  0.00  0.00    -0.001 A 
ENDROOT
TORSDOF 0
ENDMDL
