MODEL 1
REMARK minimizedAffinity 6.5726366
REMARK minimizedRMSD -1
REMARK  0 active torsions:
REMARK  status: ('A' for Active; 'I' for Inactive)
ROOT
ATOM      1  C   UNL d   1       1.815   2.561  -1.032  0.00  0.00     0.077 C 
ATOM      2  C1  UNL d   1       1.100   2.866  -2.315  0.00  0.00    -0.074 A 
ATOM      3  C2  UNL d   1       1.799   2.959  -3.523  0.00  0.00    -0.005 A 
ATOM      4  C3  UNL d   1       1.119   3.234  -4.709  0.00  0.00     0.006 A 
ATOM      5  C4  UNL d   1      -0.265   3.418  -4.700  0.00  0.00    -0.005 A 
ATOM      6  C5  UNL d   1      -0.980   3.327  -3.502  0.00  0.00    -0.074 A 
ATOM      7  C6  UNL d   1      -2.468   3.512  -3.475  0.00  0.00     0.077 C 
ATOM      8  C7  UNL d   1      -0.290   3.044  -2.315  0.00  0.00    -0.001 A 
ENDROOT
TORSDOF 0
ENDMDL
