MODEL 1
REMARK minimizedAffinity 10.1650887
REMARK minimizedRMSD -1
REMARK  0 active torsions:
REMARK  status: ('A' for Active; 'I' for Inactive)
ROOT
ATOM      1  C   UNL d   1      -6.000   4.126  -4.772  0.00  0.00     0.077 C 
ATOM      2  C1  UNL d   1      -5.025   3.081  -4.317  0.00  0.00    -0.074 A 
ATOM      3  C2  UNL d   1      -4.049   3.377  -3.360  0.00  0.00    -0.005 A 
ATOM      4  C3  UNL d   1      -3.155   2.392  -2.940  0.00  0.00     0.006 A 
ATOM      5  C4  UNL d   1      -3.229   1.103  -3.470  0.00  0.00    -0.005 A 
ATOM      6  C5  UNL d   1      -4.200   0.789  -4.426  0.00  0.00    -0.074 A 
ATOM      7  C6  UNL d   1      -4.300  -0.594  -4.999  0.00  0.00     0.077 C 
ATOM      8  C7  UNL d   1      -5.099   1.782  -4.839  0.00  0.00    -0.001 A 
ENDROOT
TORSDOF 0
ENDMDL
