MODEL 1
REMARK minimizedAffinity -2.2433033
REMARK minimizedRMSD -1
REMARK  0 active torsions:
REMARK  status: ('A' for Active; 'I' for Inactive)
ROOT
ATOM      1  C   UNL d   1      -0.885   0.497  -1.611  0.00  0.00     0.077 C 
ATOM      2  C1  UNL d   1      -0.460  -0.141  -0.322  0.00  0.00    -0.074 A 
ATOM      3  C2  UNL d   1      -1.156   0.105   0.866  0.00  0.00    -0.005 A 
ATOM      4  C3  UNL d   1      -0.755  -0.503   2.055  0.00  0.00     0.006 A 
ATOM      5  C4  UNL d   1       0.344  -1.362   2.069  0.00  0.00    -0.005 A 
ATOM      6  C5  UNL d   1       1.052  -1.621   0.891  0.00  0.00    -0.074 A 
ATOM      7  C6  UNL d   1       2.229  -2.550   0.886  0.00  0.00     0.077 C 
ATOM      8  C7  UNL d   1       0.638  -1.012  -0.302  0.00  0.00    -0.001 A 
ENDROOT
TORSDOF 0
ENDMDL
