MODEL 1
REMARK minimizedAffinity -3.26949549
REMARK minimizedRMSD -1
REMARK  0 active torsions:
REMARK  status: ('A' for Active; 'I' for Inactive)
ROOT
ATOM      1  C   UNL d   1      -1.373   0.780   1.089  0.00  0.00     0.077 C 
ATOM      2  C1  UNL d   1      -0.378  -0.312   1.349  0.00  0.00    -0.074 A 
ATOM      3  C2  UNL d   1      -0.315  -0.947   2.593  0.00  0.00    -0.005 A 
ATOM      4  C3  UNL d   1       0.609  -1.966   2.817  0.00  0.00     0.006 A 
ATOM      5  C4  UNL d   1       1.480  -2.361   1.800  0.00  0.00    -0.005 A 
ATOM      6  C5  UNL d   1       1.432  -1.738   0.549  0.00  0.00    -0.074 A 
ATOM      7  C6  UNL d   1       2.354  -2.157  -0.558  0.00  0.00     0.077 C 
ATOM      8  C7  UNL d   1       0.495  -0.719   0.330  0.00  0.00    -0.001 A 
ENDROOT
TORSDOF 0
ENDMDL
