MODEL 1
REMARK minimizedAffinity 4.32768393
REMARK minimizedRMSD -1
REMARK  1 active torsions:
REMARK  status: ('A' for Active; 'I' for Inactive)
REMARK    1  A    between atoms: C1_2  and  C2_3 
ROOT
ATOM      1  C2  UNL d   1       1.564  -2.990   0.045  0.00  0.00    -0.076 A 
ATOM      2  C3  UNL d   1       2.052  -2.655  -1.230  0.00  0.00     0.004 A 
ATOM      3  C4  UNL d   1       3.041  -1.685  -1.388  0.00  0.00    -0.003 A 
ATOM      4  C5  UNL d   1       3.558  -1.036  -0.273  0.00  0.00     0.000 A 
ATOM      5  C6  UNL d   1       3.099  -1.368   1.001  0.00  0.00     0.000 A 
ATOM      6  C7  UNL d   1       2.114  -2.355   1.179  0.00  0.00    -0.073 A 
ATOM      7  C8  UNL d   1       1.651  -2.669   2.575  0.00  0.00     0.078 C 
ENDROOT
BRANCH   1   8
ATOM      8  C1  UNL d   1       0.472  -4.030   0.152  0.00  0.00     0.053 C 
ATOM      9  C   UNL d   1      -0.605  -3.856  -0.908  0.00  0.00     0.018 C 
ENDBRANCH   1   8
TORSDOF 1
ENDMDL
