MODEL 1
REMARK minimizedAffinity 0.940321267
REMARK minimizedRMSD -1
REMARK  1 active torsions:
REMARK  status: ('A' for Active; 'I' for Inactive)
REMARK    1  A    between atoms: C1_2  and  C2_3 
ROOT
ATOM      1  C2  UNL d   1      -3.910   3.306  -4.914  0.00  0.00    -0.076 A 
ATOM      2  C3  UNL d   1      -2.933   2.323  -5.151  0.00  0.00     0.004 A 
ATOM      3  C4  UNL d   1      -1.907   2.097  -4.235  0.00  0.00    -0.003 A 
ATOM      4  C5  UNL d   1      -1.841   2.848  -3.067  0.00  0.00     0.000 A 
ATOM      5  C6  UNL d   1      -2.812   3.815  -2.807  0.00  0.00     0.000 A 
ATOM      6  C7  UNL d   1      -3.863   4.045  -3.712  0.00  0.00    -0.073 A 
ATOM      7  C8  UNL d   1      -4.879   5.104  -3.384  0.00  0.00     0.078 C 
ENDROOT
BRANCH   1   8
ATOM      8  C1  UNL d   1      -4.983   3.526  -5.955  0.00  0.00     0.053 C 
ATOM      9  C   UNL d   1      -5.998   2.394  -5.994  0.00  0.00     0.018 C 
ENDBRANCH   1   8
TORSDOF 1
ENDMDL
