MODEL 1
REMARK minimizedAffinity 3.1615653
REMARK minimizedRMSD -1
REMARK  1 active torsions:
REMARK  status: ('A' for Active; 'I' for Inactive)
REMARK    1  A    between atoms: C1_2  and  C2_3 
ROOT
ATOM      1  C2  UNL d   1      -4.663   1.327  -2.793  0.00  0.00    -0.076 A 
ATOM      2  C3  UNL d   1      -5.649   0.632  -3.515  0.00  0.00     0.004 A 
ATOM      3  C4  UNL d   1      -5.673   0.661  -4.908  0.00  0.00    -0.003 A 
ATOM      4  C5  UNL d   1      -4.710   1.385  -5.603  0.00  0.00     0.000 A 
ATOM      5  C6  UNL d   1      -3.714   2.066  -4.904  0.00  0.00     0.000 A 
ATOM      6  C7  UNL d   1      -3.666   2.034  -3.499  0.00  0.00    -0.073 A 
ATOM      7  C8  UNL d   1      -2.573   2.792  -2.797  0.00  0.00     0.078 C 
ENDROOT
BRANCH   1   8
ATOM      8  C1  UNL d   1      -4.704   1.282  -1.282  0.00  0.00     0.053 C 
ATOM      9  C   UNL d   1      -4.759  -0.139  -0.744  0.00  0.00     0.018 C 
ENDBRANCH   1   8
TORSDOF 1
ENDMDL
