MODEL 1
REMARK minimizedAffinity 4.25024319
REMARK minimizedRMSD -1
REMARK  1 active torsions:
REMARK  status: ('A' for Active; 'I' for Inactive)
REMARK    1  A    between atoms: C1_2  and  C2_3 
ROOT
ATOM      1  C2  UNL d   1       2.849   1.413   0.811  0.00  0.00    -0.076 A 
ATOM      2  C3  UNL d   1       3.762   2.359   1.309  0.00  0.00     0.004 A 
ATOM      3  C4  UNL d   1       5.091   2.363   0.890  0.00  0.00    -0.003 A 
ATOM      4  C5  UNL d   1       5.529   1.421  -0.035  0.00  0.00     0.000 A 
ATOM      5  C6  UNL d   1       4.633   0.486  -0.552  0.00  0.00     0.000 A 
ATOM      6  C7  UNL d   1       3.286   0.479  -0.152  0.00  0.00    -0.073 A 
ATOM      7  C8  UNL d   1       2.365  -0.556  -0.738  0.00  0.00     0.078 C 
ENDROOT
BRANCH   1   8
ATOM      8  C1  UNL d   1       1.427   1.440   1.323  0.00  0.00     0.053 C 
ATOM      9  C   UNL d   1       1.341   1.853   2.784  0.00  0.00     0.018 C 
ENDBRANCH   1   8
TORSDOF 1
ENDMDL
