MODEL 1
REMARK minimizedAffinity 2.35528708
REMARK minimizedRMSD -1
REMARK  1 active torsions:
REMARK  status: ('A' for Active; 'I' for Inactive)
REMARK    1  A    between atoms: C1_2  and  C2_3 
ROOT
ATOM      1  C2  UNL d   1      -3.692   1.737  -4.203  0.00  0.00    -0.076 A 
ATOM      2  C3  UNL d   1      -3.301   3.036  -3.834  0.00  0.00     0.004 A 
ATOM      3  C4  UNL d   1      -4.241   3.981  -3.429  0.00  0.00    -0.003 A 
ATOM      4  C5  UNL d   1      -5.589   3.643  -3.385  0.00  0.00     0.000 A 
ATOM      5  C6  UNL d   1      -5.994   2.354  -3.730  0.00  0.00     0.000 A 
ATOM      6  C7  UNL d   1      -5.057   1.384  -4.125  0.00  0.00    -0.073 A 
ATOM      7  C8  UNL d   1      -5.550   0.011  -4.492  0.00  0.00     0.078 C 
ENDROOT
BRANCH   1   8
ATOM      8  C1  UNL d   1      -2.631   0.763  -4.660  0.00  0.00     0.053 C 
ATOM      9  C   UNL d   1      -1.982   0.022  -3.501  0.00  0.00     0.018 C 
ENDBRANCH   1   8
TORSDOF 1
ENDMDL
