MODEL 1
REMARK minimizedAffinity 0.530034065
REMARK minimizedRMSD -1
REMARK  1 active torsions:
REMARK  status: ('A' for Active; 'I' for Inactive)
REMARK    1  A    between atoms: C1_2  and  C2_3 
ROOT
ATOM      1  C2  UNL d   1      -3.541   1.660  -3.515  0.00  0.00    -0.076 A 
ATOM      2  C3  UNL d   1      -3.062   2.840  -2.920  0.00  0.00     0.004 A 
ATOM      3  C4  UNL d   1      -3.941   3.794  -2.410  0.00  0.00    -0.003 A 
ATOM      4  C5  UNL d   1      -5.313   3.583  -2.486  0.00  0.00     0.000 A 
ATOM      5  C6  UNL d   1      -5.805   2.410  -3.056  0.00  0.00     0.000 A 
ATOM      6  C7  UNL d   1      -4.933   1.431  -3.561  0.00  0.00    -0.073 A 
ATOM      7  C8  UNL d   1      -5.519   0.187  -4.171  0.00  0.00     0.078 C 
ENDROOT
BRANCH   1   8
ATOM      8  C1  UNL d   1      -2.541   0.674  -4.075  0.00  0.00     0.053 C 
ATOM      9  C   UNL d   1      -2.670   0.506  -5.581  0.00  0.00     0.018 C 
ENDBRANCH   1   8
TORSDOF 1
ENDMDL
