MODEL 1
REMARK minimizedAffinity 7.25339556
REMARK minimizedRMSD -1
REMARK  1 active torsions:
REMARK  status: ('A' for Active; 'I' for Inactive)
REMARK    1  A    between atoms: C1_2  and  C2_3 
ROOT
ATOM      1  C2  UNL d   1       3.396   0.134  -0.382  0.00  0.00    -0.076 A 
ATOM      2  C3  UNL d   1       4.785  -0.080  -0.360  0.00  0.00     0.004 A 
ATOM      3  C4  UNL d   1       5.672   0.983  -0.197  0.00  0.00    -0.003 A 
ATOM      4  C5  UNL d   1       5.185   2.277  -0.052  0.00  0.00     0.000 A 
ATOM      5  C6  UNL d   1       3.809   2.505  -0.053  0.00  0.00     0.000 A 
ATOM      6  C7  UNL d   1       2.901   1.443  -0.200  0.00  0.00    -0.073 A 
ATOM      7  C8  UNL d   1       1.428   1.748  -0.200  0.00  0.00     0.078 C 
ENDROOT
BRANCH   1   8
ATOM      8  C1  UNL d   1       2.483  -1.053  -0.589  0.00  0.00     0.053 C 
ATOM      9  C   UNL d   1       2.628  -2.098   0.507  0.00  0.00     0.018 C 
ENDBRANCH   1   8
TORSDOF 1
ENDMDL
