MODEL 1
REMARK minimizedAffinity -1.10203636
REMARK minimizedRMSD -1
REMARK  1 active torsions:
REMARK  status: ('A' for Active; 'I' for Inactive)
REMARK    1  A    between atoms: C1_2  and  C2_3 
ROOT
ATOM      1  C2  UNL d   1      -5.028   0.744  -3.086  0.00  0.00    -0.076 A 
ATOM      2  C3  UNL d   1      -5.057  -0.261  -2.103  0.00  0.00     0.004 A 
ATOM      3  C4  UNL d   1      -5.538   0.003  -0.822  0.00  0.00    -0.003 A 
ATOM      4  C5  UNL d   1      -5.998   1.275  -0.502  0.00  0.00     0.000 A 
ATOM      5  C6  UNL d   1      -5.993   2.279  -1.470  0.00  0.00     0.000 A 
ATOM      6  C7  UNL d   1      -5.527   2.026  -2.771  0.00  0.00    -0.073 A 
ATOM      7  C8  UNL d   1      -5.539   3.148  -3.774  0.00  0.00     0.078 C 
ENDROOT
BRANCH   1   8
ATOM      8  C1  UNL d   1      -4.471   0.406  -4.450  0.00  0.00     0.053 C 
ATOM      9  C   UNL d   1      -2.950   0.389  -4.470  0.00  0.00     0.018 C 
ENDBRANCH   1   8
TORSDOF 1
ENDMDL
