MODEL 1
REMARK minimizedAffinity 14.538414
REMARK minimizedRMSD -1
REMARK  2 active torsions:
REMARK  status: ('A' for Active; 'I' for Inactive)
REMARK    1  A    between atoms: C2'_3  and  C1'_4 
REMARK    2  A    between atoms: C1'_4  and  C1_5 
ROOT
ATOM      1  C1  I4B d   1      -3.557  -4.097  -2.571  0.00  0.00    -0.075 A 
ATOM      2  C2  I4B d   1      -4.599  -3.531  -3.262  0.00  0.00     0.003 A 
ATOM      3  C3  I4B d   1      -5.849  -4.191  -3.334  0.00  0.00     0.002 A 
ATOM      4  C4  I4B d   1      -5.997  -5.432  -2.748  0.00  0.00    -0.004 A 
ATOM      5  C5  I4B d   1      -4.947  -5.994  -2.028  0.00  0.00     0.002 A 
ATOM      6  C6  I4B d   1      -3.722  -5.317  -1.928  0.00  0.00     0.003 A 
ENDROOT
BRANCH   1   7
ATOM      7  C1' I4B d   1      -2.240  -3.387  -2.542  0.00  0.00     0.060 C 
BRANCH   7   8
ATOM      8  C2' I4B d   1      -2.329  -2.280  -1.511  0.00  0.00    -0.013 C 
ATOM      9  C4' I4B d   1      -1.803  -2.735  -0.176  0.00  0.00     0.013 C 
ATOM     10  C3' I4B d   1      -1.554  -1.105  -2.027  0.00  0.00     0.013 C 
ENDBRANCH   7   8
ENDBRANCH   1   7
TORSDOF 2
ENDMDL
