MODEL 1
REMARK minimizedAffinity 18.5482235
REMARK minimizedRMSD -1
REMARK  2 active torsions:
REMARK  status: ('A' for Active; 'I' for Inactive)
REMARK    1  A    between atoms: C2'_3  and  C1'_4 
REMARK    2  A    between atoms: C1'_4  and  C1_5 
ROOT
ATOM      1  C1  I4B d   1      -2.720  -4.205  -2.588  0.00  0.00    -0.075 A 
ATOM      2  C2  I4B d   1      -3.329  -2.978  -2.671  0.00  0.00     0.003 A 
ATOM      3  C3  I4B d   1      -4.730  -2.865  -2.500  0.00  0.00     0.002 A 
ATOM      4  C4  I4B d   1      -5.484  -4.003  -2.300  0.00  0.00    -0.004 A 
ATOM      5  C5  I4B d   1      -4.863  -5.243  -2.194  0.00  0.00     0.002 A 
ATOM      6  C6  I4B d   1      -3.470  -5.344  -2.326  0.00  0.00     0.003 A 
ENDROOT
BRANCH   1   7
ATOM      7  C1' I4B d   1      -1.242  -4.293  -2.806  0.00  0.00     0.060 C 
BRANCH   7   8
ATOM      8  C2' I4B d   1      -1.007  -4.713  -4.243  0.00  0.00    -0.013 C 
ATOM      9  C4' I4B d   1      -0.966  -3.520  -5.160  0.00  0.00     0.013 C 
ATOM     10  C3' I4B d   1       0.280  -5.481  -4.296  0.00  0.00     0.013 C 
ENDBRANCH   7   8
ENDBRANCH   1   7
TORSDOF 2
ENDMDL
