MODEL 1
REMARK minimizedAffinity 9.9532795
REMARK minimizedRMSD -1
REMARK  2 active torsions:
REMARK  status: ('A' for Active; 'I' for Inactive)
REMARK    1  A    between atoms: C2'_3  and  C1'_4 
REMARK    2  A    between atoms: C1'_4  and  C1_5 
ROOT
ATOM      1  C1  I4B d   1      -2.248  -2.576  -1.081  0.00  0.00    -0.075 A 
ATOM      2  C2  I4B d   1      -2.321  -1.399  -1.782  0.00  0.00     0.003 A 
ATOM      3  C3  I4B d   1      -2.069  -1.382  -3.175  0.00  0.00     0.002 A 
ATOM      4  C4  I4B d   1      -1.700  -2.548  -3.813  0.00  0.00    -0.004 A 
ATOM      5  C5  I4B d   1      -1.648  -3.745  -3.105  0.00  0.00     0.002 A 
ATOM      6  C6  I4B d   1      -1.936  -3.762  -1.733  0.00  0.00     0.003 A 
ENDROOT
BRANCH   1   7
ATOM      7  C1' I4B d   1      -2.488  -2.552   0.395  0.00  0.00     0.060 C 
BRANCH   7   8
ATOM      8  C2' I4B d   1      -1.161  -2.786   1.088  0.00  0.00    -0.013 C 
ATOM      9  C4' I4B d   1      -0.806  -1.635   1.991  0.00  0.00     0.013 C 
ATOM     10  C3' I4B d   1      -1.261  -4.069   1.859  0.00  0.00     0.013 C 
ENDBRANCH   7   8
ENDBRANCH   1   7
TORSDOF 2
ENDMDL
