MODEL 1
REMARK minimizedAffinity 7.14562607
REMARK minimizedRMSD -1
REMARK  2 active torsions:
REMARK  status: ('A' for Active; 'I' for Inactive)
REMARK    1  A    between atoms: C2'_3  and  C1'_4 
REMARK    2  A    between atoms: C1'_4  and  C1_5 
ROOT
ATOM      1  C1  I4B d   1       2.941   3.818  -3.825  0.00  0.00    -0.075 A 
ATOM      2  C2  I4B d   1       3.310   5.139  -3.792  0.00  0.00     0.003 A 
ATOM      3  C3  I4B d   1       2.978   6.000  -4.866  0.00  0.00     0.002 A 
ATOM      4  C4  I4B d   1       2.325   5.489  -5.969  0.00  0.00    -0.004 A 
ATOM      5  C5  I4B d   1       1.932   4.154  -5.992  0.00  0.00     0.002 A 
ATOM      6  C6  I4B d   1       2.230   3.315  -4.908  0.00  0.00     0.003 A 
ENDROOT
BRANCH   1   7
ATOM      7  C1' I4B d   1       3.337   2.930  -2.689  0.00  0.00     0.060 C 
BRANCH   7   8
ATOM      8  C2' I4B d   1       4.702   2.352  -3.001  0.00  0.00    -0.013 C 
ATOM      9  C4' I4B d   1       5.219   1.523  -1.854  0.00  0.00     0.013 C 
ATOM     10  C3' I4B d   1       4.584   1.533  -4.251  0.00  0.00     0.013 C 
ENDBRANCH   7   8
ENDBRANCH   1   7
TORSDOF 2
ENDMDL
