MODEL 1
REMARK minimizedAffinity 11.9402733
REMARK minimizedRMSD -1
REMARK  2 active torsions:
REMARK  status: ('A' for Active; 'I' for Inactive)
REMARK    1  A    between atoms: C2'_3  and  C1'_4 
REMARK    2  A    between atoms: C1'_4  and  C1_5 
ROOT
ATOM      1  C1  I4B d   1      -2.734  -4.194  -2.751  0.00  0.00    -0.075 A 
ATOM      2  C2  I4B d   1      -2.370  -5.494  -2.501  0.00  0.00     0.003 A 
ATOM      3  C3  I4B d   1      -1.146  -6.000  -3.003  0.00  0.00     0.002 A 
ATOM      4  C4  I4B d   1      -0.347  -5.193  -3.786  0.00  0.00    -0.004 A 
ATOM      5  C5  I4B d   1      -0.706  -3.868  -4.019  0.00  0.00     0.002 A 
ATOM      6  C6  I4B d   1      -1.901  -3.362  -3.488  0.00  0.00     0.003 A 
ENDROOT
BRANCH   1   7
ATOM      7  C1' I4B d   1      -4.048  -3.702  -2.233  0.00  0.00     0.060 C 
BRANCH   7   8
ATOM      8  C2' I4B d   1      -5.124  -4.130  -3.210  0.00  0.00    -0.013 C 
ATOM      9  C4' I4B d   1      -5.994  -5.210  -2.624  0.00  0.00     0.013 C 
ATOM     10  C3' I4B d   1      -5.932  -2.919  -3.569  0.00  0.00     0.013 C 
ENDBRANCH   7   8
ENDBRANCH   1   7
TORSDOF 2
ENDMDL
