MODEL 1
REMARK minimizedAffinity 13.4096985
REMARK minimizedRMSD -1
REMARK  2 active torsions:
REMARK  status: ('A' for Active; 'I' for Inactive)
REMARK    1  A    between atoms: C2'_3  and  C1'_4 
REMARK    2  A    between atoms: C1'_4  and  C1_5 
ROOT
ATOM      1  C1  I4B d   1      -2.132  -2.911  -2.469  0.00  0.00    -0.075 A 
ATOM      2  C2  I4B d   1      -2.405  -2.365  -1.240  0.00  0.00     0.003 A 
ATOM      3  C3  I4B d   1      -1.389  -2.273  -0.258  0.00  0.00     0.002 A 
ATOM      4  C4  I4B d   1      -0.136  -2.783  -0.528  0.00  0.00    -0.004 A 
ATOM      5  C5  I4B d   1       0.147  -3.316  -1.783  0.00  0.00     0.002 A 
ATOM      6  C6  I4B d   1      -0.854  -3.369  -2.764  0.00  0.00     0.003 A 
ENDROOT
BRANCH   1   7
ATOM      7  C1' I4B d   1      -3.237  -3.022  -3.471  0.00  0.00     0.060 C 
BRANCH   7   8
ATOM      8  C2' I4B d   1      -4.495  -3.432  -2.734  0.00  0.00    -0.013 C 
ATOM      9  C4' I4B d   1      -5.717  -3.247  -3.596  0.00  0.00     0.013 C 
ATOM     10  C3' I4B d   1      -4.341  -4.864  -2.315  0.00  0.00     0.013 C 
ENDBRANCH   7   8
ENDBRANCH   1   7
TORSDOF 2
ENDMDL
