MODEL 1
REMARK minimizedAffinity 9.6243515
REMARK minimizedRMSD -1
REMARK  2 active torsions:
REMARK  status: ('A' for Active; 'I' for Inactive)
REMARK    1  A    between atoms: C2'_3  and  C1'_4 
REMARK    2  A    between atoms: C1'_4  and  C1_5 
ROOT
ATOM      1  C1  I4B d   1      -3.765  -5.302  -1.682  0.00  0.00    -0.075 A 
ATOM      2  C2  I4B d   1      -3.494  -4.040  -2.149  0.00  0.00     0.003 A 
ATOM      3  C3  I4B d   1      -4.434  -3.364  -2.963  0.00  0.00     0.002 A 
ATOM      4  C4  I4B d   1      -5.603  -4.002  -3.325  0.00  0.00    -0.004 A 
ATOM      5  C5  I4B d   1      -5.887  -5.272  -2.832  0.00  0.00     0.002 A 
ATOM      6  C6  I4B d   1      -4.968  -5.922  -1.995  0.00  0.00     0.003 A 
ENDROOT
BRANCH   1   7
ATOM      7  C1' I4B d   1      -2.735  -6.000  -0.852  0.00  0.00     0.060 C 
BRANCH   7   8
ATOM      8  C2' I4B d   1      -2.760  -5.388   0.534  0.00  0.00    -0.013 C 
ATOM      9  C4' I4B d   1      -3.844  -6.000   1.381  0.00  0.00     0.013 C 
ATOM     10  C3' I4B d   1      -1.409  -5.591   1.154  0.00  0.00     0.013 C 
ENDBRANCH   7   8
ENDBRANCH   1   7
TORSDOF 2
ENDMDL
