MODEL 1
REMARK minimizedAffinity 15.7083836
REMARK minimizedRMSD -1
REMARK  2 active torsions:
REMARK  status: ('A' for Active; 'I' for Inactive)
REMARK    1  A    between atoms: C2'_3  and  C1'_4 
REMARK    2  A    between atoms: C1'_4  and  C1_5 
ROOT
ATOM      1  C1  I4B d   1      -3.358  -4.003  -2.586  0.00  0.00    -0.075 A 
ATOM      2  C2  I4B d   1      -2.774  -2.928  -1.963  0.00  0.00     0.003 A 
ATOM      3  C3  I4B d   1      -1.759  -2.190  -2.619  0.00  0.00     0.002 A 
ATOM      4  C4  I4B d   1      -1.327  -2.589  -3.867  0.00  0.00    -0.004 A 
ATOM      5  C5  I4B d   1      -1.936  -3.665  -4.506  0.00  0.00     0.002 A 
ATOM      6  C6  I4B d   1      -2.966  -4.370  -3.867  0.00  0.00     0.003 A 
ENDROOT
BRANCH   1   7
ATOM      7  C1' I4B d   1      -4.403  -4.781  -1.851  0.00  0.00     0.060 C 
BRANCH   7   8
ATOM      8  C2' I4B d   1      -5.702  -4.662  -2.623  0.00  0.00    -0.013 C 
ATOM      9  C4' I4B d   1      -5.615  -3.588  -3.675  0.00  0.00     0.013 C 
ATOM     10  C3' I4B d   1      -5.999  -5.998  -3.237  0.00  0.00     0.013 C 
ENDBRANCH   7   8
ENDBRANCH   1   7
TORSDOF 2
ENDMDL
