MODEL 1
REMARK minimizedAffinity 9.78483772
REMARK minimizedRMSD -1
REMARK  2 active torsions:
REMARK  status: ('A' for Active; 'I' for Inactive)
REMARK    1  A    between atoms: C2'_3  and  C1'_4 
REMARK    2  A    between atoms: C1'_4  and  C1_5 
ROOT
ATOM      1  C1  I4B d   1      -2.932  -4.426  -2.557  0.00  0.00    -0.075 A 
ATOM      2  C2  I4B d   1      -3.905  -3.529  -2.921  0.00  0.00     0.003 A 
ATOM      3  C3  I4B d   1      -5.273  -3.856  -2.756  0.00  0.00     0.002 A 
ATOM      4  C4  I4B d   1      -5.622  -5.101  -2.274  0.00  0.00    -0.004 A 
ATOM      5  C5  I4B d   1      -4.634  -6.000  -1.884  0.00  0.00     0.002 A 
ATOM      6  C6  I4B d   1      -3.280  -5.656  -2.015  0.00  0.00     0.003 A 
ENDROOT
BRANCH   1   7
ATOM      7  C1' I4B d   1      -1.498  -4.062  -2.776  0.00  0.00     0.060 C 
BRANCH   7   8
ATOM      8  C2' I4B d   1      -1.004  -4.820  -3.991  0.00  0.00    -0.013 C 
ATOM      9  C4' I4B d   1      -1.092  -3.974  -5.234  0.00  0.00     0.013 C 
ATOM     10  C3' I4B d   1       0.409  -5.248  -3.726  0.00  0.00     0.013 C 
ENDBRANCH   7   8
ENDBRANCH   1   7
TORSDOF 2
ENDMDL
