MODEL 1
REMARK minimizedAffinity 7.74071026
REMARK minimizedRMSD -1
REMARK  2 active torsions:
REMARK  status: ('A' for Active; 'I' for Inactive)
REMARK    1  A    between atoms: C2'_3  and  C1'_4 
REMARK    2  A    between atoms: C1'_4  and  C1_5 
ROOT
ATOM      1  C1  I4B d   1      -2.223  -3.077  -1.881  0.00  0.00    -0.075 A 
ATOM      2  C2  I4B d   1      -3.001  -3.335  -0.780  0.00  0.00     0.003 A 
ATOM      3  C3  I4B d   1      -2.575  -2.922   0.506  0.00  0.00     0.002 A 
ATOM      4  C4  I4B d   1      -1.350  -2.304   0.650  0.00  0.00    -0.004 A 
ATOM      5  C5  I4B d   1      -0.573  -2.023  -0.470  0.00  0.00     0.002 A 
ATOM      6  C6  I4B d   1      -1.018  -2.401  -1.746  0.00  0.00     0.003 A 
ENDROOT
BRANCH   1   7
ATOM      7  C1' I4B d   1      -2.687  -3.557  -3.220  0.00  0.00     0.060 C 
BRANCH   7   8
ATOM      8  C2' I4B d   1      -3.606  -4.741  -2.999  0.00  0.00    -0.013 C 
ATOM      9  C4' I4B d   1      -4.817  -4.665  -3.891  0.00  0.00     0.013 C 
ATOM     10  C3' I4B d   1      -2.820  -5.991  -3.257  0.00  0.00     0.013 C 
ENDBRANCH   7   8
ENDBRANCH   1   7
TORSDOF 2
ENDMDL
