MODEL 1
REMARK minimizedAffinity 2.37783551
REMARK minimizedRMSD -1
REMARK  2 active torsions:
REMARK  status: ('A' for Active; 'I' for Inactive)
REMARK    1  A    between atoms: C2'_3  and  C1'_4 
REMARK    2  A    between atoms: C1'_4  and  C1_5 
ROOT
ATOM      1  C1  I4B d   1      -3.055  -3.805  -2.721  0.00  0.00    -0.075 A 
ATOM      2  C2  I4B d   1      -2.711  -2.657  -2.053  0.00  0.00     0.003 A 
ATOM      3  C3  I4B d   1      -1.519  -1.968  -2.387  0.00  0.00     0.002 A 
ATOM      4  C4  I4B d   1      -0.682  -2.487  -3.353  0.00  0.00    -0.004 A 
ATOM      5  C5  I4B d   1      -1.045  -3.639  -4.046  0.00  0.00     0.002 A 
ATOM      6  C6  I4B d   1      -2.244  -4.296  -3.737  0.00  0.00     0.003 A 
ENDROOT
BRANCH   1   7
ATOM      7  C1' I4B d   1      -4.304  -4.525  -2.321  0.00  0.00     0.060 C 
BRANCH   7   8
ATOM      8  C2' I4B d   1      -5.117  -4.781  -3.573  0.00  0.00    -0.013 C 
ATOM      9  C4' I4B d   1      -5.998  -5.992  -3.413  0.00  0.00     0.013 C 
ATOM     10  C3' I4B d   1      -5.930  -3.553  -3.856  0.00  0.00     0.013 C 
ENDBRANCH   7   8
ENDBRANCH   1   7
TORSDOF 2
ENDMDL
