MODEL 1
REMARK minimizedAffinity 14.974391
REMARK minimizedRMSD -1
REMARK  2 active torsions:
REMARK  status: ('A' for Active; 'I' for Inactive)
REMARK    1  A    between atoms: C2'_3  and  C1'_4 
REMARK    2  A    between atoms: C1'_4  and  C1_5 
ROOT
ATOM      1  C1  I4B d   1      -2.382  -3.843   0.943  0.00  0.00    -0.075 A 
ATOM      2  C2  I4B d   1      -3.239  -4.915   0.973  0.00  0.00     0.003 A 
ATOM      3  C3  I4B d   1      -2.993  -5.999   1.850  0.00  0.00     0.002 A 
ATOM      4  C4  I4B d   1      -1.859  -5.994   2.636  0.00  0.00    -0.004 A 
ATOM      5  C5  I4B d   1      -1.003  -4.896   2.620  0.00  0.00     0.002 A 
ATOM      6  C6  I4B d   1      -1.273  -3.808   1.778  0.00  0.00     0.003 A 
ENDROOT
BRANCH   1   7
ATOM      7  C1' I4B d   1      -2.654  -2.730  -0.019  0.00  0.00     0.060 C 
BRANCH   7   8
ATOM      8  C2' I4B d   1      -2.265  -3.204  -1.404  0.00  0.00    -0.013 C 
ATOM      9  C4' I4B d   1      -3.476  -3.365  -2.285  0.00  0.00     0.013 C 
ATOM     10  C3' I4B d   1      -1.305  -2.207  -1.982  0.00  0.00     0.013 C 
ENDBRANCH   7   8
ENDBRANCH   1   7
TORSDOF 2
ENDMDL
