MODEL 1
REMARK minimizedAffinity 21.8131447
REMARK minimizedRMSD -1
REMARK  2 active torsions:
REMARK  status: ('A' for Active; 'I' for Inactive)
REMARK    1  A    between atoms: C2'_3  and  C1'_4 
REMARK    2  A    between atoms: C1'_4  and  C1_5 
ROOT
ATOM      1  C1  I4B d   1      -0.740  -3.293  -1.118  0.00  0.00    -0.075 A 
ATOM      2  C2  I4B d   1      -1.910  -2.631  -1.392  0.00  0.00     0.003 A 
ATOM      3  C3  I4B d   1      -2.497  -2.722  -2.677  0.00  0.00     0.002 A 
ATOM      4  C4  I4B d   1      -1.858  -3.441  -3.666  0.00  0.00    -0.004 A 
ATOM      5  C5  I4B d   1      -0.684  -4.131  -3.380  0.00  0.00     0.002 A 
ATOM      6  C6  I4B d   1      -0.127  -4.067  -2.095  0.00  0.00     0.003 A 
ENDROOT
BRANCH   1   7
ATOM      7  C1' I4B d   1      -0.130  -3.148   0.240  0.00  0.00     0.060 C 
BRANCH   7   8
ATOM      8  C2' I4B d   1      -1.212  -3.408   1.268  0.00  0.00    -0.013 C 
ATOM      9  C4' I4B d   1      -1.127  -4.811   1.807  0.00  0.00     0.013 C 
ATOM     10  C3' I4B d   1      -1.061  -2.397   2.365  0.00  0.00     0.013 C 
ENDBRANCH   7   8
ENDBRANCH   1   7
TORSDOF 2
ENDMDL
