MODEL 1
REMARK minimizedAffinity 10.2638741
REMARK minimizedRMSD -1
REMARK  2 active torsions:
REMARK  status: ('A' for Active; 'I' for Inactive)
REMARK    1  A    between atoms: C2'_3  and  C1'_4 
REMARK    2  A    between atoms: C1'_4  and  C1_5 
ROOT
ATOM      1  C1  I4B d   1      -3.770  -3.747  -1.496  0.00  0.00    -0.075 A 
ATOM      2  C2  I4B d   1      -4.870  -3.409  -2.245  0.00  0.00     0.003 A 
ATOM      3  C3  I4B d   1      -6.000  -4.262  -2.276  0.00  0.00     0.002 A 
ATOM      4  C4  I4B d   1      -5.968  -5.458  -1.589  0.00  0.00    -0.004 A 
ATOM      5  C5  I4B d   1      -4.861  -5.788  -0.812  0.00  0.00     0.002 A 
ATOM      6  C6  I4B d   1      -3.760  -4.922  -0.755  0.00  0.00     0.003 A 
ENDROOT
BRANCH   1   7
ATOM      7  C1' I4B d   1      -2.581  -2.840  -1.511  0.00  0.00     0.060 C 
BRANCH   7   8
ATOM      8  C2' I4B d   1      -1.877  -3.015  -2.841  0.00  0.00    -0.013 C 
ATOM      9  C4' I4B d   1      -1.511  -1.684  -3.444  0.00  0.00     0.013 C 
ATOM     10  C3' I4B d   1      -0.660  -3.860  -2.613  0.00  0.00     0.013 C 
ENDBRANCH   7   8
ENDBRANCH   1   7
TORSDOF 2
ENDMDL
