MODEL 1
REMARK minimizedAffinity 14.0165701
REMARK minimizedRMSD -1
REMARK  0 active torsions:
REMARK  status: ('A' for Active; 'I' for Inactive)
ROOT
ATOM      1  N1  IND d   1       0.690  -1.511   3.481  0.00  0.00    -0.196 N 
ATOM      2  C2  IND d   1       1.232  -2.766   3.518  0.00  0.00     0.054 A 
ATOM      3  C3  IND d   1       2.179  -2.897   2.561  0.00  0.00    -0.031 A 
ATOM      4  C4  IND d   1       3.072  -1.152   0.893  0.00  0.00     0.051 A 
ATOM      5  C5  IND d   1       2.861   0.125   0.454  0.00  0.00    -0.031 A 
ATOM      6  C6  IND d   1       1.898   0.939   1.015  0.00  0.00     0.015 A 
ATOM      7  C7  IND d   1       1.114   0.509   2.048  0.00  0.00    -0.016 A 
ATOM      8  C8  IND d   1       1.321  -0.790   2.491  0.00  0.00    -0.047 A 
ATOM      9  C9  IND d   1       2.268  -1.635   1.898  0.00  0.00    -0.096 A 
ATOM     10  HN1 IND d   1       0.061  -1.222   3.990  0.00  0.00     0.298 HD
ENDROOT
TORSDOF 0
ENDMDL
