MODEL 1
REMARK minimizedAffinity 15.213089
REMARK minimizedRMSD -1
REMARK  0 active torsions:
REMARK  status: ('A' for Active; 'I' for Inactive)
ROOT
ATOM      1  N1  IND d   1       2.458   1.875   1.568  0.00  0.00    -0.196 N 
ATOM      2  C2  IND d   1       1.570   2.666   2.243  0.00  0.00     0.054 A 
ATOM      3  C3  IND d   1       0.592   1.912   2.792  0.00  0.00    -0.031 A 
ATOM      4  C4  IND d   1       0.306  -0.646   2.797  0.00  0.00     0.051 A 
ATOM      5  C5  IND d   1       0.845  -1.791   2.282  0.00  0.00    -0.031 A 
ATOM      6  C6  IND d   1       1.974  -1.773   1.488  0.00  0.00     0.015 A 
ATOM      7  C7  IND d   1       2.615  -0.604   1.189  0.00  0.00    -0.016 A 
ATOM      8  C8  IND d   1       2.066   0.561   1.705  0.00  0.00    -0.047 A 
ATOM      9  C9  IND d   1       0.896   0.553   2.475  0.00  0.00    -0.096 A 
ATOM     10  HN1 IND d   1       3.145   2.151   1.132  0.00  0.00     0.298 HD
ENDROOT
TORSDOF 0
ENDMDL
