MODEL 1
REMARK minimizedAffinity 9.633564
REMARK minimizedRMSD -1
REMARK  0 active torsions:
REMARK  status: ('A' for Active; 'I' for Inactive)
ROOT
ATOM      1  N1  IND d   1      -5.998  -0.164  -0.950  0.00  0.00    -0.196 N 
ATOM      2  C2  IND d   1      -5.662  -1.484  -1.069  0.00  0.00     0.054 A 
ATOM      3  C3  IND d   1      -4.549  -1.620  -1.825  0.00  0.00    -0.031 A 
ATOM      4  C4  IND d   1      -3.060   0.194  -2.883  0.00  0.00     0.051 A 
ATOM      5  C5  IND d   1      -2.981   1.544  -3.079  0.00  0.00    -0.031 A 
ATOM      6  C6  IND d   1      -3.922   2.412  -2.563  0.00  0.00     0.015 A 
ATOM      7  C7  IND d   1      -4.975   1.960  -1.818  0.00  0.00    -0.016 A 
ATOM      8  C8  IND d   1      -5.061   0.589  -1.623  0.00  0.00    -0.047 A 
ATOM      9  C9  IND d   1      -4.133  -0.300  -2.180  0.00  0.00    -0.096 A 
ATOM     10  HN1 IND d   1      -6.680   0.143  -0.526  0.00  0.00     0.298 HD
ENDROOT
TORSDOF 0
ENDMDL
