MODEL 1
REMARK minimizedAffinity 12.3542337
REMARK minimizedRMSD -1
REMARK  0 active torsions:
REMARK  status: ('A' for Active; 'I' for Inactive)
ROOT
ATOM      1  N1  IND d   1       3.306  -0.714   0.862  0.00  0.00    -0.196 N 
ATOM      2  C2  IND d   1       4.168  -1.757   1.056  0.00  0.00     0.054 A 
ATOM      3  C3  IND d   1       3.751  -2.527   2.086  0.00  0.00    -0.031 A 
ATOM      4  C4  IND d   1       1.629  -2.319   3.529  0.00  0.00     0.051 A 
ATOM      5  C5  IND d   1       0.554  -1.506   3.752  0.00  0.00    -0.031 A 
ATOM      6  C6  IND d   1       0.335  -0.365   3.007  0.00  0.00     0.015 A 
ATOM      7  C7  IND d   1       1.181  -0.000   1.998  0.00  0.00    -0.016 A 
ATOM      8  C8  IND d   1       2.278  -0.820   1.773  0.00  0.00    -0.047 A 
ATOM      9  C9  IND d   1       2.528  -1.956   2.554  0.00  0.00    -0.096 A 
ATOM     10  HN1 IND d   1       3.392  -0.096   0.271  0.00  0.00     0.298 HD
ENDROOT
TORSDOF 0
ENDMDL
