MODEL 1
REMARK minimizedAffinity -1.35994673
REMARK minimizedRMSD -1
REMARK  0 active torsions:
REMARK  status: ('A' for Active; 'I' for Inactive)
ROOT
ATOM      1  N1  IND d   1       3.181   3.231  -4.585  0.00  0.00    -0.196 N 
ATOM      2  C2  IND d   1       3.891   4.106  -5.357  0.00  0.00     0.054 A 
ATOM      3  C3  IND d   1       4.894   3.463  -5.996  0.00  0.00    -0.031 A 
ATOM      4  C4  IND d   1       5.490   0.958  -5.999  0.00  0.00     0.051 A 
ATOM      5  C5  IND d   1       5.150  -0.231  -5.417  0.00  0.00    -0.031 A 
ATOM      6  C6  IND d   1       4.114  -0.329  -4.511  0.00  0.00     0.015 A 
ATOM      7  C7  IND d   1       3.368   0.761  -4.161  0.00  0.00    -0.016 A 
ATOM      8  C8  IND d   1       3.715   1.971  -4.745  0.00  0.00    -0.047 A 
ATOM      9  C9  IND d   1       4.792   2.085  -5.633  0.00  0.00    -0.096 A 
ATOM     10  HN1 IND d   1       2.512   3.433  -4.083  0.00  0.00     0.298 HD
ENDROOT
TORSDOF 0
ENDMDL
