MODEL 1
REMARK minimizedAffinity 16.5699902
REMARK minimizedRMSD -1
REMARK  0 active torsions:
REMARK  status: ('A' for Active; 'I' for Inactive)
ROOT
ATOM      1  N1  IND d   1      -5.963  -2.198  -5.108  0.00  0.00    -0.196 N 
ATOM      2  C2  IND d   1      -5.193  -1.561  -4.175  0.00  0.00     0.054 A 
ATOM      3  C3  IND d   1      -4.288  -2.417  -3.649  0.00  0.00    -0.031 A 
ATOM      4  C4  IND d   1      -3.825  -4.878  -4.243  0.00  0.00     0.051 A 
ATOM      5  C5  IND d   1      -4.295  -5.908  -5.009  0.00  0.00    -0.031 A 
ATOM      6  C6  IND d   1      -5.365  -5.750  -5.867  0.00  0.00     0.015 A 
ATOM      7  C7  IND d   1      -6.000  -4.547  -5.999  0.00  0.00    -0.016 A 
ATOM      8  C8  IND d   1      -5.530  -3.501  -5.218  0.00  0.00    -0.047 A 
ATOM      9  C9  IND d   1      -4.472  -3.667  -4.314  0.00  0.00    -0.096 A 
ATOM     10  HN1 IND d   1      -6.608  -1.844  -5.552  0.00  0.00     0.298 HD
ENDROOT
TORSDOF 0
ENDMDL
