MODEL 1
REMARK minimizedAffinity 14.6739836
REMARK minimizedRMSD -1
REMARK  0 active torsions:
REMARK  status: ('A' for Active; 'I' for Inactive)
ROOT
ATOM      1  N1  IND d   1       1.066  -0.754   3.823  0.00  0.00    -0.196 N 
ATOM      2  C2  IND d   1       0.879  -2.011   4.324  0.00  0.00     0.054 A 
ATOM      3  C3  IND d   1       1.086  -2.937   3.362  0.00  0.00    -0.031 A 
ATOM      4  C4  IND d   1       1.839  -2.618   0.921  0.00  0.00     0.051 A 
ATOM      5  C5  IND d   1       2.101  -1.650  -0.008  0.00  0.00    -0.031 A 
ATOM      6  C6  IND d   1       2.033  -0.307   0.300  0.00  0.00     0.015 A 
ATOM      7  C7  IND d   1       1.709   0.120   1.556  0.00  0.00    -0.016 A 
ATOM      8  C8  IND d   1       1.436  -0.860   2.500  0.00  0.00    -0.047 A 
ATOM      9  C9  IND d   1       1.462  -2.224   2.182  0.00  0.00    -0.096 A 
ATOM     10  HN1 IND d   1       0.969  -0.020   4.260  0.00  0.00     0.298 HD
ENDROOT
TORSDOF 0
ENDMDL
