MODEL 1
REMARK minimizedAffinity 4.89969969
REMARK minimizedRMSD -1
REMARK  0 active torsions:
REMARK  status: ('A' for Active; 'I' for Inactive)
ROOT
ATOM      1  N1  IND d   1       1.290   0.990   1.380  0.00  0.00    -0.196 N 
ATOM      2  C2  IND d   1       2.618   0.815   1.654  0.00  0.00     0.054 A 
ATOM      3  C3  IND d   1       2.926  -0.502   1.663  0.00  0.00    -0.031 A 
ATOM      4  C4  IND d   1       1.431  -2.535   1.155  0.00  0.00     0.051 A 
ATOM      5  C5  IND d   1       0.136  -2.880   0.888  0.00  0.00    -0.031 A 
ATOM      6  C6  IND d   1      -0.860  -1.934   0.767  0.00  0.00     0.015 A 
ATOM      7  C7  IND d   1      -0.595  -0.600   0.897  0.00  0.00    -0.016 A 
ATOM      8  C8  IND d   1       0.717  -0.246   1.175  0.00  0.00    -0.047 A 
ATOM      9  C9  IND d   1       1.725  -1.205   1.341  0.00  0.00    -0.096 A 
ATOM     10  HN1 IND d   1       0.881   1.746   1.342  0.00  0.00     0.298 HD
ENDROOT
TORSDOF 0
ENDMDL
