MODEL 1
REMARK minimizedAffinity 7.43537378
REMARK minimizedRMSD -1
REMARK  0 active torsions:
REMARK  status: ('A' for Active; 'I' for Inactive)
ROOT
ATOM      1  C   UNL d   1      -0.374  -6.000   2.175  0.00  0.00     0.078 C 
ATOM      2  C1  UNL d   1      -0.622  -4.916   1.169  0.00  0.00    -0.077 A 
ATOM      3  C2  UNL d   1      -0.752  -3.580   1.566  0.00  0.00    -0.001 A 
ATOM      4  C3  UNL d   1      -0.993  -2.582   0.619  0.00  0.00     0.003 A 
ATOM      5  C4  UNL d   1      -1.107  -2.911  -0.730  0.00  0.00    -0.005 A 
ATOM      6  C5  UNL d   1      -0.981  -4.239  -1.134  0.00  0.00     0.003 A 
ATOM      7  C6  UNL d   1      -0.741  -5.237  -0.189  0.00  0.00    -0.001 A 
ENDROOT
TORSDOF 0
ENDMDL
