MODEL 1
REMARK minimizedAffinity 1.95019126
REMARK minimizedRMSD -1
REMARK  0 active torsions:
REMARK  status: ('A' for Active; 'I' for Inactive)
ROOT
ATOM      1  C   UNL d   1      -2.112  -2.022   3.707  0.00  0.00     0.078 C 
ATOM      2  C1  UNL d   1      -1.726  -2.655   2.404  0.00  0.00    -0.077 A 
ATOM      3  C2  UNL d   1      -1.461  -4.028   2.320  0.00  0.00    -0.001 A 
ATOM      4  C3  UNL d   1      -1.094  -4.602   1.102  0.00  0.00     0.003 A 
ATOM      5  C4  UNL d   1      -0.988  -3.812  -0.041  0.00  0.00    -0.005 A 
ATOM      6  C5  UNL d   1      -1.248  -2.445   0.034  0.00  0.00     0.003 A 
ATOM      7  C6  UNL d   1      -1.615  -1.869   1.251  0.00  0.00    -0.001 A 
ENDROOT
TORSDOF 0
ENDMDL
