MODEL 1
REMARK minimizedAffinity 7.30172157
REMARK minimizedRMSD -1
REMARK  0 active torsions:
REMARK  status: ('A' for Active; 'I' for Inactive)
ROOT
ATOM      1  C   UNL d   1       2.795   2.182   1.004  0.00  0.00     0.078 C 
ATOM      2  C1  UNL d   1       2.767   1.335  -0.233  0.00  0.00    -0.077 A 
ATOM      3  C2  UNL d   1       2.764  -0.063  -0.150  0.00  0.00    -0.001 A 
ATOM      4  C3  UNL d   1       2.748  -0.839  -1.309  0.00  0.00     0.003 A 
ATOM      5  C4  UNL d   1       2.735  -0.227  -2.561  0.00  0.00    -0.005 A 
ATOM      6  C5  UNL d   1       2.740   1.163  -2.654  0.00  0.00     0.003 A 
ATOM      7  C6  UNL d   1       2.756   1.941  -1.495  0.00  0.00    -0.001 A 
ENDROOT
TORSDOF 0
ENDMDL
