MODEL 1
REMARK minimizedAffinity 2.5636723
REMARK minimizedRMSD -1
REMARK  0 active torsions:
REMARK  status: ('A' for Active; 'I' for Inactive)
ROOT
ATOM      1  C   UNL d   1      -1.583  -2.842  -2.774  0.00  0.00     0.078 C 
ATOM      2  C1  UNL d   1      -1.513  -2.854  -1.276  0.00  0.00    -0.077 A 
ATOM      3  C2  UNL d   1      -2.126  -1.850  -0.517  0.00  0.00    -0.001 A 
ATOM      4  C3  UNL d   1      -2.044  -1.868   0.876  0.00  0.00     0.003 A 
ATOM      5  C4  UNL d   1      -1.349  -2.889   1.523  0.00  0.00    -0.005 A 
ATOM      6  C5  UNL d   1      -0.733  -3.891   0.776  0.00  0.00     0.003 A 
ATOM      7  C6  UNL d   1      -0.814  -3.874  -0.617  0.00  0.00    -0.001 A 
ENDROOT
TORSDOF 0
ENDMDL
