MODEL 1
REMARK minimizedAffinity 3.98095536
REMARK minimizedRMSD -1
REMARK  0 active torsions:
REMARK  status: ('A' for Active; 'I' for Inactive)
ROOT
ATOM      1  C   UNL d   1       3.395  -0.007  -2.541  0.00  0.00     0.078 C 
ATOM      2  C1  UNL d   1       3.116   0.688  -1.242  0.00  0.00    -0.077 A 
ATOM      3  C2  UNL d   1       3.900   1.768  -0.819  0.00  0.00    -0.001 A 
ATOM      4  C3  UNL d   1       3.636   2.399   0.398  0.00  0.00     0.003 A 
ATOM      5  C4  UNL d   1       2.587   1.956   1.202  0.00  0.00    -0.005 A 
ATOM      6  C5  UNL d   1       1.803   0.880   0.790  0.00  0.00     0.003 A 
ATOM      7  C6  UNL d   1       2.066   0.248  -0.426  0.00  0.00    -0.001 A 
ENDROOT
TORSDOF 0
ENDMDL
