MODEL 1
REMARK minimizedAffinity 6.0757122
REMARK minimizedRMSD -1
REMARK  0 active torsions:
REMARK  status: ('A' for Active; 'I' for Inactive)
ROOT
ATOM      1  C   UNL d   1       4.749   3.055  -0.391  0.00  0.00     0.078 C 
ATOM      2  C1  UNL d   1       4.776   1.793  -1.200  0.00  0.00    -0.077 A 
ATOM      3  C2  UNL d   1       5.989   1.198  -1.567  0.00  0.00    -0.001 A 
ATOM      4  C3  UNL d   1       6.000   0.028  -2.329  0.00  0.00     0.003 A 
ATOM      5  C4  UNL d   1       4.800  -0.556  -2.730  0.00  0.00    -0.005 A 
ATOM      6  C5  UNL d   1       3.588   0.029  -2.371  0.00  0.00     0.003 A 
ATOM      7  C6  UNL d   1       3.576   1.199  -1.610  0.00  0.00    -0.001 A 
ENDROOT
TORSDOF 0
ENDMDL
