MODEL 1
REMARK minimizedAffinity 8.3557806
REMARK minimizedRMSD -1
REMARK  0 active torsions:
REMARK  status: ('A' for Active; 'I' for Inactive)
ROOT
ATOM      1  C   UNL d   1      -2.088  -1.887   3.840  0.00  0.00     0.078 C 
ATOM      2  C1  UNL d   1      -1.720  -2.086   2.400  0.00  0.00    -0.077 A 
ATOM      3  C2  UNL d   1      -0.887  -3.141   2.008  0.00  0.00    -0.001 A 
ATOM      4  C3  UNL d   1      -0.544  -3.308   0.665  0.00  0.00     0.003 A 
ATOM      5  C4  UNL d   1      -1.029  -2.424  -0.296  0.00  0.00    -0.005 A 
ATOM      6  C5  UNL d   1      -1.856  -1.369   0.085  0.00  0.00     0.003 A 
ATOM      7  C6  UNL d   1      -2.200  -1.200   1.427  0.00  0.00    -0.001 A 
ENDROOT
TORSDOF 0
ENDMDL
