MODEL 1
REMARK minimizedAffinity 17.2004833
REMARK minimizedRMSD -1
REMARK  0 active torsions:
REMARK  status: ('A' for Active; 'I' for Inactive)
ROOT
ATOM      1  C   UNL d   1       2.263   5.999   6.000  0.00  0.00     0.078 C 
ATOM      2  C1  UNL d   1       3.088   4.866   5.467  0.00  0.00    -0.077 A 
ATOM      3  C2  UNL d   1       2.569   3.568   5.394  0.00  0.00    -0.001 A 
ATOM      4  C3  UNL d   1       3.351   2.521   4.905  0.00  0.00     0.003 A 
ATOM      5  C4  UNL d   1       4.659   2.761   4.487  0.00  0.00    -0.005 A 
ATOM      6  C5  UNL d   1       5.185   4.049   4.558  0.00  0.00     0.003 A 
ATOM      7  C6  UNL d   1       4.404   5.097   5.046  0.00  0.00    -0.001 A 
ENDROOT
TORSDOF 0
ENDMDL
