MODEL 1
REMARK minimizedAffinity 9.18305111
REMARK minimizedRMSD -1
REMARK  0 active torsions:
REMARK  status: ('A' for Active; 'I' for Inactive)
ROOT
ATOM      1  C   UNL d   1      -0.374  -5.534   1.141  0.00  0.00     0.078 C 
ATOM      2  C1  UNL d   1      -0.924  -4.185   0.784  0.00  0.00    -0.077 A 
ATOM      3  C2  UNL d   1      -1.892  -3.566   1.583  0.00  0.00    -0.001 A 
ATOM      4  C3  UNL d   1      -2.402  -2.315   1.233  0.00  0.00     0.003 A 
ATOM      5  C4  UNL d   1      -1.949  -1.672   0.083  0.00  0.00    -0.005 A 
ATOM      6  C5  UNL d   1      -0.987  -2.281  -0.720  0.00  0.00     0.003 A 
ATOM      7  C6  UNL d   1      -0.477  -3.533  -0.372  0.00  0.00    -0.001 A 
ENDROOT
TORSDOF 0
ENDMDL
