MODEL 1
REMARK minimizedAffinity 15.5075216
REMARK minimizedRMSD -1
REMARK  0 active torsions:
REMARK  status: ('A' for Active; 'I' for Inactive)
ROOT
ATOM      1  C   UNL d   1       2.245  -0.002  -2.277  0.00  0.00     0.078 C 
ATOM      2  C1  UNL d   1       2.956   1.103  -1.555  0.00  0.00    -0.077 A 
ATOM      3  C2  UNL d   1       4.167   1.616  -2.036  0.00  0.00    -0.001 A 
ATOM      4  C3  UNL d   1       4.822   2.639  -1.348  0.00  0.00     0.003 A 
ATOM      5  C4  UNL d   1       4.276   3.156  -0.176  0.00  0.00    -0.005 A 
ATOM      6  C5  UNL d   1       3.072   2.650   0.311  0.00  0.00     0.003 A 
ATOM      7  C6  UNL d   1       2.415   1.628  -0.375  0.00  0.00    -0.001 A 
ENDROOT
TORSDOF 0
ENDMDL
