MODEL 1
REMARK minimizedAffinity 8.18246078
REMARK minimizedRMSD -1
REMARK  0 active torsions:
REMARK  status: ('A' for Active; 'I' for Inactive)
ROOT
ATOM      1  C   UNL d   1       2.568   2.160   0.470  0.00  0.00     0.078 C 
ATOM      2  C1  UNL d   1       3.762   2.995   0.115  0.00  0.00    -0.077 A 
ATOM      3  C2  UNL d   1       3.769   4.377   0.341  0.00  0.00    -0.001 A 
ATOM      4  C3  UNL d   1       4.884   5.142  -0.004  0.00  0.00     0.003 A 
ATOM      5  C4  UNL d   1       5.999   4.536  -0.579  0.00  0.00    -0.005 A 
ATOM      6  C5  UNL d   1       6.000   3.161  -0.810  0.00  0.00     0.003 A 
ATOM      7  C6  UNL d   1       4.886   2.394  -0.465  0.00  0.00    -0.001 A 
ENDROOT
TORSDOF 0
ENDMDL
