MODEL 1
REMARK minimizedAffinity 13.2083988
REMARK minimizedRMSD -1
REMARK  0 active torsions:
REMARK  status: ('A' for Active; 'I' for Inactive)
ROOT
ATOM      1  C   UNL d   1       3.382   1.845   1.060  0.00  0.00     0.078 C 
ATOM      2  C1  UNL d   1       4.255   2.883   0.419  0.00  0.00    -0.077 A 
ATOM      3  C2  UNL d   1       5.187   2.534  -0.565  0.00  0.00    -0.001 A 
ATOM      4  C3  UNL d   1       5.999   3.509  -1.146  0.00  0.00     0.003 A 
ATOM      5  C4  UNL d   1       5.888   4.840  -0.749  0.00  0.00    -0.005 A 
ATOM      6  C5  UNL d   1       4.964   5.197   0.232  0.00  0.00     0.003 A 
ATOM      7  C6  UNL d   1       4.151   4.223   0.814  0.00  0.00    -0.001 A 
ENDROOT
TORSDOF 0
ENDMDL
