MODEL 1
REMARK minimizedAffinity 11.5561314
REMARK minimizedRMSD -1
REMARK  0 active torsions:
REMARK  status: ('A' for Active; 'I' for Inactive)
ROOT
ATOM      1  C   UNL d   1      -0.211  -5.208   0.753  0.00  0.00     0.078 C 
ATOM      2  C1  UNL d   1      -0.722  -3.805   0.612  0.00  0.00    -0.077 A 
ATOM      3  C2  UNL d   1      -1.410  -3.180   1.658  0.00  0.00    -0.001 A 
ATOM      4  C3  UNL d   1      -1.888  -1.877   1.509  0.00  0.00     0.003 A 
ATOM      5  C4  UNL d   1      -1.684  -1.189   0.315  0.00  0.00    -0.005 A 
ATOM      6  C5  UNL d   1      -1.003  -1.804  -0.733  0.00  0.00     0.003 A 
ATOM      7  C6  UNL d   1      -0.524  -3.107  -0.586  0.00  0.00    -0.001 A 
ENDROOT
TORSDOF 0
ENDMDL
