MODEL 1
REMARK minimizedAffinity 6.08337021
REMARK minimizedRMSD -1
REMARK  0 active torsions:
REMARK  status: ('A' for Active; 'I' for Inactive)
ROOT
ATOM      1  C   UNL d   1       3.366   2.575   3.546  0.00  0.00     0.078 C 
ATOM      2  C1  UNL d   1       3.237   2.544   2.052  0.00  0.00    -0.077 A 
ATOM      3  C2  UNL d   1       2.194   1.845   1.433  0.00  0.00    -0.001 A 
ATOM      4  C3  UNL d   1       2.091   1.817   0.041  0.00  0.00     0.003 A 
ATOM      5  C4  UNL d   1       3.030   2.485  -0.743  0.00  0.00    -0.005 A 
ATOM      6  C5  UNL d   1       4.072   3.182  -0.136  0.00  0.00     0.003 A 
ATOM      7  C6  UNL d   1       4.176   3.211   1.256  0.00  0.00    -0.001 A 
ENDROOT
TORSDOF 0
ENDMDL
