MODEL 1
REMARK minimizedAffinity 5.97431278
REMARK minimizedRMSD -1
REMARK  0 active torsions:
REMARK  status: ('A' for Active; 'I' for Inactive)
ROOT
ATOM      1  C   UNL d   1      -1.895  -2.715   0.281  0.00  0.00     0.078 C 
ATOM      2  C1  UNL d   1      -1.531  -3.859   1.180  0.00  0.00    -0.077 A 
ATOM      3  C2  UNL d   1      -1.912  -3.866   2.528  0.00  0.00    -0.001 A 
ATOM      4  C3  UNL d   1      -1.558  -4.933   3.355  0.00  0.00     0.003 A 
ATOM      5  C4  UNL d   1      -0.820  -5.999   2.846  0.00  0.00    -0.005 A 
ATOM      6  C5  UNL d   1      -0.435  -6.000   1.507  0.00  0.00     0.003 A 
ATOM      7  C6  UNL d   1      -0.788  -4.934   0.677  0.00  0.00    -0.001 A 
ENDROOT
TORSDOF 0
ENDMDL
