MODEL 1
REMARK minimizedAffinity 6.91271448
REMARK minimizedRMSD -1
REMARK  0 active torsions:
REMARK  status: ('A' for Active; 'I' for Inactive)
ROOT
ATOM      1  C   UNL d   1       5.371   4.096  -0.217  0.00  0.00     0.078 C 
ATOM      2  C1  UNL d   1       4.331   3.141   0.288  0.00  0.00    -0.077 A 
ATOM      3  C2  UNL d   1       4.171   2.909   1.660  0.00  0.00    -0.001 A 
ATOM      4  C3  UNL d   1       3.206   2.010   2.116  0.00  0.00     0.003 A 
ATOM      5  C4  UNL d   1       2.395   1.334   1.207  0.00  0.00    -0.005 A 
ATOM      6  C5  UNL d   1       2.549   1.556  -0.160  0.00  0.00     0.003 A 
ATOM      7  C6  UNL d   1       3.513   2.455  -0.618  0.00  0.00    -0.001 A 
ENDROOT
TORSDOF 0
ENDMDL
