MODEL 1
REMARK minimizedAffinity 9.06012344
REMARK minimizedRMSD -1
REMARK  1 active torsions:
REMARK  status: ('A' for Active; 'I' for Inactive)
REMARK    1  A    between atoms: C1_2  and  C2_3 
ROOT
ATOM      1  C2  UNL d   1      -3.220  -2.494  -2.270  0.00  0.00    -0.073 A 
ATOM      2  C3  UNL d   1      -1.987  -3.077  -1.955  0.00  0.00    -0.002 A 
ATOM      3  C4  UNL d   1      -1.875  -3.945  -0.867  0.00  0.00     0.004 A 
ATOM      4  C5  UNL d   1      -2.993  -4.243  -0.089  0.00  0.00    -0.004 A 
ATOM      5  C6  UNL d   1      -4.236  -3.680  -0.396  0.00  0.00    -0.075 A 
ATOM      6  C7  UNL d   1      -5.449  -3.990   0.433  0.00  0.00     0.076 C 
ATOM      7  C8  UNL d   1      -4.340  -2.808  -1.487  0.00  0.00     0.001 A 
ENDROOT
BRANCH   1   8
ATOM      8  C1  UNL d   1      -3.347  -1.562  -3.447  0.00  0.00     0.053 C 
ATOM      9  C   UNL d   1      -4.398  -0.488  -3.212  0.00  0.00     0.018 C 
ENDBRANCH   1   8
TORSDOF 1
ENDMDL
