MODEL 1
REMARK minimizedAffinity 7.38719225
REMARK minimizedRMSD -1
REMARK  1 active torsions:
REMARK  status: ('A' for Active; 'I' for Inactive)
REMARK    1  A    between atoms: C1_2  and  C2_3 
ROOT
ATOM      1  C2  UNL d   1      -2.763  -4.295   0.840  0.00  0.00    -0.073 A 
ATOM      2  C3  UNL d   1      -2.236  -2.999   0.887  0.00  0.00    -0.002 A 
ATOM      3  C4  UNL d   1      -1.242  -2.676   1.811  0.00  0.00     0.004 A 
ATOM      4  C5  UNL d   1      -0.761  -3.644   2.692  0.00  0.00    -0.004 A 
ATOM      5  C6  UNL d   1      -1.266  -4.947   2.653  0.00  0.00    -0.075 A 
ATOM      6  C7  UNL d   1      -0.761  -6.000   3.596  0.00  0.00     0.076 C 
ATOM      7  C8  UNL d   1      -2.266  -5.264   1.723  0.00  0.00     0.001 A 
ENDROOT
BRANCH   1   8
ATOM      8  C1  UNL d   1      -3.831  -4.651  -0.161  0.00  0.00     0.053 C 
ATOM      9  C   UNL d   1      -3.341  -4.507  -1.593  0.00  0.00     0.018 C 
ENDBRANCH   1   8
TORSDOF 1
ENDMDL
