MODEL 1
REMARK minimizedAffinity 7.73377991
REMARK minimizedRMSD -1
REMARK  1 active torsions:
REMARK  status: ('A' for Active; 'I' for Inactive)
REMARK    1  A    between atoms: C1_2  and  C2_3 
ROOT
ATOM      1  C2  UNL d   1       0.811  -4.233   2.991  0.00  0.00    -0.073 A 
ATOM      2  C3  UNL d   1      -0.336  -4.619   2.290  0.00  0.00    -0.002 A 
ATOM      3  C4  UNL d   1      -0.639  -4.036   1.058  0.00  0.00     0.004 A 
ATOM      4  C5  UNL d   1       0.205  -3.068   0.514  0.00  0.00    -0.004 A 
ATOM      5  C6  UNL d   1       1.363  -2.678   1.194  0.00  0.00    -0.075 A 
ATOM      6  C7  UNL d   1       2.280  -1.637   0.623  0.00  0.00     0.076 C 
ATOM      7  C8  UNL d   1       1.659  -3.266   2.432  0.00  0.00     0.001 A 
ENDROOT
BRANCH   1   8
ATOM      8  C1  UNL d   1       1.145  -4.865   4.318  0.00  0.00     0.053 C 
ATOM      9  C   UNL d   1       0.195  -6.000   4.665  0.00  0.00     0.018 C 
ENDBRANCH   1   8
TORSDOF 1
ENDMDL
