MODEL 1
REMARK minimizedAffinity -0.296759784
REMARK minimizedRMSD -1
REMARK  1 active torsions:
REMARK  status: ('A' for Active; 'I' for Inactive)
REMARK    1  A    between atoms: C1_2  and  C2_3 
ROOT
ATOM      1  C2  UNL d   1       2.372  -1.390   0.259  0.00  0.00    -0.073 A 
ATOM      2  C3  UNL d   1       3.104  -2.353  -0.445  0.00  0.00    -0.002 A 
ATOM      3  C4  UNL d   1       2.750  -3.701  -0.370  0.00  0.00     0.004 A 
ATOM      4  C5  UNL d   1       1.659  -4.099   0.403  0.00  0.00    -0.004 A 
ATOM      5  C6  UNL d   1       0.909  -3.150   1.104  0.00  0.00    -0.075 A 
ATOM      6  C7  UNL d   1      -0.266  -3.562   1.942  0.00  0.00     0.076 C 
ATOM      7  C8  UNL d   1       1.271  -1.799   1.026  0.00  0.00     0.001 A 
ENDROOT
BRANCH   1   8
ATOM      8  C1  UNL d   1       2.746   0.067   0.177  0.00  0.00     0.053 C 
ATOM      9  C   UNL d   1       2.026   0.901   1.225  0.00  0.00     0.018 C 
ENDBRANCH   1   8
TORSDOF 1
ENDMDL
