MODEL 1
REMARK minimizedAffinity 7.67074013
REMARK minimizedRMSD -1
REMARK  1 active torsions:
REMARK  status: ('A' for Active; 'I' for Inactive)
REMARK    1  A    between atoms: C1_2  and  C2_3 
ROOT
ATOM      1  C2  UNL d   1      -1.024   2.960  -3.656  0.00  0.00    -0.073 A 
ATOM      2  C3  UNL d   1      -1.519   3.529  -4.836  0.00  0.00    -0.002 A 
ATOM      3  C4  UNL d   1      -0.749   3.519  -5.999  0.00  0.00     0.004 A 
ATOM      4  C5  UNL d   1       0.518   2.936  -5.998  0.00  0.00    -0.004 A 
ATOM      5  C6  UNL d   1       1.024   2.351  -4.833  0.00  0.00    -0.075 A 
ATOM      6  C7  UNL d   1       2.386   1.721  -4.815  0.00  0.00     0.076 C 
ATOM      7  C8  UNL d   1       0.246   2.368  -3.667  0.00  0.00     0.001 A 
ENDROOT
BRANCH   1   8
ATOM      8  C1  UNL d   1      -1.855   2.963  -2.399  0.00  0.00     0.053 C 
ATOM      9  C   UNL d   1      -3.142   2.171  -2.564  0.00  0.00     0.018 C 
ENDBRANCH   1   8
TORSDOF 1
ENDMDL
