MODEL 1
REMARK minimizedAffinity 5.96140432
REMARK minimizedRMSD -1
REMARK  1 active torsions:
REMARK  status: ('A' for Active; 'I' for Inactive)
REMARK    1  A    between atoms: C1_2  and  C2_3 
ROOT
ATOM      1  C2  UNL d   1       0.311   2.763  -4.989  0.00  0.00    -0.073 A 
ATOM      2  C3  UNL d   1      -0.631   2.986  -6.000  0.00  0.00    -0.002 A 
ATOM      3  C4  UNL d   1      -1.759   3.768  -5.751  0.00  0.00     0.004 A 
ATOM      4  C5  UNL d   1      -1.954   4.340  -4.494  0.00  0.00    -0.004 A 
ATOM      5  C6  UNL d   1      -1.019   4.138  -3.475  0.00  0.00    -0.075 A 
ATOM      6  C7  UNL d   1      -1.215   4.744  -2.116  0.00  0.00     0.076 C 
ATOM      7  C8  UNL d   1       0.111   3.349  -3.731  0.00  0.00     0.001 A 
ENDROOT
BRANCH   1   8
ATOM      8  C1  UNL d   1       1.535   1.924  -5.254  0.00  0.00     0.053 C 
ATOM      9  C   UNL d   1       2.743   2.776  -5.609  0.00  0.00     0.018 C 
ENDBRANCH   1   8
TORSDOF 1
ENDMDL
