MODEL 1
REMARK minimizedAffinity -4.06844854
REMARK minimizedRMSD -1
REMARK  1 active torsions:
REMARK  status: ('A' for Active; 'I' for Inactive)
REMARK    1  A    between atoms: C1_2  and  C2_3 
ROOT
ATOM      1  C2  UNL d   1      -1.783   1.706  -0.572  0.00  0.00    -0.073 A 
ATOM      2  C3  UNL d   1      -1.080   1.009   0.418  0.00  0.00    -0.002 A 
ATOM      3  C4  UNL d   1      -1.749   0.502   1.533  0.00  0.00     0.004 A 
ATOM      4  C5  UNL d   1      -3.126   0.679   1.666  0.00  0.00    -0.004 A 
ATOM      5  C6  UNL d   1      -3.848   1.361   0.682  0.00  0.00    -0.075 A 
ATOM      6  C7  UNL d   1      -5.329   1.562   0.811  0.00  0.00     0.076 C 
ATOM      7  C8  UNL d   1      -3.169   1.871  -0.433  0.00  0.00     0.001 A 
ENDROOT
BRANCH   1   8
ATOM      8  C1  UNL d   1      -1.066   2.250  -1.780  0.00  0.00     0.053 C 
ATOM      9  C   UNL d   1      -1.695   1.772  -3.079  0.00  0.00     0.018 C 
ENDBRANCH   1   8
TORSDOF 1
ENDMDL
