MODEL 1
REMARK minimizedAffinity -3.31226492
REMARK minimizedRMSD -1
REMARK  1 active torsions:
REMARK  status: ('A' for Active; 'I' for Inactive)
REMARK    1  A    between atoms: C1_2  and  C2_3 
ROOT
ATOM      1  C2  UNL d   1       1.076  -3.323  -0.293  0.00  0.00    -0.073 A 
ATOM      2  C3  UNL d   1       0.638  -2.631   0.842  0.00  0.00    -0.002 A 
ATOM      3  C4  UNL d   1      -0.708  -2.287   0.982  0.00  0.00     0.004 A 
ATOM      4  C5  UNL d   1      -1.628  -2.637  -0.006  0.00  0.00    -0.004 A 
ATOM      5  C6  UNL d   1      -1.211  -3.339  -1.142  0.00  0.00    -0.075 A 
ATOM      6  C7  UNL d   1      -2.189  -3.720  -2.215  0.00  0.00     0.076 C 
ATOM      7  C8  UNL d   1       0.142  -3.678  -1.277  0.00  0.00     0.001 A 
ENDROOT
BRANCH   1   8
ATOM      8  C1  UNL d   1       2.526  -3.702  -0.446  0.00  0.00     0.053 C 
ATOM      9  C   UNL d   1       2.765  -4.559  -1.679  0.00  0.00     0.018 C 
ENDBRANCH   1   8
TORSDOF 1
ENDMDL
