MODEL 1
REMARK minimizedAffinity 1.21537375
REMARK minimizedRMSD -1
REMARK  1 active torsions:
REMARK  status: ('A' for Active; 'I' for Inactive)
REMARK    1  A    between atoms: C1_2  and  C2_3 
ROOT
ATOM      1  C2  UNL d   1       1.299   2.069  -3.130  0.00  0.00    -0.081 A 
ATOM      2  C3  UNL d   1       0.279   2.998  -2.892  0.00  0.00     0.006 A 
ATOM      3  C4  UNL d   1      -0.748   3.176  -3.822  0.00  0.00     0.002 A 
ATOM      4  C5  UNL d   1      -0.775   2.424  -5.002  0.00  0.00    -0.080 A 
ATOM      5  C6  UNL d   1      -1.888   2.585  -5.995  0.00  0.00     0.076 C 
ATOM      6  C7  UNL d   1       0.254   1.510  -5.248  0.00  0.00     0.002 A 
ATOM      7  C8  UNL d   1       1.281   1.331  -4.319  0.00  0.00     0.006 A 
ENDROOT
BRANCH   1   8
ATOM      8  C1  UNL d   1       2.372   1.828  -2.099  0.00  0.00     0.054 C 
ATOM      9  C   UNL d   1       3.741   2.250  -2.616  0.00  0.00     0.018 C 
ENDBRANCH   1   8
TORSDOF 1
ENDMDL
