MODEL 1
REMARK minimizedAffinity 7.89921808
REMARK minimizedRMSD -1
REMARK  1 active torsions:
REMARK  status: ('A' for Active; 'I' for Inactive)
REMARK    1  A    between atoms: C1_2  and  C2_3 
ROOT
ATOM      1  C2  UNL d   1      -0.490   2.825   1.339  0.00  0.00    -0.081 A 
ATOM      2  C3  UNL d   1      -1.682   2.474   1.983  0.00  0.00     0.006 A 
ATOM      3  C4  UNL d   1      -2.322   1.269   1.682  0.00  0.00     0.002 A 
ATOM      4  C5  UNL d   1      -1.777   0.392   0.738  0.00  0.00    -0.080 A 
ATOM      5  C6  UNL d   1      -2.438  -0.918   0.427  0.00  0.00     0.076 C 
ATOM      6  C7  UNL d   1      -0.595   0.751   0.081  0.00  0.00     0.002 A 
ATOM      7  C8  UNL d   1       0.045   1.955   0.382  0.00  0.00     0.006 A 
ENDROOT
BRANCH   1   8
ATOM      8  C1  UNL d   1       0.237   4.093   1.708  0.00  0.00     0.054 C 
ATOM      9  C   UNL d   1       1.687   3.812   2.075  0.00  0.00     0.018 C 
ENDBRANCH   1   8
TORSDOF 1
ENDMDL
