MODEL 1
REMARK minimizedAffinity 1.72872722
REMARK minimizedRMSD -1
REMARK  1 active torsions:
REMARK  status: ('A' for Active; 'I' for Inactive)
REMARK    1  A    between atoms: C1_2  and  C2_3 
ROOT
ATOM      1  C2  UNL d   1      -2.739   3.735  -5.738  0.00  0.00    -0.081 A 
ATOM      2  C3  UNL d   1      -2.797   2.346  -5.904  0.00  0.00     0.006 A 
ATOM      3  C4  UNL d   1      -1.624   1.594  -5.999  0.00  0.00     0.002 A 
ATOM      4  C5  UNL d   1      -0.374   2.217  -5.923  0.00  0.00    -0.080 A 
ATOM      5  C6  UNL d   1       0.894   1.418  -5.993  0.00  0.00     0.076 C 
ATOM      6  C7  UNL d   1      -0.315   3.607  -5.775  0.00  0.00     0.002 A 
ATOM      7  C8  UNL d   1      -1.488   4.359  -5.680  0.00  0.00     0.006 A 
ENDROOT
BRANCH   1   8
ATOM      8  C1  UNL d   1      -4.002   4.541  -5.570  0.00  0.00     0.054 C 
ATOM      9  C   UNL d   1      -3.691   5.994  -5.241  0.00  0.00     0.018 C 
ENDBRANCH   1   8
TORSDOF 1
ENDMDL
