MODEL 1
REMARK minimizedAffinity 3.104599
REMARK minimizedRMSD -1
REMARK  1 active torsions:
REMARK  status: ('A' for Active; 'I' for Inactive)
REMARK    1  A    between atoms: C1_2  and  C2_3 
ROOT
ATOM      1  C2  UNL d   1      -0.142   0.638  -0.579  0.00  0.00    -0.081 A 
ATOM      2  C3  UNL d   1       1.182   0.255  -0.828  0.00  0.00     0.006 A 
ATOM      3  C4  UNL d   1       1.847   0.708  -1.970  0.00  0.00     0.002 A 
ATOM      4  C5  UNL d   1       1.203   1.556  -2.877  0.00  0.00    -0.080 A 
ATOM      5  C6  UNL d   1       1.916   2.074  -4.091  0.00  0.00     0.076 C 
ATOM      6  C7  UNL d   1      -0.125   1.925  -2.637  0.00  0.00     0.002 A 
ATOM      7  C8  UNL d   1      -0.790   1.472  -1.496  0.00  0.00     0.006 A 
ENDROOT
BRANCH   1   8
ATOM      8  C1  UNL d   1      -0.840   0.204   0.684  0.00  0.00     0.054 C 
ATOM      9  C   UNL d   1      -1.833   1.256   1.157  0.00  0.00     0.018 C 
ENDBRANCH   1   8
TORSDOF 1
ENDMDL
