MODEL 1
REMARK minimizedAffinity 2.98381877
REMARK minimizedRMSD -1
REMARK  1 active torsions:
REMARK  status: ('A' for Active; 'I' for Inactive)
REMARK    1  A    between atoms: C1_2  and  C2_3 
ROOT
ATOM      1  C2  UNL d   1      -0.683   1.619   1.015  0.00  0.00    -0.081 A 
ATOM      2  C3  UNL d   1      -1.949   1.024   0.954  0.00  0.00     0.006 A 
ATOM      3  C4  UNL d   1      -2.078  -0.345   0.709  0.00  0.00     0.002 A 
ATOM      4  C5  UNL d   1      -0.943  -1.143   0.528  0.00  0.00    -0.080 A 
ATOM      5  C6  UNL d   1      -1.066  -2.619   0.294  0.00  0.00     0.076 C 
ATOM      6  C7  UNL d   1       0.322  -0.546   0.572  0.00  0.00     0.002 A 
ATOM      7  C8  UNL d   1       0.451   0.823   0.817  0.00  0.00     0.006 A 
ENDROOT
BRANCH   1   8
ATOM      8  C1  UNL d   1      -0.539   3.083   1.344  0.00  0.00     0.054 C 
ATOM      9  C   UNL d   1       0.287   3.288   2.607  0.00  0.00     0.018 C 
ENDBRANCH   1   8
TORSDOF 1
ENDMDL
