MODEL 1
REMARK minimizedAffinity 2.65845156
REMARK minimizedRMSD -1
REMARK  1 active torsions:
REMARK  status: ('A' for Active; 'I' for Inactive)
REMARK    1  A    between atoms: C1_2  and  C2_3 
ROOT
ATOM      1  C2  UNL d   1      -2.387  -1.326  -0.336  0.00  0.00    -0.081 A 
ATOM      2  C3  UNL d   1      -3.187  -0.202  -0.576  0.00  0.00     0.006 A 
ATOM      3  C4  UNL d   1      -2.967   0.987   0.124  0.00  0.00     0.002 A 
ATOM      4  C5  UNL d   1      -1.939   1.074   1.069  0.00  0.00    -0.080 A 
ATOM      5  C6  UNL d   1      -1.672   2.353   1.806  0.00  0.00     0.076 C 
ATOM      6  C7  UNL d   1      -1.151  -0.055   1.321  0.00  0.00     0.002 A 
ATOM      7  C8  UNL d   1      -1.371  -1.243   0.622  0.00  0.00     0.006 A 
ENDROOT
BRANCH   1   8
ATOM      8  C1  UNL d   1      -2.581  -2.589  -1.136  0.00  0.00     0.054 C 
ATOM      9  C   UNL d   1      -1.381  -3.515  -1.006  0.00  0.00     0.018 C 
ENDBRANCH   1   8
TORSDOF 1
ENDMDL
