MODEL 1
REMARK minimizedAffinity 0.988395214
REMARK minimizedRMSD -1
REMARK  1 active torsions:
REMARK  status: ('A' for Active; 'I' for Inactive)
REMARK    1  A    between atoms: C1_2  and  C2_3 
ROOT
ATOM      1  C2  UNL d   1       0.053   0.412   0.597  0.00  0.00    -0.081 A 
ATOM      2  C3  UNL d   1      -0.819  -0.682   0.527  0.00  0.00     0.006 A 
ATOM      3  C4  UNL d   1      -2.202  -0.487   0.550  0.00  0.00     0.002 A 
ATOM      4  C5  UNL d   1      -2.736   0.803   0.635  0.00  0.00    -0.080 A 
ATOM      5  C6  UNL d   1      -4.219   1.028   0.630  0.00  0.00     0.076 C 
ATOM      6  C7  UNL d   1      -1.865   1.894   0.723  0.00  0.00     0.002 A 
ATOM      7  C8  UNL d   1      -0.482   1.701   0.701  0.00  0.00     0.006 A 
ENDROOT
BRANCH   1   8
ATOM      8  C1  UNL d   1       1.544   0.210   0.507  0.00  0.00     0.054 C 
ATOM      9  C   UNL d   1       1.935  -0.450  -0.807  0.00  0.00     0.018 C 
ENDBRANCH   1   8
TORSDOF 1
ENDMDL
