MODEL 1
REMARK minimizedAffinity 3.88693118
REMARK minimizedRMSD -1
REMARK  1 active torsions:
REMARK  status: ('A' for Active; 'I' for Inactive)
REMARK    1  A    between atoms: C1_2  and  C2_3 
ROOT
ATOM      1  C2  UNL d   1      -0.812   1.233   1.146  0.00  0.00    -0.081 A 
ATOM      2  C3  UNL d   1       0.356   0.537   0.809  0.00  0.00     0.006 A 
ATOM      3  C4  UNL d   1       1.595   0.952   1.304  0.00  0.00     0.002 A 
ATOM      4  C5  UNL d   1       1.686   2.062   2.150  0.00  0.00    -0.080 A 
ATOM      5  C6  UNL d   1       3.006   2.499   2.713  0.00  0.00     0.076 C 
ATOM      6  C7  UNL d   1       0.521   2.767   2.473  0.00  0.00     0.002 A 
ATOM      7  C8  UNL d   1      -0.717   2.354   1.978  0.00  0.00     0.006 A 
ENDROOT
BRANCH   1   8
ATOM      8  C1  UNL d   1      -2.157   0.750   0.667  0.00  0.00     0.054 C 
ATOM      9  C   UNL d   1      -3.117   1.911   0.451  0.00  0.00     0.018 C 
ENDBRANCH   1   8
TORSDOF 1
ENDMDL
