MODEL 1
REMARK minimizedAffinity 3.14758396
REMARK minimizedRMSD -1
REMARK  1 active torsions:
REMARK  status: ('A' for Active; 'I' for Inactive)
REMARK    1  A    between atoms: C1_2  and  C2_3 
ROOT
ATOM      1  C2  UNL d   1      -1.308  -1.378   0.226  0.00  0.00    -0.081 A 
ATOM      2  C3  UNL d   1      -0.036  -0.793   0.229  0.00  0.00     0.006 A 
ATOM      3  C4  UNL d   1       0.142   0.513   0.693  0.00  0.00     0.002 A 
ATOM      4  C5  UNL d   1      -0.947   1.251   1.169  0.00  0.00    -0.080 A 
ATOM      5  C6  UNL d   1      -0.765   2.643   1.699  0.00  0.00     0.076 C 
ATOM      6  C7  UNL d   1      -2.220   0.672   1.151  0.00  0.00     0.002 A 
ATOM      7  C8  UNL d   1      -2.399  -0.633   0.686  0.00  0.00     0.006 A 
ENDROOT
BRANCH   1   8
ATOM      8  C1  UNL d   1      -1.492  -2.808  -0.213  0.00  0.00     0.054 C 
ATOM      9  C   UNL d   1      -1.496  -2.925  -1.731  0.00  0.00     0.018 C 
ENDBRANCH   1   8
TORSDOF 1
ENDMDL
