MODEL 1
REMARK minimizedAffinity -5.3557663
REMARK minimizedRMSD -1
REMARK  1 active torsions:
REMARK  status: ('A' for Active; 'I' for Inactive)
REMARK    1  A    between atoms: N_2  and  C1_3 
ROOT
ATOM      1  C1  UNL d   1       0.730   0.309  -1.515  0.00  0.00     0.143 A 
ATOM      2  C2  UNL d   1       1.631  -0.760  -1.570  0.00  0.00    -0.057 A 
ATOM      3  C3  UNL d   1       2.712  -0.753  -2.460  0.00  0.00     0.033 A 
ATOM      4  C4  UNL d   1       2.895   0.313  -3.334  0.00  0.00    -0.042 A 
ATOM      5  C5  UNL d   1       1.997   1.375  -3.314  0.00  0.00     0.033 A 
ATOM      6  C6  UNL d   1       0.923   1.365  -2.419  0.00  0.00    -0.057 A 
ENDROOT
BRANCH   1   7
ATOM      7  N   UNL d   1      -0.420   0.316  -0.723  0.00  0.00    -0.732 N 
ATOM      8  C   UNL d   1      -0.668  -0.747   0.228  0.00  0.00     0.284 C 
ATOM      9  H3  UNL d   1      -0.646   1.246  -0.375  0.00  0.00     0.395 HD
ENDBRANCH   1   7
TORSDOF 1
ENDMDL
