MODEL 1
REMARK minimizedAffinity -3.6517725
REMARK minimizedRMSD -1
REMARK  1 active torsions:
REMARK  status: ('A' for Active; 'I' for Inactive)
REMARK    1  A    between atoms: N_2  and  C1_3 
ROOT
ATOM      1  C1  UNL d   1       0.338  -0.752   0.173  0.00  0.00     0.143 A 
ATOM      2  C2  UNL d   1       0.576  -0.130   1.403  0.00  0.00    -0.057 A 
ATOM      3  C3  UNL d   1      -0.448   0.533   2.092  0.00  0.00     0.033 A 
ATOM      4  C4  UNL d   1      -1.725   0.610   1.546  0.00  0.00    -0.042 A 
ATOM      5  C5  UNL d   1      -1.978   0.021   0.312  0.00  0.00     0.033 A 
ATOM      6  C6  UNL d   1      -0.953  -0.646  -0.367  0.00  0.00    -0.057 A 
ENDROOT
BRANCH   1   7
ATOM      7  N   UNL d   1       1.336  -1.341  -0.606  0.00  0.00    -0.732 N 
ATOM      8  C   UNL d   1       1.728  -0.754  -1.869  0.00  0.00     0.284 C 
ATOM      9  H3  UNL d   1       2.115  -1.683  -0.047  0.00  0.00     0.395 HD
ENDBRANCH   1   7
TORSDOF 1
ENDMDL
