MODEL 1
REMARK minimizedAffinity -3.83103657
REMARK minimizedRMSD -1
REMARK  1 active torsions:
REMARK  status: ('A' for Active; 'I' for Inactive)
REMARK    1  A    between atoms: N_2  and  C1_3 
ROOT
ATOM      1  C1  UNL d   1       2.293   0.513  -2.540  0.00  0.00     0.143 A 
ATOM      2  C2  UNL d   1       3.060  -0.605  -2.194  0.00  0.00    -0.057 A 
ATOM      3  C3  UNL d   1       2.777  -1.352  -1.045  0.00  0.00     0.033 A 
ATOM      4  C4  UNL d   1       1.735  -0.976  -0.202  0.00  0.00    -0.042 A 
ATOM      5  C5  UNL d   1       0.975   0.146  -0.513  0.00  0.00     0.033 A 
ATOM      6  C6  UNL d   1       1.259   0.884  -1.667  0.00  0.00    -0.057 A 
ENDROOT
BRANCH   1   7
ATOM      7  N   UNL d   1       2.585   1.354  -3.617  0.00  0.00    -0.732 N 
ATOM      8  C   UNL d   1       1.576   1.663  -4.607  0.00  0.00     0.284 C 
ATOM      9  H3  UNL d   1       3.157   2.150  -3.343  0.00  0.00     0.395 HD
ENDBRANCH   1   7
TORSDOF 1
ENDMDL
