MODEL 1
REMARK minimizedAffinity -4.34021997
REMARK minimizedRMSD -1
REMARK  1 active torsions:
REMARK  status: ('A' for Active; 'I' for Inactive)
REMARK    1  A    between atoms: N_2  and  C1_3 
ROOT
ATOM      1  C1  UNL d   1       0.607   0.538  -1.556  0.00  0.00     0.143 A 
ATOM      2  C2  UNL d   1      -0.358   0.333  -0.564  0.00  0.00    -0.057 A 
ATOM      3  C3  UNL d   1      -0.400  -0.857   0.172  0.00  0.00     0.033 A 
ATOM      4  C4  UNL d   1       0.507  -1.878  -0.092  0.00  0.00    -0.042 A 
ATOM      5  C5  UNL d   1       1.459  -1.706  -1.090  0.00  0.00     0.033 A 
ATOM      6  C6  UNL d   1       1.500  -0.512  -1.817  0.00  0.00    -0.057 A 
ENDROOT
BRANCH   1   7
ATOM      7  N   UNL d   1       0.639   1.659  -2.389  0.00  0.00    -0.732 N 
ATOM      8  C   UNL d   1       1.260   1.590  -3.695  0.00  0.00     0.284 C 
ATOM      9  H3  UNL d   1      -0.234   2.182  -2.371  0.00  0.00     0.395 HD
ENDBRANCH   1   7
TORSDOF 1
ENDMDL
