MODEL 1
REMARK minimizedAffinity -4.02940989
REMARK minimizedRMSD -1
REMARK  1 active torsions:
REMARK  status: ('A' for Active; 'I' for Inactive)
REMARK    1  A    between atoms: N_2  and  C1_3 
ROOT
ATOM      1  C1  UNL d   1      -0.023   0.274  -0.848  0.00  0.00     0.143 A 
ATOM      2  C2  UNL d   1       0.739  -0.877  -0.615  0.00  0.00    -0.057 A 
ATOM      3  C3  UNL d   1       1.894  -1.145  -1.359  0.00  0.00     0.033 A 
ATOM      4  C4  UNL d   1       2.294  -0.280  -2.371  0.00  0.00    -0.042 A 
ATOM      5  C5  UNL d   1       1.538   0.857  -2.637  0.00  0.00     0.033 A 
ATOM      6  C6  UNL d   1       0.389   1.123  -1.887  0.00  0.00    -0.057 A 
ENDROOT
BRANCH   1   7
ATOM      7  N   UNL d   1      -1.235   0.547  -0.210  0.00  0.00    -0.732 N 
ATOM      8  C   UNL d   1      -1.376   0.356   1.218  0.00  0.00     0.284 C 
ATOM      9  H3  UNL d   1      -1.678   1.392  -0.562  0.00  0.00     0.395 HD
ENDBRANCH   1   7
TORSDOF 1
ENDMDL
