MODEL 1
REMARK minimizedAffinity -3.73115492
REMARK minimizedRMSD -1
REMARK  1 active torsions:
REMARK  status: ('A' for Active; 'I' for Inactive)
REMARK    1  A    between atoms: N_2  and  C1_3 
ROOT
ATOM      1  C1  UNL d   1      -1.747   0.216   0.992  0.00  0.00     0.143 A 
ATOM      2  C2  UNL d   1      -2.614  -0.297   1.963  0.00  0.00    -0.057 A 
ATOM      3  C3  UNL d   1      -3.043   0.486   3.041  0.00  0.00     0.033 A 
ATOM      4  C4  UNL d   1      -2.588   1.793   3.183  0.00  0.00    -0.042 A 
ATOM      5  C5  UNL d   1      -1.706   2.316   2.244  0.00  0.00     0.033 A 
ATOM      6  C6  UNL d   1      -1.287   1.531   1.166  0.00  0.00    -0.057 A 
ENDROOT
BRANCH   1   7
ATOM      7  N   UNL d   1      -1.207  -0.543  -0.048  0.00  0.00    -0.732 N 
ATOM      8  C   UNL d   1       0.210  -0.837  -0.088  0.00  0.00     0.284 C 
ATOM      9  H3  UNL d   1      -1.801  -1.328  -0.305  0.00  0.00     0.395 HD
ENDBRANCH   1   7
TORSDOF 1
ENDMDL
