MODEL 1
REMARK minimizedAffinity -3.83465457
REMARK minimizedRMSD -1
REMARK  1 active torsions:
REMARK  status: ('A' for Active; 'I' for Inactive)
REMARK    1  A    between atoms: N_2  and  C1_3 
ROOT
ATOM      1  C1  UNL d   1       1.160  -0.457  -0.768  0.00  0.00     0.143 A 
ATOM      2  C2  UNL d   1       2.197  -1.317  -1.145  0.00  0.00    -0.057 A 
ATOM      3  C3  UNL d   1       3.242  -0.877  -1.966  0.00  0.00     0.033 A 
ATOM      4  C4  UNL d   1       3.254   0.427  -2.450  0.00  0.00    -0.042 A 
ATOM      5  C5  UNL d   1       2.221   1.292  -2.108  0.00  0.00     0.033 A 
ATOM      6  C6  UNL d   1       1.183   0.849  -1.282  0.00  0.00    -0.057 A 
ENDROOT
BRANCH   1   7
ATOM      7  N   UNL d   1       0.042  -0.861  -0.035  0.00  0.00    -0.732 N 
ATOM      8  C   UNL d   1      -0.947   0.104   0.394  0.00  0.00     0.284 C 
ATOM      9  H3  UNL d   1      -0.351  -1.735  -0.376  0.00  0.00     0.395 HD
ENDBRANCH   1   7
TORSDOF 1
ENDMDL
