MODEL 1
REMARK minimizedAffinity -5.34811592
REMARK minimizedRMSD -1
REMARK  1 active torsions:
REMARK  status: ('A' for Active; 'I' for Inactive)
REMARK    1  A    between atoms: N_2  and  C1_3 
ROOT
ATOM      1  C1  UNL d   1       1.435  -0.048  -0.729  0.00  0.00     0.143 A 
ATOM      2  C2  UNL d   1       2.579  -0.800  -1.019  0.00  0.00    -0.057 A 
ATOM      3  C3  UNL d   1       3.550  -0.330  -1.911  0.00  0.00     0.033 A 
ATOM      4  C4  UNL d   1       3.380   0.892  -2.554  0.00  0.00    -0.042 A 
ATOM      5  C5  UNL d   1       2.239   1.645  -2.299  0.00  0.00     0.033 A 
ATOM      6  C6  UNL d   1       1.276   1.173  -1.402  0.00  0.00    -0.057 A 
ENDROOT
BRANCH   1   7
ATOM      7  N   UNL d   1       0.387  -0.505   0.073  0.00  0.00    -0.732 N 
ATOM      8  C   UNL d   1      -0.706   0.375   0.430  0.00  0.00     0.284 C 
ATOM      9  H3  UNL d   1       0.098  -1.451  -0.167  0.00  0.00     0.395 HD
ENDBRANCH   1   7
TORSDOF 1
ENDMDL
