MODEL 1
REMARK minimizedAffinity -5.12381029
REMARK minimizedRMSD -1
REMARK  1 active torsions:
REMARK  status: ('A' for Active; 'I' for Inactive)
REMARK    1  A    between atoms: N_2  and  C1_3 
ROOT
ATOM      1  C1  UNL d   1       0.553   0.620  -1.174  0.00  0.00     0.143 A 
ATOM      2  C2  UNL d   1       0.882   1.562  -2.155  0.00  0.00    -0.057 A 
ATOM      3  C3  UNL d   1       2.172   1.629  -2.694  0.00  0.00     0.033 A 
ATOM      4  C4  UNL d   1       3.168   0.771  -2.240  0.00  0.00    -0.042 A 
ATOM      5  C5  UNL d   1       2.870  -0.157  -1.248  0.00  0.00     0.033 A 
ATOM      6  C6  UNL d   1       1.578  -0.223  -0.718  0.00  0.00    -0.057 A 
ENDROOT
BRANCH   1   7
ATOM      7  N   UNL d   1      -0.685   0.569  -0.529  0.00  0.00    -0.732 N 
ATOM      8  C   UNL d   1      -0.891  -0.314   0.599  0.00  0.00     0.284 C 
ATOM      9  H3  UNL d   1      -1.104   1.489  -0.419  0.00  0.00     0.395 HD
ENDBRANCH   1   7
TORSDOF 1
ENDMDL
