MODEL 1
REMARK minimizedAffinity -5.5774951
REMARK minimizedRMSD -1
REMARK  1 active torsions:
REMARK  status: ('A' for Active; 'I' for Inactive)
REMARK    1  A    between atoms: N_2  and  C1_3 
ROOT
ATOM      1  C1  UNL d   1       0.756   0.393  -0.869  0.00  0.00     0.143 A 
ATOM      2  C2  UNL d   1       1.800  -0.466  -0.509  0.00  0.00    -0.057 A 
ATOM      3  C3  UNL d   1       3.029  -0.436  -1.179  0.00  0.00     0.033 A 
ATOM      4  C4  UNL d   1       3.227   0.438  -2.243  0.00  0.00    -0.042 A 
ATOM      5  C5  UNL d   1       2.195   1.284  -2.634  0.00  0.00     0.033 A 
ATOM      6  C6  UNL d   1       0.972   1.254  -1.956  0.00  0.00    -0.057 A 
ENDROOT
BRANCH   1   7
ATOM      7  N   UNL d   1      -0.522   0.343  -0.306  0.00  0.00    -0.732 N 
ATOM      8  C   UNL d   1      -0.693   0.270   1.129  0.00  0.00     0.284 C 
ATOM      9  H3  UNL d   1      -1.176   0.968  -0.772  0.00  0.00     0.395 HD
ENDBRANCH   1   7
TORSDOF 1
ENDMDL
