MODEL 1
REMARK minimizedAffinity 2.21212101
REMARK minimizedRMSD -1
REMARK  2 active torsions:
REMARK  status: ('A' for Active; 'I' for Inactive)
REMARK    1  A    between atoms: C1_2  and  C2_3 
REMARK    2  A    between atoms: C2_3  and  C3_4 
ROOT
ATOM      1  C3  UNL d   1      -4.502  -3.150   4.738  0.00  0.00    -0.075 A 
ATOM      2  C4  UNL d   1      -4.404  -4.143   3.753  0.00  0.00     0.002 A 
ATOM      3  C5  UNL d   1      -5.107  -5.341   3.881  0.00  0.00     0.002 A 
ATOM      4  C6  UNL d   1      -5.908  -5.565   4.999  0.00  0.00    -0.004 A 
ATOM      5  C7  UNL d   1      -5.999  -4.593   5.993  0.00  0.00     0.002 A 
ATOM      6  C8  UNL d   1      -5.300  -3.392   5.864  0.00  0.00     0.002 A 
ENDROOT
BRANCH   1   7
ATOM      7  C2  UNL d   1      -3.766  -1.840   4.591  0.00  0.00     0.056 C 
BRANCH   7   8
ATOM      8  C1  UNL d   1      -3.086  -1.656   3.230  0.00  0.00     0.007 C 
ATOM      9  C   UNL d   1      -2.252  -0.384   3.142  0.00  0.00     0.009 C 
ENDBRANCH   7   8
ENDBRANCH   1   7
TORSDOF 2
ENDMDL
