MODEL 1
REMARK minimizedAffinity 9.90910912
REMARK minimizedRMSD -1
REMARK  2 active torsions:
REMARK  status: ('A' for Active; 'I' for Inactive)
REMARK    1  A    between atoms: C1_2  and  C2_3 
REMARK    2  A    between atoms: C2_3  and  C3_4 
ROOT
ATOM      1  C3  UNL d   1       4.133   2.192   1.821  0.00  0.00    -0.075 A 
ATOM      2  C4  UNL d   1       3.239   2.250   0.742  0.00  0.00     0.002 A 
ATOM      3  C5  UNL d   1       2.466   1.140   0.401  0.00  0.00     0.002 A 
ATOM      4  C6  UNL d   1       2.584  -0.044   1.126  0.00  0.00    -0.004 A 
ATOM      5  C7  UNL d   1       3.481  -0.119   2.189  0.00  0.00     0.002 A 
ATOM      6  C8  UNL d   1       4.252   0.992   2.536  0.00  0.00     0.002 A 
ENDROOT
BRANCH   1   7
ATOM      7  C2  UNL d   1       4.950   3.399   2.214  0.00  0.00     0.056 C 
BRANCH   7   8
ATOM      8  C1  UNL d   1       5.984   3.821   1.164  0.00  0.00     0.007 C 
ATOM      9  C   UNL d   1       5.992   2.922  -0.065  0.00  0.00     0.009 C 
ENDBRANCH   7   8
ENDBRANCH   1   7
TORSDOF 2
ENDMDL
