MODEL 1
REMARK minimizedAffinity 11.3563423
REMARK minimizedRMSD -1
REMARK  2 active torsions:
REMARK  status: ('A' for Active; 'I' for Inactive)
REMARK    1  A    between atoms: C1_2  and  C2_3 
REMARK    2  A    between atoms: C2_3  and  C3_4 
ROOT
ATOM      1  C3  UNL d   1       2.737   3.769  -3.059  0.00  0.00    -0.075 A 
ATOM      2  C4  UNL d   1       3.751   4.656  -2.672  0.00  0.00     0.002 A 
ATOM      3  C5  UNL d   1       4.946   4.722  -3.388  0.00  0.00     0.002 A 
ATOM      4  C6  UNL d   1       5.146   3.897  -4.493  0.00  0.00    -0.004 A 
ATOM      5  C7  UNL d   1       4.152   3.000  -4.877  0.00  0.00     0.002 A 
ATOM      6  C8  UNL d   1       2.953   2.935  -4.164  0.00  0.00     0.002 A 
ENDROOT
BRANCH   1   7
ATOM      7  C2  UNL d   1       1.429   3.714  -2.306  0.00  0.00     0.056 C 
BRANCH   7   8
ATOM      8  C1  UNL d   1       0.376   4.707  -2.810  0.00  0.00     0.007 C 
ATOM      9  C   UNL d   1       0.336   5.999  -2.005  0.00  0.00     0.009 C 
ENDBRANCH   7   8
ENDBRANCH   1   7
TORSDOF 2
ENDMDL
