MODEL 1
REMARK minimizedAffinity 14.0036955
REMARK minimizedRMSD -1
REMARK  2 active torsions:
REMARK  status: ('A' for Active; 'I' for Inactive)
REMARK    1  A    between atoms: C1_2  and  C2_3 
REMARK    2  A    between atoms: C2_3  and  C3_4 
ROOT
ATOM      1  C3  UNL d   1       0.501  -1.195   3.378  0.00  0.00    -0.075 A 
ATOM      2  C4  UNL d   1      -0.304  -1.015   2.244  0.00  0.00     0.002 A 
ATOM      3  C5  UNL d   1      -1.337  -0.077   2.250  0.00  0.00     0.002 A 
ATOM      4  C6  UNL d   1      -1.584   0.684   3.390  0.00  0.00    -0.004 A 
ATOM      5  C7  UNL d   1      -0.802   0.502   4.528  0.00  0.00     0.002 A 
ATOM      6  C8  UNL d   1       0.236  -0.433   4.524  0.00  0.00     0.002 A 
ENDROOT
BRANCH   1   7
ATOM      7  C2  UNL d   1       1.640  -2.187   3.368  0.00  0.00     0.056 C 
BRANCH   7   8
ATOM      8  C1  UNL d   1       2.997  -1.575   3.007  0.00  0.00     0.007 C 
ATOM      9  C   UNL d   1       2.889  -0.400   2.044  0.00  0.00     0.009 C 
ENDBRANCH   7   8
ENDBRANCH   1   7
TORSDOF 2
ENDMDL
