MODEL 1
REMARK minimizedAffinity 0.342255682
REMARK minimizedRMSD -1
REMARK  2 active torsions:
REMARK  status: ('A' for Active; 'I' for Inactive)
REMARK    1  A    between atoms: C1_2  and  C2_3 
REMARK    2  A    between atoms: C2_3  and  C3_4 
ROOT
ATOM      1  C3  UNL d   1       3.301  -4.127  -0.493  0.00  0.00    -0.075 A 
ATOM      2  C4  UNL d   1       4.074  -2.994  -0.784  0.00  0.00     0.002 A 
ATOM      3  C5  UNL d   1       5.414  -3.125  -1.148  0.00  0.00     0.002 A 
ATOM      4  C6  UNL d   1       6.000  -4.388  -1.217  0.00  0.00    -0.004 A 
ATOM      5  C7  UNL d   1       5.245  -5.519  -0.914  0.00  0.00     0.002 A 
ATOM      6  C8  UNL d   1       3.903  -5.391  -0.553  0.00  0.00     0.002 A 
ENDROOT
BRANCH   1   7
ATOM      7  C2  UNL d   1       1.842  -3.993  -0.126  0.00  0.00     0.056 C 
BRANCH   7   8
ATOM      8  C1  UNL d   1       1.584  -3.092   1.086  0.00  0.00     0.007 C 
ATOM      9  C   UNL d   1       0.148  -2.591   1.166  0.00  0.00     0.009 C 
ENDBRANCH   7   8
ENDBRANCH   1   7
TORSDOF 2
ENDMDL
