MODEL 1
REMARK minimizedAffinity 12.6046324
REMARK minimizedRMSD -1
REMARK  2 active torsions:
REMARK  status: ('A' for Active; 'I' for Inactive)
REMARK    1  A    between atoms: C1_2  and  C2_3 
REMARK    2  A    between atoms: C2_3  and  C3_4 
ROOT
ATOM      1  C3  UNL d   1      -3.237  -0.317   1.408  0.00  0.00    -0.075 A 
ATOM      2  C4  UNL d   1      -2.711   0.632   2.297  0.00  0.00     0.002 A 
ATOM      3  C5  UNL d   1      -1.414   0.495   2.793  0.00  0.00     0.002 A 
ATOM      4  C6  UNL d   1      -0.632  -0.594   2.416  0.00  0.00    -0.004 A 
ATOM      5  C7  UNL d   1      -1.150  -1.551   1.546  0.00  0.00     0.002 A 
ATOM      6  C8  UNL d   1      -2.445  -1.415   1.045  0.00  0.00     0.002 A 
ENDROOT
BRANCH   1   7
ATOM      7  C2  UNL d   1      -4.629  -0.160   0.845  0.00  0.00     0.056 C 
BRANCH   7   8
ATOM      8  C1  UNL d   1      -4.679   0.581  -0.496  0.00  0.00     0.007 C 
ATOM      9  C   UNL d   1      -5.129   2.030  -0.365  0.00  0.00     0.009 C 
ENDBRANCH   7   8
ENDBRANCH   1   7
TORSDOF 2
ENDMDL
