MODEL 1
REMARK minimizedAffinity 8.78960419
REMARK minimizedRMSD -1
REMARK  2 active torsions:
REMARK  status: ('A' for Active; 'I' for Inactive)
REMARK    1  A    between atoms: C1_2  and  C2_3 
REMARK    2  A    between atoms: C2_3  and  C3_4 
ROOT
ATOM      1  C3  UNL d   1      -4.172   1.455   4.957  0.00  0.00    -0.075 A 
ATOM      2  C4  UNL d   1      -2.983   1.277   5.679  0.00  0.00     0.002 A 
ATOM      3  C5  UNL d   1      -1.854   0.737   5.063  0.00  0.00     0.002 A 
ATOM      4  C6  UNL d   1      -1.901   0.359   3.723  0.00  0.00    -0.004 A 
ATOM      5  C7  UNL d   1      -3.082   0.516   3.000  0.00  0.00     0.002 A 
ATOM      6  C8  UNL d   1      -4.212   1.061   3.613  0.00  0.00     0.002 A 
ENDROOT
BRANCH   1   7
ATOM      7  C2  UNL d   1      -5.388   2.067   5.610  0.00  0.00     0.056 C 
BRANCH   7   8
ATOM      8  C1  UNL d   1      -5.656   3.517   5.194  0.00  0.00     0.007 C 
ATOM      9  C   UNL d   1      -4.853   4.530   5.999  0.00  0.00     0.009 C 
ENDBRANCH   7   8
ENDBRANCH   1   7
TORSDOF 2
ENDMDL
