MODEL 1
REMARK minimizedAffinity 14.6638451
REMARK minimizedRMSD -1
REMARK  2 active torsions:
REMARK  status: ('A' for Active; 'I' for Inactive)
REMARK    1  A    between atoms: C1_2  and  C2_3 
REMARK    2  A    between atoms: C2_3  and  C3_4 
ROOT
ATOM      1  C3  UNL d   1       2.930   5.089  -2.188  0.00  0.00    -0.075 A 
ATOM      2  C4  UNL d   1       1.726   5.722  -1.847  0.00  0.00     0.002 A 
ATOM      3  C5  UNL d   1       0.527   5.009  -1.846  0.00  0.00     0.002 A 
ATOM      4  C6  UNL d   1       0.514   3.661  -2.196  0.00  0.00    -0.004 A 
ATOM      5  C7  UNL d   1       1.702   3.026  -2.553  0.00  0.00     0.002 A 
ATOM      6  C8  UNL d   1       2.904   3.736  -2.550  0.00  0.00     0.002 A 
ENDROOT
BRANCH   1   7
ATOM      7  C2  UNL d   1       4.236   5.848  -2.162  0.00  0.00     0.056 C 
BRANCH   7   8
ATOM      8  C1  UNL d   1       5.412   5.086  -2.782  0.00  0.00     0.007 C 
ATOM      9  C   UNL d   1       5.960   5.748  -4.039  0.00  0.00     0.009 C 
ENDBRANCH   7   8
ENDBRANCH   1   7
TORSDOF 2
ENDMDL
