MODEL 1
REMARK minimizedAffinity 9.36290932
REMARK minimizedRMSD -1
REMARK  2 active torsions:
REMARK  status: ('A' for Active; 'I' for Inactive)
REMARK    1  A    between atoms: C1_2  and  C2_3 
REMARK    2  A    between atoms: C2_3  and  C3_4 
ROOT
ATOM      1  C3  UNL d   1       1.107   3.287  -2.608  0.00  0.00    -0.075 A 
ATOM      2  C4  UNL d   1       1.395   4.536  -2.039  0.00  0.00     0.002 A 
ATOM      3  C5  UNL d   1       0.587   5.641  -2.310  0.00  0.00     0.002 A 
ATOM      4  C6  UNL d   1      -0.511   5.514  -3.158  0.00  0.00    -0.004 A 
ATOM      5  C7  UNL d   1      -0.797   4.281  -3.742  0.00  0.00     0.002 A 
ATOM      6  C8  UNL d   1       0.008   3.174  -3.470  0.00  0.00     0.002 A 
ENDROOT
BRANCH   1   7
ATOM      7  C2  UNL d   1       1.961   2.081  -2.296  0.00  0.00     0.056 C 
BRANCH   7   8
ATOM      8  C1  UNL d   1       1.548   1.338  -1.022  0.00  0.00     0.007 C 
ATOM      9  C   UNL d   1       2.548   1.497   0.116  0.00  0.00     0.009 C 
ENDBRANCH   7   8
ENDBRANCH   1   7
TORSDOF 2
ENDMDL
