MODEL 1
REMARK minimizedAffinity 11.5448418
REMARK minimizedRMSD -1
REMARK  2 active torsions:
REMARK  status: ('A' for Active; 'I' for Inactive)
REMARK    1  A    between atoms: C1_2  and  C2_3 
REMARK    2  A    between atoms: C2_3  and  C3_4 
ROOT
ATOM      1  C3  UNL d   1       0.116   3.694  -3.018  0.00  0.00    -0.075 A 
ATOM      2  C4  UNL d   1      -0.471   4.369  -1.938  0.00  0.00     0.002 A 
ATOM      3  C5  UNL d   1      -1.612   5.149  -2.126  0.00  0.00     0.002 A 
ATOM      4  C6  UNL d   1      -2.174   5.272  -3.394  0.00  0.00    -0.004 A 
ATOM      5  C7  UNL d   1      -1.590   4.619  -4.478  0.00  0.00     0.002 A 
ATOM      6  C8  UNL d   1      -0.451   3.834  -4.292  0.00  0.00     0.002 A 
ENDROOT
BRANCH   1   7
ATOM      7  C2  UNL d   1       1.334   2.824  -2.816  0.00  0.00     0.056 C 
BRANCH   7   8
ATOM      8  C1  UNL d   1       1.080   1.586  -1.949  0.00  0.00     0.007 C 
ATOM      9  C   UNL d   1       1.953   1.537  -0.702  0.00  0.00     0.009 C 
ENDBRANCH   7   8
ENDBRANCH   1   7
TORSDOF 2
ENDMDL
