MODEL 1
REMARK minimizedAffinity 13.6615133
REMARK minimizedRMSD -1
REMARK  2 active torsions:
REMARK  status: ('A' for Active; 'I' for Inactive)
REMARK    1  A    between atoms: C1_2  and  C2_3 
REMARK    2  A    between atoms: C2_3  and  C3_4 
ROOT
ATOM      1  C3  UNL d   1      -1.129  -3.308   0.483  0.00  0.00    -0.075 A 
ATOM      2  C4  UNL d   1      -1.869  -2.184   0.881  0.00  0.00     0.002 A 
ATOM      3  C5  UNL d   1      -1.323  -1.254   1.766  0.00  0.00     0.002 A 
ATOM      4  C6  UNL d   1      -0.038  -1.439   2.271  0.00  0.00    -0.004 A 
ATOM      5  C7  UNL d   1       0.699  -2.560   1.896  0.00  0.00     0.002 A 
ATOM      6  C8  UNL d   1       0.157  -3.490   1.007  0.00  0.00     0.002 A 
ENDROOT
BRANCH   1   7
ATOM      7  C2  UNL d   1      -1.703  -4.303  -0.497  0.00  0.00     0.056 C 
BRANCH   7   8
ATOM      8  C1  UNL d   1      -1.780  -3.786  -1.938  0.00  0.00     0.007 C 
ATOM      9  C   UNL d   1      -2.303  -4.824  -2.921  0.00  0.00     0.009 C 
ENDBRANCH   7   8
ENDBRANCH   1   7
TORSDOF 2
ENDMDL
