MODEL 1
REMARK minimizedAffinity 14.5403671
REMARK minimizedRMSD -1
REMARK  2 active torsions:
REMARK  status: ('A' for Active; 'I' for Inactive)
REMARK    1  A    between atoms: C1_2  and  C2_3 
REMARK    2  A    between atoms: C2_3  and  C3_4 
ROOT
ATOM      1  C3  UNL d   1       3.480   3.782  -3.235  0.00  0.00    -0.075 A 
ATOM      2  C4  UNL d   1       4.215   4.642  -2.408  0.00  0.00     0.002 A 
ATOM      3  C5  UNL d   1       5.436   5.165  -2.836  0.00  0.00     0.002 A 
ATOM      4  C6  UNL d   1       5.940   4.827  -4.089  0.00  0.00    -0.004 A 
ATOM      5  C7  UNL d   1       5.226   3.960  -4.913  0.00  0.00     0.002 A 
ATOM      6  C8  UNL d   1       4.002   3.439  -4.489  0.00  0.00     0.002 A 
ENDROOT
BRANCH   1   7
ATOM      7  C2  UNL d   1       2.144   3.236  -2.790  0.00  0.00     0.056 C 
BRANCH   7   8
ATOM      8  C1  UNL d   1       2.214   1.828  -2.190  0.00  0.00     0.007 C 
ATOM      9  C   UNL d   1       2.413   1.828  -0.680  0.00  0.00     0.009 C 
ENDBRANCH   7   8
ENDBRANCH   1   7
TORSDOF 2
ENDMDL
