MODEL 1
REMARK minimizedAffinity 10.9029846
REMARK minimizedRMSD -1
REMARK  2 active torsions:
REMARK  status: ('A' for Active; 'I' for Inactive)
REMARK    1  A    between atoms: C1_2  and  C2_3 
REMARK    2  A    between atoms: C2_3  and  C3_4 
ROOT
ATOM      1  C3  UNL d   1       0.666   3.763  -2.384  0.00  0.00    -0.075 A 
ATOM      2  C4  UNL d   1       1.845   4.189  -3.011  0.00  0.00     0.002 A 
ATOM      3  C5  UNL d   1       2.999   3.406  -2.959  0.00  0.00     0.002 A 
ATOM      4  C6  UNL d   1       2.991   2.194  -2.272  0.00  0.00    -0.004 A 
ATOM      5  C7  UNL d   1       1.830   1.769  -1.630  0.00  0.00     0.002 A 
ATOM      6  C8  UNL d   1       0.673   2.548  -1.685  0.00  0.00     0.002 A 
ENDROOT
BRANCH   1   7
ATOM      7  C2  UNL d   1      -0.594   4.591  -2.461  0.00  0.00     0.056 C 
BRANCH   7   8
ATOM      8  C1  UNL d   1      -1.492   4.251  -3.655  0.00  0.00     0.007 C 
ATOM      9  C   UNL d   1      -1.448   5.300  -4.758  0.00  0.00     0.009 C 
ENDBRANCH   7   8
ENDBRANCH   1   7
TORSDOF 2
ENDMDL
