MODEL 1
REMARK minimizedAffinity 10.306324
REMARK minimizedRMSD -1
REMARK  2 active torsions:
REMARK  status: ('A' for Active; 'I' for Inactive)
REMARK    1  A    between atoms: C1_2  and  C2_3 
REMARK    2  A    between atoms: C2_3  and  C3_4 
ROOT
ATOM      1  C3  UNL d   1       4.443   3.906  -2.337  0.00  0.00    -0.075 A 
ATOM      2  C4  UNL d   1       5.057   5.161  -2.462  0.00  0.00     0.002 A 
ATOM      3  C5  UNL d   1       5.833   5.676  -1.423  0.00  0.00     0.002 A 
ATOM      4  C6  UNL d   1       5.996   4.950  -0.245  0.00  0.00    -0.004 A 
ATOM      5  C7  UNL d   1       5.377   3.710  -0.104  0.00  0.00     0.002 A 
ATOM      6  C8  UNL d   1       4.604   3.190  -1.144  0.00  0.00     0.002 A 
ENDROOT
BRANCH   1   7
ATOM      7  C2  UNL d   1       3.626   3.330  -3.469  0.00  0.00     0.056 C 
BRANCH   7   8
ATOM      8  C1  UNL d   1       4.376   3.251  -4.803  0.00  0.00     0.007 C 
ATOM      9  C   UNL d   1       3.543   3.717  -5.989  0.00  0.00     0.009 C 
ENDBRANCH   7   8
ENDBRANCH   1   7
TORSDOF 2
ENDMDL
