MODEL 1
REMARK minimizedAffinity 10.043973
REMARK minimizedRMSD -1
REMARK  2 active torsions:
REMARK  status: ('A' for Active; 'I' for Inactive)
REMARK    1  A    between atoms: C1_2  and  C2_3 
REMARK    2  A    between atoms: C2_3  and  C3_4 
ROOT
ATOM      1  C3  UNL d   1       3.174   4.391  -2.211  0.00  0.00    -0.075 A 
ATOM      2  C4  UNL d   1       1.875   4.889  -2.029  0.00  0.00     0.002 A 
ATOM      3  C5  UNL d   1       0.767   4.061  -2.209  0.00  0.00     0.002 A 
ATOM      4  C6  UNL d   1       0.942   2.730  -2.581  0.00  0.00    -0.004 A 
ATOM      5  C7  UNL d   1       2.226   2.229  -2.780  0.00  0.00     0.002 A 
ATOM      6  C8  UNL d   1       3.337   3.054  -2.597  0.00  0.00     0.002 A 
ENDROOT
BRANCH   1   7
ATOM      7  C2  UNL d   1       4.378   5.275  -1.990  0.00  0.00     0.056 C 
BRANCH   7   8
ATOM      8  C1  UNL d   1       5.541   4.576  -1.277  0.00  0.00     0.007 C 
ATOM      9  C   UNL d   1       5.998   5.303  -0.019  0.00  0.00     0.009 C 
ENDBRANCH   7   8
ENDBRANCH   1   7
TORSDOF 2
ENDMDL
