MODEL 1
REMARK minimizedAffinity 7.82354212
REMARK minimizedRMSD -1
REMARK  2 active torsions:
REMARK  status: ('A' for Active; 'I' for Inactive)
REMARK    1  A    between atoms: C1_2  and  C2_3 
REMARK    2  A    between atoms: C2_3  and  C3_4 
ROOT
ATOM      1  C3  UNL d   1       0.902   4.265  -2.598  0.00  0.00    -0.075 A 
ATOM      2  C4  UNL d   1       1.852   5.259  -2.323  0.00  0.00     0.002 A 
ATOM      3  C5  UNL d   1       3.216   4.969  -2.372  0.00  0.00     0.002 A 
ATOM      4  C6  UNL d   1       3.647   3.682  -2.685  0.00  0.00    -0.004 A 
ATOM      5  C7  UNL d   1       2.711   2.682  -2.943  0.00  0.00     0.002 A 
ATOM      6  C8  UNL d   1       1.346   2.970  -2.899  0.00  0.00     0.002 A 
ENDROOT
BRANCH   1   7
ATOM      7  C2  UNL d   1      -0.574   4.580  -2.575  0.00  0.00     0.056 C 
BRANCH   7   8
ATOM      8  C1  UNL d   1      -1.232   4.584  -3.959  0.00  0.00     0.007 C 
ATOM      9  C   UNL d   1      -2.707   4.960  -3.922  0.00  0.00     0.009 C 
ENDBRANCH   7   8
ENDBRANCH   1   7
TORSDOF 2
ENDMDL
