MODEL 1
REMARK minimizedAffinity 7.80072069
REMARK minimizedRMSD -1
REMARK  2 active torsions:
REMARK  status: ('A' for Active; 'I' for Inactive)
REMARK    1  A    between atoms: C1_2  and  C2_3 
REMARK    2  A    between atoms: C2_3  and  C3_4 
ROOT
ATOM      1  C3  UNL d   1      -5.755  -0.298  -1.582  0.00  0.00    -0.075 A 
ATOM      2  C4  UNL d   1      -5.804   1.081  -1.834  0.00  0.00     0.002 A 
ATOM      3  C5  UNL d   1      -5.553   1.997  -0.812  0.00  0.00     0.002 A 
ATOM      4  C6  UNL d   1      -5.260   1.549   0.474  0.00  0.00    -0.004 A 
ATOM      5  C7  UNL d   1      -5.225   0.181   0.740  0.00  0.00     0.002 A 
ATOM      6  C8  UNL d   1      -5.472  -0.738  -0.282  0.00  0.00     0.002 A 
ENDROOT
BRANCH   1   7
ATOM      7  C2  UNL d   1      -5.996  -1.295  -2.689  0.00  0.00     0.056 C 
BRANCH   7   8
ATOM      8  C1  UNL d   1      -5.998  -0.680  -4.093  0.00  0.00     0.007 C 
ATOM      9  C   UNL d   1      -5.998  -1.721  -5.205  0.00  0.00     0.009 C 
ENDBRANCH   7   8
ENDBRANCH   1   7
TORSDOF 2
ENDMDL
