MODEL 1
REMARK minimizedAffinity 3.83024645
REMARK minimizedRMSD -1
REMARK  0 active torsions:
REMARK  status: ('A' for Active; 'I' for Inactive)
ROOT
ATOM      1  C1  BNZ d   1       3.877   5.776  -2.198  0.00  0.00     0.000 A 
ATOM      2  C2  BNZ d   1       3.042   4.710  -2.405  0.00  0.00     0.000 A 
ATOM      3  C3  BNZ d   1       3.313   3.786  -3.374  0.00  0.00     0.000 A 
ATOM      4  C4  BNZ d   1       4.397   3.949  -4.161  0.00  0.00     0.000 A 
ATOM      5  C5  BNZ d   1       5.244   5.022  -3.970  0.00  0.00     0.000 A 
ATOM      6  C6  BNZ d   1       4.988   5.930  -2.968  0.00  0.00     0.000 A 
ENDROOT
TORSDOF 0
ENDMDL
