MODEL 1
REMARK minimizedAffinity -3.39613342
REMARK minimizedRMSD -1
REMARK  0 active torsions:
REMARK  status: ('A' for Active; 'I' for Inactive)
ROOT
ATOM      1  C1  BNZ d   1      -3.921   5.962  -3.810  0.00  0.00     0.000 A 
ATOM      2  C2  BNZ d   1      -3.371   6.000  -2.556  0.00  0.00     0.000 A 
ATOM      3  C3  BNZ d   1      -2.016   5.949  -2.385  0.00  0.00     0.000 A 
ATOM      4  C4  BNZ d   1      -1.216   5.820  -3.463  0.00  0.00     0.000 A 
ATOM      5  C5  BNZ d   1      -1.756   5.772  -4.733  0.00  0.00     0.000 A 
ATOM      6  C6  BNZ d   1      -3.118   5.862  -4.904  0.00  0.00     0.000 A 
ENDROOT
TORSDOF 0
ENDMDL
