MODEL 1
REMARK minimizedAffinity 1.20299017
REMARK minimizedRMSD -1
REMARK  0 active torsions:
REMARK  status: ('A' for Active; 'I' for Inactive)
ROOT
ATOM      1  C1  BNZ d   1      -2.654  -1.495   2.032  0.00  0.00     0.000 A 
ATOM      2  C2  BNZ d   1      -1.853  -2.481   1.521  0.00  0.00     0.000 A 
ATOM      3  C3  BNZ d   1      -0.495  -2.331   1.483  0.00  0.00     0.000 A 
ATOM      4  C4  BNZ d   1       0.056  -1.179   1.918  0.00  0.00     0.000 A 
ATOM      5  C5  BNZ d   1      -0.738  -0.172   2.427  0.00  0.00     0.000 A 
ATOM      6  C6  BNZ d   1      -2.102  -0.342   2.499  0.00  0.00     0.000 A 
ENDROOT
TORSDOF 0
ENDMDL
