MODEL 1
REMARK minimizedAffinity 6.62256479
REMARK minimizedRMSD -1
REMARK  0 active torsions:
REMARK  status: ('A' for Active; 'I' for Inactive)
ROOT
ATOM      1  C1  BNZ d   1      -1.419  -1.907   1.536  0.00  0.00     0.000 A 
ATOM      2  C2  BNZ d   1      -2.417  -1.385   0.758  0.00  0.00     0.000 A 
ATOM      3  C3  BNZ d   1      -2.893  -0.123   0.983  0.00  0.00     0.000 A 
ATOM      4  C4  BNZ d   1      -2.399   0.598   2.010  0.00  0.00     0.000 A 
ATOM      5  C5  BNZ d   1      -1.399   0.082   2.809  0.00  0.00     0.000 A 
ATOM      6  C6  BNZ d   1      -0.896  -1.173   2.556  0.00  0.00     0.000 A 
ENDROOT
TORSDOF 0
ENDMDL
