MODEL 1
REMARK minimizedAffinity 4.36560392
REMARK minimizedRMSD -1
REMARK  0 active torsions:
REMARK  status: ('A' for Active; 'I' for Inactive)
ROOT
ATOM      1  C1  BNZ d   1       4.151   2.707   2.151  0.00  0.00     0.000 A 
ATOM      2  C2  BNZ d   1       5.110   3.677   2.277  0.00  0.00     0.000 A 
ATOM      3  C3  BNZ d   1       5.998   3.918   1.267  0.00  0.00     0.000 A 
ATOM      4  C4  BNZ d   1       5.953   3.164   0.150  0.00  0.00     0.000 A 
ATOM      5  C5  BNZ d   1       4.998   2.176   0.011  0.00  0.00     0.000 A 
ATOM      6  C6  BNZ d   1       4.080   1.962   1.014  0.00  0.00     0.000 A 
ENDROOT
TORSDOF 0
ENDMDL
