MODEL 1
REMARK minimizedAffinity 1.53148699
REMARK minimizedRMSD -1
REMARK  0 active torsions:
REMARK  status: ('A' for Active; 'I' for Inactive)
ROOT
ATOM      1  C1  BNZ d   1      -5.482  -3.581   3.722  0.00  0.00     0.000 A 
ATOM      2  C2  BNZ d   1      -5.876  -4.749   4.320  0.00  0.00     0.000 A 
ATOM      3  C3  BNZ d   1      -6.000  -5.900   3.593  0.00  0.00     0.000 A 
ATOM      4  C4  BNZ d   1      -5.769  -5.873   2.264  0.00  0.00     0.000 A 
ATOM      5  C5  BNZ d   1      -5.381  -4.702   1.646  0.00  0.00     0.000 A 
ATOM      6  C6  BNZ d   1      -5.219  -3.554   2.387  0.00  0.00     0.000 A 
ENDROOT
TORSDOF 0
ENDMDL
