MODEL 1
REMARK minimizedAffinity 4.2733674
REMARK minimizedRMSD -1
REMARK  0 active torsions:
REMARK  status: ('A' for Active; 'I' for Inactive)
ROOT
ATOM      1  C1  BNZ d   1      -0.979  -1.413   1.183  0.00  0.00     0.000 A 
ATOM      2  C2  BNZ d   1      -2.331  -1.470   0.974  0.00  0.00     0.000 A 
ATOM      3  C3  BNZ d   1      -3.120  -0.375   1.192  0.00  0.00     0.000 A 
ATOM      4  C4  BNZ d   1      -2.563   0.761   1.657  0.00  0.00     0.000 A 
ATOM      5  C5  BNZ d   1      -1.202   0.832   1.881  0.00  0.00     0.000 A 
ATOM      6  C6  BNZ d   1      -0.406  -0.261   1.624  0.00  0.00     0.000 A 
ENDROOT
TORSDOF 0
ENDMDL
