MODEL 1
REMARK minimizedAffinity 3.43017745
REMARK minimizedRMSD -1
REMARK  0 active torsions:
REMARK  status: ('A' for Active; 'I' for Inactive)
ROOT
ATOM      1  C1  BNZ d   1      -0.355  -4.193  -4.283  0.00  0.00     0.000 A 
ATOM      2  C2  BNZ d   1      -0.303  -5.229  -5.177  0.00  0.00     0.000 A 
ATOM      3  C3  BNZ d   1      -1.450  -5.787  -5.669  0.00  0.00     0.000 A 
ATOM      4  C4  BNZ d   1      -2.645  -5.336  -5.238  0.00  0.00     0.000 A 
ATOM      5  C5  BNZ d   1      -2.714  -4.298  -4.330  0.00  0.00     0.000 A 
ATOM      6  C6  BNZ d   1      -1.558  -3.713  -3.866  0.00  0.00     0.000 A 
ENDROOT
TORSDOF 0
ENDMDL
