MODEL 1
REMARK minimizedAffinity 6.22658014
REMARK minimizedRMSD -1
REMARK  0 active torsions:
REMARK  status: ('A' for Active; 'I' for Inactive)
ROOT
ATOM      1  C1  BNZ d   1      -5.955  -5.991   2.231  0.00  0.00     0.000 A 
ATOM      2  C2  BNZ d   1      -5.513  -4.880   1.563  0.00  0.00     0.000 A 
ATOM      3  C3  BNZ d   1      -5.092  -3.774   2.247  0.00  0.00     0.000 A 
ATOM      4  C4  BNZ d   1      -5.151  -3.765   3.594  0.00  0.00     0.000 A 
ATOM      5  C5  BNZ d   1      -5.604  -4.873   4.282  0.00  0.00     0.000 A 
ATOM      6  C6  BNZ d   1      -5.990  -5.999   3.592  0.00  0.00     0.000 A 
ENDROOT
TORSDOF 0
ENDMDL
