MODEL 1
REMARK minimizedAffinity 5.3726964
REMARK minimizedRMSD -1
REMARK  0 active torsions:
REMARK  status: ('A' for Active; 'I' for Inactive)
ROOT
ATOM      1  C1  BNZ d   1      -3.288   1.606   2.429  0.00  0.00     0.000 A 
ATOM      2  C2  BNZ d   1      -2.256   0.779   2.783  0.00  0.00     0.000 A 
ATOM      3  C3  BNZ d   1      -2.037  -0.394   2.115  0.00  0.00     0.000 A 
ATOM      4  C4  BNZ d   1      -2.873  -0.756   1.121  0.00  0.00     0.000 A 
ATOM      5  C5  BNZ d   1      -3.924   0.062   0.758  0.00  0.00     0.000 A 
ATOM      6  C6  BNZ d   1      -4.118   1.260   1.407  0.00  0.00     0.000 A 
ENDROOT
TORSDOF 0
ENDMDL
