MODEL 1
REMARK minimizedAffinity 2.3246491
REMARK minimizedRMSD -1
REMARK  0 active torsions:
REMARK  status: ('A' for Active; 'I' for Inactive)
ROOT
ATOM      1  C1  BNZ d   1      -1.905  -1.393   0.772  0.00  0.00     0.000 A 
ATOM      2  C2  BNZ d   1      -3.033  -0.616   0.802  0.00  0.00     0.000 A 
ATOM      3  C3  BNZ d   1      -3.185   0.361   1.746  0.00  0.00     0.000 A 
ATOM      4  C4  BNZ d   1      -2.229   0.533   2.682  0.00  0.00     0.000 A 
ATOM      5  C5  BNZ d   1      -1.091  -0.248   2.670  0.00  0.00     0.000 A 
ATOM      6  C6  BNZ d   1      -0.923  -1.204   1.695  0.00  0.00     0.000 A 
ENDROOT
TORSDOF 0
ENDMDL
