MODEL 1
REMARK minimizedAffinity -0.519867837
REMARK minimizedRMSD -1
REMARK  0 active torsions:
REMARK  status: ('A' for Active; 'I' for Inactive)
ROOT
ATOM      1  C1  BNZ d   1      -1.761  -1.336   2.565  0.00  0.00     0.000 A 
ATOM      2  C2  BNZ d   1      -2.496  -0.329   3.132  0.00  0.00     0.000 A 
ATOM      3  C3  BNZ d   1      -3.056   0.650   2.360  0.00  0.00     0.000 A 
ATOM      4  C4  BNZ d   1      -2.847   0.643   1.027  0.00  0.00     0.000 A 
ATOM      5  C5  BNZ d   1      -2.102  -0.360   0.441  0.00  0.00     0.000 A 
ATOM      6  C6  BNZ d   1      -1.572  -1.366   1.218  0.00  0.00     0.000 A 
ENDROOT
TORSDOF 0
ENDMDL
