MODEL 1
REMARK minimizedAffinity 0.855868578
REMARK minimizedRMSD -1
REMARK  0 active torsions:
REMARK  status: ('A' for Active; 'I' for Inactive)
ROOT
ATOM      1  C1  BNZ d   1      -1.237   5.969  -4.091  0.00  0.00     0.000 A 
ATOM      2  C2  BNZ d   1      -1.545   5.964  -5.426  0.00  0.00     0.000 A 
ATOM      3  C3  BNZ d   1      -2.846   6.000  -5.844  0.00  0.00     0.000 A 
ATOM      4  C4  BNZ d   1      -3.837   6.000  -4.930  0.00  0.00     0.000 A 
ATOM      5  C5  BNZ d   1      -3.543   5.996  -3.581  0.00  0.00     0.000 A 
ATOM      6  C6  BNZ d   1      -2.232   5.999  -3.163  0.00  0.00     0.000 A 
ENDROOT
TORSDOF 0
ENDMDL
