MODEL 1
REMARK minimizedAffinity 4.51930094
REMARK minimizedRMSD -1
REMARK  0 active torsions:
REMARK  status: ('A' for Active; 'I' for Inactive)
ROOT
ATOM      1  C1  BNZ d   1      -2.399   5.636  -3.615  0.00  0.00     0.000 A 
ATOM      2  C2  BNZ d   1      -1.709   5.604  -4.797  0.00  0.00     0.000 A 
ATOM      3  C3  BNZ d   1      -2.351   5.793  -5.988  0.00  0.00     0.000 A 
ATOM      4  C4  BNZ d   1      -3.687   5.973  -5.999  0.00  0.00     0.000 A 
ATOM      5  C5  BNZ d   1      -4.399   5.999  -4.817  0.00  0.00     0.000 A 
ATOM      6  C6  BNZ d   1      -3.744   5.848  -3.617  0.00  0.00     0.000 A 
ENDROOT
TORSDOF 0
ENDMDL
