MODEL 1
REMARK minimizedAffinity 6.36534929
REMARK minimizedRMSD -1
REMARK  0 active torsions:
REMARK  status: ('A' for Active; 'I' for Inactive)
ROOT
ATOM      1  C1  BNZ d   1       2.896   3.314  -3.936  0.00  0.00     0.000 A 
ATOM      2  C2  BNZ d   1       3.522   3.287  -5.154  0.00  0.00     0.000 A 
ATOM      3  C3  BNZ d   1       4.703   3.949  -5.349  0.00  0.00     0.000 A 
ATOM      4  C4  BNZ d   1       5.234   4.668  -4.339  0.00  0.00     0.000 A 
ATOM      5  C5  BNZ d   1       4.610   4.712  -3.108  0.00  0.00     0.000 A 
ATOM      6  C6  BNZ d   1       3.442   4.013  -2.905  0.00  0.00     0.000 A 
ENDROOT
TORSDOF 0
ENDMDL
