MODEL 1
REMARK minimizedAffinity 0.568389475
REMARK minimizedRMSD -1
REMARK  0 active torsions:
REMARK  status: ('A' for Active; 'I' for Inactive)
ROOT
ATOM      1  C1  BNZ d   1       3.841   3.211   1.654  0.00  0.00     0.000 A 
ATOM      2  C2  BNZ d   1       5.012   3.917   1.728  0.00  0.00     0.000 A 
ATOM      3  C3  BNZ d   1       5.968   3.791   0.758  0.00  0.00     0.000 A 
ATOM      4  C4  BNZ d   1       5.769   2.930  -0.261  0.00  0.00     0.000 A 
ATOM      5  C5  BNZ d   1       4.597   2.204  -0.344  0.00  0.00     0.000 A 
ATOM      6  C6  BNZ d   1       3.621   2.363   0.612  0.00  0.00     0.000 A 
ENDROOT
TORSDOF 0
ENDMDL
