MODEL 1
REMARK minimizedAffinity 2.52519512
REMARK minimizedRMSD -1
REMARK  0 active torsions:
REMARK  status: ('A' for Active; 'I' for Inactive)
ROOT
ATOM      1  C1  BNZ d   1      -6.000   2.989   3.280  0.00  0.00     0.000 A 
ATOM      2  C2  BNZ d   1      -5.769   1.818   3.951  0.00  0.00     0.000 A 
ATOM      3  C3  BNZ d   1      -5.545   1.816   5.299  0.00  0.00     0.000 A 
ATOM      4  C4  BNZ d   1      -5.511   2.987   5.967  0.00  0.00     0.000 A 
ATOM      5  C5  BNZ d   1      -5.733   4.178   5.303  0.00  0.00     0.000 A 
ATOM      6  C6  BNZ d   1      -5.997   4.172   3.953  0.00  0.00     0.000 A 
ENDROOT
TORSDOF 0
ENDMDL
