MODEL 1
REMARK minimizedAffinity 1.60784996
REMARK minimizedRMSD -1
REMARK  0 active torsions:
REMARK  status: ('A' for Active; 'I' for Inactive)
ROOT
ATOM      1  C1  BNZ d   1       1.543   2.522  -0.293  0.00  0.00     0.000 A 
ATOM      2  C2  BNZ d   1       1.359   3.550  -1.178  0.00  0.00     0.000 A 
ATOM      3  C3  BNZ d   1       2.121   3.646  -2.309  0.00  0.00     0.000 A 
ATOM      4  C4  BNZ d   1       3.092   2.737  -2.533  0.00  0.00     0.000 A 
ATOM      5  C5  BNZ d   1       3.297   1.700  -1.645  0.00  0.00     0.000 A 
ATOM      6  C6  BNZ d   1       2.502   1.585  -0.527  0.00  0.00     0.000 A 
ENDROOT
TORSDOF 0
ENDMDL
