MODEL 1
REMARK minimizedAffinity 3.3058784
REMARK minimizedRMSD -1
REMARK  0 active torsions:
REMARK  status: ('A' for Active; 'I' for Inactive)
ROOT
ATOM      1  O1  BZF d   1       3.386  -1.971   0.073  0.00  0.00    -0.204 OA
ATOM      2  C2  BZF d   1       2.222  -2.676  -0.165  0.00  0.00     0.174 A 
ATOM      3  C3  BZF d   1       1.143  -1.877  -0.032  0.00  0.00    -0.012 A 
ATOM      4  C3A BZF d   1       1.671  -0.571   0.220  0.00  0.00    -0.107 A 
ATOM      5  C4  BZF d   1       1.095   0.650   0.424  0.00  0.00     0.055 A 
ATOM      6  C5  BZF d   1       1.889   1.714   0.716  0.00  0.00    -0.016 A 
ATOM      7  C6  BZF d   1       3.260   1.591   0.816  0.00  0.00     0.022 A 
ATOM      8  C7  BZF d   1       3.876   0.401   0.617  0.00  0.00     0.029 A 
ATOM      9  C7A BZF d   1       3.080  -0.669   0.289  0.00  0.00     0.058 A 
ENDROOT
TORSDOF 0
ENDMDL
