MODEL 1
REMARK minimizedAffinity -1.69343984
REMARK minimizedRMSD -1
REMARK  0 active torsions:
REMARK  status: ('A' for Active; 'I' for Inactive)
ROOT
ATOM      1  O1  BZF d   1       1.079   1.342  -0.456  0.00  0.00    -0.204 OA
ATOM      2  C2  BZF d   1       1.931   2.018   0.396  0.00  0.00     0.174 A 
ATOM      3  C3  BZF d   1       2.725   1.155   1.063  0.00  0.00    -0.012 A 
ATOM      4  C3A BZF d   1       2.409  -0.135   0.531  0.00  0.00    -0.107 A 
ATOM      5  C4  BZF d   1       2.876  -1.394   0.780  0.00  0.00     0.055 A 
ATOM      6  C5  BZF d   1       2.305  -2.449   0.141  0.00  0.00    -0.016 A 
ATOM      7  C6  BZF d   1       1.263  -2.282  -0.748  0.00  0.00     0.022 A 
ATOM      8  C7  BZF d   1       0.769  -1.053  -1.031  0.00  0.00     0.029 A 
ATOM      9  C7A BZF d   1       1.366   0.019  -0.412  0.00  0.00     0.058 A 
ENDROOT
TORSDOF 0
ENDMDL
