MODEL 1
REMARK minimizedAffinity 3.34801555
REMARK minimizedRMSD -1
REMARK  0 active torsions:
REMARK  status: ('A' for Active; 'I' for Inactive)
ROOT
ATOM      1  O1  BZF d   1       0.746   1.133   1.641  0.00  0.00    -0.204 OA
ATOM      2  C2  BZF d   1      -0.466   1.793   1.700  0.00  0.00     0.174 A 
ATOM      3  C3  BZF d   1      -1.154   1.633   0.552  0.00  0.00    -0.012 A 
ATOM      4  C3A BZF d   1      -0.360   0.747  -0.243  0.00  0.00    -0.107 A 
ATOM      5  C4  BZF d   1      -0.521   0.200  -1.484  0.00  0.00     0.055 A 
ATOM      6  C5  BZF d   1       0.474  -0.568  -2.001  0.00  0.00    -0.016 A 
ATOM      7  C6  BZF d   1       1.643  -0.804  -1.308  0.00  0.00     0.022 A 
ATOM      8  C7  BZF d   1       1.846  -0.287  -0.072  0.00  0.00     0.029 A 
ATOM      9  C7A BZF d   1       0.829   0.462   0.467  0.00  0.00     0.058 A 
ENDROOT
TORSDOF 0
ENDMDL
