MODEL 1
REMARK minimizedAffinity 4.09948492
REMARK minimizedRMSD -1
REMARK  0 active torsions:
REMARK  status: ('A' for Active; 'I' for Inactive)
ROOT
ATOM      1  O1  BZF d   1      -3.183   2.107  -3.512  0.00  0.00    -0.204 OA
ATOM      2  C2  BZF d   1      -2.211   1.134  -3.378  0.00  0.00     0.174 A 
ATOM      3  C3  BZF d   1      -2.458   0.355  -2.306  0.00  0.00    -0.012 A 
ATOM      4  C3A BZF d   1      -3.710   0.814  -1.788  0.00  0.00    -0.107 A 
ATOM      5  C4  BZF d   1      -4.491   0.425  -0.737  0.00  0.00     0.055 A 
ATOM      6  C5  BZF d   1      -5.619   1.129  -0.456  0.00  0.00    -0.016 A 
ATOM      7  C6  BZF d   1      -5.993   2.228  -1.201  0.00  0.00     0.022 A 
ATOM      8  C7  BZF d   1      -5.253   2.649  -2.256  0.00  0.00     0.029 A 
ATOM      9  C7A BZF d   1      -4.130   1.920  -2.562  0.00  0.00     0.058 A 
ENDROOT
TORSDOF 0
ENDMDL
