MODEL 1
REMARK minimizedAffinity 0.359373748
REMARK minimizedRMSD -1
REMARK  0 active torsions:
REMARK  status: ('A' for Active; 'I' for Inactive)
ROOT
ATOM      1  O1  BZF d   1       0.117   1.018  -0.984  0.00  0.00    -0.204 OA
ATOM      2  C2  BZF d   1       0.573   2.216  -0.469  0.00  0.00     0.174 A 
ATOM      3  C3  BZF d   1       1.651   2.020   0.317  0.00  0.00    -0.012 A 
ATOM      4  C3A BZF d   1       1.940   0.622   0.217  0.00  0.00    -0.107 A 
ATOM      5  C4  BZF d   1       2.905  -0.178   0.758  0.00  0.00     0.055 A 
ATOM      6  C5  BZF d   1       2.864  -1.515   0.520  0.00  0.00    -0.016 A 
ATOM      7  C6  BZF d   1       1.871  -2.086  -0.248  0.00  0.00     0.022 A 
ATOM      8  C7  BZF d   1       0.894  -1.332  -0.809  0.00  0.00     0.029 A 
ATOM      9  C7A BZF d   1       0.952   0.024  -0.598  0.00  0.00     0.058 A 
ENDROOT
TORSDOF 0
ENDMDL
