MODEL 1
REMARK minimizedAffinity 7.20941639
REMARK minimizedRMSD -1
REMARK  0 active torsions:
REMARK  status: ('A' for Active; 'I' for Inactive)
ROOT
ATOM      1  O1  BZF d   1       1.899   1.379  -0.215  0.00  0.00    -0.204 OA
ATOM      2  C2  BZF d   1       2.197   2.221   0.839  0.00  0.00     0.174 A 
ATOM      3  C3  BZF d   1       2.762   1.536   1.854  0.00  0.00    -0.012 A 
ATOM      4  C3A BZF d   1       2.906   0.197   1.370  0.00  0.00    -0.107 A 
ATOM      5  C4  BZF d   1       3.417  -0.947   1.912  0.00  0.00     0.055 A 
ATOM      6  C5  BZF d   1       3.341  -2.105   1.204  0.00  0.00    -0.016 A 
ATOM      7  C6  BZF d   1       2.757  -2.155  -0.044  0.00  0.00     0.022 A 
ATOM      8  C7  BZF d   1       2.241  -1.045  -0.625  0.00  0.00     0.029 A 
ATOM      9  C7A BZF d   1       2.345   0.133   0.074  0.00  0.00     0.058 A 
ENDROOT
TORSDOF 0
ENDMDL
