MODEL 1
REMARK minimizedAffinity 10.3850641
REMARK minimizedRMSD -1
REMARK  0 active torsions:
REMARK  status: ('A' for Active; 'I' for Inactive)
ROOT
ATOM      1  O1  BZF d   1       1.228   1.582   3.883  0.00  0.00    -0.204 OA
ATOM      2  C2  BZF d   1      -0.022   1.115   4.241  0.00  0.00     0.174 A 
ATOM      3  C3  BZF d   1      -0.868   1.161   3.193  0.00  0.00    -0.012 A 
ATOM      4  C3A BZF d   1      -0.075   1.603   2.087  0.00  0.00    -0.107 A 
ATOM      5  C4  BZF d   1      -0.346   1.831   0.768  0.00  0.00     0.055 A 
ATOM      6  C5  BZF d   1       0.633   2.329  -0.031  0.00  0.00    -0.016 A 
ATOM      7  C6  BZF d   1       1.892   2.615   0.456  0.00  0.00     0.022 A 
ATOM      8  C7  BZF d   1       2.210   2.401   1.756  0.00  0.00     0.029 A 
ATOM      9  C7A BZF d   1       1.232   1.867   2.559  0.00  0.00     0.058 A 
ENDROOT
TORSDOF 0
ENDMDL
