MODEL 1
REMARK minimizedAffinity 6.82698393
REMARK minimizedRMSD -1
REMARK  3 active torsions:
REMARK  status: ('A' for Active; 'I' for Inactive)
REMARK    1  A    between atoms: C3'_2  and  C2'_3 
REMARK    2  A    between atoms: C2'_3  and  C1'_4 
REMARK    3  A    between atoms: C1'_4  and  C1_5 
ROOT
ATOM      1  C1  N4B d   1       1.188  -2.876   2.245  0.00  0.00    -0.075 A 
ATOM      2  C2  N4B d   1       1.161  -1.945   1.183  0.00  0.00     0.002 A 
ATOM      3  C3  N4B d   1       0.005  -1.755   0.465  0.00  0.00     0.002 A 
ATOM      4  C4  N4B d   1      -1.125  -2.495   0.777  0.00  0.00    -0.004 A 
ATOM      5  C5  N4B d   1      -1.098  -3.373   1.821  0.00  0.00     0.002 A 
ATOM      6  C6  N4B d   1       0.055  -3.571   2.553  0.00  0.00     0.002 A 
ENDROOT
BRANCH   1   7
ATOM      7  C1' N4B d   1       2.451  -3.180   3.002  0.00  0.00     0.057 C 
BRANCH   7   8
ATOM      8  C2' N4B d   1       2.997  -1.888   3.604  0.00  0.00     0.009 C 
BRANCH   8   9
ATOM      9  C3' N4B d   1       3.548  -2.102   5.004  0.00  0.00     0.004 C 
ATOM     10  C4' N4B d   1       2.995  -1.127   6.000  0.00  0.00     0.003 C 
ENDBRANCH   8   9
ENDBRANCH   7   8
ENDBRANCH   1   7
TORSDOF 3
ENDMDL
