MODEL 1
REMARK minimizedAffinity 6.18969011
REMARK minimizedRMSD -1
REMARK  3 active torsions:
REMARK  status: ('A' for Active; 'I' for Inactive)
REMARK    1  A    between atoms: C3'_2  and  C2'_3 
REMARK    2  A    between atoms: C2'_3  and  C1'_4 
REMARK    3  A    between atoms: C1'_4  and  C1_5 
ROOT
ATOM      1  C1  N4B d   1      -0.433  -2.641  -1.847  0.00  0.00    -0.075 A 
ATOM      2  C2  N4B d   1      -0.588  -4.041  -1.755  0.00  0.00     0.002 A 
ATOM      3  C3  N4B d   1      -0.515  -4.816  -2.887  0.00  0.00     0.002 A 
ATOM      4  C4  N4B d   1      -0.307  -4.213  -4.118  0.00  0.00    -0.004 A 
ATOM      5  C5  N4B d   1      -0.132  -2.862  -4.195  0.00  0.00     0.002 A 
ATOM      6  C6  N4B d   1      -0.199  -2.072  -3.066  0.00  0.00     0.002 A 
ENDROOT
BRANCH   1   7
ATOM      7  C1' N4B d   1      -0.590  -1.744  -0.650  0.00  0.00     0.057 C 
BRANCH   7   8
ATOM      8  C2' N4B d   1      -0.812  -2.602   0.592  0.00  0.00     0.009 C 
BRANCH   8   9
ATOM      9  C3' N4B d   1      -2.145  -2.306   1.257  0.00  0.00     0.004 C 
ATOM     10  C4' N4B d   1      -1.995  -1.779   2.653  0.00  0.00     0.003 C 
ENDBRANCH   8   9
ENDBRANCH   7   8
ENDBRANCH   1   7
TORSDOF 3
ENDMDL
