MODEL 1
REMARK minimizedAffinity 0.0589288957
REMARK minimizedRMSD -1
REMARK  3 active torsions:
REMARK  status: ('A' for Active; 'I' for Inactive)
REMARK    1  A    between atoms: C3'_2  and  C2'_3 
REMARK    2  A    between atoms: C2'_3  and  C1'_4 
REMARK    3  A    between atoms: C1'_4  and  C1_5 
ROOT
ATOM      1  C1  N4B d   1       3.711   4.687  -3.018  0.00  0.00    -0.075 A 
ATOM      2  C2  N4B d   1       3.740   3.835  -4.144  0.00  0.00     0.002 A 
ATOM      3  C3  N4B d   1       4.884   3.732  -4.897  0.00  0.00     0.002 A 
ATOM      4  C4  N4B d   1       6.000   4.481  -4.556  0.00  0.00    -0.004 A 
ATOM      5  C5  N4B d   1       5.972   5.282  -3.452  0.00  0.00     0.002 A 
ATOM      6  C6  N4B d   1       4.830   5.393  -2.684  0.00  0.00     0.002 A 
ENDROOT
BRANCH   1   7
ATOM      7  C1' N4B d   1       2.457   4.898  -2.214  0.00  0.00     0.057 C 
BRANCH   7   8
ATOM      8  C2' N4B d   1       2.705   4.458  -0.775  0.00  0.00     0.009 C 
BRANCH   8   9
ATOM      9  C3' N4B d   1       1.481   4.666   0.102  0.00  0.00     0.004 C 
ATOM     10  C4' N4B d   1       0.782   3.383   0.437  0.00  0.00     0.003 C 
ENDBRANCH   8   9
ENDBRANCH   7   8
ENDBRANCH   1   7
TORSDOF 3
ENDMDL
