MODEL 1
REMARK minimizedAffinity 8.35031223
REMARK minimizedRMSD -1
REMARK  3 active torsions:
REMARK  status: ('A' for Active; 'I' for Inactive)
REMARK    1  A    between atoms: C3'_2  and  C2'_3 
REMARK    2  A    between atoms: C2'_3  and  C1'_4 
REMARK    3  A    between atoms: C1'_4  and  C1_5 
ROOT
ATOM      1  C1  N4B d   1       0.320  -2.297  -2.027  0.00  0.00    -0.075 A 
ATOM      2  C2  N4B d   1      -0.030  -2.195  -0.662  0.00  0.00     0.002 A 
ATOM      3  C3  N4B d   1      -1.343  -2.018  -0.302  0.00  0.00     0.002 A 
ATOM      4  C4  N4B d   1      -2.317  -1.921  -1.284  0.00  0.00    -0.004 A 
ATOM      5  C5  N4B d   1      -1.974  -2.046  -2.598  0.00  0.00     0.002 A 
ATOM      6  C6  N4B d   1      -0.659  -2.228  -2.975  0.00  0.00     0.002 A 
ENDROOT
BRANCH   1   7
ATOM      7  C1' N4B d   1       1.753  -2.405  -2.473  0.00  0.00     0.057 C 
BRANCH   7   8
ATOM      8  C2' N4B d   1       1.810  -2.322  -3.996  0.00  0.00     0.009 C 
BRANCH   8   9
ATOM      9  C3' N4B d   1       3.024  -3.041  -4.558  0.00  0.00     0.004 C 
ATOM     10  C4' N4B d   1       3.279  -2.711  -5.999  0.00  0.00     0.003 C 
ENDBRANCH   8   9
ENDBRANCH   7   8
ENDBRANCH   1   7
TORSDOF 3
ENDMDL
