MODEL 1
REMARK minimizedAffinity -4.70504856
REMARK minimizedRMSD -1
REMARK  0 active torsions:
REMARK  status: ('A' for Active; 'I' for Inactive)
ROOT
ATOM      1  C   UNL d   1      -0.464  -0.232   2.131  0.00  0.00     0.077 C 
ATOM      2  C1  UNL d   1      -0.262  -1.219   1.020  0.00  0.00    -0.074 A 
ATOM      3  C2  UNL d   1      -0.479  -2.586   1.224  0.00  0.00    -0.005 A 
ATOM      4  C3  UNL d   1      -0.297  -3.491   0.178  0.00  0.00     0.006 A 
ATOM      5  C4  UNL d   1       0.104  -3.039  -1.080  0.00  0.00    -0.005 A 
ATOM      6  C5  UNL d   1       0.325  -1.676  -1.303  0.00  0.00    -0.074 A 
ATOM      7  C6  UNL d   1       0.746  -1.173  -2.651  0.00  0.00     0.077 C 
ATOM      8  C7  UNL d   1       0.133  -0.772  -0.249  0.00  0.00    -0.001 A 
ENDROOT
TORSDOF 0
ENDMDL
