MODEL 1
REMARK minimizedAffinity -1.22216618
REMARK minimizedRMSD -1
REMARK  0 active torsions:
REMARK  status: ('A' for Active; 'I' for Inactive)
ROOT
ATOM      1  C   UNL d   1       0.722   0.797  -1.992  0.00  0.00     0.077 C 
ATOM      2  C1  UNL d   1      -0.002   0.281  -0.784  0.00  0.00    -0.074 A 
ATOM      3  C2  UNL d   1      -0.658   1.156   0.088  0.00  0.00    -0.005 A 
ATOM      4  C3  UNL d   1      -1.336   0.661   1.203  0.00  0.00     0.006 A 
ATOM      5  C4  UNL d   1      -1.363  -0.711   1.456  0.00  0.00    -0.005 A 
ATOM      6  C5  UNL d   1      -0.714  -1.601   0.595  0.00  0.00    -0.074 A 
ATOM      7  C6  UNL d   1      -0.742  -3.079   0.847  0.00  0.00     0.077 C 
ATOM      8  C7  UNL d   1      -0.041  -1.096  -0.527  0.00  0.00    -0.001 A 
ENDROOT
TORSDOF 0
ENDMDL
