MODEL 1
REMARK minimizedAffinity -3.23476195
REMARK minimizedRMSD -1
REMARK  0 active torsions:
REMARK  status: ('A' for Active; 'I' for Inactive)
ROOT
ATOM      1  C   UNL d   1       0.625  -3.607   0.218  0.00  0.00     0.077 C 
ATOM      2  C1  UNL d   1       0.353  -2.134   0.131  0.00  0.00    -0.074 A 
ATOM      3  C2  UNL d   1       1.074  -1.321  -0.749  0.00  0.00    -0.005 A 
ATOM      4  C3  UNL d   1       0.803   0.045  -0.826  0.00  0.00     0.006 A 
ATOM      5  C4  UNL d   1      -0.189   0.611  -0.024  0.00  0.00    -0.005 A 
ATOM      6  C5  UNL d   1      -0.920  -0.187   0.862  0.00  0.00    -0.074 A 
ATOM      7  C6  UNL d   1      -1.996   0.404   1.724  0.00  0.00     0.077 C 
ATOM      8  C7  UNL d   1      -0.647  -1.560   0.928  0.00  0.00    -0.001 A 
ENDROOT
TORSDOF 0
ENDMDL
