MODEL 1
REMARK minimizedAffinity -4.2594614
REMARK minimizedRMSD -1
REMARK  0 active torsions:
REMARK  status: ('A' for Active; 'I' for Inactive)
ROOT
ATOM      1  C   UNL d   1       0.245  -3.228   0.979  0.00  0.00     0.077 C 
ATOM      2  C1  UNL d   1      -0.029  -1.794   0.637  0.00  0.00    -0.074 A 
ATOM      3  C2  UNL d   1      -0.707  -0.959   1.531  0.00  0.00    -0.005 A 
ATOM      4  C3  UNL d   1      -0.946   0.376   1.204  0.00  0.00     0.006 A 
ATOM      5  C4  UNL d   1      -0.509   0.889  -0.018  0.00  0.00    -0.005 A 
ATOM      6  C5  UNL d   1       0.172   0.069  -0.924  0.00  0.00    -0.074 A 
ATOM      7  C6  UNL d   1       0.657   0.607  -2.238  0.00  0.00     0.077 C 
ATOM      8  C7  UNL d   1       0.414  -1.269  -0.585  0.00  0.00    -0.001 A 
ENDROOT
TORSDOF 0
ENDMDL
