MODEL 1
REMARK minimizedAffinity -3.02115345
REMARK minimizedRMSD -1
REMARK  0 active torsions:
REMARK  status: ('A' for Active; 'I' for Inactive)
ROOT
ATOM      1  C   UNL d   1       0.001  -2.721   0.956  0.00  0.00     0.077 C 
ATOM      2  C1  UNL d   1       0.170  -1.503   0.097  0.00  0.00    -0.074 A 
ATOM      3  C2  UNL d   1       0.440  -1.619  -1.270  0.00  0.00    -0.005 A 
ATOM      4  C3  UNL d   1       0.585  -0.478  -2.058  0.00  0.00     0.006 A 
ATOM      5  C4  UNL d   1       0.462   0.790  -1.487  0.00  0.00    -0.005 A 
ATOM      6  C5  UNL d   1       0.191   0.926  -0.122  0.00  0.00    -0.074 A 
ATOM      7  C6  UNL d   1       0.046   2.281   0.505  0.00  0.00     0.077 C 
ATOM      8  C7  UNL d   1       0.040  -0.226   0.661  0.00  0.00    -0.001 A 
ENDROOT
TORSDOF 0
ENDMDL
