MODEL 1
REMARK minimizedAffinity -2.99232078
REMARK minimizedRMSD -1
REMARK  0 active torsions:
REMARK  status: ('A' for Active; 'I' for Inactive)
ROOT
ATOM      1  C   UNL d   1      -2.345   0.068   2.007  0.00  0.00     0.077 C 
ATOM      2  C1  UNL d   1      -1.492  -0.841   1.173  0.00  0.00    -0.074 A 
ATOM      3  C2  UNL d   1      -1.200  -2.141   1.597  0.00  0.00    -0.005 A 
ATOM      4  C3  UNL d   1      -0.413  -2.978   0.806  0.00  0.00     0.006 A 
ATOM      5  C4  UNL d   1       0.090  -2.524  -0.414  0.00  0.00    -0.005 A 
ATOM      6  C5  UNL d   1      -0.193  -1.227  -0.854  0.00  0.00    -0.074 A 
ATOM      7  C6  UNL d   1       0.331  -0.727  -2.168  0.00  0.00     0.077 C 
ATOM      8  C7  UNL d   1      -0.990  -0.395  -0.057  0.00  0.00    -0.001 A 
ENDROOT
TORSDOF 0
ENDMDL
