MODEL 1
REMARK minimizedAffinity -3.74454641
REMARK minimizedRMSD -1
REMARK  0 active torsions:
REMARK  status: ('A' for Active; 'I' for Inactive)
ROOT
ATOM      1  C   UNL d   1      -0.004   2.400   0.340  0.00  0.00     0.077 C 
ATOM      2  C1  UNL d   1       0.161   1.081  -0.356  0.00  0.00    -0.074 A 
ATOM      3  C2  UNL d   1       0.144   0.998  -1.752  0.00  0.00    -0.005 A 
ATOM      4  C3  UNL d   1       0.307  -0.234  -2.385  0.00  0.00     0.006 A 
ATOM      5  C4  UNL d   1       0.490  -1.393  -1.629  0.00  0.00    -0.005 A 
ATOM      6  C5  UNL d   1       0.511  -1.329  -0.233  0.00  0.00    -0.074 A 
ATOM      7  C6  UNL d   1       0.716  -2.564   0.594  0.00  0.00     0.077 C 
ATOM      8  C7  UNL d   1       0.353  -0.086   0.396  0.00  0.00    -0.001 A 
ENDROOT
TORSDOF 0
ENDMDL
