MODEL 1
REMARK minimizedAffinity -4.27721357
REMARK minimizedRMSD -1
REMARK  0 active torsions:
REMARK  status: ('A' for Active; 'I' for Inactive)
ROOT
ATOM      1  C   UNL d   1      -0.332  -3.393  -1.894  0.00  0.00     0.077 C 
ATOM      2  C1  UNL d   1      -0.468  -2.396  -0.782  0.00  0.00    -0.074 A 
ATOM      3  C2  UNL d   1      -1.013  -2.766   0.452  0.00  0.00    -0.005 A 
ATOM      4  C3  UNL d   1      -1.124  -1.831   1.481  0.00  0.00     0.006 A 
ATOM      5  C4  UNL d   1      -0.692  -0.518   1.286  0.00  0.00    -0.005 A 
ATOM      6  C5  UNL d   1      -0.144  -0.130   0.060  0.00  0.00    -0.074 A 
ATOM      7  C6  UNL d   1       0.334   1.274  -0.163  0.00  0.00     0.077 C 
ATOM      8  C7  UNL d   1      -0.029  -1.078  -0.967  0.00  0.00    -0.001 A 
ENDROOT
TORSDOF 0
ENDMDL
