MODEL 1
REMARK minimizedAffinity -5.38158417
REMARK minimizedRMSD -1
REMARK  0 active torsions:
REMARK  status: ('A' for Active; 'I' for Inactive)
ROOT
ATOM      1  C   UNL d   1      -0.031   1.479   0.263  0.00  0.00     0.077 C 
ATOM      2  C1  UNL d   1      -0.086  -0.020   0.279  0.00  0.00    -0.074 A 
ATOM      3  C2  UNL d   1      -0.369  -0.716   1.458  0.00  0.00    -0.005 A 
ATOM      4  C3  UNL d   1      -0.427  -2.110   1.455  0.00  0.00     0.006 A 
ATOM      5  C4  UNL d   1      -0.202  -2.820   0.275  0.00  0.00    -0.005 A 
ATOM      6  C5  UNL d   1       0.082  -2.141  -0.914  0.00  0.00    -0.074 A 
ATOM      7  C6  UNL d   1       0.316  -2.888  -2.193  0.00  0.00     0.077 C 
ATOM      8  C7  UNL d   1       0.131  -0.740  -0.904  0.00  0.00    -0.001 A 
ENDROOT
TORSDOF 0
ENDMDL
