MODEL 1
REMARK minimizedAffinity -5.68917513
REMARK minimizedRMSD -1
REMARK  0 active torsions:
REMARK  status: ('A' for Active; 'I' for Inactive)
ROOT
ATOM      1  C   UNL d   1       0.029   1.484   0.379  0.00  0.00     0.077 C 
ATOM      2  C1  UNL d   1      -0.034   0.000   0.165  0.00  0.00    -0.074 A 
ATOM      3  C2  UNL d   1      -0.498  -0.852   1.173  0.00  0.00    -0.005 A 
ATOM      4  C3  UNL d   1      -0.560  -2.228   0.957  0.00  0.00     0.006 A 
ATOM      5  C4  UNL d   1      -0.160  -2.766  -0.267  0.00  0.00    -0.005 A 
ATOM      6  C5  UNL d   1       0.306  -1.929  -1.287  0.00  0.00    -0.074 A 
ATOM      7  C6  UNL d   1       0.730  -2.490  -2.612  0.00  0.00     0.077 C 
ATOM      8  C7  UNL d   1       0.359  -0.547  -1.064  0.00  0.00    -0.001 A 
ENDROOT
TORSDOF 0
ENDMDL
