MODEL 1
REMARK minimizedAffinity -3.44073844
REMARK minimizedRMSD -1
REMARK  0 active torsions:
REMARK  status: ('A' for Active; 'I' for Inactive)
ROOT
ATOM      1  C   UNL d   1       0.688  -0.319  -2.791  0.00  0.00     0.077 C 
ATOM      2  C1  UNL d   1       0.292  -0.468  -1.352  0.00  0.00    -0.074 A 
ATOM      3  C2  UNL d   1      -0.130   0.635  -0.604  0.00  0.00    -0.005 A 
ATOM      4  C3  UNL d   1      -0.505   0.479   0.731  0.00  0.00     0.006 A 
ATOM      5  C4  UNL d   1      -0.461  -0.781   1.329  0.00  0.00    -0.005 A 
ATOM      6  C5  UNL d   1      -0.042  -1.896   0.597  0.00  0.00    -0.074 A 
ATOM      7  C6  UNL d   1       0.001  -3.259   1.223  0.00  0.00     0.077 C 
ATOM      8  C7  UNL d   1       0.326  -1.732  -0.745  0.00  0.00    -0.001 A 
ENDROOT
TORSDOF 0
ENDMDL
