MODEL 1
REMARK minimizedAffinity -6.35993099
REMARK minimizedRMSD -1
REMARK  0 active torsions:
REMARK  status: ('A' for Active; 'I' for Inactive)
ROOT
ATOM      1  C   UNL d   1       0.807  -2.581  -3.056  0.00  0.00     0.077 C 
ATOM      2  C1  UNL d   1       0.311  -2.217  -1.688  0.00  0.00    -0.074 A 
ATOM      3  C2  UNL d   1      -0.016  -3.206  -0.755  0.00  0.00    -0.005 A 
ATOM      4  C3  UNL d   1      -0.466  -2.852   0.517  0.00  0.00     0.006 A 
ATOM      5  C4  UNL d   1      -0.594  -1.508   0.868  0.00  0.00    -0.005 A 
ATOM      6  C5  UNL d   1      -0.270  -0.505  -0.051  0.00  0.00    -0.074 A 
ATOM      7  C6  UNL d   1      -0.392   0.945   0.313  0.00  0.00     0.077 C 
ATOM      8  C7  UNL d   1       0.188  -0.869  -1.325  0.00  0.00    -0.001 A 
ENDROOT
TORSDOF 0
ENDMDL
