MODEL 1
REMARK minimizedAffinity -5.677526
REMARK minimizedRMSD -1
REMARK  0 active torsions:
REMARK  status: ('A' for Active; 'I' for Inactive)
ROOT
ATOM      1  C   UNL d   1       0.337  -2.569  -2.831  0.00  0.00     0.077 C 
ATOM      2  C1  UNL d   1      -0.038  -1.977  -1.505  0.00  0.00    -0.074 A 
ATOM      3  C2  UNL d   1      -0.563  -2.775  -0.484  0.00  0.00    -0.005 A 
ATOM      4  C3  UNL d   1      -0.899  -2.212   0.747  0.00  0.00     0.006 A 
ATOM      5  C4  UNL d   1      -0.712  -0.847   0.970  0.00  0.00    -0.005 A 
ATOM      6  C5  UNL d   1      -0.188  -0.033  -0.039  0.00  0.00    -0.074 A 
ATOM      7  C6  UNL d   1       0.028   1.434   0.187  0.00  0.00     0.077 C 
ATOM      8  C7  UNL d   1       0.153  -0.608  -1.271  0.00  0.00    -0.001 A 
ENDROOT
TORSDOF 0
ENDMDL
