MODEL 1
REMARK minimizedAffinity 0.234294116
REMARK minimizedRMSD -1
REMARK  0 active torsions:
REMARK  status: ('A' for Active; 'I' for Inactive)
ROOT
ATOM      1  C   UNL d   1       1.331   2.924   0.415  0.00  0.00     0.077 C 
ATOM      2  C1  UNL d   1       0.575   1.690   0.018  0.00  0.00    -0.074 A 
ATOM      3  C2  UNL d   1       0.124   1.515  -1.294  0.00  0.00    -0.005 A 
ATOM      4  C3  UNL d   1      -0.569   0.358  -1.651  0.00  0.00     0.006 A 
ATOM      5  C4  UNL d   1      -0.817  -0.633  -0.701  0.00  0.00    -0.005 A 
ATOM      6  C5  UNL d   1      -0.373  -0.476   0.616  0.00  0.00    -0.074 A 
ATOM      7  C6  UNL d   1      -0.622  -1.536   1.647  0.00  0.00     0.077 C 
ATOM      8  C7  UNL d   1       0.329   0.686   0.965  0.00  0.00    -0.001 A 
ENDROOT
TORSDOF 0
ENDMDL
