MODEL 1
REMARK minimizedAffinity -2.68935418
REMARK minimizedRMSD -1
REMARK  0 active torsions:
REMARK  status: ('A' for Active; 'I' for Inactive)
ROOT
ATOM      1  C   UNL d   1       1.032   3.249   0.503  0.00  0.00     0.077 C 
ATOM      2  C1  UNL d   1       0.415   1.949   0.079  0.00  0.00    -0.074 A 
ATOM      3  C2  UNL d   1       0.265   1.632  -1.275  0.00  0.00    -0.005 A 
ATOM      4  C3  UNL d   1      -0.301   0.415  -1.654  0.00  0.00     0.006 A 
ATOM      5  C4  UNL d   1      -0.723  -0.496  -0.684  0.00  0.00    -0.005 A 
ATOM      6  C5  UNL d   1      -0.581  -0.196   0.674  0.00  0.00    -0.074 A 
ATOM      7  C6  UNL d   1      -1.020  -1.168   1.729  0.00  0.00     0.077 C 
ATOM      8  C7  UNL d   1      -0.004   1.026   1.047  0.00  0.00    -0.001 A 
ENDROOT
TORSDOF 0
ENDMDL
