MODEL 1
REMARK minimizedAffinity -5.88442945
REMARK minimizedRMSD -1
REMARK  0 active torsions:
REMARK  status: ('A' for Active; 'I' for Inactive)
ROOT
ATOM      1  C   UNL d   1       0.325  -2.551  -2.935  0.00  0.00     0.077 C 
ATOM      2  C1  UNL d   1       0.035  -1.971  -1.583  0.00  0.00    -0.074 A 
ATOM      3  C2  UNL d   1      -0.321  -2.794  -0.509  0.00  0.00    -0.005 A 
ATOM      4  C3  UNL d   1      -0.579  -2.241   0.745  0.00  0.00     0.006 A 
ATOM      5  C4  UNL d   1      -0.482  -0.863   0.939  0.00  0.00    -0.005 A 
ATOM      6  C5  UNL d   1      -0.126  -0.024  -0.122  0.00  0.00    -0.074 A 
ATOM      7  C6  UNL d   1      -0.008   1.458   0.071  0.00  0.00     0.077 C 
ATOM      8  C7  UNL d   1       0.138  -0.588  -1.378  0.00  0.00    -0.001 A 
ENDROOT
TORSDOF 0
ENDMDL
