MODEL 1
REMARK minimizedAffinity 13.1742821
REMARK minimizedRMSD -1
REMARK  0 active torsions:
REMARK  status: ('A' for Active; 'I' for Inactive)
ROOT
ATOM      1  C4' PXY d   1      -1.988  -2.075   6.000  0.00  0.00     0.077 C 
ATOM      2  C1' PXY d   1       0.781  -0.864   1.072  0.00  0.00     0.077 C 
ATOM      3  C1  PXY d   1       0.045  -1.187   2.358  0.00  0.00    -0.082 A 
ATOM      4  C2  PXY d   1       0.272  -0.462   3.441  0.00  0.00     0.003 A 
ATOM      5  C3  PXY d   1      -0.361  -0.761   4.620  0.00  0.00     0.003 A 
ATOM      6  C4  PXY d   1      -1.275  -1.779   4.678  0.00  0.00    -0.082 A 
ATOM      7  C5  PXY d   1      -1.519  -2.516   3.574  0.00  0.00     0.003 A 
ATOM      8  C6  PXY d   1      -0.836  -2.223   2.397  0.00  0.00     0.003 A 
ENDROOT
TORSDOF 0
ENDMDL
