MODEL 1
REMARK minimizedAffinity 8.75010967
REMARK minimizedRMSD -1
REMARK  0 active torsions:
REMARK  status: ('A' for Active; 'I' for Inactive)
ROOT
ATOM      1  C4' PXY d   1       0.976  -2.074   1.407  0.00  0.00     0.077 C 
ATOM      2  C1' PXY d   1      -1.880  -0.032   5.999  0.00  0.00     0.077 C 
ATOM      3  C1  PXY d   1      -1.137  -0.579   4.797  0.00  0.00    -0.082 A 
ATOM      4  C2  PXY d   1      -0.003  -0.014   4.416  0.00  0.00     0.003 A 
ATOM      5  C3  PXY d   1       0.666  -0.475   3.311  0.00  0.00     0.003 A 
ATOM      6  C4  PXY d   1       0.197  -1.561   2.621  0.00  0.00    -0.082 A 
ATOM      7  C5  PXY d   1      -0.954  -2.150   3.010  0.00  0.00     0.003 A 
ATOM      8  C6  PXY d   1      -1.639  -1.640   4.109  0.00  0.00     0.003 A 
ENDROOT
TORSDOF 0
ENDMDL
