MODEL 1
REMARK minimizedAffinity 7.45013762
REMARK minimizedRMSD -1
REMARK  0 active torsions:
REMARK  status: ('A' for Active; 'I' for Inactive)
ROOT
ATOM      1  C4' PXY d   1      -1.852  -2.670   1.678  0.00  0.00     0.077 C 
ATOM      2  C1' PXY d   1      -6.000  -5.997  -0.588  0.00  0.00     0.077 C 
ATOM      3  C1  PXY d   1      -4.921  -5.115   0.009  0.00  0.00    -0.082 A 
ATOM      4  C2  PXY d   1      -3.664  -5.267  -0.377  0.00  0.00     0.003 A 
ATOM      5  C3  PXY d   1      -2.672  -4.500   0.177  0.00  0.00     0.003 A 
ATOM      6  C4  PXY d   1      -2.976  -3.531   1.095  0.00  0.00    -0.082 A 
ATOM      7  C5  PXY d   1      -4.257  -3.363   1.486  0.00  0.00     0.003 A 
ATOM      8  C6  PXY d   1      -5.244  -4.180   0.943  0.00  0.00     0.003 A 
ENDROOT
TORSDOF 0
ENDMDL
