MODEL 1
REMARK minimizedAffinity 12.9430218
REMARK minimizedRMSD -1
REMARK  0 active torsions:
REMARK  status: ('A' for Active; 'I' for Inactive)
ROOT
ATOM      1  C4' PXY d   1      -0.586  -2.610   2.767  0.00  0.00     0.077 C 
ATOM      2  C1' PXY d   1       4.373   0.229   1.897  0.00  0.00     0.077 C 
ATOM      3  C1  PXY d   1       3.071  -0.509   2.136  0.00  0.00    -0.082 A 
ATOM      4  C2  PXY d   1       2.843  -1.653   1.511  0.00  0.00     0.003 A 
ATOM      5  C3  PXY d   1       1.658  -2.318   1.692  0.00  0.00     0.003 A 
ATOM      6  C4  PXY d   1       0.718  -1.834   2.562  0.00  0.00    -0.082 A 
ATOM      7  C5  PXY d   1       0.948  -0.674   3.212  0.00  0.00     0.003 A 
ATOM      8  C6  PXY d   1       2.140   0.007   2.983  0.00  0.00     0.003 A 
ENDROOT
TORSDOF 0
ENDMDL
