MODEL 1
REMARK minimizedAffinity 6.279778
REMARK minimizedRMSD -1
REMARK  0 active torsions:
REMARK  status: ('A' for Active; 'I' for Inactive)
ROOT
ATOM      1  C4' PXY d   1      -0.539  -3.292  -1.577  0.00  0.00     0.077 C 
ATOM      2  C1' PXY d   1       2.109  -5.929  -5.987  0.00  0.00     0.077 C 
ATOM      3  C1  PXY d   1       1.407  -5.248  -4.828  0.00  0.00    -0.082 A 
ATOM      4  C2  PXY d   1       1.353  -3.927  -4.782  0.00  0.00     0.003 A 
ATOM      5  C3  PXY d   1       0.751  -3.295  -3.725  0.00  0.00     0.003 A 
ATOM      6  C4  PXY d   1       0.150  -4.022  -2.733  0.00  0.00    -0.082 A 
ATOM      7  C5  PXY d   1       0.192  -5.371  -2.778  0.00  0.00     0.003 A 
ATOM      8  C6  PXY d   1       0.845  -5.993  -3.839  0.00  0.00     0.003 A 
ENDROOT
TORSDOF 0
ENDMDL
