MODEL 1
REMARK minimizedAffinity 13.0476742
REMARK minimizedRMSD -1
REMARK  0 active torsions:
REMARK  status: ('A' for Active; 'I' for Inactive)
ROOT
ATOM      1  C4' PXY d   1      -6.000   1.547  -3.446  0.00  0.00     0.077 C 
ATOM      2  C1' PXY d   1      -1.470   4.141  -5.929  0.00  0.00     0.077 C 
ATOM      3  C1  PXY d   1      -2.666   3.468  -5.286  0.00  0.00    -0.082 A 
ATOM      4  C2  PXY d   1      -2.556   2.963  -4.068  0.00  0.00     0.003 A 
ATOM      5  C3  PXY d   1      -3.618   2.322  -3.483  0.00  0.00     0.003 A 
ATOM      6  C4  PXY d   1      -4.821   2.244  -4.131  0.00  0.00    -0.082 A 
ATOM      7  C5  PXY d   1      -4.945   2.766  -5.370  0.00  0.00     0.003 A 
ATOM      8  C6  PXY d   1      -3.843   3.376  -5.962  0.00  0.00     0.003 A 
ENDROOT
TORSDOF 0
ENDMDL
