MODEL 1
REMARK minimizedAffinity 7.11301661
REMARK minimizedRMSD -1
REMARK  0 active torsions:
REMARK  status: ('A' for Active; 'I' for Inactive)
ROOT
ATOM      1  C4' PXY d   1      -2.980  -2.628   3.425  0.00  0.00     0.077 C 
ATOM      2  C1' PXY d   1       2.039  -0.486   1.515  0.00  0.00     0.077 C 
ATOM      3  C1  PXY d   1       0.727  -1.047   2.028  0.00  0.00    -0.082 A 
ATOM      4  C2  PXY d   1       0.002  -1.833   1.249  0.00  0.00     0.003 A 
ATOM      5  C3  PXY d   1      -1.202  -2.323   1.686  0.00  0.00     0.003 A 
ATOM      6  C4  PXY d   1      -1.644  -2.047   2.952  0.00  0.00    -0.082 A 
ATOM      7  C5  PXY d   1      -0.905  -1.254   3.756  0.00  0.00     0.003 A 
ATOM      8  C6  PXY d   1       0.294  -0.734   3.280  0.00  0.00     0.003 A 
ENDROOT
TORSDOF 0
ENDMDL
