MODEL 1
REMARK minimizedAffinity 6.79202795
REMARK minimizedRMSD -1
REMARK  0 active torsions:
REMARK  status: ('A' for Active; 'I' for Inactive)
ROOT
ATOM      1  C4' PXY d   1      -3.962  -5.378  -0.989  0.00  0.00     0.077 C 
ATOM      2  C1' PXY d   1      -4.336  -3.930   4.595  0.00  0.00     0.077 C 
ATOM      3  C1  PXY d   1      -4.247  -4.301   3.127  0.00  0.00    -0.082 A 
ATOM      4  C2  PXY d   1      -3.853  -5.516   2.782  0.00  0.00     0.003 A 
ATOM      5  C3  PXY d   1      -3.736  -5.858   1.460  0.00  0.00     0.003 A 
ATOM      6  C4  PXY d   1      -4.076  -4.963   0.480  0.00  0.00    -0.082 A 
ATOM      7  C5  PXY d   1      -4.488  -3.725   0.824  0.00  0.00     0.003 A 
ATOM      8  C6  PXY d   1      -4.561  -3.384   2.172  0.00  0.00     0.003 A 
ENDROOT
TORSDOF 0
ENDMDL
