MODEL 1
REMARK minimizedAffinity 16.8159256
REMARK minimizedRMSD -1
REMARK  0 active torsions:
REMARK  status: ('A' for Active; 'I' for Inactive)
ROOT
ATOM      1  C4' PXY d   1      -2.833  -3.030   2.363  0.00  0.00     0.077 C 
ATOM      2  C1' PXY d   1       2.345  -0.543   1.711  0.00  0.00     0.077 C 
ATOM      3  C1  PXY d   1       0.985  -1.188   1.893  0.00  0.00    -0.082 A 
ATOM      4  C2  PXY d   1       0.751  -2.380   1.368  0.00  0.00     0.003 A 
ATOM      5  C3  PXY d   1      -0.484  -2.964   1.496  0.00  0.00     0.003 A 
ATOM      6  C4  PXY d   1      -1.472  -2.345   2.213  0.00  0.00    -0.082 A 
ATOM      7  C5  PXY d   1      -1.237  -1.133   2.761  0.00  0.00     0.003 A 
ATOM      8  C6  PXY d   1       0.009  -0.540   2.585  0.00  0.00     0.003 A 
ENDROOT
TORSDOF 0
ENDMDL
