MODEL 1
REMARK minimizedAffinity 10.3946314
REMARK minimizedRMSD -1
REMARK  0 active torsions:
REMARK  status: ('A' for Active; 'I' for Inactive)
ROOT
ATOM      1  C4' PXY d   1      -2.508  -3.100   2.777  0.00  0.00     0.077 C 
ATOM      2  C1' PXY d   1       2.136   0.040   1.368  0.00  0.00     0.077 C 
ATOM      3  C1  PXY d   1       0.918  -0.778   1.750  0.00  0.00    -0.082 A 
ATOM      4  C2  PXY d   1       0.674  -1.918   1.124  0.00  0.00     0.003 A 
ATOM      5  C3  PXY d   1      -0.441  -2.654   1.434  0.00  0.00     0.003 A 
ATOM      6  C4  PXY d   1      -1.285  -2.246   2.432  0.00  0.00    -0.082 A 
ATOM      7  C5  PXY d   1      -1.037  -1.089   3.082  0.00  0.00     0.003 A 
ATOM      8  C6  PXY d   1       0.077  -0.336   2.724  0.00  0.00     0.003 A 
ENDROOT
TORSDOF 0
ENDMDL
