MODEL 1
REMARK minimizedAffinity 15.517951
REMARK minimizedRMSD -1
REMARK  0 active torsions:
REMARK  status: ('A' for Active; 'I' for Inactive)
ROOT
ATOM      1  C4' PXY d   1       1.313  -0.756   1.537  0.00  0.00     0.077 C 
ATOM      2  C1' PXY d   1      -2.359  -0.561   5.996  0.00  0.00     0.077 C 
ATOM      3  C1  PXY d   1      -1.388  -0.605   4.833  0.00  0.00    -0.082 A 
ATOM      4  C2  PXY d   1      -1.839  -0.847   3.613  0.00  0.00     0.003 A 
ATOM      5  C3  PXY d   1      -0.970  -0.922   2.555  0.00  0.00     0.003 A 
ATOM      6  C4  PXY d   1       0.367  -0.693   2.739  0.00  0.00    -0.082 A 
ATOM      7  C5  PXY d   1       0.834  -0.434   3.979  0.00  0.00     0.003 A 
ATOM      8  C6  PXY d   1      -0.059  -0.404   5.047  0.00  0.00     0.003 A 
ENDROOT
TORSDOF 0
ENDMDL
