MODEL 1
REMARK minimizedAffinity 16.1234264
REMARK minimizedRMSD -1
REMARK  0 active torsions:
REMARK  status: ('A' for Active; 'I' for Inactive)
ROOT
ATOM      1  C4' PXY d   1      -1.051  -2.558   1.234  0.00  0.00     0.077 C 
ATOM      2  C1' PXY d   1       3.850   0.345   2.214  0.00  0.00     0.077 C 
ATOM      3  C1  PXY d   1       2.570  -0.422   1.947  0.00  0.00    -0.082 A 
ATOM      4  C2  PXY d   1       1.416   0.061   2.376  0.00  0.00     0.003 A 
ATOM      5  C3  PXY d   1       0.253  -0.636   2.171  0.00  0.00     0.003 A 
ATOM      6  C4  PXY d   1       0.265  -1.813   1.473  0.00  0.00    -0.082 A 
ATOM      7  C5  PXY d   1       1.437  -2.308   1.022  0.00  0.00     0.003 A 
ATOM      8  C6  PXY d   1       2.612  -1.606   1.276  0.00  0.00     0.003 A 
ENDROOT
TORSDOF 0
ENDMDL
