MODEL 1
REMARK minimizedAffinity 7.57638788
REMARK minimizedRMSD -1
REMARK  0 active torsions:
REMARK  status: ('A' for Active; 'I' for Inactive)
ROOT
ATOM      1  C4' PXY d   1       1.623  -0.323   4.689  0.00  0.00     0.077 C 
ATOM      2  C1' PXY d   1       1.262  -3.327  -0.236  0.00  0.00     0.077 C 
ATOM      3  C1  PXY d   1       1.369  -2.538   1.054  0.00  0.00    -0.082 A 
ATOM      4  C2  PXY d   1       0.430  -2.664   1.978  0.00  0.00     0.003 A 
ATOM      5  C3  PXY d   1       0.495  -1.934   3.137  0.00  0.00     0.003 A 
ATOM      6  C4  PXY d   1       1.560  -1.107   3.376  0.00  0.00    -0.082 A 
ATOM      7  C5  PXY d   1       2.528  -0.982   2.443  0.00  0.00     0.003 A 
ATOM      8  C6  PXY d   1       2.422  -1.700   1.256  0.00  0.00     0.003 A 
ENDROOT
TORSDOF 0
ENDMDL
