MODEL 1
REMARK minimizedAffinity 12.173048
REMARK minimizedRMSD -1
REMARK  0 active torsions:
REMARK  status: ('A' for Active; 'I' for Inactive)
ROOT
ATOM      1  C4' PXY d   1       0.340  -2.001   1.471  0.00  0.00     0.077 C 
ATOM      2  C1' PXY d   1       4.736   1.725   1.022  0.00  0.00     0.077 C 
ATOM      3  C1  PXY d   1       3.575   0.758   1.140  0.00  0.00    -0.082 A 
ATOM      4  C2  PXY d   1       3.776  -0.448   1.646  0.00  0.00     0.003 A 
ATOM      5  C3  PXY d   1       2.744  -1.346   1.730  0.00  0.00     0.003 A 
ATOM      6  C4  PXY d   1       1.481  -0.989   1.341  0.00  0.00    -0.082 A 
ATOM      7  C5  PXY d   1       1.265   0.243   0.833  0.00  0.00     0.003 A 
ATOM      8  C6  PXY d   1       2.335   1.126   0.718  0.00  0.00     0.003 A 
ENDROOT
TORSDOF 0
ENDMDL
