MODEL 1
REMARK minimizedAffinity 6.1415472
REMARK minimizedRMSD -1
REMARK  0 active torsions:
REMARK  status: ('A' for Active; 'I' for Inactive)
ROOT
ATOM      1  C4' PXY d   1      -5.754  -4.674   5.153  0.00  0.00     0.077 C 
ATOM      2  C1' PXY d   1      -3.260  -4.003  -0.018  0.00  0.00     0.077 C 
ATOM      3  C1  PXY d   1      -3.902  -4.183   1.343  0.00  0.00    -0.082 A 
ATOM      4  C2  PXY d   1      -5.208  -4.376   1.429  0.00  0.00     0.003 A 
ATOM      5  C3  PXY d   1      -5.811  -4.509   2.654  0.00  0.00     0.003 A 
ATOM      6  C4  PXY d   1      -5.061  -4.497   3.799  0.00  0.00    -0.082 A 
ATOM      7  C5  PXY d   1      -3.726  -4.311   3.719  0.00  0.00     0.003 A 
ATOM      8  C6  PXY d   1      -3.140  -4.137   2.469  0.00  0.00     0.003 A 
ENDROOT
TORSDOF 0
ENDMDL
