MODEL 1
REMARK minimizedAffinity 1.25584722
REMARK minimizedRMSD -1
REMARK  0 active torsions:
REMARK  status: ('A' for Active; 'I' for Inactive)
ROOT
ATOM      1  C4' PXY d   1      -5.269  -4.122   5.038  0.00  0.00     0.077 C 
ATOM      2  C1' PXY d   1      -3.650  -5.364  -0.371  0.00  0.00     0.077 C 
ATOM      3  C1  PXY d   1      -4.067  -5.027   1.047  0.00  0.00    -0.082 A 
ATOM      4  C2  PXY d   1      -4.421  -5.999   1.873  0.00  0.00     0.003 A 
ATOM      5  C3  PXY d   1      -4.832  -5.709   3.149  0.00  0.00     0.003 A 
ATOM      6  C4  PXY d   1      -4.831  -4.417   3.600  0.00  0.00    -0.082 A 
ATOM      7  C5  PXY d   1      -4.461  -3.421   2.767  0.00  0.00     0.003 A 
ATOM      8  C6  PXY d   1      -4.087  -3.732   1.463  0.00  0.00     0.003 A 
ENDROOT
TORSDOF 0
ENDMDL
