MODEL 1
REMARK minimizedAffinity -0.250732481
REMARK minimizedRMSD -1
REMARK  0 active torsions:
REMARK  status: ('A' for Active; 'I' for Inactive)
ROOT
ATOM      1  C4' PXY d   1      -5.650  -5.686   5.997  0.00  0.00     0.077 C 
ATOM      2  C1' PXY d   1      -4.801  -4.260   0.460  0.00  0.00     0.077 C 
ATOM      3  C1  PXY d   1      -5.012  -4.628   1.915  0.00  0.00    -0.082 A 
ATOM      4  C2  PXY d   1      -5.768  -5.670   2.223  0.00  0.00     0.003 A 
ATOM      5  C3  PXY d   1      -5.996  -5.997   3.535  0.00  0.00     0.003 A 
ATOM      6  C4  PXY d   1      -5.401  -5.283   4.541  0.00  0.00    -0.082 A 
ATOM      7  C5  PXY d   1      -4.620  -4.226   4.234  0.00  0.00     0.003 A 
ATOM      8  C6  PXY d   1      -4.435  -3.885   2.897  0.00  0.00     0.003 A 
ENDROOT
TORSDOF 0
ENDMDL
