MODEL 1
REMARK minimizedAffinity 15.9697056
REMARK minimizedRMSD -1
REMARK  0 active torsions:
REMARK  status: ('A' for Active; 'I' for Inactive)
ROOT
ATOM      1  C4' PXY d   1      -2.140   2.995  -3.302  0.00  0.00     0.077 C 
ATOM      2  C1' PXY d   1       2.251   3.384   0.437  0.00  0.00     0.077 C 
ATOM      3  C1  PXY d   1       1.098   3.295  -0.543  0.00  0.00    -0.082 A 
ATOM      4  C2  PXY d   1       0.411   2.169  -0.644  0.00  0.00     0.003 A 
ATOM      5  C3  PXY d   1      -0.614   2.061  -1.548  0.00  0.00     0.003 A 
ATOM      6  C4  PXY d   1      -0.974   3.134  -2.319  0.00  0.00    -0.082 A 
ATOM      7  C5  PXY d   1      -0.285   4.289  -2.214  0.00  0.00     0.003 A 
ATOM      8  C6  PXY d   1       0.779   4.366  -1.320  0.00  0.00     0.003 A 
ENDROOT
TORSDOF 0
ENDMDL
