MODEL 1
REMARK minimizedAffinity 9.15608883
REMARK minimizedRMSD -1
REMARK  0 active torsions:
REMARK  status: ('A' for Active; 'I' for Inactive)
ROOT
ATOM      1  C4' PXY d   1       2.963  -5.993  -5.991  0.00  0.00     0.077 C 
ATOM      2  C1' PXY d   1      -0.064  -3.376  -1.820  0.00  0.00     0.077 C 
ATOM      3  C1  PXY d   1       0.728  -4.052  -2.922  0.00  0.00    -0.082 A 
ATOM      4  C2  PXY d   1       0.787  -5.373  -2.969  0.00  0.00     0.003 A 
ATOM      5  C3  PXY d   1       1.525  -6.000  -3.940  0.00  0.00     0.003 A 
ATOM      6  C4  PXY d   1       2.167  -5.268  -4.903  0.00  0.00    -0.082 A 
ATOM      7  C5  PXY d   1       2.103  -3.920  -4.867  0.00  0.00     0.003 A 
ATOM      8  C6  PXY d   1       1.382  -3.302  -3.850  0.00  0.00     0.003 A 
ENDROOT
TORSDOF 0
ENDMDL
