MODEL 1
REMARK minimizedAffinity 20.0054016
REMARK minimizedRMSD -1
REMARK  0 active torsions:
REMARK  status: ('A' for Active; 'I' for Inactive)
ROOT
ATOM      1  C4' PXY d   1      -5.842   5.104  -0.318  0.00  0.00     0.077 C 
ATOM      2  C1' PXY d   1      -1.460   2.784  -3.290  0.00  0.00     0.077 C 
ATOM      3  C1  PXY d   1      -2.602   3.402  -2.507  0.00  0.00    -0.082 A 
ATOM      4  C2  PXY d   1      -3.597   2.638  -2.088  0.00  0.00     0.003 A 
ATOM      5  C3  PXY d   1      -4.653   3.186  -1.406  0.00  0.00     0.003 A 
ATOM      6  C4  PXY d   1      -4.664   4.521  -1.103  0.00  0.00    -0.082 A 
ATOM      7  C5  PXY d   1      -3.647   5.306  -1.518  0.00  0.00     0.003 A 
ATOM      8  C6  PXY d   1      -2.605   4.737  -2.245  0.00  0.00     0.003 A 
ENDROOT
TORSDOF 0
ENDMDL
