MODEL 1
REMARK minimizedAffinity 1.18642783
REMARK minimizedRMSD -1
REMARK  0 active torsions:
REMARK  status: ('A' for Active; 'I' for Inactive)
ROOT
ATOM      1  N1  IND d   1       1.896  -4.117   0.774  0.00  0.00    -0.196 N 
ATOM      2  C2  IND d   1       0.813  -4.771   1.294  0.00  0.00     0.054 A 
ATOM      3  C3  IND d   1      -0.308  -4.037   1.118  0.00  0.00    -0.031 A 
ATOM      4  C4  IND d   1      -0.615  -1.783  -0.087  0.00  0.00     0.051 A 
ATOM      5  C5  IND d   1       0.090  -0.780  -0.693  0.00  0.00    -0.031 A 
ATOM      6  C6  IND d   1       1.460  -0.842  -0.846  0.00  0.00     0.015 A 
ATOM      7  C7  IND d   1       2.178  -1.918  -0.407  0.00  0.00    -0.016 A 
ATOM      8  C8  IND d   1       1.467  -2.934   0.215  0.00  0.00    -0.047 A 
ATOM      9  C9  IND d   1       0.082  -2.858   0.411  0.00  0.00    -0.096 A 
ATOM     10  HN1 IND d   1       2.708  -4.398   0.794  0.00  0.00     0.298 HD
ENDROOT
TORSDOF 0
ENDMDL
