MODEL 1
REMARK minimizedAffinity 6.43964291
REMARK minimizedRMSD -1
REMARK  0 active torsions:
REMARK  status: ('A' for Active; 'I' for Inactive)
ROOT
ATOM      1  N1  IND d   1       2.641  -2.162   1.413  0.00  0.00    -0.196 N 
ATOM      2  C2  IND d   1       1.876  -3.287   1.548  0.00  0.00     0.054 A 
ATOM      3  C3  IND d   1       1.025  -3.405   0.503  0.00  0.00    -0.031 A 
ATOM      4  C4  IND d   1       0.790  -1.924  -1.589  0.00  0.00     0.051 A 
ATOM      5  C5  IND d   1       1.247  -0.761  -2.143  0.00  0.00    -0.031 A 
ATOM      6  C6  IND d   1       2.214   0.008  -1.528  0.00  0.00     0.015 A 
ATOM      7  C7  IND d   1       2.770  -0.364  -0.337  0.00  0.00    -0.016 A 
ATOM      8  C8  IND d   1       2.303  -1.541   0.231  0.00  0.00    -0.047 A 
ATOM      9  C9  IND d   1       1.292  -2.303  -0.367  0.00  0.00    -0.096 A 
ATOM     10  HN1 IND d   1       3.234  -1.889   1.973  0.00  0.00     0.298 HD
ENDROOT
TORSDOF 0
ENDMDL
