MODEL 1
REMARK minimizedAffinity 0.398189694
REMARK minimizedRMSD -1
REMARK  0 active torsions:
REMARK  status: ('A' for Active; 'I' for Inactive)
ROOT
ATOM      1  N1  IND d   1       1.608  -3.831   1.207  0.00  0.00    -0.196 N 
ATOM      2  C2  IND d   1       0.421  -4.507   1.220  0.00  0.00     0.054 A 
ATOM      3  C3  IND d   1      -0.537  -3.789   0.591  0.00  0.00    -0.031 A 
ATOM      4  C4  IND d   1      -0.352  -1.527  -0.623  0.00  0.00     0.051 A 
ATOM      5  C5  IND d   1       0.523  -0.506  -0.872  0.00  0.00    -0.031 A 
ATOM      6  C6  IND d   1       1.831  -0.544  -0.434  0.00  0.00     0.015 A 
ATOM      7  C7  IND d   1       2.318  -1.613   0.262  0.00  0.00    -0.016 A 
ATOM      8  C8  IND d   1       1.432  -2.648   0.523  0.00  0.00    -0.047 A 
ATOM      9  C9  IND d   1       0.092  -2.597   0.118  0.00  0.00    -0.096 A 
ATOM     10  HN1 IND d   1       2.342  -4.098   1.566  0.00  0.00     0.298 HD
ENDROOT
TORSDOF 0
ENDMDL
