MODEL 1
REMARK minimizedAffinity -1.04316175
REMARK minimizedRMSD -1
REMARK  0 active torsions:
REMARK  status: ('A' for Active; 'I' for Inactive)
ROOT
ATOM      1  N1  IND d   1       2.212  -1.514  -0.734  0.00  0.00    -0.196 N 
ATOM      2  C2  IND d   1       1.698  -0.519  -1.517  0.00  0.00     0.054 A 
ATOM      3  C3  IND d   1       0.348  -0.584  -1.535  0.00  0.00    -0.031 A 
ATOM      4  C4  IND d   1      -1.229  -2.179  -0.272  0.00  0.00     0.051 A 
ATOM      5  C5  IND d   1      -1.226  -3.279   0.538  0.00  0.00    -0.031 A 
ATOM      6  C6  IND d   1      -0.052  -3.858   0.977  0.00  0.00     0.015 A 
ATOM      7  C7  IND d   1       1.167  -3.348   0.629  0.00  0.00    -0.016 A 
ATOM      8  C8  IND d   1       1.167  -2.235  -0.199  0.00  0.00    -0.047 A 
ATOM      9  C9  IND d   1      -0.020  -1.669  -0.682  0.00  0.00    -0.096 A 
ATOM     10  HN1 IND d   1       3.048  -1.665  -0.598  0.00  0.00     0.298 HD
ENDROOT
TORSDOF 0
ENDMDL
