MODEL 1
REMARK minimizedAffinity -3.78582072
REMARK minimizedRMSD -1
REMARK  0 active torsions:
REMARK  status: ('A' for Active; 'I' for Inactive)
ROOT
ATOM      1  N1  IND d   1       1.673  -4.049   0.751  0.00  0.00    -0.196 N 
ATOM      2  C2  IND d   1       0.540  -4.680   1.185  0.00  0.00     0.054 A 
ATOM      3  C3  IND d   1      -0.550  -3.927   0.917  0.00  0.00    -0.031 A 
ATOM      4  C4  IND d   1      -0.718  -1.673  -0.316  0.00  0.00     0.051 A 
ATOM      5  C5  IND d   1       0.051  -0.686  -0.866  0.00  0.00    -0.031 A 
ATOM      6  C6  IND d   1       1.428  -0.773  -0.909  0.00  0.00     0.015 A 
ATOM      7  C7  IND d   1       2.089  -1.860  -0.411  0.00  0.00    -0.016 A 
ATOM      8  C8  IND d   1       1.311  -2.861   0.155  0.00  0.00    -0.047 A 
ATOM      9  C9  IND d   1      -0.083  -2.759   0.240  0.00  0.00    -0.096 A 
ATOM     10  HN1 IND d   1       2.475  -4.345   0.837  0.00  0.00     0.298 HD
ENDROOT
TORSDOF 0
ENDMDL
