MODEL 1
REMARK minimizedAffinity -1.68957257
REMARK minimizedRMSD -1
REMARK  0 active torsions:
REMARK  status: ('A' for Active; 'I' for Inactive)
ROOT
ATOM      1  N1  IND d   1       2.121  -1.173  -0.664  0.00  0.00    -0.196 N 
ATOM      2  C2  IND d   1       1.377  -0.308  -1.418  0.00  0.00     0.054 A 
ATOM      3  C3  IND d   1       0.068  -0.640  -1.359  0.00  0.00    -0.031 A 
ATOM      4  C4  IND d   1      -1.089  -2.500  -0.007  0.00  0.00     0.051 A 
ATOM      5  C5  IND d   1      -0.822  -3.568   0.803  0.00  0.00    -0.031 A 
ATOM      6  C6  IND d   1       0.465  -3.897   1.175  0.00  0.00     0.015 A 
ATOM      7  C7  IND d   1       1.537  -3.161   0.758  0.00  0.00    -0.016 A 
ATOM      8  C8  IND d   1       1.271  -2.080  -0.070  0.00  0.00    -0.047 A 
ATOM      9  C9  IND d   1      -0.030  -1.766  -0.485  0.00  0.00    -0.096 A 
ATOM     10  HN1 IND d   1       2.976  -1.154  -0.576  0.00  0.00     0.298 HD
ENDROOT
TORSDOF 0
ENDMDL
