MODEL 1
REMARK minimizedAffinity 8.32250881
REMARK minimizedRMSD -1
REMARK  0 active torsions:
REMARK  status: ('A' for Active; 'I' for Inactive)
ROOT
ATOM      1  N1  IND d   1      -0.309  -2.370  -0.669  0.00  0.00    -0.196 N 
ATOM      2  C2  IND d   1      -0.857  -2.475   0.579  0.00  0.00     0.054 A 
ATOM      3  C3  IND d   1      -0.016  -1.962   1.505  0.00  0.00    -0.031 A 
ATOM      4  C4  IND d   1       2.263  -0.808   1.186  0.00  0.00     0.051 A 
ATOM      5  C5  IND d   1       3.195  -0.510   0.231  0.00  0.00    -0.031 A 
ATOM      6  C6  IND d   1       3.001  -0.821  -1.099  0.00  0.00     0.015 A 
ATOM      7  C7  IND d   1       1.858  -1.433  -1.528  0.00  0.00    -0.016 A 
ATOM      8  C8  IND d   1       0.913  -1.744  -0.561  0.00  0.00    -0.047 A 
ATOM      9  C9  IND d   1       1.122  -1.470   0.796  0.00  0.00    -0.096 A 
ATOM     10  HN1 IND d   1      -0.668  -2.649  -1.399  0.00  0.00     0.298 HD
ENDROOT
TORSDOF 0
ENDMDL
