MODEL 1
REMARK minimizedAffinity 4.66735315
REMARK minimizedRMSD -1
REMARK  0 active torsions:
REMARK  status: ('A' for Active; 'I' for Inactive)
ROOT
ATOM      1  N1  IND d   1       0.667  -3.413   0.439  0.00  0.00    -0.196 N 
ATOM      2  C2  IND d   1       1.980  -3.408   0.817  0.00  0.00     0.054 A 
ATOM      3  C3  IND d   1       2.572  -2.251   0.445  0.00  0.00    -0.031 A 
ATOM      4  C4  IND d   1       1.549  -0.186  -0.704  0.00  0.00     0.051 A 
ATOM      5  C5  IND d   1       0.394   0.266  -1.277  0.00  0.00    -0.031 A 
ATOM      6  C6  IND d   1      -0.754  -0.500  -1.305  0.00  0.00     0.015 A 
ATOM      7  C7  IND d   1      -0.792  -1.747  -0.749  0.00  0.00    -0.016 A 
ATOM      8  C8  IND d   1       0.382  -2.212  -0.173  0.00  0.00    -0.047 A 
ATOM      9  C9  IND d   1       1.561  -1.457  -0.179  0.00  0.00    -0.096 A 
ATOM     10  HN1 IND d   1       0.112  -4.059   0.562  0.00  0.00     0.298 HD
ENDROOT
TORSDOF 0
ENDMDL
