MODEL 1
REMARK minimizedAffinity 2.69998503
REMARK minimizedRMSD -1
REMARK  0 active torsions:
REMARK  status: ('A' for Active; 'I' for Inactive)
ROOT
ATOM      1  N1  IND d   1       1.598  -1.077  -2.596  0.00  0.00    -0.196 N 
ATOM      2  C2  IND d   1       1.195  -1.314  -1.312  0.00  0.00     0.054 A 
ATOM      3  C3  IND d   1       0.683  -0.189  -0.764  0.00  0.00    -0.031 A 
ATOM      4  C4  IND d   1       0.317   2.127  -1.827  0.00  0.00     0.051 A 
ATOM      5  C5  IND d   1       0.560   2.840  -2.967  0.00  0.00    -0.031 A 
ATOM      6  C6  IND d   1       1.172   2.271  -4.066  0.00  0.00     0.015 A 
ATOM      7  C7  IND d   1       1.554   0.959  -4.069  0.00  0.00    -0.016 A 
ATOM      8  C8  IND d   1       1.315   0.235  -2.909  0.00  0.00    -0.047 A 
ATOM      9  C9  IND d   1       0.733   0.818  -1.776  0.00  0.00    -0.096 A 
ATOM     10  HN1 IND d   1       1.966  -1.650  -3.120  0.00  0.00     0.298 HD
ENDROOT
TORSDOF 0
ENDMDL
