MODEL 1
REMARK minimizedAffinity -0.663214147
REMARK minimizedRMSD -1
REMARK  0 active torsions:
REMARK  status: ('A' for Active; 'I' for Inactive)
ROOT
ATOM      1  N1  IND d   1      -5.600   2.462   5.999  0.00  0.00    -0.196 N 
ATOM      2  C2  IND d   1      -4.662   1.535   5.640  0.00  0.00     0.054 A 
ATOM      3  C3  IND d   1      -3.656   2.124   4.957  0.00  0.00    -0.031 A 
ATOM      4  C4  IND d   1      -3.292   4.611   4.401  0.00  0.00     0.051 A 
ATOM      5  C5  IND d   1      -3.896   5.834   4.489  0.00  0.00    -0.031 A 
ATOM      6  C6  IND d   1      -5.122   5.999   5.099  0.00  0.00     0.015 A 
ATOM      7  C7  IND d   1      -5.788   4.945   5.657  0.00  0.00    -0.016 A 
ATOM      8  C8  IND d   1      -5.181   3.700   5.564  0.00  0.00    -0.047 A 
ATOM      9  C9  IND d   1      -3.956   3.520   4.908  0.00  0.00    -0.096 A 
ATOM     10  HN1 IND d   1      -6.329   2.300   6.426  0.00  0.00     0.298 HD
ENDROOT
TORSDOF 0
ENDMDL
