MODEL 1
REMARK minimizedAffinity 1.24717331
REMARK minimizedRMSD -1
REMARK  0 active torsions:
REMARK  status: ('A' for Active; 'I' for Inactive)
ROOT
ATOM      1  N1  IND d   1       1.198  -2.443  -1.502  0.00  0.00    -0.196 N 
ATOM      2  C2  IND d   1       1.506  -3.051  -2.687  0.00  0.00     0.054 A 
ATOM      3  C3  IND d   1       1.476  -2.153  -3.697  0.00  0.00    -0.031 A 
ATOM      4  C4  IND d   1       1.046   0.384  -3.619  0.00  0.00     0.051 A 
ATOM      5  C5  IND d   1       0.684   1.389  -2.767  0.00  0.00    -0.031 A 
ATOM      6  C6  IND d   1       0.474   1.164  -1.422  0.00  0.00     0.015 A 
ATOM      7  C7  IND d   1       0.629  -0.078  -0.874  0.00  0.00    -0.016 A 
ATOM      8  C8  IND d   1       0.989  -1.102  -1.738  0.00  0.00    -0.047 A 
ATOM      9  C9  IND d   1       1.162  -0.889  -3.111  0.00  0.00    -0.096 A 
ATOM     10  HN1 IND d   1       1.144  -2.833  -0.737  0.00  0.00     0.298 HD
ENDROOT
TORSDOF 0
ENDMDL
