MODEL 1
REMARK minimizedAffinity 1.91618049
REMARK minimizedRMSD -1
REMARK  0 active torsions:
REMARK  status: ('A' for Active; 'I' for Inactive)
ROOT
ATOM      1  N1  IND d   1       4.488   1.916  -5.998  0.00  0.00    -0.196 N 
ATOM      2  C2  IND d   1       5.687   1.592  -5.428  0.00  0.00     0.054 A 
ATOM      3  C3  IND d   1       6.000   2.476  -4.454  0.00  0.00    -0.031 A 
ATOM      4  C4  IND d   1       4.642   4.471  -3.559  0.00  0.00     0.051 A 
ATOM      5  C5  IND d   1       3.500   5.187  -3.789  0.00  0.00    -0.031 A 
ATOM      6  C6  IND d   1       2.609   4.840  -4.784  0.00  0.00     0.015 A 
ATOM      7  C7  IND d   1       2.823   3.753  -5.584  0.00  0.00    -0.016 A 
ATOM      8  C8  IND d   1       3.985   3.028  -5.359  0.00  0.00    -0.047 A 
ATOM      9  C9  IND d   1       4.914   3.401  -4.378  0.00  0.00    -0.096 A 
ATOM     10  HN1 IND d   1       4.111   1.497  -6.647  0.00  0.00     0.298 HD
ENDROOT
TORSDOF 0
ENDMDL
