MODEL 1
REMARK minimizedAffinity 0.512298167
REMARK minimizedRMSD -1
REMARK  0 active torsions:
REMARK  status: ('A' for Active; 'I' for Inactive)
ROOT
ATOM      1  N1  IND d   1      -3.719   2.271   3.831  0.00  0.00    -0.196 N 
ATOM      2  C2  IND d   1      -4.065   1.519   4.918  0.00  0.00     0.054 A 
ATOM      3  C3  IND d   1      -4.475   2.317   5.930  0.00  0.00    -0.031 A 
ATOM      4  C4  IND d   1      -4.754   4.875   5.986  0.00  0.00     0.051 A 
ATOM      5  C5  IND d   1      -4.529   6.000   5.243  0.00  0.00    -0.031 A 
ATOM      6  C6  IND d   1      -4.016   5.938   3.963  0.00  0.00     0.015 A 
ATOM      7  C7  IND d   1      -3.716   4.742   3.373  0.00  0.00    -0.016 A 
ATOM      8  C8  IND d   1      -3.936   3.599   4.128  0.00  0.00    -0.047 A 
ATOM      9  C9  IND d   1      -4.417   3.658   5.442  0.00  0.00    -0.096 A 
ATOM     10  HN1 IND d   1      -3.416   1.967   3.086  0.00  0.00     0.298 HD
ENDROOT
TORSDOF 0
ENDMDL
