MODEL 1
REMARK minimizedAffinity 2.82511663
REMARK minimizedRMSD -1
REMARK  0 active torsions:
REMARK  status: ('A' for Active; 'I' for Inactive)
ROOT
ATOM      1  N1  IND d   1       4.536   4.561  -3.969  0.00  0.00    -0.196 N 
ATOM      2  C2  IND d   1       3.254   4.909  -4.291  0.00  0.00     0.054 A 
ATOM      3  C3  IND d   1       2.710   3.988  -5.118  0.00  0.00    -0.031 A 
ATOM      4  C4  IND d   1       3.708   1.780  -5.990  0.00  0.00     0.051 A 
ATOM      5  C5  IND d   1       4.863   1.049  -5.998  0.00  0.00    -0.031 A 
ATOM      6  C6  IND d   1       5.989   1.458  -5.314  0.00  0.00     0.015 A 
ATOM      7  C7  IND d   1       6.000   2.613  -4.584  0.00  0.00    -0.016 A 
ATOM      8  C8  IND d   1       4.831   3.362  -4.579  0.00  0.00    -0.047 A 
ATOM      9  C9  IND d   1       3.698   2.973  -5.306  0.00  0.00    -0.096 A 
ATOM     10  HN1 IND d   1       5.068   5.015  -3.470  0.00  0.00     0.298 HD
ENDROOT
TORSDOF 0
ENDMDL
