MODEL 1
REMARK minimizedAffinity 6.72438145
REMARK minimizedRMSD -1
REMARK  0 active torsions:
REMARK  status: ('A' for Active; 'I' for Inactive)
ROOT
ATOM      1  O1  BZF d   1       1.863   0.750   0.485  0.00  0.00    -0.204 OA
ATOM      2  C2  BZF d   1       0.493   0.892   0.384  0.00  0.00     0.174 A 
ATOM      3  C3  BZF d   1       0.047   0.402  -0.791  0.00  0.00    -0.012 A 
ATOM      4  C3A BZF d   1       1.199  -0.160  -1.426  0.00  0.00    -0.107 A 
ATOM      5  C4  BZF d   1       1.395  -0.809  -2.612  0.00  0.00     0.055 A 
ATOM      6  C5  BZF d   1       2.657  -1.165  -2.969  0.00  0.00    -0.016 A 
ATOM      7  C6  BZF d   1       3.745  -0.884  -2.169  0.00  0.00     0.022 A 
ATOM      8  C7  BZF d   1       3.600  -0.246  -0.982  0.00  0.00     0.029 A 
ATOM      9  C7A BZF d   1       2.322   0.086  -0.603  0.00  0.00     0.058 A 
ENDROOT
TORSDOF 0
ENDMDL
