MODEL 1
REMARK minimizedAffinity 1.6443423
REMARK minimizedRMSD -1
REMARK  0 active torsions:
REMARK  status: ('A' for Active; 'I' for Inactive)
ROOT
ATOM      1  O1  BZF d   1       3.865  -0.308  -1.283  0.00  0.00    -0.204 OA
ATOM      2  C2  BZF d   1       3.590  -1.631  -1.569  0.00  0.00     0.174 A 
ATOM      3  C3  BZF d   1       2.333  -1.950  -1.200  0.00  0.00    -0.012 A 
ATOM      4  C3A BZF d   1       1.756  -0.726  -0.734  0.00  0.00    -0.107 A 
ATOM      5  C4  BZF d   1       0.523  -0.394  -0.249  0.00  0.00     0.055 A 
ATOM      6  C5  BZF d   1       0.305   0.874   0.188  0.00  0.00    -0.016 A 
ATOM      7  C6  BZF d   1       1.297   1.833   0.159  0.00  0.00     0.022 A 
ATOM      8  C7  BZF d   1       2.534   1.552  -0.318  0.00  0.00     0.029 A 
ATOM      9  C7A BZF d   1       2.748   0.280  -0.791  0.00  0.00     0.058 A 
ENDROOT
TORSDOF 0
ENDMDL
