MODEL 1
REMARK minimizedAffinity 1.13497818
REMARK minimizedRMSD -1
REMARK  0 active torsions:
REMARK  status: ('A' for Active; 'I' for Inactive)
ROOT
ATOM      1  O1  BZF d   1      -3.256  -1.368  -5.945  0.00  0.00    -0.204 OA
ATOM      2  C2  BZF d   1      -4.495  -1.975  -5.997  0.00  0.00     0.174 A 
ATOM      3  C3  BZF d   1      -5.480  -1.054  -5.973  0.00  0.00    -0.012 A 
ATOM      4  C3A BZF d   1      -4.813   0.211  -5.994  0.00  0.00    -0.107 A 
ATOM      5  C4  BZF d   1      -5.252   1.504  -6.000  0.00  0.00     0.055 A 
ATOM      6  C5  BZF d   1      -4.341   2.511  -5.947  0.00  0.00    -0.016 A 
ATOM      7  C6  BZF d   1      -2.986   2.262  -5.882  0.00  0.00     0.022 A 
ATOM      8  C7  BZF d   1      -2.502   0.996  -5.879  0.00  0.00     0.029 A 
ATOM      9  C7A BZF d   1      -3.419  -0.024  -5.966  0.00  0.00     0.058 A 
ENDROOT
TORSDOF 0
ENDMDL
