MODEL 1
REMARK minimizedAffinity -3.28138018
REMARK minimizedRMSD -1
REMARK  0 active torsions:
REMARK  status: ('A' for Active; 'I' for Inactive)
ROOT
ATOM      1  O1  BZF d   1       0.431   0.133  -1.602  0.00  0.00    -0.204 OA
ATOM      2  C2  BZF d   1       0.311   0.657  -0.329  0.00  0.00     0.174 A 
ATOM      3  C3  BZF d   1       1.507   0.680   0.293  0.00  0.00    -0.012 A 
ATOM      4  C3A BZF d   1       2.448   0.222  -0.683  0.00  0.00    -0.107 A 
ATOM      5  C4  BZF d   1       3.801   0.040  -0.669  0.00  0.00     0.055 A 
ATOM      6  C5  BZF d   1       4.408  -0.490  -1.764  0.00  0.00    -0.016 A 
ATOM      7  C6  BZF d   1       3.692  -0.854  -2.885  0.00  0.00     0.022 A 
ATOM      8  C7  BZF d   1       2.348  -0.687  -2.948  0.00  0.00     0.029 A 
ATOM      9  C7A BZF d   1       1.737  -0.121  -1.856  0.00  0.00     0.058 A 
ENDROOT
TORSDOF 0
ENDMDL
