MODEL 1
REMARK minimizedAffinity 0.267183512
REMARK minimizedRMSD -1
REMARK  0 active torsions:
REMARK  status: ('A' for Active; 'I' for Inactive)
ROOT
ATOM      1  O1  BZF d   1      -4.879   0.615  -5.971  0.00  0.00    -0.204 OA
ATOM      2  C2  BZF d   1      -3.751  -0.183  -5.956  0.00  0.00     0.174 A 
ATOM      3  C3  BZF d   1      -2.632   0.568  -6.000  0.00  0.00    -0.012 A 
ATOM      4  C3A BZF d   1      -3.088   1.924  -5.952  0.00  0.00    -0.107 A 
ATOM      5  C4  BZF d   1      -2.447   3.130  -5.948  0.00  0.00     0.055 A 
ATOM      6  C5  BZF d   1      -3.186   4.270  -5.970  0.00  0.00    -0.016 A 
ATOM      7  C6  BZF d   1      -4.565   4.242  -6.000  0.00  0.00     0.022 A 
ATOM      8  C7  BZF d   1      -5.245   3.070  -5.999  0.00  0.00     0.029 A 
ATOM      9  C7A BZF d   1      -4.502   1.916  -5.945  0.00  0.00     0.058 A 
ENDROOT
TORSDOF 0
ENDMDL
