MODEL 1
REMARK minimizedAffinity 0.944988012
REMARK minimizedRMSD -1
REMARK  0 active torsions:
REMARK  status: ('A' for Active; 'I' for Inactive)
ROOT
ATOM      1  O1  BZF d   1      -1.965   3.233  -5.957  0.00  0.00    -0.204 OA
ATOM      2  C2  BZF d   1      -1.676   1.882  -5.945  0.00  0.00     0.174 A 
ATOM      3  C3  BZF d   1      -2.809   1.152  -5.900  0.00  0.00    -0.012 A 
ATOM      4  C3A BZF d   1      -3.874   2.104  -5.976  0.00  0.00    -0.107 A 
ATOM      5  C4  BZF d   1      -5.235   1.990  -5.992  0.00  0.00     0.055 A 
ATOM      6  C5  BZF d   1      -5.992   3.119  -5.999  0.00  0.00    -0.016 A 
ATOM      7  C6  BZF d   1      -5.422   4.375  -5.985  0.00  0.00     0.022 A 
ATOM      8  C7  BZF d   1      -4.076   4.538  -5.974  0.00  0.00     0.029 A 
ATOM      9  C7A BZF d   1      -3.309   3.399  -6.000  0.00  0.00     0.058 A 
ENDROOT
TORSDOF 0
ENDMDL
