MODEL 1
REMARK minimizedAffinity -0.1389893
REMARK minimizedRMSD -1
REMARK  0 active torsions:
REMARK  status: ('A' for Active; 'I' for Inactive)
ROOT
ATOM      1  O1  BZF d   1      -4.188   0.129  -5.977  0.00  0.00    -0.204 OA
ATOM      2  C2  BZF d   1      -2.965  -0.514  -5.961  0.00  0.00     0.174 A 
ATOM      3  C3  BZF d   1      -1.955   0.378  -6.000  0.00  0.00    -0.012 A 
ATOM      4  C3A BZF d   1      -2.585   1.662  -5.950  0.00  0.00    -0.107 A 
ATOM      5  C4  BZF d   1      -2.108   2.942  -5.941  0.00  0.00     0.055 A 
ATOM      6  C5  BZF d   1      -2.990   3.975  -5.961  0.00  0.00    -0.016 A 
ATOM      7  C6  BZF d   1      -4.353   3.766  -5.995  0.00  0.00     0.022 A 
ATOM      8  C7  BZF d   1      -4.873   2.514  -6.000  0.00  0.00     0.029 A 
ATOM      9  C7A BZF d   1      -3.985   1.468  -5.946  0.00  0.00     0.058 A 
ENDROOT
TORSDOF 0
ENDMDL
