MODEL 1
REMARK minimizedAffinity 4.92549324
REMARK minimizedRMSD -1
REMARK  0 active torsions:
REMARK  status: ('A' for Active; 'I' for Inactive)
ROOT
ATOM      1  O1  BZF d   1      -3.708   4.746  -5.967  0.00  0.00    -0.204 OA
ATOM      2  C2  BZF d   1      -5.076   4.552  -5.953  0.00  0.00     0.174 A 
ATOM      3  C3  BZF d   1      -5.373   3.237  -5.998  0.00  0.00    -0.012 A 
ATOM      4  C3A BZF d   1      -4.111   2.564  -5.949  0.00  0.00    -0.107 A 
ATOM      5  C4  BZF d   1      -3.748   1.248  -5.946  0.00  0.00     0.055 A 
ATOM      6  C5  BZF d   1      -2.428   0.926  -5.965  0.00  0.00    -0.016 A 
ATOM      7  C6  BZF d   1      -1.445   1.894  -5.994  0.00  0.00     0.022 A 
ATOM      8  C7  BZF d   1      -1.756   3.213  -5.994  0.00  0.00     0.029 A 
ATOM      9  C7A BZF d   1      -3.089   3.542  -5.940  0.00  0.00     0.058 A 
ENDROOT
TORSDOF 0
ENDMDL
