MODEL 1
REMARK minimizedAffinity 0.207144499
REMARK minimizedRMSD -1
REMARK  0 active torsions:
REMARK  status: ('A' for Active; 'I' for Inactive)
ROOT
ATOM      1  O1  BZF d   1      -4.697   1.303  -5.948  0.00  0.00    -0.204 OA
ATOM      2  C2  BZF d   1      -3.655   0.395  -5.940  0.00  0.00     0.174 A 
ATOM      3  C3  BZF d   1      -2.467   1.030  -6.000  0.00  0.00    -0.012 A 
ATOM      4  C3A BZF d   1      -2.782   2.424  -5.955  0.00  0.00    -0.107 A 
ATOM      5  C4  BZF d   1      -2.023   3.559  -5.964  0.00  0.00     0.055 A 
ATOM      6  C5  BZF d   1      -2.643   4.769  -5.984  0.00  0.00    -0.016 A 
ATOM      7  C6  BZF d   1      -4.018   4.880  -6.000  0.00  0.00     0.022 A 
ATOM      8  C7  BZF d   1      -4.813   3.782  -5.986  0.00  0.00     0.029 A 
ATOM      9  C7A BZF d   1      -4.190   2.559  -5.933  0.00  0.00     0.058 A 
ENDROOT
TORSDOF 0
ENDMDL
