MODEL 1
REMARK minimizedAffinity 3.31594014
REMARK minimizedRMSD -1
REMARK  0 active torsions:
REMARK  status: ('A' for Active; 'I' for Inactive)
ROOT
ATOM      1  O1  BZF d   1      -0.043   0.883  -0.048  0.00  0.00    -0.204 OA
ATOM      2  C2  BZF d   1      -1.019   0.631  -0.993  0.00  0.00     0.174 A 
ATOM      3  C3  BZF d   1      -0.529  -0.126  -1.996  0.00  0.00    -0.012 A 
ATOM      4  C3A BZF d   1       0.813  -0.438  -1.611  0.00  0.00    -0.107 A 
ATOM      5  C4  BZF d   1       1.809  -1.173  -2.189  0.00  0.00     0.055 A 
ATOM      6  C5  BZF d   1       3.028  -1.220  -1.589  0.00  0.00    -0.016 A 
ATOM      7  C6  BZF d   1       3.287  -0.541  -0.416  0.00  0.00     0.022 A 
ATOM      8  C7  BZF d   1       2.329   0.196   0.197  0.00  0.00     0.029 A 
ATOM      9  C7A BZF d   1       1.087   0.219  -0.389  0.00  0.00     0.058 A 
ENDROOT
TORSDOF 0
ENDMDL
