MODEL 1
REMARK minimizedAffinity -0.781686068
REMARK minimizedRMSD -1
REMARK  0 active torsions:
REMARK  status: ('A' for Active; 'I' for Inactive)
ROOT
ATOM      1  O1  BZF d   1      -5.759   2.806  -5.972  0.00  0.00    -0.204 OA
ATOM      2  C2  BZF d   1      -5.267   4.097  -5.987  0.00  0.00     0.174 A 
ATOM      3  C3  BZF d   1      -3.919   4.096  -5.945  0.00  0.00    -0.012 A 
ATOM      4  C3A BZF d   1      -3.542   2.717  -5.994  0.00  0.00    -0.107 A 
ATOM      5  C4  BZF d   1      -2.338   2.073  -6.000  0.00  0.00     0.055 A 
ATOM      6  C5  BZF d   1      -2.316   0.714  -5.979  0.00  0.00    -0.016 A 
ATOM      7  C6  BZF d   1      -3.476  -0.030  -5.947  0.00  0.00     0.022 A 
ATOM      8  C7  BZF d   1      -4.694   0.564  -5.945  0.00  0.00     0.029 A 
ATOM      9  C7A BZF d   1      -4.721   1.936  -6.000  0.00  0.00     0.058 A 
ENDROOT
TORSDOF 0
ENDMDL
