MODEL 1
REMARK minimizedAffinity 0.21539028
REMARK minimizedRMSD -1
REMARK  0 active torsions:
REMARK  status: ('A' for Active; 'I' for Inactive)
ROOT
ATOM      1  O1  BZF d   1      -5.270   0.896  -5.638  0.00  0.00    -0.204 OA
ATOM      2  C2  BZF d   1      -4.296  -0.031  -5.321  0.00  0.00     0.174 A 
ATOM      3  C3  BZF d   1      -3.086   0.558  -5.228  0.00  0.00    -0.012 A 
ATOM      4  C3A BZF d   1      -3.333   1.955  -5.414  0.00  0.00    -0.107 A 
ATOM      5  C4  BZF d   1      -2.529   3.059  -5.415  0.00  0.00     0.055 A 
ATOM      6  C5  BZF d   1      -3.072   4.272  -5.699  0.00  0.00    -0.016 A 
ATOM      7  C6  BZF d   1      -4.412   4.416  -5.992  0.00  0.00     0.022 A 
ATOM      8  C7  BZF d   1      -5.251   3.352  -5.998  0.00  0.00     0.029 A 
ATOM      9  C7A BZF d   1      -4.711   2.130  -5.678  0.00  0.00     0.058 A 
ENDROOT
TORSDOF 0
ENDMDL
