MODEL 1
REMARK minimizedAffinity 0.201447681
REMARK minimizedRMSD -1
REMARK  0 active torsions:
REMARK  status: ('A' for Active; 'I' for Inactive)
ROOT
ATOM      1  O1  BZF d   1      -5.501   0.077  -5.859  0.00  0.00    -0.204 OA
ATOM      2  C2  BZF d   1      -4.553  -0.927  -5.889  0.00  0.00     0.174 A 
ATOM      3  C3  BZF d   1      -3.312  -0.409  -6.000  0.00  0.00    -0.012 A 
ATOM      4  C3A BZF d   1      -3.490   1.009  -5.948  0.00  0.00    -0.107 A 
ATOM      5  C4  BZF d   1      -2.626   2.066  -5.994  0.00  0.00     0.055 A 
ATOM      6  C5  BZF d   1      -3.128   3.329  -5.994  0.00  0.00    -0.016 A 
ATOM      7  C6  BZF d   1      -4.485   3.572  -5.954  0.00  0.00     0.022 A 
ATOM      8  C7  BZF d   1      -5.381   2.556  -5.903  0.00  0.00     0.029 A 
ATOM      9  C7A BZF d   1      -4.876   1.279  -5.870  0.00  0.00     0.058 A 
ENDROOT
TORSDOF 0
ENDMDL
