MODEL 1
REMARK minimizedAffinity -1.81294715
REMARK minimizedRMSD -1
REMARK  0 active torsions:
REMARK  status: ('A' for Active; 'I' for Inactive)
ROOT
ATOM      1  O1  BZF d   1      -5.239   0.631  -5.975  0.00  0.00    -0.204 OA
ATOM      2  C2  BZF d   1      -4.059  -0.087  -5.959  0.00  0.00     0.174 A 
ATOM      3  C3  BZF d   1      -2.995   0.740  -6.000  0.00  0.00    -0.012 A 
ATOM      4  C3A BZF d   1      -3.543   2.061  -5.951  0.00  0.00    -0.107 A 
ATOM      5  C4  BZF d   1      -2.988   3.309  -5.944  0.00  0.00     0.055 A 
ATOM      6  C5  BZF d   1      -3.804   4.395  -5.964  0.00  0.00    -0.016 A 
ATOM      7  C6  BZF d   1      -5.177   4.271  -5.997  0.00  0.00     0.022 A 
ATOM      8  C7  BZF d   1      -5.775   3.054  -6.000  0.00  0.00     0.029 A 
ATOM      9  C7A BZF d   1      -4.953   1.955  -5.946  0.00  0.00     0.058 A 
ENDROOT
TORSDOF 0
ENDMDL
