MODEL 1
REMARK minimizedAffinity -1.85586345
REMARK minimizedRMSD -1
REMARK  0 active torsions:
REMARK  status: ('A' for Active; 'I' for Inactive)
ROOT
ATOM      1  O1  BZF d   1      -2.066   2.965  -5.953  0.00  0.00    -0.204 OA
ATOM      2  C2  BZF d   1      -2.685   4.200  -5.944  0.00  0.00     0.174 A 
ATOM      3  C3  BZF d   1      -4.026   4.063  -6.000  0.00  0.00    -0.012 A 
ATOM      4  C3A BZF d   1      -4.262   2.652  -5.954  0.00  0.00    -0.107 A 
ATOM      5  C4  BZF d   1      -5.395   1.890  -5.961  0.00  0.00     0.055 A 
ATOM      6  C5  BZF d   1      -5.280   0.536  -5.981  0.00  0.00    -0.016 A 
ATOM      7  C6  BZF d   1      -4.050  -0.088  -6.000  0.00  0.00     0.022 A 
ATOM      8  C7  BZF d   1      -2.898   0.626  -5.989  0.00  0.00     0.029 A 
ATOM      9  C7A BZF d   1      -3.011   1.994  -5.935  0.00  0.00     0.058 A 
ENDROOT
TORSDOF 0
ENDMDL
