MODEL 1
REMARK minimizedAffinity -0.440989316
REMARK minimizedRMSD -1
REMARK  0 active torsions:
REMARK  status: ('A' for Active; 'I' for Inactive)
ROOT
ATOM      1  O1  BZF d   1      -2.704   2.387  -5.618  0.00  0.00    -0.204 OA
ATOM      2  C2  BZF d   1      -3.930   3.004  -5.774  0.00  0.00     0.174 A 
ATOM      3  C3  BZF d   1      -4.898   2.093  -6.000  0.00  0.00    -0.012 A 
ATOM      4  C3A BZF d   1      -4.251   0.821  -5.892  0.00  0.00    -0.107 A 
ATOM      5  C4  BZF d   1      -4.690  -0.468  -6.000  0.00  0.00     0.055 A 
ATOM      6  C5  BZF d   1      -3.789  -1.481  -5.914  0.00  0.00    -0.016 A 
ATOM      7  C6  BZF d   1      -2.443  -1.243  -5.727  0.00  0.00     0.022 A 
ATOM      8  C7  BZF d   1      -1.961   0.019  -5.609  0.00  0.00     0.029 A 
ATOM      9  C7A BZF d   1      -2.874   1.044  -5.663  0.00  0.00     0.058 A 
ENDROOT
TORSDOF 0
ENDMDL
