MODEL 1
REMARK minimizedAffinity -2.82354331
REMARK minimizedRMSD -1
REMARK  0 active torsions:
REMARK  status: ('A' for Active; 'I' for Inactive)
ROOT
ATOM      1  O1  BZF d   1      -3.339  -5.999  -5.970  0.00  0.00    -0.204 OA
ATOM      2  C2  BZF d   1      -1.958  -5.968  -5.956  0.00  0.00     0.174 A 
ATOM      3  C3  BZF d   1      -1.507  -4.698  -6.000  0.00  0.00    -0.012 A 
ATOM      4  C3A BZF d   1      -2.680  -3.881  -5.952  0.00  0.00    -0.107 A 
ATOM      5  C4  BZF d   1      -2.884  -2.530  -5.949  0.00  0.00     0.055 A 
ATOM      6  C5  BZF d   1      -4.157  -2.054  -5.970  0.00  0.00    -0.016 A 
ATOM      7  C6  BZF d   1      -5.247  -2.898  -6.000  0.00  0.00     0.022 A 
ATOM      8  C7  BZF d   1      -5.095  -4.245  -5.999  0.00  0.00     0.029 A 
ATOM      9  C7A BZF d   1      -3.811  -4.729  -5.944  0.00  0.00     0.058 A 
ENDROOT
TORSDOF 0
ENDMDL
