MODEL 1
REMARK minimizedAffinity 4.0862608
REMARK minimizedRMSD -1
REMARK  0 active torsions:
REMARK  status: ('A' for Active; 'I' for Inactive)
ROOT
ATOM      1  O1  BZF d   1      -5.998   2.124  -5.960  0.00  0.00    -0.204 OA
ATOM      2  C2  BZF d   1      -5.003   3.082  -5.919  0.00  0.00     0.174 A 
ATOM      3  C3  BZF d   1      -3.786   2.505  -5.851  0.00  0.00    -0.012 A 
ATOM      4  C3A BZF d   1      -4.030   1.098  -5.943  0.00  0.00    -0.107 A 
ATOM      5  C4  BZF d   1      -3.216   0.002  -5.949  0.00  0.00     0.055 A 
ATOM      6  C5  BZF d   1      -3.774  -1.236  -5.977  0.00  0.00    -0.016 A 
ATOM      7  C6  BZF d   1      -5.142  -1.415  -5.995  0.00  0.00     0.022 A 
ATOM      8  C7  BZF d   1      -5.991  -0.358  -5.995  0.00  0.00     0.029 A 
ATOM      9  C7A BZF d   1      -5.428   0.895  -6.000  0.00  0.00     0.058 A 
ENDROOT
TORSDOF 0
ENDMDL
