MODEL 1
REMARK minimizedAffinity 5.2233367
REMARK minimizedRMSD -1
REMARK  0 active torsions:
REMARK  status: ('A' for Active; 'I' for Inactive)
ROOT
ATOM      1  C   UNL d   1      -2.666  -5.985  -3.011  0.00  0.00    -0.002 A 
ATOM      2  C1  UNL d   1      -1.706  -5.987  -2.009  0.00  0.00     0.010 A 
ATOM      3  C2  UNL d   1      -0.346  -5.992  -2.327  0.00  0.00     0.041 A 
ATOM      4  C3  UNL d   1       0.036  -5.994  -3.683  0.00  0.00    -0.075 A 
ATOM      5  S   UNL d   1       1.642  -6.000  -4.310  0.00  0.00     0.015 SA
ATOM      6  C4  UNL d   1       1.092  -5.998  -5.923  0.00  0.00     0.022 A 
ATOM      7  C5  UNL d   1      -0.280  -5.994  -6.000  0.00  0.00     0.026 A 
ATOM      8  C6  UNL d   1      -0.912  -5.991  -4.710  0.00  0.00    -0.082 A 
ATOM      9  C7  UNL d   1      -2.282  -5.986  -4.355  0.00  0.00     0.045 A 
ENDROOT
TORSDOF 0
ENDMDL
