MODEL 1
REMARK minimizedAffinity 6.75231695
REMARK minimizedRMSD -1
REMARK  0 active torsions:
REMARK  status: ('A' for Active; 'I' for Inactive)
ROOT
ATOM      1  C   UNL d   1      -4.770  -5.690  -0.569  0.00  0.00    -0.002 A 
ATOM      2  C1  UNL d   1      -3.536  -5.111  -0.306  0.00  0.00     0.010 A 
ATOM      3  C2  UNL d   1      -3.152  -4.823   1.005  0.00  0.00     0.041 A 
ATOM      4  C3  UNL d   1      -4.036  -5.131   2.057  0.00  0.00    -0.075 A 
ATOM      5  S   UNL d   1      -3.779  -4.869   3.742  0.00  0.00     0.015 SA
ATOM      6  C4  UNL d   1      -5.299  -5.520   4.152  0.00  0.00     0.022 A 
ATOM      7  C5  UNL d   1      -6.000  -5.932   3.043  0.00  0.00     0.026 A 
ATOM      8  C6  UNL d   1      -5.283  -5.715   1.818  0.00  0.00    -0.082 A 
ATOM      9  C7  UNL d   1      -5.644  -5.994   0.477  0.00  0.00     0.045 A 
ENDROOT
TORSDOF 0
ENDMDL
