MODEL 1
REMARK minimizedAffinity 5.2025423
REMARK minimizedRMSD -1
REMARK  0 active torsions:
REMARK  status: ('A' for Active; 'I' for Inactive)
ROOT
ATOM      1  C   UNL d   1      -2.870  -5.997  -2.833  0.00  0.00    -0.002 A 
ATOM      2  C1  UNL d   1      -1.987  -5.998  -1.762  0.00  0.00     0.010 A 
ATOM      3  C2  UNL d   1      -0.608  -6.000  -1.979  0.00  0.00     0.041 A 
ATOM      4  C3  UNL d   1      -0.126  -5.997  -3.303  0.00  0.00    -0.075 A 
ATOM      5  S   UNL d   1       1.522  -5.997  -3.810  0.00  0.00     0.015 SA
ATOM      6  C4  UNL d   1       1.092  -5.995  -5.459  0.00  0.00     0.022 A 
ATOM      7  C5  UNL d   1      -0.271  -5.994  -5.637  0.00  0.00     0.026 A 
ATOM      8  C6  UNL d   1      -0.996  -5.995  -4.397  0.00  0.00    -0.082 A 
ATOM      9  C7  UNL d   1      -2.389  -5.995  -4.145  0.00  0.00     0.045 A 
ENDROOT
TORSDOF 0
ENDMDL
