MODEL 1
REMARK minimizedAffinity 5.45195007
REMARK minimizedRMSD -1
REMARK  0 active torsions:
REMARK  status: ('A' for Active; 'I' for Inactive)
ROOT
ATOM      1  C   UNL d   1       0.589   3.785   0.265  0.00  0.00    -0.002 A 
ATOM      2  C1  UNL d   1       0.741   4.877   1.107  0.00  0.00     0.010 A 
ATOM      3  C2  UNL d   1       1.999   5.449   1.309  0.00  0.00     0.041 A 
ATOM      4  C3  UNL d   1       3.112   4.900   0.641  0.00  0.00    -0.075 A 
ATOM      5  S   UNL d   1       4.748   5.435   0.734  0.00  0.00     0.015 SA
ATOM      6  C4  UNL d   1       5.283   4.227  -0.343  0.00  0.00     0.022 A 
ATOM      7  C5  UNL d   1       4.251   3.427  -0.773  0.00  0.00     0.026 A 
ATOM      8  C6  UNL d   1       2.983   3.801  -0.214  0.00  0.00    -0.082 A 
ATOM      9  C7  UNL d   1       1.695   3.244  -0.396  0.00  0.00     0.045 A 
ENDROOT
TORSDOF 0
ENDMDL
