MODEL 1
REMARK minimizedAffinity 11.2900848
REMARK minimizedRMSD -1
REMARK  0 active torsions:
REMARK  status: ('A' for Active; 'I' for Inactive)
ROOT
ATOM      1  C   UNL d   1       2.698  -2.008   1.184  0.00  0.00    -0.002 A 
ATOM      2  C1  UNL d   1       1.889  -3.127   1.048  0.00  0.00     0.010 A 
ATOM      3  C2  UNL d   1       0.524  -2.989   0.785  0.00  0.00     0.041 A 
ATOM      4  C3  UNL d   1      -0.018  -1.695   0.659  0.00  0.00    -0.075 A 
ATOM      5  S   UNL d   1      -1.661  -1.284   0.337  0.00  0.00     0.015 SA
ATOM      6  C4  UNL d   1      -1.328   0.387   0.372  0.00  0.00     0.022 A 
ATOM      7  C5  UNL d   1      -0.001   0.643   0.622  0.00  0.00     0.026 A 
ATOM      8  C6  UNL d   1       0.776  -0.553   0.791  0.00  0.00    -0.082 A 
ATOM      9  C7  UNL d   1       2.156  -0.726   1.058  0.00  0.00     0.045 A 
ENDROOT
TORSDOF 0
ENDMDL
