MODEL 1
REMARK minimizedAffinity -0.633664668
REMARK minimizedRMSD -1
REMARK  0 active torsions:
REMARK  status: ('A' for Active; 'I' for Inactive)
ROOT
ATOM      1  C   UNL d   1      -3.140  -5.987  -3.751  0.00  0.00    -0.002 A 
ATOM      2  C1  UNL d   1      -3.213  -5.995  -5.137  0.00  0.00     0.010 A 
ATOM      3  C2  UNL d   1      -2.050  -5.998  -5.909  0.00  0.00     0.041 A 
ATOM      4  C3  UNL d   1      -0.800  -5.996  -5.259  0.00  0.00    -0.075 A 
ATOM      5  S   UNL d   1       0.757  -6.000  -6.000  0.00  0.00     0.015 SA
ATOM      6  C4  UNL d   1       1.555  -5.993  -4.494  0.00  0.00     0.022 A 
ATOM      7  C5  UNL d   1       0.671  -5.987  -3.442  0.00  0.00     0.026 A 
ATOM      8  C6  UNL d   1      -0.701  -5.989  -3.865  0.00  0.00    -0.082 A 
ATOM      9  C7  UNL d   1      -1.899  -5.985  -3.110  0.00  0.00     0.045 A 
ENDROOT
TORSDOF 0
ENDMDL
