MODEL 1
REMARK minimizedAffinity 16.1154175
REMARK minimizedRMSD -1
REMARK  0 active torsions:
REMARK  status: ('A' for Active; 'I' for Inactive)
ROOT
ATOM      1  C   UNL d   1      -0.445  -3.182   1.068  0.00  0.00    -0.002 A 
ATOM      2  C1  UNL d   1       0.818  -3.717   1.278  0.00  0.00     0.010 A 
ATOM      3  C2  UNL d   1       1.957  -2.921   1.145  0.00  0.00     0.041 A 
ATOM      4  C3  UNL d   1       1.804  -1.564   0.797  0.00  0.00    -0.075 A 
ATOM      5  S   UNL d   1       3.056  -0.399   0.579  0.00  0.00     0.015 SA
ATOM      6  C4  UNL d   1       1.944   0.836   0.203  0.00  0.00     0.022 A 
ATOM      7  C5  UNL d   1       0.644   0.388   0.238  0.00  0.00     0.026 A 
ATOM      8  C6  UNL d   1       0.542  -1.003   0.581  0.00  0.00    -0.082 A 
ATOM      9  C7  UNL d   1      -0.593  -1.836   0.722  0.00  0.00     0.045 A 
ENDROOT
TORSDOF 0
ENDMDL
