MODEL 1
REMARK minimizedAffinity 1.21663535
REMARK minimizedRMSD -1
REMARK  0 active torsions:
REMARK  status: ('A' for Active; 'I' for Inactive)
ROOT
ATOM      1  C   UNL d   1      -1.757  -5.963  -1.595  0.00  0.00    -0.002 A 
ATOM      2  C1  UNL d   1      -2.820  -5.960  -2.488  0.00  0.00     0.010 A 
ATOM      3  C2  UNL d   1      -2.591  -5.965  -3.865  0.00  0.00     0.041 A 
ATOM      4  C3  UNL d   1      -1.263  -5.975  -4.335  0.00  0.00    -0.075 A 
ATOM      5  S   UNL d   1      -0.742  -5.985  -5.979  0.00  0.00     0.015 SA
ATOM      6  C4  UNL d   1       0.903  -5.993  -5.535  0.00  0.00     0.022 A 
ATOM      7  C5  UNL d   1       1.070  -5.989  -4.171  0.00  0.00     0.026 A 
ATOM      8  C6  UNL d   1      -0.176  -5.979  -3.456  0.00  0.00    -0.082 A 
ATOM      9  C7  UNL d   1      -0.441  -5.973  -2.066  0.00  0.00     0.045 A 
ENDROOT
TORSDOF 0
ENDMDL
