MODEL 1
REMARK minimizedAffinity -4.08973789
REMARK minimizedRMSD -1
REMARK  0 active torsions:
REMARK  status: ('A' for Active; 'I' for Inactive)
ROOT
ATOM      1  C   UNL d   1      -2.968  -6.000  -2.618  0.00  0.00    -0.002 A 
ATOM      2  C1  UNL d   1      -3.349  -5.969  -3.953  0.00  0.00     0.010 A 
ATOM      3  C2  UNL d   1      -2.390  -5.854  -4.962  0.00  0.00     0.041 A 
ATOM      4  C3  UNL d   1      -1.030  -5.772  -4.604  0.00  0.00    -0.075 A 
ATOM      5  S   UNL d   1       0.318  -5.628  -5.669  0.00  0.00     0.015 SA
ATOM      6  C4  UNL d   1       1.430  -5.604  -4.378  0.00  0.00     0.022 A 
ATOM      7  C5  UNL d   1       0.806  -5.703  -3.157  0.00  0.00     0.026 A 
ATOM      8  C6  UNL d   1      -0.623  -5.802  -3.267  0.00  0.00    -0.082 A 
ATOM      9  C7  UNL d   1      -1.618  -5.918  -2.267  0.00  0.00     0.045 A 
ENDROOT
TORSDOF 0
ENDMDL
