MODEL 1
REMARK minimizedAffinity 11.0058088
REMARK minimizedRMSD -1
REMARK  0 active torsions:
REMARK  status: ('A' for Active; 'I' for Inactive)
ROOT
ATOM      1  C   UNL d   1       0.589  -3.582   0.850  0.00  0.00    -0.002 A 
ATOM      2  C1  UNL d   1      -0.486  -2.714   0.723  0.00  0.00     0.010 A 
ATOM      3  C2  UNL d   1      -0.277  -1.345   0.549  0.00  0.00     0.041 A 
ATOM      4  C3  UNL d   1       1.044  -0.858   0.502  0.00  0.00    -0.075 A 
ATOM      5  S   UNL d   1       1.542   0.780   0.296  0.00  0.00     0.015 SA
ATOM      6  C4  UNL d   1       3.194   0.366   0.371  0.00  0.00     0.022 A 
ATOM      7  C5  UNL d   1       3.379  -0.985   0.549  0.00  0.00     0.026 A 
ATOM      8  C6  UNL d   1       2.143  -1.713   0.627  0.00  0.00    -0.082 A 
ATOM      9  C7  UNL d   1       1.898  -3.096   0.803  0.00  0.00     0.045 A 
ENDROOT
TORSDOF 0
ENDMDL
