MODEL 1
REMARK minimizedAffinity 5.66980791
REMARK minimizedRMSD -1
REMARK  0 active torsions:
REMARK  status: ('A' for Active; 'I' for Inactive)
ROOT
ATOM      1  C   UNL d   1      -2.877  -5.996  -2.690  0.00  0.00    -0.002 A 
ATOM      2  C1  UNL d   1      -1.822  -5.994  -1.788  0.00  0.00     0.010 A 
ATOM      3  C2  UNL d   1      -0.501  -5.994  -2.240  0.00  0.00     0.041 A 
ATOM      4  C3  UNL d   1      -0.255  -5.994  -3.627  0.00  0.00    -0.075 A 
ATOM      5  S   UNL d   1       1.280  -5.993  -4.411  0.00  0.00     0.015 SA
ATOM      6  C4  UNL d   1       0.572  -5.993  -5.961  0.00  0.00     0.022 A 
ATOM      7  C5  UNL d   1      -0.801  -5.995  -5.901  0.00  0.00     0.026 A 
ATOM      8  C6  UNL d   1      -1.301  -5.994  -4.555  0.00  0.00    -0.082 A 
ATOM      9  C7  UNL d   1      -2.629  -5.996  -4.065  0.00  0.00     0.045 A 
ENDROOT
TORSDOF 0
ENDMDL
