MODEL 1
REMARK minimizedAffinity 4.00162077
REMARK minimizedRMSD -1
REMARK  0 active torsions:
REMARK  status: ('A' for Active; 'I' for Inactive)
ROOT
ATOM      1  C   UNL d   1       4.019  -1.139  -1.762  0.00  0.00     0.077 C 
ATOM      2  C1  UNL d   1       2.855  -1.002  -0.827  0.00  0.00    -0.074 A 
ATOM      3  C2  UNL d   1       2.206  -2.131  -0.316  0.00  0.00    -0.005 A 
ATOM      4  C3  UNL d   1       1.130  -1.987   0.560  0.00  0.00     0.006 A 
ATOM      5  C4  UNL d   1       0.693  -0.716   0.933  0.00  0.00    -0.005 A 
ATOM      6  C5  UNL d   1       1.330   0.425   0.433  0.00  0.00    -0.074 A 
ATOM      7  C6  UNL d   1       0.879   1.798   0.832  0.00  0.00     0.077 C 
ATOM      8  C7  UNL d   1       2.414   0.272  -0.441  0.00  0.00    -0.001 A 
ENDROOT
TORSDOF 0
ENDMDL
