MODEL 1
REMARK minimizedAffinity -1.76784873
REMARK minimizedRMSD -1
REMARK  0 active torsions:
REMARK  status: ('A' for Active; 'I' for Inactive)
ROOT
ATOM      1  C   UNL d   1       5.680  -0.541  -2.868  0.00  0.00     0.077 C 
ATOM      2  C1  UNL d   1       4.457  -0.139  -2.098  0.00  0.00    -0.074 A 
ATOM      3  C2  UNL d   1       3.974   1.172  -2.150  0.00  0.00    -0.005 A 
ATOM      4  C3  UNL d   1       2.830   1.528  -1.436  0.00  0.00     0.006 A 
ATOM      5  C4  UNL d   1       2.159   0.579  -0.664  0.00  0.00    -0.005 A 
ATOM      6  C5  UNL d   1       2.627  -0.738  -0.601  0.00  0.00    -0.074 A 
ATOM      7  C6  UNL d   1       1.912  -1.773   0.215  0.00  0.00     0.077 C 
ATOM      8  C7  UNL d   1       3.773  -1.090  -1.327  0.00  0.00    -0.001 A 
ENDROOT
TORSDOF 0
ENDMDL
