MODEL 1
REMARK minimizedAffinity -5.31867027
REMARK minimizedRMSD -1
REMARK  0 active torsions:
REMARK  status: ('A' for Active; 'I' for Inactive)
ROOT
ATOM      1  C   UNL d   1       4.239  -0.550  -2.101  0.00  0.00     0.077 C 
ATOM      2  C1  UNL d   1       3.013  -0.373  -1.255  0.00  0.00    -0.074 A 
ATOM      3  C2  UNL d   1       2.379   0.870  -1.160  0.00  0.00    -0.005 A 
ATOM      4  C3  UNL d   1       1.234   1.017  -0.377  0.00  0.00     0.006 A 
ATOM      5  C4  UNL d   1       0.714  -0.075   0.319  0.00  0.00    -0.005 A 
ATOM      6  C5  UNL d   1       1.334  -1.326   0.236  0.00  0.00    -0.074 A 
ATOM      7  C6  UNL d   1       0.782  -2.512   0.969  0.00  0.00     0.077 C 
ATOM      8  C7  UNL d   1       2.480  -1.467  -0.559  0.00  0.00    -0.001 A 
ENDROOT
TORSDOF 0
ENDMDL
