MODEL 1
REMARK minimizedAffinity 2.47791433
REMARK minimizedRMSD -1
REMARK  0 active torsions:
REMARK  status: ('A' for Active; 'I' for Inactive)
ROOT
ATOM      1  C   UNL d   1       1.023   1.295   0.133  0.00  0.00     0.077 C 
ATOM      2  C1  UNL d   1       1.620  -0.080   0.173  0.00  0.00    -0.074 A 
ATOM      3  C2  UNL d   1       2.806  -0.369  -0.511  0.00  0.00    -0.005 A 
ATOM      4  C3  UNL d   1       3.354  -1.650  -0.457  0.00  0.00     0.006 A 
ATOM      5  C4  UNL d   1       2.725  -2.654   0.280  0.00  0.00    -0.005 A 
ATOM      6  C5  UNL d   1       1.539  -2.383   0.971  0.00  0.00    -0.074 A 
ATOM      7  C6  UNL d   1       0.855  -3.448   1.775  0.00  0.00     0.077 C 
ATOM      8  C7  UNL d   1       0.998  -1.092   0.917  0.00  0.00    -0.001 A 
ENDROOT
TORSDOF 0
ENDMDL
