MODEL 1
REMARK minimizedAffinity 3.49777365
REMARK minimizedRMSD -1
REMARK  0 active torsions:
REMARK  status: ('A' for Active; 'I' for Inactive)
ROOT
ATOM      1  C   UNL d   1       2.523  -2.553  -0.988  0.00  0.00     0.077 C 
ATOM      2  C1  UNL d   1       2.155  -1.164  -0.557  0.00  0.00    -0.074 A 
ATOM      3  C2  UNL d   1       2.467  -0.058  -1.354  0.00  0.00    -0.005 A 
ATOM      4  C3  UNL d   1       2.111   1.227  -0.945  0.00  0.00     0.006 A 
ATOM      5  C4  UNL d   1       1.440   1.419   0.264  0.00  0.00    -0.005 A 
ATOM      6  C5  UNL d   1       1.119   0.325   1.074  0.00  0.00    -0.074 A 
ATOM      7  C6  UNL d   1       0.390   0.512   2.371  0.00  0.00     0.077 C 
ATOM      8  C7  UNL d   1       1.474  -0.964   0.652  0.00  0.00    -0.001 A 
ENDROOT
TORSDOF 0
ENDMDL
