MODEL 1
REMARK minimizedAffinity -5.86114502
REMARK minimizedRMSD -1
REMARK  0 active torsions:
REMARK  status: ('A' for Active; 'I' for Inactive)
ROOT
ATOM      1  C   UNL d   1       0.889  -2.239   0.534  0.00  0.00     0.077 C 
ATOM      2  C1  UNL d   1       1.594  -1.064  -0.077  0.00  0.00    -0.074 A 
ATOM      3  C2  UNL d   1       1.114   0.237   0.106  0.00  0.00    -0.005 A 
ATOM      4  C3  UNL d   1       1.785   1.320  -0.461  0.00  0.00     0.006 A 
ATOM      5  C4  UNL d   1       2.941   1.114  -1.214  0.00  0.00    -0.005 A 
ATOM      6  C5  UNL d   1       3.437  -0.179  -1.407  0.00  0.00    -0.074 A 
ATOM      7  C6  UNL d   1       4.684  -0.418  -2.205  0.00  0.00     0.077 C 
ATOM      8  C7  UNL d   1       2.760  -1.262  -0.828  0.00  0.00    -0.001 A 
ENDROOT
TORSDOF 0
ENDMDL
