MODEL 1
REMARK minimizedAffinity -6.04676962
REMARK minimizedRMSD -1
REMARK  0 active torsions:
REMARK  status: ('A' for Active; 'I' for Inactive)
ROOT
ATOM      1  C   UNL d   1      -0.615  -0.055   1.854  0.00  0.00     0.077 C 
ATOM      2  C1  UNL d   1       0.516  -0.431   0.943  0.00  0.00    -0.074 A 
ATOM      3  C2  UNL d   1       0.825  -1.772   0.696  0.00  0.00    -0.005 A 
ATOM      4  C3  UNL d   1       1.873  -2.106  -0.161  0.00  0.00     0.006 A 
ATOM      5  C4  UNL d   1       2.622  -1.104  -0.779  0.00  0.00    -0.005 A 
ATOM      6  C5  UNL d   1       2.327   0.243  -0.545  0.00  0.00    -0.074 A 
ATOM      7  C6  UNL d   1       3.116   1.332  -1.209  0.00  0.00     0.077 C 
ATOM      8  C7  UNL d   1       1.268   0.570   0.312  0.00  0.00    -0.001 A 
ENDROOT
TORSDOF 0
ENDMDL
