MODEL 1
REMARK minimizedAffinity -1.36274779
REMARK minimizedRMSD -1
REMARK  0 active torsions:
REMARK  status: ('A' for Active; 'I' for Inactive)
ROOT
ATOM      1  C   UNL d   1       1.759   2.652   0.968  0.00  0.00     0.077 C 
ATOM      2  C1  UNL d   1       2.018   1.368   0.236  0.00  0.00    -0.074 A 
ATOM      3  C2  UNL d   1       1.301   0.208   0.544  0.00  0.00    -0.005 A 
ATOM      4  C3  UNL d   1       1.546  -0.976  -0.152  0.00  0.00     0.006 A 
ATOM      5  C4  UNL d   1       2.508  -1.011  -1.162  0.00  0.00    -0.005 A 
ATOM      6  C5  UNL d   1       3.234   0.140  -1.485  0.00  0.00    -0.074 A 
ATOM      7  C6  UNL d   1       4.265   0.122  -2.574  0.00  0.00     0.077 C 
ATOM      8  C7  UNL d   1       2.977   1.327  -0.785  0.00  0.00    -0.001 A 
ENDROOT
TORSDOF 0
ENDMDL
