MODEL 1
REMARK minimizedAffinity 6.90464926
REMARK minimizedRMSD -1
REMARK  0 active torsions:
REMARK  status: ('A' for Active; 'I' for Inactive)
ROOT
ATOM      1  C   UNL d   1      -0.764   6.000  -1.367  0.00  0.00     0.077 C 
ATOM      2  C1  UNL d   1      -0.783   4.835  -2.311  0.00  0.00    -0.074 A 
ATOM      3  C2  UNL d   1       0.395   4.158  -2.642  0.00  0.00    -0.005 A 
ATOM      4  C3  UNL d   1       0.360   3.069  -3.514  0.00  0.00     0.006 A 
ATOM      5  C4  UNL d   1      -0.852   2.648  -4.063  0.00  0.00    -0.005 A 
ATOM      6  C5  UNL d   1      -2.041   3.312  -3.743  0.00  0.00    -0.074 A 
ATOM      7  C6  UNL d   1      -3.353   2.866  -4.316  0.00  0.00     0.077 C 
ATOM      8  C7  UNL d   1      -1.998   4.400  -2.860  0.00  0.00    -0.001 A 
ENDROOT
TORSDOF 0
ENDMDL
