MODEL 1
REMARK minimizedAffinity -2.33575892
REMARK minimizedRMSD -1
REMARK  0 active torsions:
REMARK  status: ('A' for Active; 'I' for Inactive)
ROOT
ATOM      1  C   UNL d   1       4.850  -0.489  -2.444  0.00  0.00     0.077 C 
ATOM      2  C1  UNL d   1       3.703  -0.590  -1.484  0.00  0.00    -0.074 A 
ATOM      3  C2  UNL d   1       3.418  -1.793  -0.828  0.00  0.00    -0.005 A 
ATOM      4  C3  UNL d   1       2.353  -1.869   0.069  0.00  0.00     0.006 A 
ATOM      5  C4  UNL d   1       1.563  -0.746   0.320  0.00  0.00    -0.005 A 
ATOM      6  C5  UNL d   1       1.834   0.465  -0.325  0.00  0.00    -0.074 A 
ATOM      7  C6  UNL d   1       1.001   1.684  -0.059  0.00  0.00     0.077 C 
ATOM      8  C7  UNL d   1       2.910   0.535  -1.220  0.00  0.00    -0.001 A 
ENDROOT
TORSDOF 0
ENDMDL
