MODEL 1
REMARK minimizedAffinity 6.15542698
REMARK minimizedRMSD -1
REMARK  0 active torsions:
REMARK  status: ('A' for Active; 'I' for Inactive)
ROOT
ATOM      1  C   UNL d   1       1.243   0.394   3.940  0.00  0.00     0.077 C 
ATOM      2  C1  UNL d   1       1.542   0.376   2.471  0.00  0.00    -0.074 A 
ATOM      3  C2  UNL d   1       1.690   1.567   1.753  0.00  0.00    -0.005 A 
ATOM      4  C3  UNL d   1       1.976   1.535   0.388  0.00  0.00     0.006 A 
ATOM      5  C4  UNL d   1       2.118   0.313  -0.272  0.00  0.00    -0.005 A 
ATOM      6  C5  UNL d   1       1.974  -0.888   0.430  0.00  0.00    -0.074 A 
ATOM      7  C6  UNL d   1       2.133  -2.210  -0.261  0.00  0.00     0.077 C 
ATOM      8  C7  UNL d   1       1.693  -0.847   1.803  0.00  0.00    -0.001 A 
ENDROOT
TORSDOF 0
ENDMDL
