MODEL 1
REMARK minimizedAffinity 0.421493232
REMARK minimizedRMSD -1
REMARK  0 active torsions:
REMARK  status: ('A' for Active; 'I' for Inactive)
ROOT
ATOM      1  C   UNL d   1       3.412  -1.460  -1.314  0.00  0.00     0.077 C 
ATOM      2  C1  UNL d   1       2.489  -0.711  -0.399  0.00  0.00    -0.074 A 
ATOM      3  C2  UNL d   1       2.819   0.566   0.067  0.00  0.00    -0.005 A 
ATOM      4  C3  UNL d   1       1.946   1.255   0.909  0.00  0.00     0.006 A 
ATOM      5  C4  UNL d   1       0.736   0.675   1.293  0.00  0.00    -0.005 A 
ATOM      6  C5  UNL d   1       0.389  -0.601   0.837  0.00  0.00    -0.074 A 
ATOM      7  C6  UNL d   1      -0.912  -1.234   1.232  0.00  0.00     0.077 C 
ATOM      8  C7  UNL d   1       1.268  -1.283  -0.015  0.00  0.00    -0.001 A 
ENDROOT
TORSDOF 0
ENDMDL
