MODEL 1
REMARK minimizedAffinity -0.274844706
REMARK minimizedRMSD -1
REMARK  0 active torsions:
REMARK  status: ('A' for Active; 'I' for Inactive)
ROOT
ATOM      1  C   UNL d   1       3.983  -1.621  -0.752  0.00  0.00     0.077 C 
ATOM      2  C1  UNL d   1       2.787  -0.848  -0.282  0.00  0.00    -0.074 A 
ATOM      3  C2  UNL d   1       2.789   0.551  -0.283  0.00  0.00    -0.005 A 
ATOM      4  C3  UNL d   1       1.666   1.256   0.148  0.00  0.00     0.006 A 
ATOM      5  C4  UNL d   1       0.531   0.572   0.584  0.00  0.00    -0.005 A 
ATOM      6  C5  UNL d   1       0.510  -0.827   0.591  0.00  0.00    -0.074 A 
ATOM      7  C6  UNL d   1      -0.706  -1.578   1.047  0.00  0.00     0.077 C 
ATOM      8  C7  UNL d   1       1.640  -1.528   0.149  0.00  0.00    -0.001 A 
ENDROOT
TORSDOF 0
ENDMDL
