MODEL 1
REMARK minimizedAffinity -2.92446923
REMARK minimizedRMSD -1
REMARK  0 active torsions:
REMARK  status: ('A' for Active; 'I' for Inactive)
ROOT
ATOM      1  C   UNL d   1       4.409  -1.037  -1.775  0.00  0.00     0.077 C 
ATOM      2  C1  UNL d   1       3.255  -0.431  -1.033  0.00  0.00    -0.074 A 
ATOM      3  C2  UNL d   1       3.109   0.957  -0.941  0.00  0.00    -0.005 A 
ATOM      4  C3  UNL d   1       2.026   1.506  -0.256  0.00  0.00     0.006 A 
ATOM      5  C4  UNL d   1       1.079   0.674   0.344  0.00  0.00    -0.005 A 
ATOM      6  C5  UNL d   1       1.209  -0.716   0.262  0.00  0.00    -0.074 A 
ATOM      7  C6  UNL d   1       0.195  -1.624   0.893  0.00  0.00     0.077 C 
ATOM      8  C7  UNL d   1       2.296  -1.260  -0.434  0.00  0.00    -0.001 A 
ENDROOT
TORSDOF 0
ENDMDL
