MODEL 1
REMARK minimizedAffinity 0.73809582
REMARK minimizedRMSD -1
REMARK  0 active torsions:
REMARK  status: ('A' for Active; 'I' for Inactive)
ROOT
ATOM      1  C   UNL d   1       0.318  -1.832   0.743  0.00  0.00     0.077 C 
ATOM      2  C1  UNL d   1       1.242  -0.843   0.097  0.00  0.00    -0.074 A 
ATOM      3  C2  UNL d   1       0.999   0.531   0.184  0.00  0.00    -0.005 A 
ATOM      4  C3  UNL d   1       1.872   1.440  -0.413  0.00  0.00     0.006 A 
ATOM      5  C4  UNL d   1       2.996   0.984  -1.103  0.00  0.00    -0.005 A 
ATOM      6  C5  UNL d   1       3.257  -0.387  -1.200  0.00  0.00    -0.074 A 
ATOM      7  C6  UNL d   1       4.466  -0.893  -1.929  0.00  0.00     0.077 C 
ATOM      8  C7  UNL d   1       2.378  -1.293  -0.591  0.00  0.00    -0.001 A 
ENDROOT
TORSDOF 0
ENDMDL
