MODEL 1
REMARK minimizedAffinity 2.39611626
REMARK minimizedRMSD -1
REMARK  1 active torsions:
REMARK  status: ('A' for Active; 'I' for Inactive)
REMARK    1  A    between atoms: C1_2  and  C2_3 
ROOT
ATOM      1  C2  UNL d   1       1.482  -0.935   2.250  0.00  0.00    -0.076 A 
ATOM      2  C3  UNL d   1       2.053  -0.856   3.533  0.00  0.00     0.004 A 
ATOM      3  C4  UNL d   1       1.875  -1.880   4.462  0.00  0.00    -0.003 A 
ATOM      4  C5  UNL d   1       1.125  -3.000   4.123  0.00  0.00     0.000 A 
ATOM      5  C6  UNL d   1       0.567  -3.104   2.849  0.00  0.00     0.000 A 
ATOM      6  C7  UNL d   1       0.750  -2.088   1.896  0.00  0.00    -0.073 A 
ATOM      7  C8  UNL d   1       0.120  -2.249   0.539  0.00  0.00     0.078 C 
ENDROOT
BRANCH   1   8
ATOM      8  C1  UNL d   1       1.686   0.218   1.294  0.00  0.00     0.053 C 
ATOM      9  C   UNL d   1       3.111   0.750   1.318  0.00  0.00     0.018 C 
ENDBRANCH   1   8
TORSDOF 1
ENDMDL
