MODEL 1
REMARK minimizedAffinity 12.1928062
REMARK minimizedRMSD -1
REMARK  1 active torsions:
REMARK  status: ('A' for Active; 'I' for Inactive)
REMARK    1  A    between atoms: C1_2  and  C2_3 
ROOT
ATOM      1  C2  UNL d   1       3.567  -2.636   3.525  0.00  0.00    -0.076 A 
ATOM      2  C3  UNL d   1       3.505  -1.420   2.822  0.00  0.00     0.004 A 
ATOM      3  C4  UNL d   1       2.320  -0.999   2.220  0.00  0.00    -0.003 A 
ATOM      4  C5  UNL d   1       1.178  -1.788   2.311  0.00  0.00     0.000 A 
ATOM      5  C6  UNL d   1       1.218  -2.989   3.019  0.00  0.00     0.000 A 
ATOM      6  C7  UNL d   1       2.400  -3.419   3.646  0.00  0.00    -0.073 A 
ATOM      7  C8  UNL d   1       2.387  -4.726   4.391  0.00  0.00     0.078 C 
ENDROOT
BRANCH   1   8
ATOM      8  C1  UNL d   1       4.887  -3.053   4.134  0.00  0.00     0.053 C 
ATOM      9  C   UNL d   1       6.000  -3.152   3.102  0.00  0.00     0.018 C 
ENDBRANCH   1   8
TORSDOF 1
ENDMDL
