MODEL 1
REMARK minimizedAffinity 1.83506107
REMARK minimizedRMSD -1
REMARK  1 active torsions:
REMARK  status: ('A' for Active; 'I' for Inactive)
REMARK    1  A    between atoms: C1_2  and  C2_3 
ROOT
ATOM      1  C2  UNL d   1      -0.678  -1.471  -0.593  0.00  0.00    -0.076 A 
ATOM      2  C3  UNL d   1       0.125  -2.149   0.340  0.00  0.00     0.004 A 
ATOM      3  C4  UNL d   1       0.640  -3.413   0.059  0.00  0.00    -0.003 A 
ATOM      4  C5  UNL d   1       0.361  -4.020  -1.161  0.00  0.00     0.000 A 
ATOM      5  C6  UNL d   1      -0.420  -3.354  -2.105  0.00  0.00     0.000 A 
ATOM      6  C7  UNL d   1      -0.934  -2.073  -1.844  0.00  0.00    -0.073 A 
ATOM      7  C8  UNL d   1      -1.775  -1.404  -2.896  0.00  0.00     0.078 C 
ENDROOT
BRANCH   1   8
ATOM      8  C1  UNL d   1      -1.232  -0.114  -0.222  0.00  0.00     0.053 C 
ATOM      9  C   UNL d   1      -0.215   1.002  -0.412  0.00  0.00     0.018 C 
ENDBRANCH   1   8
TORSDOF 1
ENDMDL
