MODEL 1
REMARK minimizedAffinity -0.815463006
REMARK minimizedRMSD -1
REMARK  1 active torsions:
REMARK  status: ('A' for Active; 'I' for Inactive)
REMARK    1  A    between atoms: C1_2  and  C2_3 
ROOT
ATOM      1  C2  UNL d   1       1.802   0.961   1.095  0.00  0.00    -0.076 A 
ATOM      2  C3  UNL d   1       2.491   2.035   1.684  0.00  0.00     0.004 A 
ATOM      3  C4  UNL d   1       2.994   1.941   2.981  0.00  0.00    -0.003 A 
ATOM      4  C5  UNL d   1       2.815   0.770   3.709  0.00  0.00     0.000 A 
ATOM      5  C6  UNL d   1       2.149  -0.312   3.135  0.00  0.00     0.000 A 
ATOM      6  C7  UNL d   1       1.651  -0.239   1.822  0.00  0.00    -0.073 A 
ATOM      7  C8  UNL d   1       0.935  -1.434   1.254  0.00  0.00     0.078 C 
ENDROOT
BRANCH   1   8
ATOM      8  C1  UNL d   1       1.256   1.131  -0.305  0.00  0.00     0.053 C 
ATOM      9  C   UNL d   1       0.253   2.270  -0.405  0.00  0.00     0.018 C 
ENDBRANCH   1   8
TORSDOF 1
ENDMDL
