MODEL 1
REMARK minimizedAffinity -1.96088171
REMARK minimizedRMSD -1
REMARK  0 active torsions:
REMARK  status: ('A' for Active; 'I' for Inactive)
ROOT
ATOM      1  C4' PXY d   1      -5.110  -1.624   0.368  0.00  0.00     0.077 C 
ATOM      2  C1' PXY d   1       0.316   0.198  -0.434  0.00  0.00     0.077 C 
ATOM      3  C1  PXY d   1      -1.109  -0.278  -0.237  0.00  0.00    -0.082 A 
ATOM      4  C2  PXY d   1      -1.665  -0.199   0.962  0.00  0.00     0.003 A 
ATOM      5  C3  PXY d   1      -2.942  -0.655   1.165  0.00  0.00     0.003 A 
ATOM      6  C4  PXY d   1      -3.677  -1.147   0.120  0.00  0.00    -0.082 A 
ATOM      7  C5  PXY d   1      -3.121  -1.220  -1.108  0.00  0.00     0.003 A 
ATOM      8  C6  PXY d   1      -1.809  -0.791  -1.285  0.00  0.00     0.003 A 
ENDROOT
TORSDOF 0
ENDMDL
