MODEL 1
REMARK minimizedAffinity -3.2965939
REMARK minimizedRMSD -1
REMARK  0 active torsions:
REMARK  status: ('A' for Active; 'I' for Inactive)
ROOT
ATOM      1  C4' PXY d   1       1.246  -0.048   0.785  0.00  0.00     0.077 C 
ATOM      2  C1' PXY d   1      -4.174  -1.620  -0.465  0.00  0.00     0.077 C 
ATOM      3  C1  PXY d   1      -2.750  -1.209  -0.149  0.00  0.00    -0.082 A 
ATOM      4  C2  PXY d   1      -2.287  -1.346   1.083  0.00  0.00     0.003 A 
ATOM      5  C3  PXY d   1      -1.011  -0.949   1.392  0.00  0.00     0.003 A 
ATOM      6  C4  PXY d   1      -0.183  -0.458   0.419  0.00  0.00    -0.082 A 
ATOM      7  C5  PXY d   1      -0.644  -0.326  -0.843  0.00  0.00     0.003 A 
ATOM      8  C6  PXY d   1      -1.956  -0.696  -1.128  0.00  0.00     0.003 A 
ENDROOT
TORSDOF 0
ENDMDL
