MODEL 1
REMARK minimizedAffinity -0.797982574
REMARK minimizedRMSD -1
REMARK  0 active torsions:
REMARK  status: ('A' for Active; 'I' for Inactive)
ROOT
ATOM      1  C4' PXY d   1      -1.686  -0.295   3.155  0.00  0.00     0.077 C 
ATOM      2  C1' PXY d   1       2.906  -1.177  -0.244  0.00  0.00     0.077 C 
ATOM      3  C1  PXY d   1       1.707  -0.952   0.657  0.00  0.00    -0.082 A 
ATOM      4  C2  PXY d   1       0.521  -0.717   0.121  0.00  0.00     0.003 A 
ATOM      5  C3  PXY d   1      -0.567  -0.480   0.921  0.00  0.00     0.003 A 
ATOM      6  C4  PXY d   1      -0.450  -0.537   2.284  0.00  0.00    -0.082 A 
ATOM      7  C5  PXY d   1       0.755  -0.787   2.839  0.00  0.00     0.003 A 
ATOM      8  C6  PXY d   1       1.855  -0.984   2.009  0.00  0.00     0.003 A 
ENDROOT
TORSDOF 0
ENDMDL
