MODEL 1
REMARK minimizedAffinity -0.629156649
REMARK minimizedRMSD -1
REMARK  0 active torsions:
REMARK  status: ('A' for Active; 'I' for Inactive)
ROOT
ATOM      1  C4' PXY d   1      -3.275  -0.983  -0.010  0.00  0.00     0.077 C 
ATOM      2  C1' PXY d   1       2.244  -0.258   1.547  0.00  0.00     0.077 C 
ATOM      3  C1  PXY d   1       0.796  -0.459   1.146  0.00  0.00    -0.082 A 
ATOM      4  C2  PXY d   1       0.359   0.042   0.003  0.00  0.00     0.003 A 
ATOM      5  C3  PXY d   1      -0.956  -0.102  -0.360  0.00  0.00     0.003 A 
ATOM      6  C4  PXY d   1      -1.819  -0.813   0.430  0.00  0.00    -0.082 A 
ATOM      7  C5  PXY d   1      -1.377  -1.337   1.594  0.00  0.00     0.003 A 
ATOM      8  C6  PXY d   1      -0.049  -1.143   1.963  0.00  0.00     0.003 A 
ENDROOT
TORSDOF 0
ENDMDL
