MODEL 1
REMARK minimizedAffinity 4.89956617
REMARK minimizedRMSD -1
REMARK  0 active torsions:
REMARK  status: ('A' for Active; 'I' for Inactive)
ROOT
ATOM      1  C4' PXY d   1      -1.686   3.334  -1.483  0.00  0.00     0.077 C 
ATOM      2  C1' PXY d   1       2.230   3.045  -5.725  0.00  0.00     0.077 C 
ATOM      3  C1  PXY d   1       1.211   3.128  -4.606  0.00  0.00    -0.082 A 
ATOM      4  C2  PXY d   1       0.273   2.200  -4.505  0.00  0.00     0.003 A 
ATOM      5  C3  PXY d   1      -0.676   2.278  -3.518  0.00  0.00     0.003 A 
ATOM      6  C4  PXY d   1      -0.631   3.285  -2.592  0.00  0.00    -0.082 A 
ATOM      7  C5  PXY d   1       0.329   4.229  -2.681  0.00  0.00     0.003 A 
ATOM      8  C6  PXY d   1       1.258   4.156  -3.716  0.00  0.00     0.003 A 
ENDROOT
TORSDOF 0
ENDMDL
