MODEL 1
REMARK minimizedAffinity -5.13130903
REMARK minimizedRMSD -1
REMARK  0 active torsions:
REMARK  status: ('A' for Active; 'I' for Inactive)
ROOT
ATOM      1  C4' PXY d   1       1.882  -0.922   3.442  0.00  0.00     0.077 C 
ATOM      2  C1' PXY d   1      -0.896  -0.074  -1.556  0.00  0.00     0.077 C 
ATOM      3  C1  PXY d   1      -0.177  -0.290  -0.239  0.00  0.00    -0.082 A 
ATOM      4  C2  PXY d   1       1.129  -0.506  -0.234  0.00  0.00     0.003 A 
ATOM      5  C3  PXY d   1       1.789  -0.735   0.945  0.00  0.00     0.003 A 
ATOM      6  C4  PXY d   1       1.116  -0.690   2.137  0.00  0.00    -0.082 A 
ATOM      7  C5  PXY d   1      -0.214  -0.459   2.141  0.00  0.00     0.003 A 
ATOM      8  C6  PXY d   1      -0.873  -0.269   0.930  0.00  0.00     0.003 A 
ENDROOT
TORSDOF 0
ENDMDL
