MODEL 1
REMARK minimizedAffinity 2.60219455
REMARK minimizedRMSD -1
REMARK  0 active torsions:
REMARK  status: ('A' for Active; 'I' for Inactive)
ROOT
ATOM      1  C4' PXY d   1      -1.730   3.348  -1.607  0.00  0.00     0.077 C 
ATOM      2  C1' PXY d   1       2.480   3.547  -5.563  0.00  0.00     0.077 C 
ATOM      3  C1  PXY d   1       1.384   3.500  -4.517  0.00  0.00    -0.082 A 
ATOM      4  C2  PXY d   1       0.416   2.604  -4.622  0.00  0.00     0.003 A 
ATOM      5  C3  PXY d   1      -0.600   2.569  -3.703  0.00  0.00     0.003 A 
ATOM      6  C4  PXY d   1      -0.598   3.425  -2.635  0.00  0.00    -0.082 A 
ATOM      7  C5  PXY d   1       0.392   4.336  -2.514  0.00  0.00     0.003 A 
ATOM      8  C6  PXY d   1       1.392   4.382  -3.480  0.00  0.00     0.003 A 
ENDROOT
TORSDOF 0
ENDMDL
