MODEL 1
REMARK minimizedAffinity 7.26952219
REMARK minimizedRMSD -1
REMARK  1 active torsions:
REMARK  status: ('A' for Active; 'I' for Inactive)
REMARK    1  A    between atoms: C1_2  and  C2_3 
ROOT
ATOM      1  C2  UNL d   1       5.399   3.604  -1.112  0.00  0.00    -0.081 A 
ATOM      2  C3  UNL d   1       5.999   2.562  -0.395  0.00  0.00     0.006 A 
ATOM      3  C4  UNL d   1       5.475   1.268  -0.453  0.00  0.00     0.002 A 
ATOM      4  C5  UNL d   1       4.347   0.994  -1.234  0.00  0.00    -0.080 A 
ATOM      5  C6  UNL d   1       3.792  -0.396  -1.330  0.00  0.00     0.076 C 
ATOM      6  C7  UNL d   1       3.737   2.039  -1.936  0.00  0.00     0.002 A 
ATOM      7  C8  UNL d   1       4.260   3.333  -1.878  0.00  0.00     0.006 A 
ENDROOT
BRANCH   1   8
ATOM      8  C1  UNL d   1       6.000   4.986  -1.102  0.00  0.00     0.054 C 
ATOM      9  C   UNL d   1       5.877   5.653  -2.465  0.00  0.00     0.018 C 
ENDBRANCH   1   8
TORSDOF 1
ENDMDL
