MODEL 1
REMARK minimizedAffinity -0.797132432
REMARK minimizedRMSD -1
REMARK  1 active torsions:
REMARK  status: ('A' for Active; 'I' for Inactive)
REMARK    1  A    between atoms: C1_2  and  C2_3 
ROOT
ATOM      1  C2  UNL d   1       2.650   0.716  -0.572  0.00  0.00    -0.081 A 
ATOM      2  C3  UNL d   1       1.429   1.309  -0.229  0.00  0.00     0.006 A 
ATOM      3  C4  UNL d   1       0.240   0.581  -0.312  0.00  0.00     0.002 A 
ATOM      4  C5  UNL d   1       0.252  -0.753  -0.733  0.00  0.00    -0.080 A 
ATOM      5  C6  UNL d   1      -1.014  -1.555  -0.798  0.00  0.00     0.076 C 
ATOM      6  C7  UNL d   1       1.470  -1.341  -1.093  0.00  0.00     0.002 A 
ATOM      7  C8  UNL d   1       2.659  -0.613  -1.010  0.00  0.00     0.006 A 
ENDROOT
BRANCH   1   8
ATOM      8  C1  UNL d   1       3.941   1.478  -0.421  0.00  0.00     0.054 C 
ATOM      9  C   UNL d   1       4.537   1.832  -1.777  0.00  0.00     0.018 C 
ENDBRANCH   1   8
TORSDOF 1
ENDMDL
