MODEL 1
REMARK minimizedAffinity 8.22542
REMARK minimizedRMSD -1
REMARK  1 active torsions:
REMARK  status: ('A' for Active; 'I' for Inactive)
REMARK    1  A    between atoms: C1_2  and  C2_3 
ROOT
ATOM      1  C2  UNL d   1       2.273   2.976   4.543  0.00  0.00    -0.081 A 
ATOM      2  C3  UNL d   1       3.064   3.320   3.440  0.00  0.00     0.006 A 
ATOM      3  C4  UNL d   1       4.261   4.018   3.617  0.00  0.00     0.002 A 
ATOM      4  C5  UNL d   1       4.690   4.377   4.900  0.00  0.00    -0.080 A 
ATOM      5  C6  UNL d   1       5.987   5.100   5.107  0.00  0.00     0.076 C 
ATOM      6  C7  UNL d   1       3.891   4.048   6.000  0.00  0.00     0.002 A 
ATOM      7  C8  UNL d   1       2.694   3.351   5.823  0.00  0.00     0.006 A 
ENDROOT
BRANCH   1   8
ATOM      8  C1  UNL d   1       1.014   2.166   4.360  0.00  0.00     0.054 C 
ATOM      9  C   UNL d   1      -0.107   3.011   3.773  0.00  0.00     0.018 C 
ENDBRANCH   1   8
TORSDOF 1
ENDMDL
