MODEL 1
REMARK minimizedAffinity 10.3455906
REMARK minimizedRMSD -1
REMARK  1 active torsions:
REMARK  status: ('A' for Active; 'I' for Inactive)
REMARK    1  A    between atoms: C1_2  and  C2_3 
ROOT
ATOM      1  C2  UNL d   1       4.006   4.102   4.764  0.00  0.00    -0.081 A 
ATOM      2  C3  UNL d   1       3.380   3.731   3.568  0.00  0.00     0.006 A 
ATOM      3  C4  UNL d   1       2.166   3.040   3.588  0.00  0.00     0.002 A 
ATOM      4  C5  UNL d   1       1.555   2.715   4.804  0.00  0.00    -0.080 A 
ATOM      5  C6  UNL d   1       0.237   2.000   4.839  0.00  0.00     0.076 C 
ATOM      6  C7  UNL d   1       2.189   3.070   5.999  0.00  0.00     0.002 A 
ATOM      7  C8  UNL d   1       3.402   3.760   5.980  0.00  0.00     0.006 A 
ENDROOT
BRANCH   1   8
ATOM      8  C1  UNL d   1       5.282   4.904   4.745  0.00  0.00     0.054 C 
ATOM      9  C   UNL d   1       5.304   5.935   5.864  0.00  0.00     0.018 C 
ENDBRANCH   1   8
TORSDOF 1
ENDMDL
