MODEL 1
REMARK minimizedAffinity 9.75474358
REMARK minimizedRMSD -1
REMARK  1 active torsions:
REMARK  status: ('A' for Active; 'I' for Inactive)
REMARK    1  A    between atoms: C1_2  and  C2_3 
ROOT
ATOM      1  C2  UNL d   1       3.961   3.838   4.963  0.00  0.00    -0.081 A 
ATOM      2  C3  UNL d   1       2.682   3.419   5.349  0.00  0.00     0.006 A 
ATOM      3  C4  UNL d   1       1.756   2.999   4.391  0.00  0.00     0.002 A 
ATOM      4  C5  UNL d   1       2.095   2.984   3.034  0.00  0.00    -0.080 A 
ATOM      5  C6  UNL d   1       1.120   2.507   1.999  0.00  0.00     0.076 C 
ATOM      6  C7  UNL d   1       3.367   3.420   2.647  0.00  0.00     0.002 A 
ATOM      7  C8  UNL d   1       4.293   3.840   3.604  0.00  0.00     0.006 A 
ENDROOT
BRANCH   1   8
ATOM      8  C1  UNL d   1       4.984   4.230   5.999  0.00  0.00     0.054 C 
ATOM      9  C   UNL d   1       5.238   5.731   5.985  0.00  0.00     0.018 C 
ENDBRANCH   1   8
TORSDOF 1
ENDMDL
