MODEL 1
REMARK minimizedAffinity 0.605818391
REMARK minimizedRMSD -1
REMARK  3 active torsions:
REMARK  status: ('A' for Active; 'I' for Inactive)
REMARK    1  A    between atoms: C3'_2  and  C2'_3 
REMARK    2  A    between atoms: C2'_3  and  C1'_4 
REMARK    3  A    between atoms: C1'_4  and  C1_5 
ROOT
ATOM      1  C1  N4B d   1       0.075   2.907  -2.104  0.00  0.00    -0.075 A 
ATOM      2  C2  N4B d   1       0.237   4.309  -2.052  0.00  0.00     0.002 A 
ATOM      3  C3  N4B d   1       0.754   4.980  -3.133  0.00  0.00     0.002 A 
ATOM      4  C4  N4B d   1       1.132   4.272  -4.264  0.00  0.00    -0.004 A 
ATOM      5  C5  N4B d   1       0.949   2.922  -4.315  0.00  0.00     0.002 A 
ATOM      6  C6  N4B d   1       0.427   2.234  -3.238  0.00  0.00     0.002 A 
ENDROOT
BRANCH   1   7
ATOM      7  C1' N4B d   1      -0.406   2.118  -0.916  0.00  0.00     0.057 C 
BRANCH   7   8
ATOM      8  C2' N4B d   1       0.761   1.322  -0.338  0.00  0.00     0.009 C 
BRANCH   8   9
ATOM      9  C3' N4B d   1       0.353  -0.092   0.037  0.00  0.00     0.004 C 
ATOM     10  C4' N4B d   1       1.509  -1.047   0.046  0.00  0.00     0.003 C 
ENDBRANCH   8   9
ENDBRANCH   7   8
ENDBRANCH   1   7
TORSDOF 3
ENDMDL
