MODEL 1
REMARK minimizedAffinity 1.69624281
REMARK minimizedRMSD -1
REMARK  3 active torsions:
REMARK  status: ('A' for Active; 'I' for Inactive)
REMARK    1  A    between atoms: C3'_2  and  C2'_3 
REMARK    2  A    between atoms: C2'_3  and  C1'_4 
REMARK    3  A    between atoms: C1'_4  and  C1_5 
ROOT
ATOM      1  C1  N4B d   1       1.796   2.283  -2.824  0.00  0.00    -0.075 A 
ATOM      2  C2  N4B d   1       2.202   3.254  -1.882  0.00  0.00     0.002 A 
ATOM      3  C3  N4B d   1       2.715   2.862  -0.670  0.00  0.00     0.002 A 
ATOM      4  C4  N4B d   1       2.815   1.511  -0.372  0.00  0.00    -0.004 A 
ATOM      5  C5  N4B d   1       2.444   0.580  -1.297  0.00  0.00     0.002 A 
ATOM      6  C6  N4B d   1       1.930   0.959  -2.521  0.00  0.00     0.002 A 
ENDROOT
BRANCH   1   7
ATOM      7  C1' N4B d   1       1.149   2.664  -4.127  0.00  0.00     0.057 C 
BRANCH   7   8
ATOM      8  C2' N4B d   1      -0.065   3.544  -3.846  0.00  0.00     0.009 C 
BRANCH   8   9
ATOM      9  C3' N4B d   1      -1.107   2.824  -3.006  0.00  0.00     0.004 C 
ATOM     10  C4' N4B d   1      -2.510   3.106  -3.454  0.00  0.00     0.003 C 
ENDBRANCH   8   9
ENDBRANCH   7   8
ENDBRANCH   1   7
TORSDOF 3
ENDMDL
