MODEL 1
REMARK minimizedAffinity 7.03414583
REMARK minimizedRMSD -1
REMARK  3 active torsions:
REMARK  status: ('A' for Active; 'I' for Inactive)
REMARK    1  A    between atoms: C3'_2  and  C2'_3 
REMARK    2  A    between atoms: C2'_3  and  C1'_4 
REMARK    3  A    between atoms: C1'_4  and  C1_5 
ROOT
ATOM      1  C1  N4B d   1      -3.460   0.942  -4.202  0.00  0.00    -0.075 A 
ATOM      2  C2  N4B d   1      -2.864  -0.247  -3.726  0.00  0.00     0.002 A 
ATOM      3  C3  N4B d   1      -3.060  -1.429  -4.397  0.00  0.00     0.002 A 
ATOM      4  C4  N4B d   1      -3.858  -1.451  -5.530  0.00  0.00    -0.004 A 
ATOM      5  C5  N4B d   1      -4.409  -0.294  -5.998  0.00  0.00     0.002 A 
ATOM      6  C6  N4B d   1      -4.218   0.902  -5.336  0.00  0.00     0.002 A 
ENDROOT
BRANCH   1   7
ATOM      7  C1' N4B d   1      -3.346   2.242  -3.454  0.00  0.00     0.057 C 
BRANCH   7   8
ATOM      8  C2' N4B d   1      -2.133   2.183  -2.530  0.00  0.00     0.009 C 
BRANCH   8   9
ATOM      9  C3' N4B d   1      -1.104   3.246  -2.875  0.00  0.00     0.004 C 
ATOM     10  C4' N4B d   1       0.293   2.843  -2.507  0.00  0.00     0.003 C 
ENDBRANCH   8   9
ENDBRANCH   7   8
ENDBRANCH   1   7
TORSDOF 3
ENDMDL
