MODEL 1
REMARK minimizedAffinity 1.94404483
REMARK minimizedRMSD -1
REMARK  3 active torsions:
REMARK  status: ('A' for Active; 'I' for Inactive)
REMARK    1  A    between atoms: C3'_2  and  C2'_3 
REMARK    2  A    between atoms: C2'_3  and  C1'_4 
REMARK    3  A    between atoms: C1'_4  and  C1_5 
ROOT
ATOM      1  C1  N4B d   1       1.847   0.095  -0.758  0.00  0.00    -0.075 A 
ATOM      2  C2  N4B d   1       2.406   1.298  -0.276  0.00  0.00     0.002 A 
ATOM      3  C3  N4B d   1       2.108   2.489  -0.891  0.00  0.00     0.002 A 
ATOM      4  C4  N4B d   1       1.271   2.499  -1.997  0.00  0.00    -0.004 A 
ATOM      5  C5  N4B d   1       0.715   1.335  -2.441  0.00  0.00     0.002 A 
ATOM      6  C6  N4B d   1       1.003   0.131  -1.830  0.00  0.00     0.002 A 
ENDROOT
BRANCH   1   7
ATOM      7  C1' N4B d   1       2.211  -1.242  -0.171  0.00  0.00     0.057 C 
BRANCH   7   8
ATOM      8  C2' N4B d   1       1.621  -1.351   1.232  0.00  0.00     0.009 C 
BRANCH   8   9
ATOM      9  C3' N4B d   1       2.365  -2.363   2.084  0.00  0.00     0.004 C 
ATOM     10  C4' N4B d   1       2.575  -3.672   1.382  0.00  0.00     0.003 C 
ENDBRANCH   8   9
ENDBRANCH   7   8
ENDBRANCH   1   7
TORSDOF 3
ENDMDL
