MODEL 1
REMARK minimizedAffinity 6.01829338
REMARK minimizedRMSD -1
REMARK  3 active torsions:
REMARK  status: ('A' for Active; 'I' for Inactive)
REMARK    1  A    between atoms: C3'_2  and  C2'_3 
REMARK    2  A    between atoms: C2'_3  and  C1'_4 
REMARK    3  A    between atoms: C1'_4  and  C1_5 
ROOT
ATOM      1  C1  N4B d   1       2.014  -0.894   1.493  0.00  0.00    -0.075 A 
ATOM      2  C2  N4B d   1       1.881   0.285   2.259  0.00  0.00     0.002 A 
ATOM      3  C3  N4B d   1       0.930   0.359   3.246  0.00  0.00     0.002 A 
ATOM      4  C4  N4B d   1       0.091  -0.722   3.473  0.00  0.00    -0.004 A 
ATOM      5  C5  N4B d   1       0.243  -1.867   2.747  0.00  0.00     0.002 A 
ATOM      6  C6  N4B d   1       1.198  -1.956   1.753  0.00  0.00     0.002 A 
ENDROOT
BRANCH   1   7
ATOM      7  C1' N4B d   1       2.982  -0.991   0.346  0.00  0.00     0.057 C 
BRANCH   7   8
ATOM      8  C2' N4B d   1       2.305  -1.703  -0.822  0.00  0.00     0.009 C 
BRANCH   8   9
ATOM      9  C3' N4B d   1       1.625  -0.727  -1.766  0.00  0.00     0.004 C 
ATOM     10  C4' N4B d   1       0.159  -0.999  -1.926  0.00  0.00     0.003 C 
ENDBRANCH   8   9
ENDBRANCH   7   8
ENDBRANCH   1   7
TORSDOF 3
ENDMDL
