MODEL 1
REMARK minimizedAffinity 0.547509074
REMARK minimizedRMSD -1
REMARK  3 active torsions:
REMARK  status: ('A' for Active; 'I' for Inactive)
REMARK    1  A    between atoms: C3'_2  and  C2'_3 
REMARK    2  A    between atoms: C2'_3  and  C1'_4 
REMARK    3  A    between atoms: C1'_4  and  C1_5 
ROOT
ATOM      1  C1  N4B d   1       2.772  -1.214   0.535  0.00  0.00    -0.075 A 
ATOM      2  C2  N4B d   1       2.055  -1.364  -0.672  0.00  0.00     0.002 A 
ATOM      3  C3  N4B d   1       2.461  -0.694  -1.800  0.00  0.00     0.002 A 
ATOM      4  C4  N4B d   1       3.566   0.142  -1.740  0.00  0.00    -0.004 A 
ATOM      5  C5  N4B d   1       4.268   0.262  -0.577  0.00  0.00     0.002 A 
ATOM      6  C6  N4B d   1       3.873  -0.409   0.563  0.00  0.00     0.002 A 
ENDROOT
BRANCH   1   7
ATOM      7  C1' N4B d   1       2.315  -1.859   1.815  0.00  0.00     0.057 C 
BRANCH   7   8
ATOM      8  C2' N4B d   1       1.429  -0.881   2.580  0.00  0.00     0.009 C 
BRANCH   8   9
ATOM      9  C3' N4B d   1      -0.044  -1.235   2.459  0.00  0.00     0.004 C 
ATOM     10  C4' N4B d   1      -0.943  -0.179   3.029  0.00  0.00     0.003 C 
ENDBRANCH   8   9
ENDBRANCH   7   8
ENDBRANCH   1   7
TORSDOF 3
ENDMDL
