MODEL 1
REMARK minimizedAffinity 2.31146979
REMARK minimizedRMSD -1
REMARK  3 active torsions:
REMARK  status: ('A' for Active; 'I' for Inactive)
REMARK    1  A    between atoms: C3'_2  and  C2'_3 
REMARK    2  A    between atoms: C2'_3  and  C1'_4 
REMARK    3  A    between atoms: C1'_4  and  C1_5 
ROOT
ATOM      1  C1  N4B d   1       2.229  -1.199  -0.466  0.00  0.00    -0.075 A 
ATOM      2  C2  N4B d   1       1.196  -0.994  -1.407  0.00  0.00     0.002 A 
ATOM      3  C3  N4B d   1       1.499  -0.565  -2.676  0.00  0.00     0.002 A 
ATOM      4  C4  N4B d   1       2.820  -0.317  -3.019  0.00  0.00    -0.004 A 
ATOM      5  C5  N4B d   1       3.814  -0.542  -2.112  0.00  0.00     0.002 A 
ATOM      6  C6  N4B d   1       3.525  -0.977  -0.834  0.00  0.00     0.002 A 
ENDROOT
BRANCH   1   7
ATOM      7  C1' N4B d   1       1.940  -1.585   0.959  0.00  0.00     0.057 C 
BRANCH   7   8
ATOM      8  C2' N4B d   1       0.511  -1.182   1.307  0.00  0.00     0.009 C 
BRANCH   8   9
ATOM      9  C3' N4B d   1       0.356  -0.855   2.783  0.00  0.00     0.004 C 
ATOM     10  C4' N4B d   1      -0.720   0.157   3.044  0.00  0.00     0.003 C 
ENDBRANCH   8   9
ENDBRANCH   7   8
ENDBRANCH   1   7
TORSDOF 3
ENDMDL
