MODEL 1
REMARK minimizedAffinity -5.43721819
REMARK minimizedRMSD -1
REMARK  0 active torsions:
REMARK  status: ('A' for Active; 'I' for Inactive)
ROOT
ATOM      1  C4' PXY d   1      -0.935  -0.845   2.293  0.00  0.00     0.077 C 
ATOM      2  C1' PXY d   1      -0.328   3.690  -1.240  0.00  0.00     0.077 C 
ATOM      3  C1  PXY d   1      -0.489   2.509  -0.303  0.00  0.00    -0.082 A 
ATOM      4  C2  PXY d   1       0.069   1.349  -0.611  0.00  0.00     0.003 A 
ATOM      5  C3  PXY d   1      -0.094   0.262   0.209  0.00  0.00     0.003 A 
ATOM      6  C4  PXY d   1      -0.791   0.377   1.382  0.00  0.00    -0.082 A 
ATOM      7  C5  PXY d   1      -1.354   1.559   1.708  0.00  0.00     0.003 A 
ATOM      8  C6  PXY d   1      -1.212   2.640   0.842  0.00  0.00     0.003 A 
ENDROOT
TORSDOF 0
ENDMDL
