MODEL 1
REMARK minimizedAffinity -4.67125845
REMARK minimizedRMSD -1
REMARK  0 active torsions:
REMARK  status: ('A' for Active; 'I' for Inactive)
ROOT
ATOM      1  C4' PXY d   1       0.799  -1.795  -1.055  0.00  0.00     0.077 C 
ATOM      2  C1' PXY d   1      -1.908   2.676   1.415  0.00  0.00     0.077 C 
ATOM      3  C1  PXY d   1      -1.193   1.500   0.779  0.00  0.00    -0.082 A 
ATOM      4  C2  PXY d   1      -0.902   1.532  -0.511  0.00  0.00     0.003 A 
ATOM      5  C3  PXY d   1      -0.284   0.464  -1.109  0.00  0.00     0.003 A 
ATOM      6  C4  PXY d   1       0.087  -0.626  -0.368  0.00  0.00    -0.082 A 
ATOM      7  C5  PXY d   1      -0.198  -0.662   0.951  0.00  0.00     0.003 A 
ATOM      8  C6  PXY d   1      -0.862   0.415   1.530  0.00  0.00     0.003 A 
ENDROOT
TORSDOF 0
ENDMDL
