MODEL 1
REMARK minimizedAffinity -3.1558516
REMARK minimizedRMSD -1
REMARK  0 active torsions:
REMARK  status: ('A' for Active; 'I' for Inactive)
ROOT
ATOM      1  C4' PXY d   1       1.028  -2.018  -0.982  0.00  0.00     0.077 C 
ATOM      2  C1' PXY d   1      -1.778   2.129   1.908  0.00  0.00     0.077 C 
ATOM      3  C1  PXY d   1      -1.036   1.038   1.161  0.00  0.00    -0.082 A 
ATOM      4  C2  PXY d   1      -0.908   1.116  -0.154  0.00  0.00     0.003 A 
ATOM      5  C3  PXY d   1      -0.268   0.123  -0.849  0.00  0.00     0.003 A 
ATOM      6  C4  PXY d   1       0.294  -0.935  -0.185  0.00  0.00    -0.082 A 
ATOM      7  C5  PXY d   1       0.178  -1.016   1.157  0.00  0.00     0.003 A 
ATOM      8  C6  PXY d   1      -0.512  -0.018   1.839  0.00  0.00     0.003 A 
ENDROOT
TORSDOF 0
ENDMDL
