MODEL 1
REMARK minimizedAffinity -5.00705385
REMARK minimizedRMSD -1
REMARK  0 active torsions:
REMARK  status: ('A' for Active; 'I' for Inactive)
ROOT
ATOM      1  C4' PXY d   1       1.171  -1.287  -1.393  0.00  0.00     0.077 C 
ATOM      2  C1' PXY d   1      -2.200   2.234   1.715  0.00  0.00     0.077 C 
ATOM      3  C1  PXY d   1      -1.311   1.306   0.911  0.00  0.00    -0.082 A 
ATOM      4  C2  PXY d   1      -0.999   1.617  -0.337  0.00  0.00     0.003 A 
ATOM      5  C3  PXY d   1      -0.222   0.773  -1.089  0.00  0.00     0.003 A 
ATOM      6  C4  PXY d   1       0.284  -0.375  -0.541  0.00  0.00    -0.082 A 
ATOM      7  C5  PXY d   1      -0.020  -0.694   0.735  0.00  0.00     0.003 A 
ATOM      8  C6  PXY d   1      -0.844   0.155   1.468  0.00  0.00     0.003 A 
ENDROOT
TORSDOF 0
ENDMDL
