MODEL 1
REMARK minimizedAffinity -1.96563697
REMARK minimizedRMSD -1
REMARK  0 active torsions:
REMARK  status: ('A' for Active; 'I' for Inactive)
ROOT
ATOM      1  C4' PXY d   1       1.244  -2.206  -1.507  0.00  0.00     0.077 C 
ATOM      2  C1' PXY d   1      -1.556   1.752   1.641  0.00  0.00     0.077 C 
ATOM      3  C1  PXY d   1      -0.825   0.721   0.805  0.00  0.00    -0.082 A 
ATOM      4  C2  PXY d   1      -0.688  -0.514   1.261  0.00  0.00     0.003 A 
ATOM      5  C3  PXY d   1      -0.002  -1.451   0.532  0.00  0.00     0.003 A 
ATOM      6  C4  PXY d   1       0.505  -1.135  -0.701  0.00  0.00    -0.082 A 
ATOM      7  C5  PXY d   1       0.360   0.120  -1.178  0.00  0.00     0.003 A 
ATOM      8  C6  PXY d   1      -0.304   1.067  -0.404  0.00  0.00     0.003 A 
ENDROOT
TORSDOF 0
ENDMDL
