MODEL 1
REMARK minimizedAffinity -4.37892485
REMARK minimizedRMSD -1
REMARK  0 active torsions:
REMARK  status: ('A' for Active; 'I' for Inactive)
ROOT
ATOM      1  C4' PXY d   1       1.418  -1.637  -0.737  0.00  0.00     0.077 C 
ATOM      2  C1' PXY d   1      -2.415   2.210   1.244  0.00  0.00     0.077 C 
ATOM      3  C1  PXY d   1      -1.406   1.198   0.737  0.00  0.00    -0.082 A 
ATOM      4  C2  PXY d   1      -0.881   1.345  -0.469  0.00  0.00     0.003 A 
ATOM      5  C3  PXY d   1       0.008   0.422  -0.956  0.00  0.00     0.003 A 
ATOM      6  C4  PXY d   1       0.404  -0.634  -0.180  0.00  0.00    -0.082 A 
ATOM      7  C5  PXY d   1      -0.119  -0.786   1.055  0.00  0.00     0.003 A 
ATOM      8  C6  PXY d   1      -1.052   0.140   1.515  0.00  0.00     0.003 A 
ENDROOT
TORSDOF 0
ENDMDL
