MODEL 1
REMARK minimizedAffinity -4.4573245
REMARK minimizedRMSD -1
REMARK  0 active torsions:
REMARK  status: ('A' for Active; 'I' for Inactive)
ROOT
ATOM      1  C4' PXY d   1      -1.994   2.325   1.986  0.00  0.00     0.077 C 
ATOM      2  C1' PXY d   1       0.773  -1.337  -1.528  0.00  0.00     0.077 C 
ATOM      3  C1  PXY d   1       0.049  -0.385  -0.596  0.00  0.00    -0.082 A 
ATOM      4  C2  PXY d   1      -0.842   0.460  -1.088  0.00  0.00     0.003 A 
ATOM      5  C3  PXY d   1      -1.482   1.350  -0.264  0.00  0.00     0.003 A 
ATOM      6  C4  PXY d   1      -1.247   1.339   1.084  0.00  0.00    -0.082 A 
ATOM      7  C5  PXY d   1      -0.346   0.472   1.595  0.00  0.00     0.003 A 
ATOM      8  C6  PXY d   1       0.323  -0.395   0.736  0.00  0.00     0.003 A 
ENDROOT
TORSDOF 0
ENDMDL
