MODEL 1
REMARK minimizedAffinity -3.90433073
REMARK minimizedRMSD -1
REMARK  0 active torsions:
REMARK  status: ('A' for Active; 'I' for Inactive)
ROOT
ATOM      1  C4' PXY d   1      -0.066  -1.313   1.424  0.00  0.00     0.077 C 
ATOM      2  C1' PXY d   1      -0.743   3.832  -1.121  0.00  0.00     0.077 C 
ATOM      3  C1  PXY d   1      -0.562   2.478  -0.465  0.00  0.00    -0.082 A 
ATOM      4  C2  PXY d   1      -1.216   2.199   0.651  0.00  0.00     0.003 A 
ATOM      5  C3  PXY d   1      -1.039   0.991   1.275  0.00  0.00     0.003 A 
ATOM      6  C4  PXY d   1      -0.225   0.038   0.722  0.00  0.00    -0.082 A 
ATOM      7  C5  PXY d   1       0.437   0.311  -0.422  0.00  0.00     0.003 A 
ATOM      8  C6  PXY d   1       0.276   1.559  -1.017  0.00  0.00     0.003 A 
ENDROOT
TORSDOF 0
ENDMDL
