MODEL 1
REMARK minimizedAffinity -4.99789572
REMARK minimizedRMSD -1
REMARK  0 active torsions:
REMARK  status: ('A' for Active; 'I' for Inactive)
ROOT
ATOM      1  C4' PXY d   1      -2.496   1.944   1.598  0.00  0.00     0.077 C 
ATOM      2  C1' PXY d   1       1.170  -1.810  -0.826  0.00  0.00     0.077 C 
ATOM      3  C1  PXY d   1       0.205  -0.835  -0.182  0.00  0.00    -0.082 A 
ATOM      4  C2  PXY d   1      -0.245   0.196  -0.879  0.00  0.00     0.003 A 
ATOM      5  C3  PXY d   1      -1.094   1.105  -0.301  0.00  0.00     0.003 A 
ATOM      6  C4  PXY d   1      -1.527   0.929   0.985  0.00  0.00    -0.082 A 
ATOM      7  C5  PXY d   1      -1.081  -0.126   1.699  0.00  0.00     0.003 A 
ATOM      8  C6  PXY d   1      -0.188  -1.016   1.108  0.00  0.00     0.003 A 
ENDROOT
TORSDOF 0
ENDMDL
