MODEL 1
REMARK minimizedAffinity -3.58773589
REMARK minimizedRMSD -1
REMARK  0 active torsions:
REMARK  status: ('A' for Active; 'I' for Inactive)
ROOT
ATOM      1  C4' PXY d   1       1.755  -2.522  -1.177  0.00  0.00     0.077 C 
ATOM      2  C1' PXY d   1      -1.510   1.829   0.779  0.00  0.00     0.077 C 
ATOM      3  C1  PXY d   1      -0.657   0.691   0.254  0.00  0.00    -0.082 A 
ATOM      4  C2  PXY d   1      -0.393  -0.343   1.036  0.00  0.00     0.003 A 
ATOM      5  C3  PXY d   1       0.403  -1.365   0.588  0.00  0.00     0.003 A 
ATOM      6  C4  PXY d   1       0.890  -1.355  -0.692  0.00  0.00    -0.082 A 
ATOM      7  C5  PXY d   1       0.616  -0.308  -1.499  0.00  0.00     0.003 A 
ATOM      8  C6  PXY d   1      -0.160   0.740  -1.012  0.00  0.00     0.003 A 
ENDROOT
TORSDOF 0
ENDMDL
