MODEL 1
REMARK minimizedAffinity -3.14042759
REMARK minimizedRMSD -1
REMARK  0 active torsions:
REMARK  status: ('A' for Active; 'I' for Inactive)
ROOT
ATOM      1  C4' PXY d   1      -0.819   2.649  -1.625  0.00  0.00     0.077 C 
ATOM      2  C1' PXY d   1      -1.070  -0.982   2.866  0.00  0.00     0.077 C 
ATOM      3  C1  PXY d   1      -1.016  -0.025   1.691  0.00  0.00    -0.082 A 
ATOM      4  C2  PXY d   1      -0.244  -0.306   0.654  0.00  0.00     0.003 A 
ATOM      5  C3  PXY d   1      -0.159   0.564  -0.403  0.00  0.00     0.003 A 
ATOM      6  C4  PXY d   1      -0.912   1.707  -0.421  0.00  0.00    -0.082 A 
ATOM      7  C5  PXY d   1      -1.710   1.996   0.629  0.00  0.00     0.003 A 
ATOM      8  C6  PXY d   1      -1.751   1.120   1.710  0.00  0.00     0.003 A 
ENDROOT
TORSDOF 0
ENDMDL
