MODEL 1
REMARK minimizedAffinity -3.85479355
REMARK minimizedRMSD -1
REMARK  0 active torsions:
REMARK  status: ('A' for Active; 'I' for Inactive)
ROOT
ATOM      1  C4' PXY d   1       1.040  -1.688  -0.787  0.00  0.00     0.077 C 
ATOM      2  C1' PXY d   1      -2.305   2.357   1.636  0.00  0.00     0.077 C 
ATOM      3  C1  PXY d   1      -1.429   1.301   0.989  0.00  0.00    -0.082 A 
ATOM      4  C2  PXY d   1      -1.254   0.137   1.592  0.00  0.00     0.003 A 
ATOM      5  C3  PXY d   1      -0.440  -0.817   1.037  0.00  0.00     0.003 A 
ATOM      6  C4  PXY d   1       0.158  -0.597  -0.175  0.00  0.00    -0.082 A 
ATOM      7  C5  PXY d   1      -0.025   0.585  -0.802  0.00  0.00     0.003 A 
ATOM      8  C6  PXY d   1      -0.822   1.555  -0.202  0.00  0.00     0.003 A 
ENDROOT
TORSDOF 0
ENDMDL
