MODEL 1
REMARK minimizedAffinity -2.52143574
REMARK minimizedRMSD -1
REMARK  0 active torsions:
REMARK  status: ('A' for Active; 'I' for Inactive)
ROOT
ATOM      1  C4' PXY d   1       0.214   2.981  -1.149  0.00  0.00     0.077 C 
ATOM      2  C1' PXY d   1      -0.932  -1.137   2.742  0.00  0.00     0.077 C 
ATOM      3  C1  PXY d   1      -0.621  -0.064   1.717  0.00  0.00    -0.082 A 
ATOM      4  C2  PXY d   1      -1.068   1.168   1.904  0.00  0.00     0.003 A 
ATOM      5  C3  PXY d   1      -0.823   2.143   0.972  0.00  0.00     0.003 A 
ATOM      6  C4  PXY d   1      -0.067   1.868  -0.137  0.00  0.00    -0.082 A 
ATOM      7  C5  PXY d   1       0.401   0.617  -0.329  0.00  0.00     0.003 A 
ATOM      8  C6  PXY d   1       0.106  -0.369   0.609  0.00  0.00     0.003 A 
ENDROOT
TORSDOF 0
ENDMDL
