MODEL 1
REMARK minimizedAffinity -3.70955348
REMARK minimizedRMSD -1
REMARK  0 active torsions:
REMARK  status: ('A' for Active; 'I' for Inactive)
ROOT
ATOM      1  C4' PXY d   1      -2.289   3.256   1.546  0.00  0.00     0.077 C 
ATOM      2  C1' PXY d   1       1.087  -0.920  -0.595  0.00  0.00     0.077 C 
ATOM      3  C1  PXY d   1       0.195   0.166  -0.027  0.00  0.00    -0.082 A 
ATOM      4  C2  PXY d   1       0.059   1.310  -0.680  0.00  0.00     0.003 A 
ATOM      5  C3  PXY d   1      -0.718   2.315  -0.164  0.00  0.00     0.003 A 
ATOM      6  C4  PXY d   1      -1.406   2.128   1.005  0.00  0.00    -0.082 A 
ATOM      7  C5  PXY d   1      -1.282   0.960   1.671  0.00  0.00     0.003 A 
ATOM      8  C6  PXY d   1      -0.455  -0.032   1.152  0.00  0.00     0.003 A 
ENDROOT
TORSDOF 0
ENDMDL
