MODEL 1
REMARK minimizedAffinity -5.09949732
REMARK minimizedRMSD -1
REMARK  0 active torsions:
REMARK  status: ('A' for Active; 'I' for Inactive)
ROOT
ATOM      1  C4' PXY d   1       1.495  -1.435  -0.806  0.00  0.00     0.077 C 
ATOM      2  C1' PXY d   1      -1.631   3.012   1.159  0.00  0.00     0.077 C 
ATOM      3  C1  PXY d   1      -0.811   1.841   0.656  0.00  0.00    -0.082 A 
ATOM      4  C2  PXY d   1      -0.109   1.965  -0.459  0.00  0.00     0.003 A 
ATOM      5  C3  PXY d   1       0.614   0.906  -0.945  0.00  0.00     0.003 A 
ATOM      6  C4  PXY d   1       0.660  -0.276  -0.256  0.00  0.00    -0.082 A 
ATOM      7  C5  PXY d   1      -0.045  -0.408   0.888  0.00  0.00     0.003 A 
ATOM      8  C6  PXY d   1      -0.805   0.666   1.343  0.00  0.00     0.003 A 
ENDROOT
TORSDOF 0
ENDMDL
