MODEL 1
REMARK minimizedAffinity -3.63603735
REMARK minimizedRMSD -1
REMARK  0 active torsions:
REMARK  status: ('A' for Active; 'I' for Inactive)
ROOT
ATOM      1  C4' PXY d   1      -2.581   1.884   1.057  0.00  0.00     0.077 C 
ATOM      2  C1' PXY d   1       2.113  -1.147  -0.424  0.00  0.00     0.077 C 
ATOM      3  C1  PXY d   1       0.879  -0.361  -0.027  0.00  0.00    -0.082 A 
ATOM      4  C2  PXY d   1       0.336   0.483  -0.889  0.00  0.00     0.003 A 
ATOM      5  C3  PXY d   1      -0.761   1.226  -0.534  0.00  0.00     0.003 A 
ATOM      6  C4  PXY d   1      -1.340   1.063   0.696  0.00  0.00    -0.082 A 
ATOM      7  C5  PXY d   1      -0.799   0.195   1.576  0.00  0.00     0.003 A 
ATOM      8  C6  PXY d   1       0.339  -0.519   1.212  0.00  0.00     0.003 A 
ENDROOT
TORSDOF 0
ENDMDL
