MODEL 1
REMARK minimizedAffinity -4.36284208
REMARK minimizedRMSD -1
REMARK  0 active torsions:
REMARK  status: ('A' for Active; 'I' for Inactive)
ROOT
ATOM      1  C4' PXY d   1       0.352  -1.833  -0.155  0.00  0.00     0.077 C 
ATOM      2  C1' PXY d   1      -1.704   3.432   1.056  0.00  0.00     0.077 C 
ATOM      3  C1  PXY d   1      -1.163   2.049   0.751  0.00  0.00    -0.082 A 
ATOM      4  C2  PXY d   1      -0.592   1.813  -0.419  0.00  0.00     0.003 A 
ATOM      5  C3  PXY d   1      -0.127   0.560  -0.723  0.00  0.00     0.003 A 
ATOM      6  C4  PXY d   1      -0.199  -0.449   0.200  0.00  0.00    -0.082 A 
ATOM      7  C5  PXY d   1      -0.771  -0.213   1.400  0.00  0.00     0.003 A 
ATOM      8  C6  PXY d   1      -1.274   1.055   1.673  0.00  0.00     0.003 A 
ENDROOT
TORSDOF 0
ENDMDL
