MODEL 1
REMARK minimizedAffinity -4.88252974
REMARK minimizedRMSD -1
REMARK  0 active torsions:
REMARK  status: ('A' for Active; 'I' for Inactive)
ROOT
ATOM      1  C4' PXY d   1       1.145  -2.424  -1.014  0.00  0.00     0.077 C 
ATOM      2  C1' PXY d   1      -1.656   1.928   1.560  0.00  0.00     0.077 C 
ATOM      3  C1  PXY d   1      -0.916   0.795   0.877  0.00  0.00    -0.082 A 
ATOM      4  C2  PXY d   1      -1.417  -0.429   0.912  0.00  0.00     0.003 A 
ATOM      5  C3  PXY d   1      -0.744  -1.471   0.327  0.00  0.00     0.003 A 
ATOM      6  C4  PXY d   1       0.427  -1.248  -0.346  0.00  0.00    -0.082 A 
ATOM      7  C5  PXY d   1       0.940  -0.000  -0.395  0.00  0.00     0.003 A 
ATOM      8  C6  PXY d   1       0.262   1.036   0.240  0.00  0.00     0.003 A 
ENDROOT
TORSDOF 0
ENDMDL
