MODEL 1
REMARK minimizedAffinity -3.35408354
REMARK minimizedRMSD -1
REMARK  0 active torsions:
REMARK  status: ('A' for Active; 'I' for Inactive)
ROOT
ATOM      1  C4' PXY d   1      -1.992   1.785   1.525  0.00  0.00     0.077 C 
ATOM      2  C1' PXY d   1       1.212  -1.865  -1.610  0.00  0.00     0.077 C 
ATOM      3  C1  PXY d   1       0.374  -0.898  -0.796  0.00  0.00    -0.082 A 
ATOM      4  C2  PXY d   1       0.175  -1.129   0.491  0.00  0.00     0.003 A 
ATOM      5  C3  PXY d   1      -0.606  -0.282   1.235  0.00  0.00     0.003 A 
ATOM      6  C4  PXY d   1      -1.145   0.841   0.667  0.00  0.00    -0.082 A 
ATOM      7  C5  PXY d   1      -0.938   1.089  -0.644  0.00  0.00     0.003 A 
ATOM      8  C6  PXY d   1      -0.176   0.195  -1.390  0.00  0.00     0.003 A 
ENDROOT
TORSDOF 0
ENDMDL
