MODEL 1
REMARK minimizedAffinity 17.7652054
REMARK minimizedRMSD -1
REMARK  1 active torsions:
REMARK  status: ('A' for Active; 'I' for Inactive)
REMARK    1  A    between atoms: N_2  and  C1_3 
ROOT
ATOM      1  C1  UNL d   1       4.859   3.308   4.865  0.00  0.00     0.143 A 
ATOM      2  C2  UNL d   1       5.722   4.343   5.239  0.00  0.00    -0.057 A 
ATOM      3  C3  UNL d   1       5.234   5.523   5.815  0.00  0.00     0.033 A 
ATOM      4  C4  UNL d   1       3.867   5.700   5.999  0.00  0.00    -0.042 A 
ATOM      5  C5  UNL d   1       2.989   4.694   5.611  0.00  0.00     0.033 A 
ATOM      6  C6  UNL d   1       3.483   3.516   5.043  0.00  0.00    -0.057 A 
ENDROOT
BRANCH   1   7
ATOM      7  N   UNL d   1       5.274   2.153   4.198  0.00  0.00    -0.732 N 
ATOM      8  C   UNL d   1       4.895   1.920   2.821  0.00  0.00     0.284 C 
ATOM      9  H3  UNL d   1       6.238   1.906   4.411  0.00  0.00     0.395 HD
ENDBRANCH   1   7
TORSDOF 1
ENDMDL
