MODEL 1
REMARK minimizedAffinity 10.1954746
REMARK minimizedRMSD -1
REMARK  1 active torsions:
REMARK  status: ('A' for Active; 'I' for Inactive)
REMARK    1  A    between atoms: N_2  and  C1_3 
ROOT
ATOM      1  C1  UNL d   1      -4.179   4.252   1.126  0.00  0.00     0.143 A 
ATOM      2  C2  UNL d   1      -4.276   4.210  -0.269  0.00  0.00    -0.057 A 
ATOM      3  C3  UNL d   1      -5.166   5.040  -0.961  0.00  0.00     0.033 A 
ATOM      4  C4  UNL d   1      -6.000   5.909  -0.264  0.00  0.00    -0.042 A 
ATOM      5  C5  UNL d   1      -5.939   5.950   1.124  0.00  0.00     0.033 A 
ATOM      6  C6  UNL d   1      -5.042   5.123   1.808  0.00  0.00    -0.057 A 
ENDROOT
BRANCH   1   7
ATOM      7  N   UNL d   1      -3.384   3.383   1.877  0.00  0.00    -0.732 N 
ATOM      8  C   UNL d   1      -3.756   3.028   3.230  0.00  0.00     0.284 C 
ATOM      9  H3  UNL d   1      -3.031   2.604   1.325  0.00  0.00     0.395 HD
ENDBRANCH   1   7
TORSDOF 1
ENDMDL
