MODEL 1
REMARK minimizedAffinity 1.43202448
REMARK minimizedRMSD -1
REMARK  1 active torsions:
REMARK  status: ('A' for Active; 'I' for Inactive)
REMARK    1  A    between atoms: N_2  and  C1_3 
ROOT
ATOM      1  C1  UNL d   1      -1.555  -3.241   1.964  0.00  0.00     0.143 A 
ATOM      2  C2  UNL d   1      -1.716  -2.121   1.141  0.00  0.00    -0.057 A 
ATOM      3  C3  UNL d   1      -1.262  -2.123  -0.184  0.00  0.00     0.033 A 
ATOM      4  C4  UNL d   1      -0.610  -3.238  -0.701  0.00  0.00    -0.042 A 
ATOM      5  C5  UNL d   1      -0.417  -4.353   0.108  0.00  0.00     0.033 A 
ATOM      6  C6  UNL d   1      -0.878  -4.347   1.428  0.00  0.00    -0.057 A 
ENDROOT
BRANCH   1   7
ATOM      7  N   UNL d   1      -1.896  -3.265   3.319  0.00  0.00    -0.732 N 
ATOM      8  C   UNL d   1      -1.866  -2.053   4.109  0.00  0.00     0.284 C 
ATOM      9  H3  UNL d   1      -2.697  -3.864   3.507  0.00  0.00     0.395 HD
ENDBRANCH   1   7
TORSDOF 1
ENDMDL
