MODEL 1
REMARK minimizedAffinity 4.65777588
REMARK minimizedRMSD -1
REMARK  1 active torsions:
REMARK  status: ('A' for Active; 'I' for Inactive)
REMARK    1  A    between atoms: N_2  and  C1_3 
ROOT
ATOM      1  C1  UNL d   1      -4.247   3.445  -5.204  0.00  0.00     0.143 A 
ATOM      2  C2  UNL d   1      -5.407   3.676  -5.951  0.00  0.00    -0.057 A 
ATOM      3  C3  UNL d   1      -6.000   4.944  -6.000  0.00  0.00     0.033 A 
ATOM      4  C4  UNL d   1      -5.457   6.000  -5.276  0.00  0.00    -0.042 A 
ATOM      5  C5  UNL d   1      -4.318   5.787  -4.506  0.00  0.00     0.033 A 
ATOM      6  C6  UNL d   1      -3.727   4.521  -4.467  0.00  0.00    -0.057 A 
ENDROOT
BRANCH   1   7
ATOM      7  N   UNL d   1      -3.667   2.185  -5.037  0.00  0.00    -0.732 N 
ATOM      8  C   UNL d   1      -2.689   1.956  -3.995  0.00  0.00     0.284 C 
ATOM      9  H3  UNL d   1      -4.340   1.430  -5.149  0.00  0.00     0.395 HD
ENDBRANCH   1   7
TORSDOF 1
ENDMDL
