MODEL 1
REMARK minimizedAffinity -1.91818941
REMARK minimizedRMSD -1
REMARK  1 active torsions:
REMARK  status: ('A' for Active; 'I' for Inactive)
REMARK    1  A    between atoms: N_2  and  C1_3 
ROOT
ATOM      1  C1  UNL d   1      -2.865  -0.418   5.750  0.00  0.00     0.143 A 
ATOM      2  C2  UNL d   1      -2.635   0.962   5.727  0.00  0.00    -0.057 A 
ATOM      3  C3  UNL d   1      -3.686   1.876   5.865  0.00  0.00     0.033 A 
ATOM      4  C4  UNL d   1      -4.995   1.425   5.999  0.00  0.00    -0.042 A 
ATOM      5  C5  UNL d   1      -5.250   0.058   6.000  0.00  0.00     0.033 A 
ATOM      6  C6  UNL d   1      -4.195  -0.850   5.868  0.00  0.00    -0.057 A 
ENDROOT
BRANCH   1   7
ATOM      7  N   UNL d   1      -1.874  -1.375   5.519  0.00  0.00    -0.732 N 
ATOM      8  C   UNL d   1      -2.199  -2.632   4.878  0.00  0.00     0.284 C 
ATOM      9  H3  UNL d   1      -1.000  -0.962   5.203  0.00  0.00     0.395 HD
ENDBRANCH   1   7
TORSDOF 1
ENDMDL
