MODEL 1
REMARK minimizedAffinity 10.1166811
REMARK minimizedRMSD -1
REMARK  1 active torsions:
REMARK  status: ('A' for Active; 'I' for Inactive)
REMARK    1  A    between atoms: N_2  and  C1_3 
ROOT
ATOM      1  C1  UNL d   1       3.503   2.659  -0.779  0.00  0.00     0.143 A 
ATOM      2  C2  UNL d   1       3.826   2.465  -2.127  0.00  0.00    -0.057 A 
ATOM      3  C3  UNL d   1       3.362   1.348  -2.831  0.00  0.00     0.033 A 
ATOM      4  C4  UNL d   1       2.588   0.386  -2.190  0.00  0.00    -0.042 A 
ATOM      5  C5  UNL d   1       2.275   0.545  -0.844  0.00  0.00     0.033 A 
ATOM      6  C6  UNL d   1       2.736   1.667  -0.148  0.00  0.00    -0.057 A 
ENDROOT
BRANCH   1   7
ATOM      7  N   UNL d   1       4.015   3.698   0.002  0.00  0.00    -0.732 N 
ATOM      8  C   UNL d   1       5.196   4.422  -0.418  0.00  0.00     0.284 C 
ATOM      9  H3  UNL d   1       3.284   4.287   0.393  0.00  0.00     0.395 HD
ENDBRANCH   1   7
TORSDOF 1
ENDMDL
