MODEL 1
REMARK minimizedAffinity 3.86388445
REMARK minimizedRMSD -1
REMARK  1 active torsions:
REMARK  status: ('A' for Active; 'I' for Inactive)
REMARK    1  A    between atoms: N_2  and  C1_3 
ROOT
ATOM      1  C1  UNL d   1      -3.511   0.021   5.835  0.00  0.00     0.143 A 
ATOM      2  C2  UNL d   1      -4.773  -0.575   5.932  0.00  0.00    -0.057 A 
ATOM      3  C3  UNL d   1      -5.938   0.199   5.999  0.00  0.00     0.033 A 
ATOM      4  C4  UNL d   1      -5.859   1.587   6.000  0.00  0.00    -0.042 A 
ATOM      5  C5  UNL d   1      -4.613   2.201   5.929  0.00  0.00     0.033 A 
ATOM      6  C6  UNL d   1      -3.454   1.423   5.856  0.00  0.00    -0.057 A 
ENDROOT
BRANCH   1   7
ATOM      7  N   UNL d   1      -2.310  -0.692   5.864  0.00  0.00    -0.732 N 
ATOM      8  C   UNL d   1      -2.027  -1.701   4.867  0.00  0.00     0.284 C 
ATOM      9  H3  UNL d   1      -1.514  -0.102   6.096  0.00  0.00     0.395 HD
ENDBRANCH   1   7
TORSDOF 1
ENDMDL
