MODEL 1
REMARK minimizedAffinity 12.7333403
REMARK minimizedRMSD -1
REMARK  1 active torsions:
REMARK  status: ('A' for Active; 'I' for Inactive)
REMARK    1  A    between atoms: N_2  and  C1_3 
ROOT
ATOM      1  C1  UNL d   1       4.808   3.570   3.365  0.00  0.00     0.143 A 
ATOM      2  C2  UNL d   1       3.636   3.618   4.127  0.00  0.00    -0.057 A 
ATOM      3  C3  UNL d   1       3.636   4.139   5.427  0.00  0.00     0.033 A 
ATOM      4  C4  UNL d   1       4.818   4.597   5.999  0.00  0.00    -0.042 A 
ATOM      5  C5  UNL d   1       5.999   4.536   5.270  0.00  0.00     0.033 A 
ATOM      6  C6  UNL d   1       5.992   4.021   3.970  0.00  0.00    -0.057 A 
ENDROOT
BRANCH   1   7
ATOM      7  N   UNL d   1       4.893   2.974   2.105  0.00  0.00    -0.732 N 
ATOM      8  C   UNL d   1       4.135   3.497   0.989  0.00  0.00     0.284 C 
ATOM      9  H3  UNL d   1       5.843   2.697   1.869  0.00  0.00     0.395 HD
ENDBRANCH   1   7
TORSDOF 1
ENDMDL
