MODEL 1
REMARK minimizedAffinity 4.26075506
REMARK minimizedRMSD -1
REMARK  1 active torsions:
REMARK  status: ('A' for Active; 'I' for Inactive)
REMARK    1  A    between atoms: N_2  and  C1_3 
ROOT
ATOM      1  C1  UNL d   1       4.854   3.341  -0.800  0.00  0.00     0.143 A 
ATOM      2  C2  UNL d   1       3.664   2.644  -1.034  0.00  0.00    -0.057 A 
ATOM      3  C3  UNL d   1       3.625   1.541  -1.895  0.00  0.00     0.033 A 
ATOM      4  C4  UNL d   1       4.775   1.131  -2.562  0.00  0.00    -0.042 A 
ATOM      5  C5  UNL d   1       5.964   1.824  -2.364  0.00  0.00     0.033 A 
ATOM      6  C6  UNL d   1       5.998   2.921  -1.498  0.00  0.00    -0.057 A 
ENDROOT
BRANCH   1   7
ATOM      7  N   UNL d   1       4.937   4.505  -0.033  0.00  0.00    -0.732 N 
ATOM      8  C   UNL d   1       5.682   5.651  -0.508  0.00  0.00     0.284 C 
ATOM      9  H3  UNL d   1       4.052   4.741   0.412  0.00  0.00     0.395 HD
ENDBRANCH   1   7
TORSDOF 1
ENDMDL
