MODEL 1
REMARK minimizedAffinity 3.09344554
REMARK minimizedRMSD -1
REMARK  1 active torsions:
REMARK  status: ('A' for Active; 'I' for Inactive)
REMARK    1  A    between atoms: N_2  and  C1_3 
ROOT
ATOM      1  C1  UNL d   1      -3.074  -1.619   1.118  0.00  0.00     0.143 A 
ATOM      2  C2  UNL d   1      -2.790  -1.958   2.445  0.00  0.00    -0.057 A 
ATOM      3  C3  UNL d   1      -1.682  -2.750   2.772  0.00  0.00     0.033 A 
ATOM      4  C4  UNL d   1      -0.852  -3.242   1.770  0.00  0.00    -0.042 A 
ATOM      5  C5  UNL d   1      -1.129  -2.938   0.442  0.00  0.00     0.033 A 
ATOM      6  C6  UNL d   1      -2.233  -2.142   0.123  0.00  0.00    -0.057 A 
ENDROOT
BRANCH   1   7
ATOM      7  N   UNL d   1      -4.215  -0.918   0.721  0.00  0.00    -0.732 N 
ATOM      8  C   UNL d   1      -4.100   0.346   0.027  0.00  0.00     0.284 C 
ATOM      9  H3  UNL d   1      -4.938  -1.531   0.350  0.00  0.00     0.395 HD
ENDBRANCH   1   7
TORSDOF 1
ENDMDL
