MODEL 1
REMARK minimizedAffinity 2.21706653
REMARK minimizedRMSD -1
REMARK  0 active torsions:
REMARK  status: ('A' for Active; 'I' for Inactive)
ROOT
ATOM      1  C   UNL d   1      -1.165  -0.178   1.876  0.00  0.00     0.023 A 
ATOM      2  C1  UNL d   1      -0.742  -1.087   2.846  0.00  0.00     0.003 A 
ATOM      3  C2  UNL d   1       0.247  -2.025   2.543  0.00  0.00     0.048 A 
ATOM      4  C3  UNL d   1       0.810  -2.048   1.268  0.00  0.00     0.023 A 
ATOM      5  C4  UNL d   1       0.391  -1.140   0.294  0.00  0.00     0.048 A 
ATOM      6  C5  UNL d   1      -0.598  -0.204   0.601  0.00  0.00     0.003 A 
ATOM      7  I   UNL d   1       2.282  -3.443   0.814  0.00  0.00    -0.146 I 
ENDROOT
TORSDOF 0
ENDMDL
