MODEL 1
REMARK minimizedAffinity 12.6487684
REMARK minimizedRMSD -1
REMARK  0 active torsions:
REMARK  status: ('A' for Active; 'I' for Inactive)
ROOT
ATOM      1  C   UNL d   1       0.820   4.220  -5.999  0.00  0.00     0.023 A 
ATOM      2  C1  UNL d   1       0.343   5.153  -5.079  0.00  0.00     0.003 A 
ATOM      3  C2  UNL d   1      -0.640   4.787  -4.157  0.00  0.00     0.048 A 
ATOM      4  C3  UNL d   1      -1.141   3.486  -4.161  0.00  0.00     0.023 A 
ATOM      5  C4  UNL d   1      -0.666   2.549  -5.080  0.00  0.00     0.048 A 
ATOM      6  C5  UNL d   1       0.316   2.920  -6.000  0.00  0.00     0.003 A 
ATOM      7  I   UNL d   1      -2.605   2.939  -2.791  0.00  0.00    -0.146 I 
ENDROOT
TORSDOF 0
ENDMDL
