MODEL 1
REMARK minimizedAffinity 0.13407816
REMARK minimizedRMSD -1
REMARK  0 active torsions:
REMARK  status: ('A' for Active; 'I' for Inactive)
ROOT
ATOM      1  C   UNL d   1      -2.377  -0.237  -0.270  0.00  0.00     0.023 A 
ATOM      2  C1  UNL d   1      -1.693  -0.326   0.942  0.00  0.00     0.003 A 
ATOM      3  C2  UNL d   1      -0.296  -0.327   0.958  0.00  0.00     0.048 A 
ATOM      4  C3  UNL d   1       0.409  -0.238  -0.241  0.00  0.00     0.023 A 
ATOM      5  C4  UNL d   1      -0.272  -0.148  -1.457  0.00  0.00     0.048 A 
ATOM      6  C5  UNL d   1      -1.668  -0.148  -1.468  0.00  0.00     0.003 A 
ATOM      7  I   UNL d   1       2.487  -0.239  -0.220  0.00  0.00    -0.146 I 
ENDROOT
TORSDOF 0
ENDMDL
