MODEL 1
REMARK minimizedAffinity 3.84103513
REMARK minimizedRMSD -1
REMARK  0 active torsions:
REMARK  status: ('A' for Active; 'I' for Inactive)
ROOT
ATOM      1  C   UNL d   1       4.444   5.990   1.694  0.00  0.00     0.023 A 
ATOM      2  C1  UNL d   1       5.138   5.995   2.904  0.00  0.00     0.003 A 
ATOM      3  C2  UNL d   1       4.437   5.998   4.112  0.00  0.00     0.048 A 
ATOM      4  C3  UNL d   1       3.043   5.995   4.103  0.00  0.00     0.023 A 
ATOM      5  C4  UNL d   1       2.344   5.989   2.894  0.00  0.00     0.048 A 
ATOM      6  C5  UNL d   1       3.049   5.987   1.689  0.00  0.00     0.003 A 
ATOM      7  I   UNL d   1       1.998   5.999   5.899  0.00  0.00    -0.146 I 
ENDROOT
TORSDOF 0
ENDMDL
