MODEL 1
REMARK minimizedAffinity 1.21538603
REMARK minimizedRMSD -1
REMARK  0 active torsions:
REMARK  status: ('A' for Active; 'I' for Inactive)
ROOT
ATOM      1  C   UNL d   1      -0.090  -2.798   3.153  0.00  0.00     0.023 A 
ATOM      2  C1  UNL d   1      -0.438  -1.472   2.893  0.00  0.00     0.003 A 
ATOM      3  C2  UNL d   1       0.113  -0.806   1.796  0.00  0.00     0.048 A 
ATOM      4  C3  UNL d   1       1.011  -1.473   0.963  0.00  0.00     0.023 A 
ATOM      5  C4  UNL d   1       1.362  -2.799   1.219  0.00  0.00     0.048 A 
ATOM      6  C5  UNL d   1       0.809  -3.460   2.317  0.00  0.00     0.003 A 
ATOM      7  I   UNL d   1       1.832  -0.484  -0.670  0.00  0.00    -0.146 I 
ENDROOT
TORSDOF 0
ENDMDL
