MODEL 1
REMARK minimizedAffinity -3.32470536
REMARK minimizedRMSD -1
REMARK  0 active torsions:
REMARK  status: ('A' for Active; 'I' for Inactive)
ROOT
ATOM      1  C   UNL d   1      -0.207  -0.267   1.167  0.00  0.00     0.023 A 
ATOM      2  C1  UNL d   1       0.638  -0.531   0.089  0.00  0.00     0.003 A 
ATOM      3  C2  UNL d   1       1.450  -1.667   0.098  0.00  0.00     0.048 A 
ATOM      4  C3  UNL d   1       1.411  -2.536   1.188  0.00  0.00     0.023 A 
ATOM      5  C4  UNL d   1       0.566  -2.277   2.268  0.00  0.00     0.048 A 
ATOM      6  C5  UNL d   1      -0.243  -1.139   2.255  0.00  0.00     0.003 A 
ATOM      7  I   UNL d   1       2.618  -4.227   1.203  0.00  0.00    -0.146 I 
ENDROOT
TORSDOF 0
ENDMDL
