MODEL 1
REMARK minimizedAffinity -1.25227237
REMARK minimizedRMSD -1
REMARK  0 active torsions:
REMARK  status: ('A' for Active; 'I' for Inactive)
ROOT
ATOM      1  C1  BNZ d   1      -0.742   3.707   0.729  0.00  0.00     0.000 A 
ATOM      2  C2  BNZ d   1      -1.909   4.423   0.748  0.00  0.00     0.000 A 
ATOM      3  C3  BNZ d   1      -2.711   4.425   1.854  0.00  0.00     0.000 A 
ATOM      4  C4  BNZ d   1      -2.366   3.680   2.924  0.00  0.00     0.000 A 
ATOM      5  C5  BNZ d   1      -1.198   2.945   2.917  0.00  0.00     0.000 A 
ATOM      6  C6  BNZ d   1      -0.373   2.976   1.816  0.00  0.00     0.000 A 
ENDROOT
TORSDOF 0
ENDMDL
