MODEL 1
REMARK minimizedAffinity 0.0313981995
REMARK minimizedRMSD -1
REMARK  0 active torsions:
REMARK  status: ('A' for Active; 'I' for Inactive)
ROOT
ATOM      1  C1  BNZ d   1       4.421  -3.851  -3.429  0.00  0.00     0.000 A 
ATOM      2  C2  BNZ d   1       5.004  -2.929  -2.600  0.00  0.00     0.000 A 
ATOM      3  C3  BNZ d   1       5.299  -3.243  -1.303  0.00  0.00     0.000 A 
ATOM      4  C4  BNZ d   1       4.976  -4.462  -0.826  0.00  0.00     0.000 A 
ATOM      5  C5  BNZ d   1       4.380  -5.399  -1.646  0.00  0.00     0.000 A 
ATOM      6  C6  BNZ d   1       4.119  -5.093  -2.962  0.00  0.00     0.000 A 
ENDROOT
TORSDOF 0
ENDMDL
