MODEL 1
REMARK minimizedAffinity -2.73825407
REMARK minimizedRMSD -1
REMARK  0 active torsions:
REMARK  status: ('A' for Active; 'I' for Inactive)
ROOT
ATOM      1  C1  BNZ d   1      -3.641   2.541  -1.445  0.00  0.00     0.000 A 
ATOM      2  C2  BNZ d   1      -3.657   1.584  -0.465  0.00  0.00     0.000 A 
ATOM      3  C3  BNZ d   1      -4.838   1.133   0.055  0.00  0.00     0.000 A 
ATOM      4  C4  BNZ d   1      -5.999   1.667  -0.378  0.00  0.00     0.000 A 
ATOM      5  C5  BNZ d   1      -5.999   2.639  -1.358  0.00  0.00     0.000 A 
ATOM      6  C6  BNZ d   1      -4.810   3.062  -1.906  0.00  0.00     0.000 A 
ENDROOT
TORSDOF 0
ENDMDL
