MODEL 1
REMARK minimizedAffinity -1.63426423
REMARK minimizedRMSD -1
REMARK  0 active torsions:
REMARK  status: ('A' for Active; 'I' for Inactive)
ROOT
ATOM      1  C1  BNZ d   1      -5.990   2.557  -3.333  0.00  0.00     0.000 A 
ATOM      2  C2  BNZ d   1      -6.000   3.460  -4.363  0.00  0.00     0.000 A 
ATOM      3  C3  BNZ d   1      -5.984   4.804  -4.115  0.00  0.00     0.000 A 
ATOM      4  C4  BNZ d   1      -6.000   5.244  -2.840  0.00  0.00     0.000 A 
ATOM      5  C5  BNZ d   1      -6.000   4.346  -1.791  0.00  0.00     0.000 A 
ATOM      6  C6  BNZ d   1      -5.976   2.994  -2.044  0.00  0.00     0.000 A 
ENDROOT
TORSDOF 0
ENDMDL
