MODEL 1
REMARK minimizedAffinity -3.56960893
REMARK minimizedRMSD -1
REMARK  0 active torsions:
REMARK  status: ('A' for Active; 'I' for Inactive)
ROOT
ATOM      1  C1  BNZ d   1      -3.751   3.493  -4.885  0.00  0.00     0.000 A 
ATOM      2  C2  BNZ d   1      -4.172   3.043  -3.662  0.00  0.00     0.000 A 
ATOM      3  C3  BNZ d   1      -5.309   3.540  -3.087  0.00  0.00     0.000 A 
ATOM      4  C4  BNZ d   1      -6.000   4.512  -3.716  0.00  0.00     0.000 A 
ATOM      5  C5  BNZ d   1      -5.583   4.982  -4.946  0.00  0.00     0.000 A 
ATOM      6  C6  BNZ d   1      -4.461   4.453  -5.539  0.00  0.00     0.000 A 
ENDROOT
TORSDOF 0
ENDMDL
