MODEL 1
REMARK minimizedAffinity -0.345590442
REMARK minimizedRMSD -1
REMARK  0 active torsions:
REMARK  status: ('A' for Active; 'I' for Inactive)
ROOT
ATOM      1  C1  BNZ d   1      -5.995   3.794  -4.032  0.00  0.00     0.000 A 
ATOM      2  C2  BNZ d   1      -5.996   4.034  -5.380  0.00  0.00     0.000 A 
ATOM      3  C3  BNZ d   1      -4.922   4.625  -5.986  0.00  0.00     0.000 A 
ATOM      4  C4  BNZ d   1      -3.868   5.011  -5.238  0.00  0.00     0.000 A 
ATOM      5  C5  BNZ d   1      -3.857   4.784  -3.877  0.00  0.00     0.000 A 
ATOM      6  C6  BNZ d   1      -4.922   4.154  -3.276  0.00  0.00     0.000 A 
ENDROOT
TORSDOF 0
ENDMDL
