MODEL 1
REMARK minimizedAffinity 6.13996601
REMARK minimizedRMSD -1
REMARK  0 active torsions:
REMARK  status: ('A' for Active; 'I' for Inactive)
ROOT
ATOM      1  C1  BNZ d   1      -1.898   5.777   0.983  0.00  0.00     0.000 A 
ATOM      2  C2  BNZ d   1      -3.172   6.000   1.433  0.00  0.00     0.000 A 
ATOM      3  C3  BNZ d   1      -4.230   5.999   0.569  0.00  0.00     0.000 A 
ATOM      4  C4  BNZ d   1      -4.010   5.816  -0.749  0.00  0.00     0.000 A 
ATOM      5  C5  BNZ d   1      -2.730   5.600  -1.221  0.00  0.00     0.000 A 
ATOM      6  C6  BNZ d   1      -1.672   5.562  -0.342  0.00  0.00     0.000 A 
ENDROOT
TORSDOF 0
ENDMDL
