MODEL 1
REMARK minimizedAffinity -2.29667234
REMARK minimizedRMSD -1
REMARK  0 active torsions:
REMARK  status: ('A' for Active; 'I' for Inactive)
ROOT
ATOM      1  C1  BNZ d   1      -0.261  -3.629  -2.901  0.00  0.00     0.000 A 
ATOM      2  C2  BNZ d   1      -0.314  -2.309  -3.259  0.00  0.00     0.000 A 
ATOM      3  C3  BNZ d   1       0.100  -1.332  -2.396  0.00  0.00     0.000 A 
ATOM      4  C4  BNZ d   1       0.527  -1.674  -1.164  0.00  0.00     0.000 A 
ATOM      5  C5  BNZ d   1       0.578  -3.000  -0.784  0.00  0.00     0.000 A 
ATOM      6  C6  BNZ d   1       0.198  -3.983  -1.669  0.00  0.00     0.000 A 
ENDROOT
TORSDOF 0
ENDMDL
