MODEL 1
REMARK minimizedAffinity -3.66632056
REMARK minimizedRMSD -1
REMARK  0 active torsions:
REMARK  status: ('A' for Active; 'I' for Inactive)
ROOT
ATOM      1  C1  BNZ d   1      -4.873   4.115  -5.099  0.00  0.00     0.000 A 
ATOM      2  C2  BNZ d   1      -4.125   2.981  -5.277  0.00  0.00     0.000 A 
ATOM      3  C3  BNZ d   1      -4.326   1.880  -4.492  0.00  0.00     0.000 A 
ATOM      4  C4  BNZ d   1      -5.245   1.928  -3.506  0.00  0.00     0.000 A 
ATOM      5  C5  BNZ d   1      -6.000   3.067  -3.308  0.00  0.00     0.000 A 
ATOM      6  C6  BNZ d   1      -5.822   4.160  -4.125  0.00  0.00     0.000 A 
ENDROOT
TORSDOF 0
ENDMDL
