MODEL 1
REMARK minimizedAffinity -3.87212682
REMARK minimizedRMSD -1
REMARK  0 active torsions:
REMARK  status: ('A' for Active; 'I' for Inactive)
ROOT
ATOM      1  C   UNL d   1       0.010   0.382   0.351  0.00  0.00     0.077 C 
ATOM      2  C1  UNL d   1      -0.757   0.740  -0.887  0.00  0.00    -0.074 A 
ATOM      3  C2  UNL d   1      -0.909   2.074  -1.277  0.00  0.00    -0.005 A 
ATOM      4  C3  UNL d   1      -1.617   2.391  -2.437  0.00  0.00     0.006 A 
ATOM      5  C4  UNL d   1      -2.179   1.379  -3.216  0.00  0.00    -0.005 A 
ATOM      6  C5  UNL d   1      -2.035   0.039  -2.842  0.00  0.00    -0.074 A 
ATOM      7  C6  UNL d   1      -2.624  -1.062  -3.673  0.00  0.00     0.077 C 
ATOM      8  C7  UNL d   1      -1.317  -0.272  -1.679  0.00  0.00    -0.001 A 
ENDROOT
TORSDOF 0
ENDMDL
