MODEL 1
REMARK minimizedAffinity -4.96425295
REMARK minimizedRMSD -1
REMARK  0 active torsions:
REMARK  status: ('A' for Active; 'I' for Inactive)
ROOT
ATOM      1  C   UNL d   1      -0.666   0.782  -0.987  0.00  0.00     0.077 C 
ATOM      2  C1  UNL d   1       0.237  -0.192  -0.290  0.00  0.00    -0.074 A 
ATOM      3  C2  UNL d   1       1.518  -0.463  -0.781  0.00  0.00    -0.005 A 
ATOM      4  C3  UNL d   1       2.350  -1.364  -0.117  0.00  0.00     0.006 A 
ATOM      5  C4  UNL d   1       1.910  -2.003   1.043  0.00  0.00    -0.005 A 
ATOM      6  C5  UNL d   1       0.632  -1.744   1.549  0.00  0.00    -0.074 A 
ATOM      7  C6  UNL d   1       0.147  -2.415   2.800  0.00  0.00     0.077 C 
ATOM      8  C7  UNL d   1      -0.195  -0.832   0.880  0.00  0.00    -0.001 A 
ENDROOT
TORSDOF 0
ENDMDL
