MODEL 1
REMARK minimizedAffinity -5.01202393
REMARK minimizedRMSD -1
REMARK  0 active torsions:
REMARK  status: ('A' for Active; 'I' for Inactive)
ROOT
ATOM      1  C   UNL d   1      -0.738   1.175  -0.200  0.00  0.00     0.077 C 
ATOM      2  C1  UNL d   1       0.175   0.009   0.032  0.00  0.00    -0.074 A 
ATOM      3  C2  UNL d   1       1.229  -0.265  -0.846  0.00  0.00    -0.005 A 
ATOM      4  C3  UNL d   1       2.076  -1.348  -0.612  0.00  0.00     0.006 A 
ATOM      5  C4  UNL d   1       1.879  -2.167   0.501  0.00  0.00    -0.005 A 
ATOM      6  C5  UNL d   1       0.831  -1.908   1.390  0.00  0.00    -0.074 A 
ATOM      7  C6  UNL d   1       0.611  -2.773   2.596  0.00  0.00     0.077 C 
ATOM      8  C7  UNL d   1      -0.012  -0.814   1.152  0.00  0.00    -0.001 A 
ENDROOT
TORSDOF 0
ENDMDL
