MODEL 1
REMARK minimizedAffinity -2.05085444
REMARK minimizedRMSD -1
REMARK  0 active torsions:
REMARK  status: ('A' for Active; 'I' for Inactive)
ROOT
ATOM      1  C   UNL d   1       1.760  -3.336   1.867  0.00  0.00     0.077 C 
ATOM      2  C1  UNL d   1       1.619  -2.201   0.896  0.00  0.00    -0.074 A 
ATOM      3  C2  UNL d   1       2.744  -1.623   0.298  0.00  0.00    -0.005 A 
ATOM      4  C3  UNL d   1       2.596  -0.575  -0.610  0.00  0.00     0.006 A 
ATOM      5  C4  UNL d   1       1.325  -0.095  -0.929  0.00  0.00    -0.005 A 
ATOM      6  C5  UNL d   1       0.190  -0.661  -0.341  0.00  0.00    -0.074 A 
ATOM      7  C6  UNL d   1      -1.184  -0.163  -0.681  0.00  0.00     0.077 C 
ATOM      8  C7  UNL d   1       0.345  -1.719   0.565  0.00  0.00    -0.001 A 
ENDROOT
TORSDOF 0
ENDMDL
