MODEL 1
REMARK minimizedAffinity -5.32401609
REMARK minimizedRMSD -1
REMARK  0 active torsions:
REMARK  status: ('A' for Active; 'I' for Inactive)
ROOT
ATOM      1  C   UNL d   1       0.944   0.388  -0.760  0.00  0.00     0.077 C 
ATOM      2  C1  UNL d   1       0.841  -0.691   0.278  0.00  0.00    -0.074 A 
ATOM      3  C2  UNL d   1       1.838  -1.664   0.404  0.00  0.00    -0.005 A 
ATOM      4  C3  UNL d   1       1.733  -2.655   1.380  0.00  0.00     0.006 A 
ATOM      5  C4  UNL d   1       0.633  -2.683   2.237  0.00  0.00    -0.005 A 
ATOM      6  C5  UNL d   1      -0.373  -1.718   2.126  0.00  0.00    -0.074 A 
ATOM      7  C6  UNL d   1      -1.558  -1.728   3.047  0.00  0.00     0.077 C 
ATOM      8  C7  UNL d   1      -0.257  -0.721   1.148  0.00  0.00    -0.001 A 
ENDROOT
TORSDOF 0
ENDMDL
