MODEL 1
REMARK minimizedAffinity -1.37193215
REMARK minimizedRMSD -1
REMARK  0 active torsions:
REMARK  status: ('A' for Active; 'I' for Inactive)
ROOT
ATOM      1  C   UNL d   1      -0.722  -0.588  -1.040  0.00  0.00     0.077 C 
ATOM      2  C1  UNL d   1      -1.432   0.208  -2.094  0.00  0.00    -0.074 A 
ATOM      3  C2  UNL d   1      -2.715  -0.149  -2.523  0.00  0.00    -0.005 A 
ATOM      4  C3  UNL d   1      -3.367   0.607  -3.497  0.00  0.00     0.006 A 
ATOM      5  C4  UNL d   1      -2.744   1.726  -4.052  0.00  0.00    -0.005 A 
ATOM      6  C5  UNL d   1      -1.462   2.099  -3.635  0.00  0.00    -0.074 A 
ATOM      7  C6  UNL d   1      -0.782   3.304  -4.214  0.00  0.00     0.077 C 
ATOM      8  C7  UNL d   1      -0.816   1.338  -2.650  0.00  0.00    -0.001 A 
ENDROOT
TORSDOF 0
ENDMDL
