MODEL 1
REMARK minimizedAffinity -2.77264547
REMARK minimizedRMSD -1
REMARK  0 active torsions:
REMARK  status: ('A' for Active; 'I' for Inactive)
ROOT
ATOM      1  C   UNL d   1       1.071  -3.809   2.380  0.00  0.00     0.077 C 
ATOM      2  C1  UNL d   1       1.335  -2.562   1.590  0.00  0.00    -0.074 A 
ATOM      3  C2  UNL d   1       2.614  -2.279   1.099  0.00  0.00    -0.005 A 
ATOM      4  C3  UNL d   1       2.842  -1.120   0.358  0.00  0.00     0.006 A 
ATOM      5  C4  UNL d   1       1.796  -0.233   0.100  0.00  0.00    -0.005 A 
ATOM      6  C5  UNL d   1       0.510  -0.500   0.581  0.00  0.00    -0.074 A 
ATOM      7  C6  UNL d   1      -0.628   0.437   0.304  0.00  0.00     0.077 C 
ATOM      8  C7  UNL d   1       0.287  -1.671   1.319  0.00  0.00    -0.001 A 
ENDROOT
TORSDOF 0
ENDMDL
