MODEL 1
REMARK minimizedAffinity -4.2507143
REMARK minimizedRMSD -1
REMARK  0 active torsions:
REMARK  status: ('A' for Active; 'I' for Inactive)
ROOT
ATOM      1  C   UNL d   1      -2.049   0.675   2.190  0.00  0.00     0.077 C 
ATOM      2  C1  UNL d   1      -0.859   0.230   1.393  0.00  0.00    -0.074 A 
ATOM      3  C2  UNL d   1      -0.216   1.105   0.512  0.00  0.00    -0.005 A 
ATOM      4  C3  UNL d   1       0.896   0.680  -0.216  0.00  0.00     0.006 A 
ATOM      5  C4  UNL d   1       1.375  -0.622  -0.070  0.00  0.00    -0.005 A 
ATOM      6  C5  UNL d   1       0.745  -1.511   0.806  0.00  0.00    -0.074 A 
ATOM      7  C6  UNL d   1       1.253  -2.912   0.982  0.00  0.00     0.077 C 
ATOM      8  C7  UNL d   1      -0.367  -1.075   1.539  0.00  0.00    -0.001 A 
ENDROOT
TORSDOF 0
ENDMDL
