MODEL 1
REMARK minimizedAffinity -5.4113946
REMARK minimizedRMSD -1
REMARK  0 active torsions:
REMARK  status: ('A' for Active; 'I' for Inactive)
ROOT
ATOM      1  C   UNL d   1       2.156  -2.719   0.757  0.00  0.00     0.077 C 
ATOM      2  C1  UNL d   1       0.964  -1.843   0.999  0.00  0.00    -0.074 A 
ATOM      3  C2  UNL d   1       0.117  -2.066   2.090  0.00  0.00    -0.005 A 
ATOM      4  C3  UNL d   1      -0.983  -1.237   2.309  0.00  0.00     0.006 A 
ATOM      5  C4  UNL d   1      -1.248  -0.178   1.440  0.00  0.00    -0.005 A 
ATOM      6  C5  UNL d   1      -0.412   0.061   0.344  0.00  0.00    -0.074 A 
ATOM      7  C6  UNL d   1      -0.677   1.202  -0.594  0.00  0.00     0.077 C 
ATOM      8  C7  UNL d   1       0.695  -0.772   0.135  0.00  0.00    -0.001 A 
ENDROOT
TORSDOF 0
ENDMDL
