MODEL 1
REMARK minimizedAffinity -1.84083378
REMARK minimizedRMSD -1
REMARK  0 active torsions:
REMARK  status: ('A' for Active; 'I' for Inactive)
ROOT
ATOM      1  C   UNL d   1      -2.527   0.971  -3.826  0.00  0.00     0.077 C 
ATOM      2  C1  UNL d   1      -1.845   1.138  -2.500  0.00  0.00    -0.074 A 
ATOM      3  C2  UNL d   1      -2.187   2.189  -1.644  0.00  0.00    -0.005 A 
ATOM      4  C3  UNL d   1      -1.551   2.326  -0.410  0.00  0.00     0.006 A 
ATOM      5  C4  UNL d   1      -0.568   1.414  -0.021  0.00  0.00    -0.005 A 
ATOM      6  C5  UNL d   1      -0.215   0.356  -0.864  0.00  0.00    -0.074 A 
ATOM      7  C6  UNL d   1       0.832  -0.638  -0.457  0.00  0.00     0.077 C 
ATOM      8  C7  UNL d   1      -0.863   0.221  -2.099  0.00  0.00    -0.001 A 
ENDROOT
TORSDOF 0
ENDMDL
