MODEL 1
REMARK minimizedAffinity -2.47355032
REMARK minimizedRMSD -1
REMARK  0 active torsions:
REMARK  status: ('A' for Active; 'I' for Inactive)
ROOT
ATOM      1  C   UNL d   1      -2.490   0.293  -3.583  0.00  0.00     0.077 C 
ATOM      2  C1  UNL d   1      -1.740   0.541  -2.309  0.00  0.00    -0.074 A 
ATOM      3  C2  UNL d   1      -1.486   1.843  -1.866  0.00  0.00    -0.005 A 
ATOM      4  C3  UNL d   1      -0.795   2.058  -0.673  0.00  0.00     0.006 A 
ATOM      5  C4  UNL d   1      -0.352   0.975   0.087  0.00  0.00    -0.005 A 
ATOM      6  C5  UNL d   1      -0.598  -0.334  -0.339  0.00  0.00    -0.074 A 
ATOM      7  C6  UNL d   1      -0.138  -1.509   0.472  0.00  0.00     0.077 C 
ATOM      8  C7  UNL d   1      -1.299  -0.542  -1.535  0.00  0.00    -0.001 A 
ENDROOT
TORSDOF 0
ENDMDL
