MODEL 1
REMARK minimizedAffinity 18.8447075
REMARK minimizedRMSD -1
REMARK  2 active torsions:
REMARK  status: ('A' for Active; 'I' for Inactive)
REMARK    1  A    between atoms: C1_2  and  C2_3 
REMARK    2  A    between atoms: C2_3  and  C3_4 
ROOT
ATOM      1  C3  UNL d   1      -1.727  -0.690   0.153  0.00  0.00    -0.075 A 
ATOM      2  C4  UNL d   1      -1.463  -0.068   1.382  0.00  0.00     0.002 A 
ATOM      3  C5  UNL d   1      -2.479   0.096   2.325  0.00  0.00     0.002 A 
ATOM      4  C6  UNL d   1      -3.769  -0.350   2.048  0.00  0.00    -0.004 A 
ATOM      5  C7  UNL d   1      -4.046  -0.955   0.824  0.00  0.00     0.002 A 
ATOM      6  C8  UNL d   1      -3.031  -1.124  -0.120  0.00  0.00     0.002 A 
ENDROOT
BRANCH   1   7
ATOM      7  C2  UNL d   1      -0.626  -0.897  -0.860  0.00  0.00     0.056 C 
BRANCH   7   8
ATOM      8  C1  UNL d   1       0.189   0.365  -1.162  0.00  0.00     0.007 C 
ATOM      9  C   UNL d   1       1.606   0.067  -1.633  0.00  0.00     0.009 C 
ENDBRANCH   7   8
ENDBRANCH   1   7
TORSDOF 2
ENDMDL
