MODEL 1
REMARK minimizedAffinity 23.8649025
REMARK minimizedRMSD -1
REMARK  2 active torsions:
REMARK  status: ('A' for Active; 'I' for Inactive)
REMARK    1  A    between atoms: C1_2  and  C2_3 
REMARK    2  A    between atoms: C2_3  and  C3_4 
ROOT
ATOM      1  C3  UNL d   1       5.044  -2.171   4.853  0.00  0.00    -0.075 A 
ATOM      2  C4  UNL d   1       4.078  -2.095   3.839  0.00  0.00     0.002 A 
ATOM      3  C5  UNL d   1       4.083  -1.034   2.933  0.00  0.00     0.002 A 
ATOM      4  C6  UNL d   1       5.045  -0.031   3.036  0.00  0.00    -0.004 A 
ATOM      5  C7  UNL d   1       5.999  -0.087   4.049  0.00  0.00     0.002 A 
ATOM      6  C8  UNL d   1       5.999  -1.150   4.954  0.00  0.00     0.002 A 
ENDROOT
BRANCH   1   7
ATOM      7  C2  UNL d   1       5.063  -3.332   5.817  0.00  0.00     0.056 C 
BRANCH   7   8
ATOM      8  C1  UNL d   1       5.950  -4.499   5.372  0.00  0.00     0.007 C 
ATOM      9  C   UNL d   1       5.351  -5.864   5.686  0.00  0.00     0.009 C 
ENDBRANCH   7   8
ENDBRANCH   1   7
TORSDOF 2
ENDMDL
