MODEL 1
REMARK minimizedAffinity 10.6588783
REMARK minimizedRMSD -1
REMARK  2 active torsions:
REMARK  status: ('A' for Active; 'I' for Inactive)
REMARK    1  A    between atoms: C1_2  and  C2_3 
REMARK    2  A    between atoms: C2_3  and  C3_4 
ROOT
ATOM      1  C3  UNL d   1       1.093   4.693  -0.589  0.00  0.00    -0.075 A 
ATOM      2  C4  UNL d   1       0.193   3.767  -1.135  0.00  0.00     0.002 A 
ATOM      3  C5  UNL d   1      -1.184   3.964  -1.018  0.00  0.00     0.002 A 
ATOM      4  C6  UNL d   1      -1.676   5.081  -0.348  0.00  0.00    -0.004 A 
ATOM      5  C7  UNL d   1      -0.791   5.999   0.212  0.00  0.00     0.002 A 
ATOM      6  C8  UNL d   1       0.587   5.807   0.093  0.00  0.00     0.002 A 
ENDROOT
BRANCH   1   7
ATOM      7  C2  UNL d   1       2.584   4.501  -0.737  0.00  0.00     0.056 C 
BRANCH   7   8
ATOM      8  C1  UNL d   1       3.200   5.279  -1.904  0.00  0.00     0.007 C 
ATOM      9  C   UNL d   1       4.723   5.252  -1.907  0.00  0.00     0.009 C 
ENDBRANCH   7   8
ENDBRANCH   1   7
TORSDOF 2
ENDMDL
