MODEL 1
REMARK minimizedAffinity 19.0429554
REMARK minimizedRMSD -1
REMARK  2 active torsions:
REMARK  status: ('A' for Active; 'I' for Inactive)
REMARK    1  A    between atoms: C1_2  and  C2_3 
REMARK    2  A    between atoms: C2_3  and  C3_4 
ROOT
ATOM      1  C3  UNL d   1      -1.184  -0.988  -0.817  0.00  0.00    -0.075 A 
ATOM      2  C4  UNL d   1      -0.765  -2.179  -1.427  0.00  0.00     0.002 A 
ATOM      3  C5  UNL d   1       0.512  -2.280  -1.980  0.00  0.00     0.002 A 
ATOM      4  C6  UNL d   1       1.380  -1.190  -1.941  0.00  0.00    -0.004 A 
ATOM      5  C7  UNL d   1       0.967   0.003  -1.353  0.00  0.00     0.002 A 
ATOM      6  C8  UNL d   1      -0.308   0.106  -0.794  0.00  0.00     0.002 A 
ENDROOT
BRANCH   1   7
ATOM      7  C2  UNL d   1      -2.554  -0.882  -0.190  0.00  0.00     0.056 C 
BRANCH   7   8
ATOM      8  C1  UNL d   1      -2.635  -1.448   1.231  0.00  0.00     0.007 C 
ATOM      9  C   UNL d   1      -2.481  -0.385   2.311  0.00  0.00     0.009 C 
ENDBRANCH   7   8
ENDBRANCH   1   7
TORSDOF 2
ENDMDL
