MODEL 1
REMARK minimizedAffinity 19.6363716
REMARK minimizedRMSD -1
REMARK  2 active torsions:
REMARK  status: ('A' for Active; 'I' for Inactive)
REMARK    1  A    between atoms: C1_2  and  C2_3 
REMARK    2  A    between atoms: C2_3  and  C3_4 
ROOT
ATOM      1  C3  UNL d   1       3.154   1.048  -2.268  0.00  0.00    -0.075 A 
ATOM      2  C4  UNL d   1       1.963   0.377  -2.579  0.00  0.00     0.002 A 
ATOM      3  C5  UNL d   1       0.749   1.065  -2.608  0.00  0.00     0.002 A 
ATOM      4  C6  UNL d   1       0.709   2.426  -2.316  0.00  0.00    -0.004 A 
ATOM      5  C7  UNL d   1       1.884   3.099  -1.989  0.00  0.00     0.002 A 
ATOM      6  C8  UNL d   1       3.101   2.415  -1.964  0.00  0.00     0.002 A 
ENDROOT
BRANCH   1   7
ATOM      7  C2  UNL d   1       4.475   0.316  -2.264  0.00  0.00     0.056 C 
BRANCH   7   8
ATOM      8  C1  UNL d   1       5.662   1.170  -2.721  0.00  0.00     0.007 C 
ATOM      9  C   UNL d   1       6.000   0.988  -4.195  0.00  0.00     0.009 C 
ENDBRANCH   7   8
ENDBRANCH   1   7
TORSDOF 2
ENDMDL
