MODEL 1
REMARK minimizedAffinity -2.57208753
REMARK minimizedRMSD -1
REMARK  2 active torsions:
REMARK  status: ('A' for Active; 'I' for Inactive)
REMARK    1  A    between atoms: C1_2  and  C2_3 
REMARK    2  A    between atoms: C2_3  and  C3_4 
ROOT
ATOM      1  C3  UNL d   1       4.362   5.279   0.524  0.00  0.00    -0.075 A 
ATOM      2  C4  UNL d   1       3.001   5.243   0.187  0.00  0.00     0.002 A 
ATOM      3  C5  UNL d   1       2.581   5.570  -1.102  0.00  0.00     0.002 A 
ATOM      4  C6  UNL d   1       3.513   5.945  -2.067  0.00  0.00    -0.004 A 
ATOM      5  C7  UNL d   1       4.866   6.000  -1.740  0.00  0.00     0.002 A 
ATOM      6  C8  UNL d   1       5.290   5.670  -0.452  0.00  0.00     0.002 A 
ENDROOT
BRANCH   1   7
ATOM      7  C2  UNL d   1       4.826   4.899   1.909  0.00  0.00     0.056 C 
BRANCH   7   8
ATOM      8  C1  UNL d   1       5.612   6.000   2.628  0.00  0.00     0.007 C 
ATOM      9  C   UNL d   1       5.941   5.656   4.075  0.00  0.00     0.009 C 
ENDBRANCH   7   8
ENDBRANCH   1   7
TORSDOF 2
ENDMDL
