MODEL 1
REMARK minimizedAffinity 11.9625959
REMARK minimizedRMSD -1
REMARK  2 active torsions:
REMARK  status: ('A' for Active; 'I' for Inactive)
REMARK    1  A    between atoms: C1_2  and  C2_3 
REMARK    2  A    between atoms: C2_3  and  C3_4 
ROOT
ATOM      1  C3  UNL d   1      -4.295  -0.040   2.942  0.00  0.00    -0.075 A 
ATOM      2  C4  UNL d   1      -3.489   0.489   3.959  0.00  0.00     0.002 A 
ATOM      3  C5  UNL d   1      -3.930   0.493   5.283  0.00  0.00     0.002 A 
ATOM      4  C6  UNL d   1      -5.184  -0.023   5.604  0.00  0.00    -0.004 A 
ATOM      5  C7  UNL d   1      -6.000  -0.537   4.599  0.00  0.00     0.002 A 
ATOM      6  C8  UNL d   1      -5.560  -0.545   3.274  0.00  0.00     0.002 A 
ENDROOT
BRANCH   1   7
ATOM      7  C2  UNL d   1      -3.812  -0.074   1.511  0.00  0.00     0.056 C 
BRANCH   7   8
ATOM      8  C1  UNL d   1      -2.686  -1.081   1.257  0.00  0.00     0.007 C 
ATOM      9  C   UNL d   1      -2.534  -1.453  -0.212  0.00  0.00     0.009 C 
ENDBRANCH   7   8
ENDBRANCH   1   7
TORSDOF 2
ENDMDL
