MODEL 1
REMARK minimizedAffinity 19.289854
REMARK minimizedRMSD -1
REMARK  2 active torsions:
REMARK  status: ('A' for Active; 'I' for Inactive)
REMARK    1  A    between atoms: C1_2  and  C2_3 
REMARK    2  A    between atoms: C2_3  and  C3_4 
ROOT
ATOM      1  C3  UNL d   1      -4.137   0.958   4.586  0.00  0.00    -0.075 A 
ATOM      2  C4  UNL d   1      -4.269   0.325   5.831  0.00  0.00     0.002 A 
ATOM      3  C5  UNL d   1      -5.171  -0.726   5.999  0.00  0.00     0.002 A 
ATOM      4  C6  UNL d   1      -5.958  -1.151   4.930  0.00  0.00    -0.004 A 
ATOM      5  C7  UNL d   1      -5.847  -0.518   3.694  0.00  0.00     0.002 A 
ATOM      6  C8  UNL d   1      -4.942   0.531   3.522  0.00  0.00     0.002 A 
ENDROOT
BRANCH   1   7
ATOM      7  C2  UNL d   1      -3.142   2.076   4.390  0.00  0.00     0.056 C 
BRANCH   7   8
ATOM      8  C1  UNL d   1      -3.727   3.476   4.606  0.00  0.00     0.007 C 
ATOM      9  C   UNL d   1      -2.728   4.459   5.203  0.00  0.00     0.009 C 
ENDBRANCH   7   8
ENDBRANCH   1   7
TORSDOF 2
ENDMDL
