MODEL 1
REMARK minimizedAffinity 21.689476
REMARK minimizedRMSD -1
REMARK  2 active torsions:
REMARK  status: ('A' for Active; 'I' for Inactive)
REMARK    1  A    between atoms: C1_2  and  C2_3 
REMARK    2  A    between atoms: C2_3  and  C3_4 
ROOT
ATOM      1  C3  UNL d   1       1.372  -0.216  -2.177  0.00  0.00    -0.075 A 
ATOM      2  C4  UNL d   1       1.281  -1.541  -1.726  0.00  0.00     0.002 A 
ATOM      3  C5  UNL d   1       0.536  -2.481  -2.438  0.00  0.00     0.002 A 
ATOM      4  C6  UNL d   1      -0.135  -2.108  -3.601  0.00  0.00    -0.004 A 
ATOM      5  C7  UNL d   1      -0.065  -0.790  -4.049  0.00  0.00     0.002 A 
ATOM      6  C8  UNL d   1       0.684   0.152  -3.341  0.00  0.00     0.002 A 
ENDROOT
BRANCH   1   7
ATOM      7  C2  UNL d   1       2.200   0.800  -1.427  0.00  0.00     0.056 C 
BRANCH   7   8
ATOM      8  C1  UNL d   1       3.712   0.587  -1.553  0.00  0.00     0.007 C 
ATOM      9  C   UNL d   1       4.309   1.240  -2.792  0.00  0.00     0.009 C 
ENDBRANCH   7   8
ENDBRANCH   1   7
TORSDOF 2
ENDMDL
