MODEL 1
REMARK minimizedAffinity 6.48939943
REMARK minimizedRMSD -1
REMARK  2 active torsions:
REMARK  status: ('A' for Active; 'I' for Inactive)
REMARK    1  A    between atoms: C1_2  and  C2_3 
REMARK    2  A    between atoms: C2_3  and  C3_4 
ROOT
ATOM      1  C3  UNL d   1       4.885  -3.190   5.256  0.00  0.00    -0.075 A 
ATOM      2  C4  UNL d   1       5.979  -3.831   5.855  0.00  0.00     0.002 A 
ATOM      3  C5  UNL d   1       6.000  -5.220   5.989  0.00  0.00     0.002 A 
ATOM      4  C6  UNL d   1       4.925  -5.982   5.536  0.00  0.00    -0.004 A 
ATOM      5  C7  UNL d   1       3.826  -5.354   4.955  0.00  0.00     0.002 A 
ATOM      6  C8  UNL d   1       3.805  -3.965   4.816  0.00  0.00     0.002 A 
ENDROOT
BRANCH   1   7
ATOM      7  C2  UNL d   1       4.870  -1.690   5.082  0.00  0.00     0.056 C 
BRANCH   7   8
ATOM      8  C1  UNL d   1       3.718  -1.175   4.213  0.00  0.00     0.007 C 
ATOM      9  C   UNL d   1       4.159  -0.150   3.176  0.00  0.00     0.009 C 
ENDBRANCH   7   8
ENDBRANCH   1   7
TORSDOF 2
ENDMDL
