MODEL 1
REMARK minimizedAffinity 0.204219356
REMARK minimizedRMSD -1
REMARK  2 active torsions:
REMARK  status: ('A' for Active; 'I' for Inactive)
REMARK    1  A    between atoms: C1_2  and  C2_3 
REMARK    2  A    between atoms: C2_3  and  C3_4 
ROOT
ATOM      1  C3  UNL d   1       5.250  -2.971   5.236  0.00  0.00    -0.075 A 
ATOM      2  C4  UNL d   1       4.085  -3.282   4.519  0.00  0.00     0.002 A 
ATOM      3  C5  UNL d   1       3.412  -2.294   3.799  0.00  0.00     0.002 A 
ATOM      4  C6  UNL d   1       3.886  -0.984   3.796  0.00  0.00    -0.004 A 
ATOM      5  C7  UNL d   1       5.032  -0.661   4.519  0.00  0.00     0.002 A 
ATOM      6  C8  UNL d   1       5.711  -1.647   5.236  0.00  0.00     0.002 A 
ENDROOT
BRANCH   1   7
ATOM      7  C2  UNL d   1       6.000  -4.040   5.993  0.00  0.00     0.056 C 
BRANCH   7   8
ATOM      8  C1  UNL d   1       5.529  -5.466   5.688  0.00  0.00     0.007 C 
ATOM      9  C   UNL d   1       6.000  -5.978   4.333  0.00  0.00     0.009 C 
ENDBRANCH   7   8
ENDBRANCH   1   7
TORSDOF 2
ENDMDL
