MODEL 1
REMARK minimizedAffinity 7.71598005
REMARK minimizedRMSD -1
REMARK  2 active torsions:
REMARK  status: ('A' for Active; 'I' for Inactive)
REMARK    1  A    between atoms: C1_2  and  C2_3 
REMARK    2  A    between atoms: C2_3  and  C3_4 
ROOT
ATOM      1  C3  UNL d   1       1.464  -0.216  -2.266  0.00  0.00    -0.075 A 
ATOM      2  C4  UNL d   1       2.490   0.439  -1.569  0.00  0.00     0.002 A 
ATOM      3  C5  UNL d   1       2.604   1.829  -1.617  0.00  0.00     0.002 A 
ATOM      4  C6  UNL d   1       1.703   2.579  -2.370  0.00  0.00    -0.004 A 
ATOM      5  C7  UNL d   1       0.691   1.938  -3.080  0.00  0.00     0.002 A 
ATOM      6  C8  UNL d   1       0.571   0.548  -3.030  0.00  0.00     0.002 A 
ENDROOT
BRANCH   1   7
ATOM      7  C2  UNL d   1       1.317  -1.717  -2.194  0.00  0.00     0.056 C 
BRANCH   7   8
ATOM      8  C1  UNL d   1       0.289  -2.291  -3.175  0.00  0.00     0.007 C 
ATOM      9  C   UNL d   1       0.920  -3.081  -4.313  0.00  0.00     0.009 C 
ENDBRANCH   7   8
ENDBRANCH   1   7
TORSDOF 2
ENDMDL
