MODEL 1
REMARK minimizedAffinity 9.84543133
REMARK minimizedRMSD -1
REMARK  2 active torsions:
REMARK  status: ('A' for Active; 'I' for Inactive)
REMARK    1  A    between atoms: C1_2  and  C2_3 
REMARK    2  A    between atoms: C2_3  and  C3_4 
ROOT
ATOM      1  C3  UNL d   1       0.048   0.014  -1.368  0.00  0.00    -0.075 A 
ATOM      2  C4  UNL d   1       0.567  -1.199  -1.844  0.00  0.00     0.002 A 
ATOM      3  C5  UNL d   1      -0.121  -2.394  -1.633  0.00  0.00     0.002 A 
ATOM      4  C6  UNL d   1      -1.327  -2.394  -0.937  0.00  0.00    -0.004 A 
ATOM      5  C7  UNL d   1      -1.844  -1.197  -0.445  0.00  0.00     0.002 A 
ATOM      6  C8  UNL d   1      -1.160   0.001  -0.658  0.00  0.00     0.002 A 
ENDROOT
BRANCH   1   7
ATOM      7  C2  UNL d   1       0.773   1.315  -1.618  0.00  0.00     0.056 C 
BRANCH   7   8
ATOM      8  C1  UNL d   1       2.046   1.490  -0.784  0.00  0.00     0.007 C 
ATOM      9  C   UNL d   1       2.473   2.945  -0.639  0.00  0.00     0.009 C 
ENDBRANCH   7   8
ENDBRANCH   1   7
TORSDOF 2
ENDMDL
