MODEL 1
REMARK minimizedAffinity 14.3543234
REMARK minimizedRMSD -1
REMARK  2 active torsions:
REMARK  status: ('A' for Active; 'I' for Inactive)
REMARK    1  A    between atoms: C1_2  and  C2_3 
REMARK    2  A    between atoms: C2_3  and  C3_4 
ROOT
ATOM      1  C3  UNL d   1       5.182  -2.444   5.387  0.00  0.00    -0.075 A 
ATOM      2  C4  UNL d   1       5.973  -3.428   5.996  0.00  0.00     0.002 A 
ATOM      3  C5  UNL d   1       5.594  -4.770   5.949  0.00  0.00     0.002 A 
ATOM      4  C6  UNL d   1       4.417  -5.143   5.304  0.00  0.00    -0.004 A 
ATOM      5  C7  UNL d   1       3.615  -4.171   4.710  0.00  0.00     0.002 A 
ATOM      6  C8  UNL d   1       3.994  -2.828   4.752  0.00  0.00     0.002 A 
ENDROOT
BRANCH   1   7
ATOM      7  C2  UNL d   1       5.601  -0.993   5.409  0.00  0.00     0.056 C 
BRANCH   7   8
ATOM      8  C1  UNL d   1       5.670  -0.343   4.023  0.00  0.00     0.007 C 
ATOM      9  C   UNL d   1       4.337  -0.357   3.286  0.00  0.00     0.009 C 
ENDBRANCH   7   8
ENDBRANCH   1   7
TORSDOF 2
ENDMDL
