MODEL 1
REMARK minimizedAffinity 9.06670856
REMARK minimizedRMSD -1
REMARK  2 active torsions:
REMARK  status: ('A' for Active; 'I' for Inactive)
REMARK    1  A    between atoms: C1_2  and  C2_3 
REMARK    2  A    between atoms: C2_3  and  C3_4 
ROOT
ATOM      1  C3  UNL d   1       1.575   2.649  -2.299  0.00  0.00    -0.075 A 
ATOM      2  C4  UNL d   1       1.976   1.666  -1.384  0.00  0.00     0.002 A 
ATOM      3  C5  UNL d   1       1.517   0.354  -1.507  0.00  0.00     0.002 A 
ATOM      4  C6  UNL d   1       0.644   0.012  -2.537  0.00  0.00    -0.004 A 
ATOM      5  C7  UNL d   1       0.226   0.985  -3.442  0.00  0.00     0.002 A 
ATOM      6  C8  UNL d   1       0.687   2.297  -3.324  0.00  0.00     0.002 A 
ENDROOT
BRANCH   1   7
ATOM      7  C2  UNL d   1       2.091   4.064  -2.189  0.00  0.00     0.056 C 
BRANCH   7   8
ATOM      8  C1  UNL d   1       2.034   4.640  -0.770  0.00  0.00     0.007 C 
ATOM      9  C   UNL d   1       3.012   3.975   0.188  0.00  0.00     0.009 C 
ENDBRANCH   7   8
ENDBRANCH   1   7
TORSDOF 2
ENDMDL
