MODEL 1
REMARK minimizedAffinity -6.2438693
REMARK minimizedRMSD -1
REMARK  2 active torsions:
REMARK  status: ('A' for Active; 'I' for Inactive)
REMARK    1  A    between atoms: C2'_3  and  C1'_4 
REMARK    2  A    between atoms: C1'_4  and  C1_5 
ROOT
ATOM      1  C1  I4B d   1      -0.088  -0.062   0.204  0.00  0.00    -0.075 A 
ATOM      2  C2  I4B d   1      -1.444  -0.250   0.294  0.00  0.00     0.003 A 
ATOM      3  C3  I4B d   1      -2.172   0.314   1.370  0.00  0.00     0.002 A 
ATOM      4  C4  I4B d   1      -1.500   1.011   2.354  0.00  0.00    -0.004 A 
ATOM      5  C5  I4B d   1      -0.128   1.219   2.249  0.00  0.00     0.002 A 
ATOM      6  C6  I4B d   1       0.581   0.690   1.161  0.00  0.00     0.003 A 
ENDROOT
BRANCH   1   7
ATOM      7  C1' I4B d   1       0.655  -0.700  -0.927  0.00  0.00     0.060 C 
BRANCH   7   8
ATOM      8  C2' I4B d   1       0.283   0.033  -2.200  0.00  0.00    -0.013 C 
ATOM      9  C4' I4B d   1       1.492   0.670  -2.835  0.00  0.00     0.013 C 
ATOM     10  C3' I4B d   1      -0.360  -0.952  -3.130  0.00  0.00     0.013 C 
ENDBRANCH   7   8
ENDBRANCH   1   7
TORSDOF 2
ENDMDL
