MODEL 1
REMARK minimizedAffinity -3.41231704
REMARK minimizedRMSD -1
REMARK  2 active torsions:
REMARK  status: ('A' for Active; 'I' for Inactive)
REMARK    1  A    between atoms: C2'_3  and  C1'_4 
REMARK    2  A    between atoms: C1'_4  and  C1_5 
ROOT
ATOM      1  C1  I4B d   1       0.401  -0.367  -1.976  0.00  0.00    -0.075 A 
ATOM      2  C2  I4B d   1      -0.644  -0.605  -2.833  0.00  0.00     0.003 A 
ATOM      3  C3  I4B d   1      -0.600  -0.121  -4.163  0.00  0.00     0.002 A 
ATOM      4  C4  I4B d   1       0.479   0.633  -4.576  0.00  0.00    -0.004 A 
ATOM      5  C5  I4B d   1       1.549   0.854  -3.713  0.00  0.00     0.002 A 
ATOM      6  C6  I4B d   1       1.516   0.341  -2.408  0.00  0.00     0.003 A 
ENDROOT
BRANCH   1   7
ATOM      7  C1' I4B d   1       0.307  -0.863  -0.568  0.00  0.00     0.060 C 
BRANCH   7   8
ATOM      8  C2' I4B d   1       0.791   0.241   0.350  0.00  0.00    -0.013 C 
ATOM      9  C4' I4B d   1      -0.325   0.754   1.221  0.00  0.00     0.013 C 
ATOM     10  C3' I4B d   1       1.916  -0.306   1.178  0.00  0.00     0.013 C 
ENDBRANCH   7   8
ENDBRANCH   1   7
TORSDOF 2
ENDMDL
