MODEL 1
REMARK minimizedAffinity -4.54375553
REMARK minimizedRMSD -1
REMARK  2 active torsions:
REMARK  status: ('A' for Active; 'I' for Inactive)
REMARK    1  A    between atoms: C2'_3  and  C1'_4 
REMARK    2  A    between atoms: C1'_4  and  C1_5 
ROOT
ATOM      1  C1  I4B d   1       0.453  -0.102  -1.934  0.00  0.00    -0.075 A 
ATOM      2  C2  I4B d   1       1.754   0.078  -2.333  0.00  0.00     0.003 A 
ATOM      3  C3  I4B d   1       2.039   0.585  -3.624  0.00  0.00     0.002 A 
ATOM      4  C4  I4B d   1       1.002   0.849  -4.495  0.00  0.00    -0.004 A 
ATOM      5  C5  I4B d   1      -0.316   0.687  -4.081  0.00  0.00     0.002 A 
ATOM      6  C6  I4B d   1      -0.594   0.221  -2.788  0.00  0.00     0.003 A 
ENDROOT
BRANCH   1   7
ATOM      7  C1' I4B d   1       0.188  -0.670  -0.575  0.00  0.00     0.060 C 
BRANCH   7   8
ATOM      8  C2' I4B d   1      -0.190   0.474   0.343  0.00  0.00    -0.013 C 
ATOM      9  C4' I4B d   1      -1.654   0.430   0.694  0.00  0.00     0.013 C 
ATOM     10  C3' I4B d   1       0.664   0.383   1.572  0.00  0.00     0.013 C 
ENDBRANCH   7   8
ENDBRANCH   1   7
TORSDOF 2
ENDMDL
