MODEL 1
REMARK minimizedAffinity -4.16539574
REMARK minimizedRMSD -1
REMARK  2 active torsions:
REMARK  status: ('A' for Active; 'I' for Inactive)
REMARK    1  A    between atoms: C2'_3  and  C1'_4 
REMARK    2  A    between atoms: C1'_4  and  C1_5 
ROOT
ATOM      1  C1  I4B d   1       0.303   0.798  -2.765  0.00  0.00    -0.075 A 
ATOM      2  C2  I4B d   1      -0.397   0.134  -3.740  0.00  0.00     0.003 A 
ATOM      3  C3  I4B d   1       0.136   0.016  -5.047  0.00  0.00     0.002 A 
ATOM      4  C4  I4B d   1       1.342   0.617  -5.345  0.00  0.00    -0.004 A 
ATOM      5  C5  I4B d   1       2.062   1.271  -4.348  0.00  0.00     0.002 A 
ATOM      6  C6  I4B d   1       1.545   1.351  -3.047  0.00  0.00     0.003 A 
ENDROOT
BRANCH   1   7
ATOM      7  C1' I4B d   1      -0.305   0.931  -1.405  0.00  0.00     0.060 C 
BRANCH   7   8
ATOM      8  C2' I4B d   1       0.564   0.167  -0.427  0.00  0.00    -0.013 C 
ATOM      9  C4' I4B d   1       0.442   0.727   0.965  0.00  0.00     0.013 C 
ATOM     10  C3' I4B d   1       0.151  -1.274  -0.470  0.00  0.00     0.013 C 
ENDBRANCH   7   8
ENDBRANCH   1   7
TORSDOF 2
ENDMDL
