MODEL 1
REMARK minimizedAffinity -5.87459993
REMARK minimizedRMSD -1
REMARK  2 active torsions:
REMARK  status: ('A' for Active; 'I' for Inactive)
REMARK    1  A    between atoms: C2'_3  and  C1'_4 
REMARK    2  A    between atoms: C1'_4  and  C1_5 
ROOT
ATOM      1  C1  I4B d   1      -0.346  -0.213   0.008  0.00  0.00    -0.075 A 
ATOM      2  C2  I4B d   1      -1.659  -0.125   0.399  0.00  0.00     0.003 A 
ATOM      3  C3  I4B d   1      -1.993   0.455   1.647  0.00  0.00     0.002 A 
ATOM      4  C4  I4B d   1      -0.987   0.884   2.488  0.00  0.00    -0.004 A 
ATOM      5  C5  I4B d   1       0.342   0.815   2.080  0.00  0.00     0.002 A 
ATOM      6  C6  I4B d   1       0.664   0.274   0.827  0.00  0.00     0.003 A 
ENDROOT
BRANCH   1   7
ATOM      7  C1' I4B d   1      -0.027  -0.861  -1.302  0.00  0.00     0.060 C 
BRANCH   7   8
ATOM      8  C2' I4B d   1       0.124   0.232  -2.340  0.00  0.00    -0.013 C 
ATOM      9  C4' I4B d   1       1.563   0.655  -2.481  0.00  0.00     0.013 C 
ATOM     10  C3' I4B d   1      -0.418  -0.284  -3.639  0.00  0.00     0.013 C 
ENDBRANCH   7   8
ENDBRANCH   1   7
TORSDOF 2
ENDMDL
