MODEL 1
REMARK minimizedAffinity 3.52517581
REMARK minimizedRMSD -1
REMARK  0 active torsions:
REMARK  status: ('A' for Active; 'I' for Inactive)
ROOT
ATOM      1  C   UNL d   1      -2.803   1.157  -3.791  0.00  0.00     0.124 A 
ATOM      2  C1  UNL d   1      -2.742  -0.036  -4.498  0.00  0.00     0.062 A 
ATOM      3  C2  UNL d   1      -2.160  -1.162  -3.923  0.00  0.00     0.162 A 
ATOM      4  C3  UNL d   1      -1.634  -1.101  -2.633  0.00  0.00    -0.034 A 
ATOM      5  C4  UNL d   1      -1.698   0.103  -1.928  0.00  0.00     0.162 A 
ATOM      6  C5  UNL d   1      -2.281   1.225  -2.507  0.00  0.00     0.062 A 
ATOM      7  F   UNL d   1      -2.339   2.377  -1.823  0.00  0.00    -0.097 F 
ATOM      8  F1  UNL d   1      -1.202   0.197  -0.685  0.00  0.00    -0.096 F 
ATOM      9  I   UNL d   1      -0.762  -2.782  -1.769  0.00  0.00    -0.060 I 
ATOM     10  F2  UNL d   1      -2.115  -2.301  -4.630  0.00  0.00    -0.096 F 
ATOM     11  F3  UNL d   1      -3.245  -0.105  -5.739  0.00  0.00    -0.097 F 
ATOM     12  F4  UNL d   1      -3.363   2.239  -4.347  0.00  0.00    -0.092 F 
ENDROOT
TORSDOF 0
ENDMDL
