MODEL 1
REMARK minimizedAffinity 12.9760952
REMARK minimizedRMSD -1
REMARK  0 active torsions:
REMARK  status: ('A' for Active; 'I' for Inactive)
ROOT
ATOM      1  C   UNL d   1       1.470  -3.320  -0.613  0.00  0.00     0.124 A 
ATOM      2  C1  UNL d   1       0.836  -4.551  -0.700  0.00  0.00     0.062 A 
ATOM      3  C2  UNL d   1      -0.073  -4.800  -1.724  0.00  0.00     0.162 A 
ATOM      4  C3  UNL d   1      -0.354  -3.814  -2.670  0.00  0.00    -0.034 A 
ATOM      5  C4  UNL d   1       0.287  -2.578  -2.575  0.00  0.00     0.162 A 
ATOM      6  C5  UNL d   1       1.195  -2.334  -1.550  0.00  0.00     0.062 A 
ATOM      7  F   UNL d   1       1.806  -1.144  -1.468  0.00  0.00    -0.097 F 
ATOM      8  F1  UNL d   1       0.040  -1.608  -3.469  0.00  0.00    -0.096 F 
ATOM      9  I   UNL d   1      -1.713  -4.182  -4.203  0.00  0.00    -0.060 I 
ATOM     10  F2  UNL d   1      -0.671  -5.999  -1.783  0.00  0.00    -0.096 F 
ATOM     11  F3  UNL d   1       1.099  -5.505   0.206  0.00  0.00    -0.097 F 
ATOM     12  F4  UNL d   1       2.344  -3.083   0.374  0.00  0.00    -0.092 F 
ENDROOT
TORSDOF 0
ENDMDL
