MODEL 1
REMARK minimizedAffinity 11.9398375
REMARK minimizedRMSD -1
REMARK  0 active torsions:
REMARK  status: ('A' for Active; 'I' for Inactive)
ROOT
ATOM      1  C   UNL d   1       1.746   3.516   1.590  0.00  0.00     0.124 A 
ATOM      2  C1  UNL d   1       1.916   4.182   0.384  0.00  0.00     0.062 A 
ATOM      3  C2  UNL d   1       0.872   4.244  -0.535  0.00  0.00     0.162 A 
ATOM      4  C3  UNL d   1      -0.352   3.640  -0.250  0.00  0.00    -0.034 A 
ATOM      5  C4  UNL d   1      -0.516   2.972   0.964  0.00  0.00     0.162 A 
ATOM      6  C5  UNL d   1       0.531   2.912   1.879  0.00  0.00     0.062 A 
ATOM      7  F   UNL d   1       0.364   2.268   3.043  0.00  0.00    -0.097 F 
ATOM      8  F1  UNL d   1      -1.680   2.380   1.270  0.00  0.00    -0.096 F 
ATOM      9  I   UNL d   1      -1.916   3.732  -1.621  0.00  0.00    -0.060 I 
ATOM     10  F2  UNL d   1       1.065   4.895  -1.692  0.00  0.00    -0.096 F 
ATOM     11  F3  UNL d   1       3.090   4.765   0.102  0.00  0.00    -0.097 F 
ATOM     12  F4  UNL d   1       2.753   3.456   2.471  0.00  0.00    -0.092 F 
ENDROOT
TORSDOF 0
ENDMDL
