MODEL 1
REMARK minimizedAffinity 10.328618
REMARK minimizedRMSD -1
REMARK  0 active torsions:
REMARK  status: ('A' for Active; 'I' for Inactive)
ROOT
ATOM      1  C   UNL d   1      -0.851   2.920  -1.247  0.00  0.00     0.124 A 
ATOM      2  C1  UNL d   1      -0.172   3.065  -0.045  0.00  0.00     0.062 A 
ATOM      3  C2  UNL d   1      -0.647   3.942   0.926  0.00  0.00     0.162 A 
ATOM      4  C3  UNL d   1      -1.809   4.680   0.700  0.00  0.00    -0.034 A 
ATOM      5  C4  UNL d   1      -2.486   4.528  -0.512  0.00  0.00     0.162 A 
ATOM      6  C5  UNL d   1      -2.007   3.651  -1.479  0.00  0.00     0.062 A 
ATOM      7  F   UNL d   1      -2.664   3.512  -2.639  0.00  0.00    -0.097 F 
ATOM      8  F1  UNL d   1      -3.606   5.222  -0.762  0.00  0.00    -0.096 F 
ATOM      9  I   UNL d   1      -2.523   5.991   2.149  0.00  0.00    -0.060 I 
ATOM     10  F2  UNL d   1       0.029   4.062   2.078  0.00  0.00    -0.096 F 
ATOM     11  F3  UNL d   1       0.946   2.360   0.181  0.00  0.00    -0.097 F 
ATOM     12  F4  UNL d   1      -0.391   2.076  -2.180  0.00  0.00    -0.092 F 
ENDROOT
TORSDOF 0
ENDMDL
