MODEL 1
REMARK minimizedAffinity 16.6604996
REMARK minimizedRMSD -1
REMARK  0 active torsions:
REMARK  status: ('A' for Active; 'I' for Inactive)
ROOT
ATOM      1  C   UNL d   1       0.788   3.720  -0.435  0.00  0.00     0.124 A 
ATOM      2  C1  UNL d   1       0.266   4.874  -1.003  0.00  0.00     0.062 A 
ATOM      3  C2  UNL d   1      -1.014   4.869  -1.549  0.00  0.00     0.162 A 
ATOM      4  C3  UNL d   1      -1.782   3.706  -1.530  0.00  0.00    -0.034 A 
ATOM      5  C4  UNL d   1      -1.251   2.548  -0.959  0.00  0.00     0.162 A 
ATOM      6  C5  UNL d   1       0.029   2.558  -0.414  0.00  0.00     0.062 A 
ATOM      7  F   UNL d   1       0.531   1.442   0.134  0.00  0.00    -0.097 F 
ATOM      8  F1  UNL d   1      -1.963   1.412  -0.924  0.00  0.00    -0.096 F 
ATOM      9  I   UNL d   1      -3.697   3.694  -2.347  0.00  0.00    -0.060 I 
ATOM     10  F2  UNL d   1      -1.492   5.999  -2.091  0.00  0.00    -0.096 F 
ATOM     11  F3  UNL d   1       0.998   5.998  -1.025  0.00  0.00    -0.097 F 
ATOM     12  F4  UNL d   1       2.020   3.727   0.089  0.00  0.00    -0.092 F 
ENDROOT
TORSDOF 0
ENDMDL
