MODEL 1
REMARK minimizedAffinity -3.77258277
REMARK minimizedRMSD -1
REMARK  0 active torsions:
REMARK  status: ('A' for Active; 'I' for Inactive)
ROOT
ATOM      1  C4' PXY d   1       0.413   3.704   0.010  0.00  0.00     0.077 C 
ATOM      2  C1' PXY d   1      -0.507  -2.001  -0.146  0.00  0.00     0.077 C 
ATOM      3  C1  PXY d   1      -0.278  -0.502  -0.108  0.00  0.00    -0.082 A 
ATOM      4  C2  PXY d   1       0.941  -0.022  -0.291  0.00  0.00     0.003 A 
ATOM      5  C3  PXY d   1       1.171   1.328  -0.228  0.00  0.00     0.003 A 
ATOM      6  C4  PXY d   1       0.134   2.199  -0.029  0.00  0.00    -0.082 A 
ATOM      7  C5  PXY d   1      -1.115   1.718   0.148  0.00  0.00     0.003 A 
ATOM      8  C6  PXY d   1      -1.321   0.341   0.121  0.00  0.00     0.003 A 
ENDROOT
TORSDOF 0
ENDMDL
