MODEL 1
REMARK minimizedAffinity -0.864732563
REMARK minimizedRMSD -1
REMARK  0 active torsions:
REMARK  status: ('A' for Active; 'I' for Inactive)
ROOT
ATOM      1  C4' PXY d   1      -0.039  -0.955  -0.810  0.00  0.00     0.077 C 
ATOM      2  C1' PXY d   1       1.720   4.116   1.334  0.00  0.00     0.077 C 
ATOM      3  C1  PXY d   1       1.271   2.784   0.767  0.00  0.00    -0.082 A 
ATOM      4  C2  PXY d   1      -0.008   2.590   0.488  0.00  0.00     0.003 A 
ATOM      5  C3  PXY d   1      -0.436   1.380   0.005  0.00  0.00     0.003 A 
ATOM      6  C4  PXY d   1       0.461   0.377  -0.245  0.00  0.00    -0.082 A 
ATOM      7  C5  PXY d   1       1.769   0.571   0.027  0.00  0.00     0.003 A 
ATOM      8  C6  PXY d   1       2.177   1.792   0.556  0.00  0.00     0.003 A 
ENDROOT
TORSDOF 0
ENDMDL
