MODEL 1
REMARK minimizedAffinity -4.67462301
REMARK minimizedRMSD -1
REMARK  0 active torsions:
REMARK  status: ('A' for Active; 'I' for Inactive)
ROOT
ATOM      1  C4' PXY d   1       0.159  -3.232  -1.101  0.00  0.00     0.077 C 
ATOM      2  C1' PXY d   1      -1.475   2.169   0.155  0.00  0.00     0.077 C 
ATOM      3  C1  PXY d   1      -1.036   0.753  -0.165  0.00  0.00    -0.082 A 
ATOM      4  C2  PXY d   1      -1.357   0.218  -1.332  0.00  0.00     0.003 A 
ATOM      5  C3  PXY d   1      -0.996  -1.072  -1.626  0.00  0.00     0.003 A 
ATOM      6  C4  PXY d   1      -0.254  -1.803  -0.738  0.00  0.00    -0.082 A 
ATOM      7  C5  PXY d   1       0.086  -1.260   0.451  0.00  0.00     0.003 A 
ATOM      8  C6  PXY d   1      -0.326   0.036   0.746  0.00  0.00     0.003 A 
ENDROOT
TORSDOF 0
ENDMDL
