MODEL 1
REMARK minimizedAffinity 3.19294548
REMARK minimizedRMSD -1
REMARK  0 active torsions:
REMARK  status: ('A' for Active; 'I' for Inactive)
ROOT
ATOM      1  C4' PXY d   1       2.580   2.099   1.606  0.00  0.00     0.077 C 
ATOM      2  C1' PXY d   1      -2.680   0.089   0.301  0.00  0.00     0.077 C 
ATOM      3  C1  PXY d   1      -1.305   0.628   0.640  0.00  0.00    -0.082 A 
ATOM      4  C2  PXY d   1      -0.252  -0.169   0.561  0.00  0.00     0.003 A 
ATOM      5  C3  PXY d   1       0.995   0.293   0.896  0.00  0.00     0.003 A 
ATOM      6  C4  PXY d   1       1.174   1.600   1.263  0.00  0.00    -0.082 A 
ATOM      7  C5  PXY d   1       0.106   2.423   1.336  0.00  0.00     0.003 A 
ATOM      8  C6  PXY d   1      -1.157   1.923   1.032  0.00  0.00     0.003 A 
ENDROOT
TORSDOF 0
ENDMDL
