MODEL 1
REMARK minimizedAffinity -3.52555418
REMARK minimizedRMSD -1
REMARK  0 active torsions:
REMARK  status: ('A' for Active; 'I' for Inactive)
ROOT
ATOM      1  C4' PXY d   1       1.532   4.667   0.417  0.00  0.00     0.077 C 
ATOM      2  C1' PXY d   1      -1.225  -0.408   0.183  0.00  0.00     0.077 C 
ATOM      3  C1  PXY d   1      -0.512   0.928   0.250  0.00  0.00    -0.082 A 
ATOM      4  C2  PXY d   1       0.468   1.190  -0.599  0.00  0.00     0.003 A 
ATOM      5  C3  PXY d   1       1.145   2.381  -0.531  0.00  0.00     0.003 A 
ATOM      6  C4  PXY d   1       0.778   3.335   0.380  0.00  0.00    -0.082 A 
ATOM      7  C5  PXY d   1      -0.228   3.079   1.242  0.00  0.00     0.003 A 
ATOM      8  C6  PXY d   1      -0.875   1.848   1.184  0.00  0.00     0.003 A 
ENDROOT
TORSDOF 0
ENDMDL
