MODEL 1
REMARK minimizedAffinity -5.13367605
REMARK minimizedRMSD -1
REMARK  0 active torsions:
REMARK  status: ('A' for Active; 'I' for Inactive)
ROOT
ATOM      1  C4' PXY d   1       0.367  -1.583   0.093  0.00  0.00     0.077 C 
ATOM      2  C1' PXY d   1       1.434   4.093   0.332  0.00  0.00     0.077 C 
ATOM      3  C1  PXY d   1       1.142   2.607   0.273  0.00  0.00    -0.082 A 
ATOM      4  C2  PXY d   1       2.135   1.740   0.384  0.00  0.00     0.003 A 
ATOM      5  C3  PXY d   1       1.893   0.393   0.301  0.00  0.00     0.003 A 
ATOM      6  C4  PXY d   1       0.614  -0.073   0.156  0.00  0.00    -0.082 A 
ATOM      7  C5  PXY d   1      -0.406   0.805   0.053  0.00  0.00     0.003 A 
ATOM      8  C6  PXY d   1      -0.134   2.169   0.098  0.00  0.00     0.003 A 
ENDROOT
TORSDOF 0
ENDMDL
