MODEL 1
REMARK minimizedAffinity -5.17725325
REMARK minimizedRMSD -1
REMARK  0 active torsions:
REMARK  status: ('A' for Active; 'I' for Inactive)
ROOT
ATOM      1  C4' PXY d   1       0.750   4.013   0.117  0.00  0.00     0.077 C 
ATOM      2  C1' PXY d   1       0.551  -1.763   0.236  0.00  0.00     0.077 C 
ATOM      3  C1  PXY d   1       0.591  -0.248   0.201  0.00  0.00    -0.082 A 
ATOM      4  C2  PXY d   1       1.748   0.373   0.039  0.00  0.00     0.003 A 
ATOM      5  C3  PXY d   1       1.806   1.743   0.038  0.00  0.00     0.003 A 
ATOM      6  C4  PXY d   1       0.661   2.485   0.149  0.00  0.00    -0.082 A 
ATOM      7  C5  PXY d   1      -0.525   1.859   0.304  0.00  0.00     0.003 A 
ATOM      8  C6  PXY d   1      -0.557   0.469   0.344  0.00  0.00     0.003 A 
ENDROOT
TORSDOF 0
ENDMDL
