MODEL 1
REMARK minimizedAffinity 0.617297411
REMARK minimizedRMSD -1
REMARK  0 active torsions:
REMARK  status: ('A' for Active; 'I' for Inactive)
ROOT
ATOM      1  C4' PXY d   1       2.993  -0.416   0.192  0.00  0.00     0.077 C 
ATOM      2  C1' PXY d   1      -2.443   1.338   1.082  0.00  0.00     0.077 C 
ATOM      3  C1  PXY d   1      -1.022   0.866   0.846  0.00  0.00    -0.082 A 
ATOM      4  C2  PXY d   1      -0.013   1.532   1.386  0.00  0.00     0.003 A 
ATOM      5  C3  PXY d   1       1.280   1.137   1.156  0.00  0.00     0.003 A 
ATOM      6  C4  PXY d   1       1.541   0.019   0.411  0.00  0.00    -0.082 A 
ATOM      7  C5  PXY d   1       0.518  -0.672  -0.134  0.00  0.00     0.003 A 
ATOM      8  C6  PXY d   1      -0.786  -0.231   0.076  0.00  0.00     0.003 A 
ENDROOT
TORSDOF 0
ENDMDL
