MODEL 1
REMARK minimizedAffinity -2.05306125
REMARK minimizedRMSD -1
REMARK  0 active torsions:
REMARK  status: ('A' for Active; 'I' for Inactive)
ROOT
ATOM      1  C4' PXY d   1      -0.538  -2.977  -0.881  0.00  0.00     0.077 C 
ATOM      2  C1' PXY d   1      -0.738   2.285   1.502  0.00  0.00     0.077 C 
ATOM      3  C1  PXY d   1      -0.674   0.908   0.872  0.00  0.00    -0.082 A 
ATOM      4  C2  PXY d   1      -1.793   0.241   0.644  0.00  0.00     0.003 A 
ATOM      5  C3  PXY d   1      -1.752  -1.019   0.104  0.00  0.00     0.003 A 
ATOM      6  C4  PXY d   1      -0.555  -1.580  -0.255  0.00  0.00    -0.082 A 
ATOM      7  C5  PXY d   1       0.591  -0.900  -0.036  0.00  0.00     0.003 A 
ATOM      8  C6  PXY d   1       0.530   0.360   0.551  0.00  0.00     0.003 A 
ENDROOT
TORSDOF 0
ENDMDL
