MODEL 1
REMARK minimizedAffinity -2.59351754
REMARK minimizedRMSD -1
REMARK  0 active torsions:
REMARK  status: ('A' for Active; 'I' for Inactive)
ROOT
ATOM      1  C4' PXY d   1      -0.749   1.648   0.976  0.00  0.00     0.077 C 
ATOM      2  C1' PXY d   1      -0.686  -2.953  -2.523  0.00  0.00     0.077 C 
ATOM      3  C1  PXY d   1      -0.701  -1.754  -1.595  0.00  0.00    -0.082 A 
ATOM      4  C2  PXY d   1      -1.257  -0.623  -1.997  0.00  0.00     0.003 A 
ATOM      5  C3  PXY d   1      -1.252   0.480  -1.183  0.00  0.00     0.003 A 
ATOM      6  C4  PXY d   1      -0.719   0.409   0.076  0.00  0.00    -0.082 A 
ATOM      7  C5  PXY d   1      -0.159  -0.744   0.498  0.00  0.00     0.003 A 
ATOM      8  C6  PXY d   1      -0.138  -1.841  -0.359  0.00  0.00     0.003 A 
ENDROOT
TORSDOF 0
ENDMDL
