MODEL 1
REMARK minimizedAffinity -6.00241613
REMARK minimizedRMSD -1
REMARK  0 active torsions:
REMARK  status: ('A' for Active; 'I' for Inactive)
ROOT
ATOM      1  C4' PXY d   1      -0.364  -1.682   0.095  0.00  0.00     0.077 C 
ATOM      2  C1' PXY d   1       1.364   3.829   0.331  0.00  0.00     0.077 C 
ATOM      3  C1  PXY d   1       0.900   2.387   0.274  0.00  0.00    -0.082 A 
ATOM      4  C2  PXY d   1       1.794   1.412   0.262  0.00  0.00     0.003 A 
ATOM      5  C3  PXY d   1       1.392   0.104   0.179  0.00  0.00     0.003 A 
ATOM      6  C4  PXY d   1       0.060  -0.212   0.161  0.00  0.00    -0.082 A 
ATOM      7  C5  PXY d   1      -0.859   0.777   0.184  0.00  0.00     0.003 A 
ATOM      8  C6  PXY d   1      -0.429   2.100   0.227  0.00  0.00     0.003 A 
ENDROOT
TORSDOF 0
ENDMDL
