MODEL 1
REMARK minimizedAffinity -3.92505455
REMARK minimizedRMSD -1
REMARK  0 active torsions:
REMARK  status: ('A' for Active; 'I' for Inactive)
ROOT
ATOM      1  C4' PXY d   1      -0.403   2.540   1.449  0.00  0.00     0.077 C 
ATOM      2  C1' PXY d   1      -0.330  -2.523  -1.340  0.00  0.00     0.077 C 
ATOM      3  C1  PXY d   1      -0.359  -1.191  -0.616  0.00  0.00    -0.082 A 
ATOM      4  C2  PXY d   1       0.733  -0.750  -0.013  0.00  0.00     0.003 A 
ATOM      5  C3  PXY d   1       0.715   0.437   0.673  0.00  0.00     0.003 A 
ATOM      6  C4  PXY d   1      -0.417   1.206   0.698  0.00  0.00    -0.082 A 
ATOM      7  C5  PXY d   1      -1.532   0.768   0.076  0.00  0.00     0.003 A 
ATOM      8  C6  PXY d   1      -1.506  -0.459  -0.580  0.00  0.00     0.003 A 
ENDROOT
TORSDOF 0
ENDMDL
