MODEL 1
REMARK minimizedAffinity -4.19909859
REMARK minimizedRMSD -1
REMARK  0 active torsions:
REMARK  status: ('A' for Active; 'I' for Inactive)
ROOT
ATOM      1  C4' PXY d   1       1.813   4.355   0.204  0.00  0.00     0.077 C 
ATOM      2  C1' PXY d   1      -0.948  -0.712   0.545  0.00  0.00     0.077 C 
ATOM      3  C1  PXY d   1      -0.234   0.623   0.461  0.00  0.00    -0.082 A 
ATOM      4  C2  PXY d   1       0.715   0.801  -0.443  0.00  0.00     0.003 A 
ATOM      5  C3  PXY d   1       1.392   1.991  -0.512  0.00  0.00     0.003 A 
ATOM      6  C4  PXY d   1       1.059   3.027   0.319  0.00  0.00    -0.082 A 
ATOM      7  C5  PXY d   1       0.085   2.857   1.237  0.00  0.00     0.003 A 
ATOM      8  C6  PXY d   1      -0.563   1.627   1.318  0.00  0.00     0.003 A 
ENDROOT
TORSDOF 0
ENDMDL
