MODEL 1
REMARK minimizedAffinity -5.77958632
REMARK minimizedRMSD -1
REMARK  0 active torsions:
REMARK  status: ('A' for Active; 'I' for Inactive)
ROOT
ATOM      1  C4' PXY d   1      -0.449  -0.935  -0.367  0.00  0.00     0.077 C 
ATOM      2  C1' PXY d   1       1.787   4.355   0.293  0.00  0.00     0.077 C 
ATOM      3  C1  PXY d   1       1.191   2.970   0.128  0.00  0.00    -0.082 A 
ATOM      4  C2  PXY d   1       1.962   1.968  -0.261  0.00  0.00     0.003 A 
ATOM      5  C3  PXY d   1       1.433   0.717  -0.446  0.00  0.00     0.003 A 
ATOM      6  C4  PXY d   1       0.111   0.477  -0.179  0.00  0.00    -0.082 A 
ATOM      7  C5  PXY d   1      -0.680   1.492   0.229  0.00  0.00     0.003 A 
ATOM      8  C6  PXY d   1      -0.132   2.764   0.370  0.00  0.00     0.003 A 
ENDROOT
TORSDOF 0
ENDMDL
