MODEL 1
REMARK minimizedAffinity -5.85510492
REMARK minimizedRMSD -1
REMARK  0 active torsions:
REMARK  status: ('A' for Active; 'I' for Inactive)
ROOT
ATOM      1  C4' PXY d   1       2.359  -1.352  -0.013  0.00  0.00     0.077 C 
ATOM      2  C1' PXY d   1       0.569   4.138   0.242  0.00  0.00     0.077 C 
ATOM      3  C1  PXY d   1       1.026   2.694   0.177  0.00  0.00    -0.082 A 
ATOM      4  C2  PXY d   1       2.276   2.389   0.485  0.00  0.00     0.003 A 
ATOM      5  C3  PXY d   1       2.715   1.093   0.401  0.00  0.00     0.003 A 
ATOM      6  C4  PXY d   1       1.851   0.091   0.048  0.00  0.00    -0.082 A 
ATOM      7  C5  PXY d   1       0.572   0.392  -0.258  0.00  0.00     0.003 A 
ATOM      8  C6  PXY d   1       0.157   1.720  -0.206  0.00  0.00     0.003 A 
ENDROOT
TORSDOF 0
ENDMDL
