MODEL 1
REMARK minimizedAffinity -3.25386477
REMARK minimizedRMSD -1
REMARK  0 active torsions:
REMARK  status: ('A' for Active; 'I' for Inactive)
ROOT
ATOM      1  C4' PXY d   1       1.338   3.827   0.610  0.00  0.00     0.077 C 
ATOM      2  C1' PXY d   1      -0.647  -1.532  -0.261  0.00  0.00     0.077 C 
ATOM      3  C1  PXY d   1      -0.138  -0.122  -0.034  0.00  0.00    -0.082 A 
ATOM      4  C2  PXY d   1       1.140   0.153  -0.238  0.00  0.00     0.003 A 
ATOM      5  C3  PXY d   1       1.623   1.416  -0.007  0.00  0.00     0.003 A 
ATOM      6  C4  PXY d   1       0.779   2.419   0.385  0.00  0.00    -0.082 A 
ATOM      7  C5  PXY d   1      -0.528   2.149   0.586  0.00  0.00     0.003 A 
ATOM      8  C6  PXY d   1      -0.991   0.852   0.385  0.00  0.00     0.003 A 
ENDROOT
TORSDOF 0
ENDMDL
