MODEL 1
REMARK minimizedAffinity -3.02499843
REMARK minimizedRMSD -1
REMARK  0 active torsions:
REMARK  status: ('A' for Active; 'I' for Inactive)
ROOT
ATOM      1  C4' PXY d   1       3.106   1.370   0.774  0.00  0.00     0.077 C 
ATOM      2  C1' PXY d   1      -2.621   0.648   1.086  0.00  0.00     0.077 C 
ATOM      3  C1  PXY d   1      -1.117   0.825   1.009  0.00  0.00    -0.082 A 
ATOM      4  C2  PXY d   1      -0.601   2.044   1.021  0.00  0.00     0.003 A 
ATOM      5  C3  PXY d   1       0.755   2.223   0.920  0.00  0.00     0.003 A 
ATOM      6  C4  PXY d   1       1.594   1.143   0.859  0.00  0.00    -0.082 A 
ATOM      7  C5  PXY d   1       1.076  -0.103   0.857  0.00  0.00     0.003 A 
ATOM      8  C6  PXY d   1      -0.305  -0.263   0.919  0.00  0.00     0.003 A 
ENDROOT
TORSDOF 0
ENDMDL
