MODEL 1
REMARK minimizedAffinity -5.8266592
REMARK minimizedRMSD -1
REMARK  0 active torsions:
REMARK  status: ('A' for Active; 'I' for Inactive)
ROOT
ATOM      1  C4' PXY d   1      -0.050  -1.301   0.324  0.00  0.00     0.077 C 
ATOM      2  C1' PXY d   1       1.626   4.231   0.321  0.00  0.00     0.077 C 
ATOM      3  C1  PXY d   1       1.175   2.784   0.326  0.00  0.00    -0.082 A 
ATOM      4  C2  PXY d   1       2.072   1.819   0.443  0.00  0.00     0.003 A 
ATOM      5  C3  PXY d   1       1.685   0.504   0.417  0.00  0.00     0.003 A 
ATOM      6  C4  PXY d   1       0.359   0.174   0.323  0.00  0.00    -0.082 A 
ATOM      7  C5  PXY d   1      -0.564   1.153   0.214  0.00  0.00     0.003 A 
ATOM      8  C6  PXY d   1      -0.146   2.481   0.201  0.00  0.00     0.003 A 
ENDROOT
TORSDOF 0
ENDMDL
