MODEL 1
REMARK minimizedAffinity 0.887061894
REMARK minimizedRMSD -1
REMARK  0 active torsions:
REMARK  status: ('A' for Active; 'I' for Inactive)
ROOT
ATOM      1  C4' PXY d   1      -1.237  -2.723  -0.967  0.00  0.00     0.077 C 
ATOM      2  C1' PXY d   1      -0.796   2.455   1.564  0.00  0.00     0.077 C 
ATOM      3  C1  PXY d   1      -0.899   1.098   0.896  0.00  0.00    -0.082 A 
ATOM      4  C2  PXY d   1      -2.081   0.650   0.504  0.00  0.00     0.003 A 
ATOM      5  C3  PXY d   1      -2.196  -0.589  -0.072  0.00  0.00     0.003 A 
ATOM      6  C4  PXY d   1      -1.084  -1.355  -0.298  0.00  0.00    -0.082 A 
ATOM      7  C5  PXY d   1       0.126  -0.900   0.090  0.00  0.00     0.003 A 
ATOM      8  C6  PXY d   1       0.217   0.342   0.710  0.00  0.00     0.003 A 
ENDROOT
TORSDOF 0
ENDMDL
