MODEL 1
REMARK minimizedAffinity -1.64850509
REMARK minimizedRMSD -1
REMARK  0 active torsions:
REMARK  status: ('A' for Active; 'I' for Inactive)
ROOT
ATOM      1  C4' PXY d   1       1.516  -1.068   0.225  0.00  0.00     0.077 C 
ATOM      2  C1' PXY d   1      -1.511   2.543  -3.122  0.00  0.00     0.077 C 
ATOM      3  C1  PXY d   1      -0.722   1.586  -2.251  0.00  0.00    -0.082 A 
ATOM      4  C2  PXY d   1      -0.357   1.958  -1.035  0.00  0.00     0.003 A 
ATOM      5  C3  PXY d   1       0.384   1.117  -0.245  0.00  0.00     0.003 A 
ATOM      6  C4  PXY d   1       0.710  -0.138  -0.686  0.00  0.00    -0.082 A 
ATOM      7  C5  PXY d   1       0.333  -0.529  -1.921  0.00  0.00     0.003 A 
ATOM      8  C6  PXY d   1      -0.384   0.355  -2.723  0.00  0.00     0.003 A 
ENDROOT
TORSDOF 0
ENDMDL
