MODEL 1
REMARK minimizedAffinity -5.12296724
REMARK minimizedRMSD -1
REMARK  0 active torsions:
REMARK  status: ('A' for Active; 'I' for Inactive)
ROOT
ATOM      1  C4' PXY d   1      -0.755   0.771  -2.048  0.00  0.00     0.077 C 
ATOM      2  C1' PXY d   1       0.974  -0.585   3.299  0.00  0.00     0.077 C 
ATOM      3  C1  PXY d   1       0.509  -0.234   1.900  0.00  0.00    -0.082 A 
ATOM      4  C2  PXY d   1       1.395  -0.130   0.922  0.00  0.00     0.003 A 
ATOM      5  C3  PXY d   1       0.995   0.218  -0.342  0.00  0.00     0.003 A 
ATOM      6  C4  PXY d   1      -0.332   0.409  -0.621  0.00  0.00    -0.082 A 
ATOM      7  C5  PXY d   1      -1.243   0.294   0.368  0.00  0.00     0.003 A 
ATOM      8  C6  PXY d   1      -0.812  -0.019   1.654  0.00  0.00     0.003 A 
ENDROOT
TORSDOF 0
ENDMDL
