MODEL 1
REMARK minimizedAffinity -4.98731852
REMARK minimizedRMSD -1
REMARK  0 active torsions:
REMARK  status: ('A' for Active; 'I' for Inactive)
ROOT
ATOM      1  C4' PXY d   1       1.430  -0.634   3.084  0.00  0.00     0.077 C 
ATOM      2  C1' PXY d   1      -1.041   0.393  -2.039  0.00  0.00     0.077 C 
ATOM      3  C1  PXY d   1      -0.384   0.117  -0.702  0.00  0.00    -0.082 A 
ATOM      4  C2  PXY d   1      -1.113   0.138   0.402  0.00  0.00     0.003 A 
ATOM      5  C3  PXY d   1      -0.528  -0.078   1.624  0.00  0.00     0.003 A 
ATOM      6  C4  PXY d   1       0.807  -0.371   1.711  0.00  0.00    -0.082 A 
ATOM      7  C5  PXY d   1       1.555  -0.404   0.588  0.00  0.00     0.003 A 
ATOM      8  C6  PXY d   1       0.951  -0.142  -0.638  0.00  0.00     0.003 A 
ENDROOT
TORSDOF 0
ENDMDL
