MODEL 1
REMARK minimizedAffinity -3.42065287
REMARK minimizedRMSD -1
REMARK  0 active torsions:
REMARK  status: ('A' for Active; 'I' for Inactive)
ROOT
ATOM      1  C4' PXY d   1      -0.963   0.998  -2.487  0.00  0.00     0.077 C 
ATOM      2  C1' PXY d   1       1.206  -0.772   2.570  0.00  0.00     0.077 C 
ATOM      3  C1  PXY d   1       0.646  -0.315   1.238  0.00  0.00    -0.082 A 
ATOM      4  C2  PXY d   1      -0.088   0.784   1.179  0.00  0.00     0.003 A 
ATOM      5  C3  PXY d   1      -0.628   1.195  -0.012  0.00  0.00     0.003 A 
ATOM      6  C4  PXY d   1      -0.370   0.504  -1.165  0.00  0.00    -0.082 A 
ATOM      7  C5  PXY d   1       0.387  -0.613  -1.116  0.00  0.00     0.003 A 
ATOM      8  C6  PXY d   1       0.892  -1.036   0.110  0.00  0.00     0.003 A 
ENDROOT
TORSDOF 0
ENDMDL
