MODEL 1
REMARK minimizedAffinity -4.1218133
REMARK minimizedRMSD -1
REMARK  0 active torsions:
REMARK  status: ('A' for Active; 'I' for Inactive)
ROOT
ATOM      1  C4' PXY d   1       2.011  -1.006   3.272  0.00  0.00     0.077 C 
ATOM      2  C1' PXY d   1      -0.709   0.604  -1.568  0.00  0.00     0.077 C 
ATOM      3  C1  PXY d   1      -0.004   0.189  -0.291  0.00  0.00    -0.082 A 
ATOM      4  C2  PXY d   1       1.265  -0.184  -0.336  0.00  0.00     0.003 A 
ATOM      5  C3  PXY d   1       1.908  -0.592   0.803  0.00  0.00     0.003 A 
ATOM      6  C4  PXY d   1       1.262  -0.569   2.010  0.00  0.00    -0.082 A 
ATOM      7  C5  PXY d   1      -0.029  -0.181   2.066  0.00  0.00     0.003 A 
ATOM      8  C6  PXY d   1      -0.677   0.191   0.891  0.00  0.00     0.003 A 
ENDROOT
TORSDOF 0
ENDMDL
