MODEL 1
REMARK minimizedAffinity -0.766051233
REMARK minimizedRMSD -1
REMARK  0 active torsions:
REMARK  status: ('A' for Active; 'I' for Inactive)
ROOT
ATOM      1  C4' PXY d   1      -0.889   1.195  -2.154  0.00  0.00     0.077 C 
ATOM      2  C1' PXY d   1       0.706  -1.453   2.730  0.00  0.00     0.077 C 
ATOM      3  C1  PXY d   1       0.300  -0.760   1.444  0.00  0.00    -0.082 A 
ATOM      4  C2  PXY d   1      -0.734   0.065   1.445  0.00  0.00     0.003 A 
ATOM      5  C3  PXY d   1      -1.135   0.676   0.284  0.00  0.00     0.003 A 
ATOM      6  C4  PXY d   1      -0.438   0.481  -0.878  0.00  0.00    -0.082 A 
ATOM      7  C5  PXY d   1       0.625  -0.351  -0.884  0.00  0.00     0.003 A 
ATOM      8  C6  PXY d   1       0.991  -0.993   0.296  0.00  0.00     0.003 A 
ENDROOT
TORSDOF 0
ENDMDL
