MODEL 1
REMARK minimizedAffinity -1.94601536
REMARK minimizedRMSD -1
REMARK  0 active torsions:
REMARK  status: ('A' for Active; 'I' for Inactive)
ROOT
ATOM      1  C4' PXY d   1      -1.105   1.055  -1.673  0.00  0.00     0.077 C 
ATOM      2  C1' PXY d   1       1.658  -1.366   2.790  0.00  0.00     0.077 C 
ATOM      3  C1  PXY d   1       0.923  -0.739   1.621  0.00  0.00    -0.082 A 
ATOM      4  C2  PXY d   1       1.604  -0.077   0.700  0.00  0.00     0.003 A 
ATOM      5  C3  PXY d   1       0.952   0.523  -0.347  0.00  0.00     0.003 A 
ATOM      6  C4  PXY d   1      -0.404   0.398  -0.481  0.00  0.00    -0.082 A 
ATOM      7  C5  PXY d   1      -1.105  -0.285   0.449  0.00  0.00     0.003 A 
ATOM      8  C6  PXY d   1      -0.429  -0.851   1.526  0.00  0.00     0.003 A 
ENDROOT
TORSDOF 0
ENDMDL
