MODEL 1
REMARK minimizedAffinity -4.5619545
REMARK minimizedRMSD -1
REMARK  0 active torsions:
REMARK  status: ('A' for Active; 'I' for Inactive)
ROOT
ATOM      1  C4' PXY d   1      -0.776   1.515  -2.010  0.00  0.00     0.077 C 
ATOM      2  C1' PXY d   1       1.215  -1.151   2.717  0.00  0.00     0.077 C 
ATOM      3  C1  PXY d   1       0.680  -0.453   1.482  0.00  0.00    -0.082 A 
ATOM      4  C2  PXY d   1       1.384  -0.476   0.362  0.00  0.00     0.003 A 
ATOM      5  C3  PXY d   1       0.931   0.177  -0.755  0.00  0.00     0.003 A 
ATOM      6  C4  PXY d   1      -0.280   0.816  -0.741  0.00  0.00    -0.082 A 
ATOM      7  C5  PXY d   1      -1.009   0.834   0.395  0.00  0.00     0.003 A 
ATOM      8  C6  PXY d   1      -0.512   0.200   1.530  0.00  0.00     0.003 A 
ENDROOT
TORSDOF 0
ENDMDL
