MODEL 1
REMARK minimizedAffinity -4.69567776
REMARK minimizedRMSD -1
REMARK  0 active torsions:
REMARK  status: ('A' for Active; 'I' for Inactive)
ROOT
ATOM      1  C4' PXY d   1       2.843  -0.989   0.412  0.00  0.00     0.077 C 
ATOM      2  C1' PXY d   1      -2.815  -0.156   1.250  0.00  0.00     0.077 C 
ATOM      3  C1  PXY d   1      -1.329  -0.372   1.043  0.00  0.00    -0.082 A 
ATOM      4  C2  PXY d   1      -0.806  -0.207  -0.161  0.00  0.00     0.003 A 
ATOM      5  C3  PXY d   1       0.530  -0.429  -0.373  0.00  0.00     0.003 A 
ATOM      6  C4  PXY d   1       1.349  -0.772   0.669  0.00  0.00    -0.082 A 
ATOM      7  C5  PXY d   1       0.825  -0.933   1.903  0.00  0.00     0.003 A 
ATOM      8  C6  PXY d   1      -0.541  -0.743   2.089  0.00  0.00     0.003 A 
ENDROOT
TORSDOF 0
ENDMDL
