MODEL 1
REMARK minimizedAffinity -2.89918971
REMARK minimizedRMSD -1
REMARK  0 active torsions:
REMARK  status: ('A' for Active; 'I' for Inactive)
ROOT
ATOM      1  C   UNL d   1       0.615  -1.495   0.380  0.00  0.00    -0.002 A 
ATOM      2  C1  UNL d   1      -0.626  -1.087   0.847  0.00  0.00     0.010 A 
ATOM      3  C2  UNL d   1      -0.916   0.270   1.001  0.00  0.00     0.041 A 
ATOM      4  C3  UNL d   1       0.071   1.219   0.673  0.00  0.00    -0.075 A 
ATOM      5  S   UNL d   1      -0.060   2.935   0.781  0.00  0.00     0.015 SA
ATOM      6  C4  UNL d   1       1.529   3.167   0.210  0.00  0.00     0.022 A 
ATOM      7  C5  UNL d   1       2.159   1.975  -0.061  0.00  0.00     0.026 A 
ATOM      8  C6  UNL d   1       1.329   0.833   0.201  0.00  0.00    -0.082 A 
ATOM      9  C7  UNL d   1       1.593  -0.550   0.056  0.00  0.00     0.045 A 
ENDROOT
TORSDOF 0
ENDMDL
