MODEL 1
REMARK minimizedAffinity 1.62183869
REMARK minimizedRMSD -1
REMARK  0 active torsions:
REMARK  status: ('A' for Active; 'I' for Inactive)
ROOT
ATOM      1  C   UNL d   1      -0.358  -4.270   3.492  0.00  0.00    -0.002 A 
ATOM      2  C1  UNL d   1      -0.854  -5.472   3.009  0.00  0.00     0.010 A 
ATOM      3  C2  UNL d   1      -1.320  -5.573   1.697  0.00  0.00     0.041 A 
ATOM      4  C3  UNL d   1      -1.277  -4.434   0.869  0.00  0.00    -0.075 A 
ATOM      5  S   UNL d   1      -1.792  -4.321  -0.772  0.00  0.00     0.015 SA
ATOM      6  C4  UNL d   1      -1.365  -2.675  -0.872  0.00  0.00     0.022 A 
ATOM      7  C5  UNL d   1      -0.840  -2.206   0.309  0.00  0.00     0.026 A 
ATOM      8  C6  UNL d   1      -0.781  -3.212   1.332  0.00  0.00    -0.082 A 
ATOM      9  C7  UNL d   1      -0.316  -3.142   2.668  0.00  0.00     0.045 A 
ENDROOT
TORSDOF 0
ENDMDL
