MODEL 1
REMARK minimizedAffinity 9.83919621
REMARK minimizedRMSD -1
REMARK  0 active torsions:
REMARK  status: ('A' for Active; 'I' for Inactive)
ROOT
ATOM      1  C   UNL d   1      -0.100  -4.031  -0.166  0.00  0.00    -0.002 A 
ATOM      2  C1  UNL d   1      -0.170  -3.517   1.121  0.00  0.00     0.010 A 
ATOM      3  C2  UNL d   1       0.602  -2.413   1.488  0.00  0.00     0.041 A 
ATOM      4  C3  UNL d   1       1.452  -1.827   0.530  0.00  0.00    -0.075 A 
ATOM      5  S   UNL d   1       2.488  -0.467   0.753  0.00  0.00     0.015 SA
ATOM      6  C4  UNL d   1       3.047  -0.535  -0.856  0.00  0.00     0.022 A 
ATOM      7  C5  UNL d   1       2.468  -1.564  -1.560  0.00  0.00     0.026 A 
ATOM      8  C6  UNL d   1       1.539  -2.325  -0.773  0.00  0.00    -0.082 A 
ATOM      9  C7  UNL d   1       0.744  -3.446  -1.114  0.00  0.00     0.045 A 
ENDROOT
TORSDOF 0
ENDMDL
