MODEL 1
REMARK minimizedAffinity 13.3263245
REMARK minimizedRMSD -1
REMARK  0 active torsions:
REMARK  status: ('A' for Active; 'I' for Inactive)
ROOT
ATOM      1  C   UNL d   1      -1.375  -4.381  -2.414  0.00  0.00    -0.002 A 
ATOM      2  C1  UNL d   1      -2.148  -3.294  -2.030  0.00  0.00     0.010 A 
ATOM      3  C2  UNL d   1      -2.018  -2.746  -0.753  0.00  0.00     0.041 A 
ATOM      4  C3  UNL d   1      -1.087  -3.312   0.140  0.00  0.00    -0.075 A 
ATOM      5  S   UNL d   1      -0.755  -2.807   1.755  0.00  0.00     0.015 SA
ATOM      6  C4  UNL d   1       0.421  -4.021   1.973  0.00  0.00     0.022 A 
ATOM      7  C5  UNL d   1       0.569  -4.802   0.851  0.00  0.00     0.026 A 
ATOM      8  C6  UNL d   1      -0.297  -4.407  -0.223  0.00  0.00    -0.082 A 
ATOM      9  C7  UNL d   1      -0.453  -4.941  -1.525  0.00  0.00     0.045 A 
ENDROOT
TORSDOF 0
ENDMDL
