MODEL 1
REMARK minimizedAffinity 5.79433203
REMARK minimizedRMSD -1
REMARK  0 active torsions:
REMARK  status: ('A' for Active; 'I' for Inactive)
ROOT
ATOM      1  C   UNL d   1      -1.878  -3.763  -1.215  0.00  0.00    -0.002 A 
ATOM      2  C1  UNL d   1      -2.408  -5.034  -1.043  0.00  0.00     0.010 A 
ATOM      3  C2  UNL d   1      -2.101  -5.784   0.094  0.00  0.00     0.041 A 
ATOM      4  C3  UNL d   1      -1.246  -5.228   1.066  0.00  0.00    -0.075 A 
ATOM      5  S   UNL d   1      -0.731  -5.962   2.539  0.00  0.00     0.015 SA
ATOM      6  C4  UNL d   1       0.203  -4.605   2.975  0.00  0.00     0.022 A 
ATOM      7  C5  UNL d   1       0.135  -3.607   2.032  0.00  0.00     0.026 A 
ATOM      8  C6  UNL d   1      -0.701  -3.950   0.916  0.00  0.00    -0.082 A 
ATOM      9  C7  UNL d   1      -1.031  -3.215  -0.248  0.00  0.00     0.045 A 
ENDROOT
TORSDOF 0
ENDMDL
