MODEL 1
REMARK minimizedAffinity 5.820714
REMARK minimizedRMSD -1
REMARK  0 active torsions:
REMARK  status: ('A' for Active; 'I' for Inactive)
ROOT
ATOM      1  C   UNL d   1       3.883   5.883   1.285  0.00  0.00    -0.002 A 
ATOM      2  C1  UNL d   1       5.266   5.996   1.261  0.00  0.00     0.010 A 
ATOM      3  C2  UNL d   1       5.999   5.999   2.450  0.00  0.00     0.041 A 
ATOM      4  C3  UNL d   1       5.311   5.882   3.674  0.00  0.00    -0.075 A 
ATOM      5  S   UNL d   1       6.000   5.861   5.255  0.00  0.00     0.015 SA
ATOM      6  C4  UNL d   1       4.475   5.700   5.998  0.00  0.00     0.022 A 
ATOM      7  C5  UNL d   1       3.454   5.662   5.078  0.00  0.00     0.026 A 
ATOM      8  C6  UNL d   1       3.919   5.766   3.723  0.00  0.00    -0.082 A 
ATOM      9  C7  UNL d   1       3.205   5.768   2.501  0.00  0.00     0.045 A 
ENDROOT
TORSDOF 0
ENDMDL
