MODEL 1
REMARK minimizedAffinity 7.12095451
REMARK minimizedRMSD -1
REMARK  0 active torsions:
REMARK  status: ('A' for Active; 'I' for Inactive)
ROOT
ATOM      1  C   UNL d   1      -3.506  -4.804  -0.056  0.00  0.00    -0.002 A 
ATOM      2  C1  UNL d   1      -2.862  -4.806  -1.285  0.00  0.00     0.010 A 
ATOM      3  C2  UNL d   1      -1.569  -4.294  -1.409  0.00  0.00     0.041 A 
ATOM      4  C3  UNL d   1      -0.928  -3.776  -0.267  0.00  0.00    -0.075 A 
ATOM      5  S   UNL d   1       0.655  -3.097  -0.181  0.00  0.00     0.015 SA
ATOM      6  C4  UNL d   1       0.512  -2.789   1.490  0.00  0.00     0.022 A 
ATOM      7  C5  UNL d   1      -0.706  -3.187   1.986  0.00  0.00     0.026 A 
ATOM      8  C6  UNL d   1      -1.556  -3.763   0.982  0.00  0.00    -0.082 A 
ATOM      9  C7  UNL d   1      -2.867  -4.289   1.075  0.00  0.00     0.045 A 
ENDROOT
TORSDOF 0
ENDMDL
