MODEL 1
REMARK minimizedAffinity 14.3437204
REMARK minimizedRMSD -1
REMARK  0 active torsions:
REMARK  status: ('A' for Active; 'I' for Inactive)
ROOT
ATOM      1  C   UNL d   1       1.916  -2.028   0.654  0.00  0.00    -0.002 A 
ATOM      2  C1  UNL d   1       2.597  -2.648  -0.384  0.00  0.00     0.010 A 
ATOM      3  C2  UNL d   1       1.916  -3.445  -1.305  0.00  0.00     0.041 A 
ATOM      4  C3  UNL d   1       0.523  -3.610  -1.165  0.00  0.00    -0.075 A 
ATOM      5  S   UNL d   1      -0.520  -4.539  -2.175  0.00  0.00     0.015 SA
ATOM      6  C4  UNL d   1      -1.895  -4.135  -1.253  0.00  0.00     0.022 A 
ATOM      7  C5  UNL d   1      -1.584  -3.312  -0.197  0.00  0.00     0.026 A 
ATOM      8  C6  UNL d   1      -0.185  -2.995  -0.129  0.00  0.00    -0.082 A 
ATOM      9  C7  UNL d   1       0.535  -2.193   0.789  0.00  0.00     0.045 A 
ENDROOT
TORSDOF 0
ENDMDL
