MODEL 1
REMARK minimizedAffinity 3.67991471
REMARK minimizedRMSD -1
REMARK  0 active torsions:
REMARK  status: ('A' for Active; 'I' for Inactive)
ROOT
ATOM      1  C   UNL d   1       0.084   2.946  -4.985  0.00  0.00    -0.002 A 
ATOM      2  C1  UNL d   1      -0.874   3.092  -5.978  0.00  0.00     0.010 A 
ATOM      3  C2  UNL d   1      -2.225   2.877  -5.699  0.00  0.00     0.041 A 
ATOM      4  C3  UNL d   1      -2.600   2.511  -4.391  0.00  0.00    -0.075 A 
ATOM      5  S   UNL d   1      -4.195   2.197  -3.817  0.00  0.00     0.015 SA
ATOM      6  C4  UNL d   1      -3.642   1.863  -2.240  0.00  0.00     0.022 A 
ATOM      7  C5  UNL d   1      -2.277   1.983  -2.136  0.00  0.00     0.026 A 
ATOM      8  C6  UNL d   1      -1.654   2.359  -3.374  0.00  0.00    -0.082 A 
ATOM      9  C7  UNL d   1      -0.292   2.583  -3.689  0.00  0.00     0.045 A 
ENDROOT
TORSDOF 0
ENDMDL
