MODEL 1
REMARK minimizedAffinity 9.0231638
REMARK minimizedRMSD -1
REMARK  0 active torsions:
REMARK  status: ('A' for Active; 'I' for Inactive)
ROOT
ATOM      1  C   UNL d   1      -2.571   2.208  -3.910  0.00  0.00    -0.002 A 
ATOM      2  C1  UNL d   1      -2.516   2.151  -5.296  0.00  0.00     0.010 A 
ATOM      3  C2  UNL d   1      -1.292   2.005  -5.952  0.00  0.00     0.041 A 
ATOM      4  C3  UNL d   1      -0.114   1.914  -5.185  0.00  0.00    -0.075 A 
ATOM      5  S   UNL d   1       1.497   1.731  -5.772  0.00  0.00     0.015 SA
ATOM      6  C4  UNL d   1       2.149   1.723  -4.198  0.00  0.00     0.022 A 
ATOM      7  C5  UNL d   1       1.176   1.856  -3.236  0.00  0.00     0.026 A 
ATOM      8  C6  UNL d   1      -0.144   1.968  -3.789  0.00  0.00    -0.082 A 
ATOM      9  C7  UNL d   1      -1.400   2.118  -3.153  0.00  0.00     0.045 A 
ENDROOT
TORSDOF 0
ENDMDL
