MODEL 1
REMARK minimizedAffinity 9.64618015
REMARK minimizedRMSD -1
REMARK  0 active torsions:
REMARK  status: ('A' for Active; 'I' for Inactive)
ROOT
ATOM      1  C   UNL d   1      -2.715   3.103  -5.454  0.00  0.00    -0.002 A 
ATOM      2  C1  UNL d   1      -2.681   2.093  -4.502  0.00  0.00     0.010 A 
ATOM      3  C2  UNL d   1      -1.464   1.557  -4.078  0.00  0.00     0.041 A 
ATOM      4  C3  UNL d   1      -0.269   2.059  -4.631  0.00  0.00    -0.075 A 
ATOM      5  S   UNL d   1       1.338   1.555  -4.263  0.00  0.00     0.015 SA
ATOM      6  C4  UNL d   1       2.018   2.669  -5.359  0.00  0.00     0.022 A 
ATOM      7  C5  UNL d   1       1.057   3.414  -5.999  0.00  0.00     0.026 A 
ATOM      8  C6  UNL d   1      -0.277   3.075  -5.590  0.00  0.00    -0.082 A 
ATOM      9  C7  UNL d   1      -1.528   3.598  -6.000  0.00  0.00     0.045 A 
ENDROOT
TORSDOF 0
ENDMDL
