MODEL 1
REMARK minimizedAffinity -1.37935984
REMARK minimizedRMSD -1
REMARK  0 active torsions:
REMARK  status: ('A' for Active; 'I' for Inactive)
ROOT
ATOM      1  C   UNL d   1      -2.178  -3.642  -1.045  0.00  0.00    -0.002 A 
ATOM      2  C1  UNL d   1      -2.410  -3.376   0.297  0.00  0.00     0.010 A 
ATOM      3  C2  UNL d   1      -1.348  -3.101   1.160  0.00  0.00     0.041 A 
ATOM      4  C3  UNL d   1      -0.036  -3.096   0.647  0.00  0.00    -0.075 A 
ATOM      5  S   UNL d   1       1.420  -2.784   1.517  0.00  0.00     0.015 SA
ATOM      6  C4  UNL d   1       2.383  -2.995   0.127  0.00  0.00     0.022 A 
ATOM      7  C5  UNL d   1       1.630  -3.297  -0.982  0.00  0.00     0.026 A 
ATOM      8  C6  UNL d   1       0.223  -3.359  -0.701  0.00  0.00    -0.082 A 
ATOM      9  C7  UNL d   1      -0.875  -3.636  -1.551  0.00  0.00     0.045 A 
ENDROOT
TORSDOF 0
ENDMDL
