MODEL 1
REMARK minimizedAffinity 11.5544291
REMARK minimizedRMSD -1
REMARK  0 active torsions:
REMARK  status: ('A' for Active; 'I' for Inactive)
ROOT
ATOM      1  C   UNL d   1       1.865   1.860  -5.154  0.00  0.00    -0.002 A 
ATOM      2  C1  UNL d   1       2.437   2.997  -5.706  0.00  0.00     0.010 A 
ATOM      3  C2  UNL d   1       1.655   4.116  -5.999  0.00  0.00     0.041 A 
ATOM      4  C3  UNL d   1       0.274   4.072  -5.723  0.00  0.00    -0.075 A 
ATOM      5  S   UNL d   1      -0.880   5.323  -5.997  0.00  0.00     0.015 SA
ATOM      6  C4  UNL d   1      -2.161   4.378  -5.387  0.00  0.00     0.022 A 
ATOM      7  C5  UNL d   1      -1.736   3.136  -4.980  0.00  0.00     0.026 A 
ATOM      8  C6  UNL d   1      -0.326   2.939  -5.167  0.00  0.00    -0.082 A 
ATOM      9  C7  UNL d   1       0.494   1.821  -4.882  0.00  0.00     0.045 A 
ENDROOT
TORSDOF 0
ENDMDL
