MODEL 1
REMARK minimizedAffinity -5.19658852
REMARK minimizedRMSD -1
REMARK  1 active torsions:
REMARK  status: ('A' for Active; 'I' for Inactive)
REMARK    1  A    between atoms: C1_2  and  C2_3 
ROOT
ATOM      1  C2  UNL d   1      -0.178  -0.191   0.113  0.00  0.00    -0.073 A 
ATOM      2  C3  UNL d   1      -1.445  -0.275   0.702  0.00  0.00    -0.002 A 
ATOM      3  C4  UNL d   1      -1.575  -0.609   2.051  0.00  0.00     0.004 A 
ATOM      4  C5  UNL d   1      -0.441  -0.856   2.825  0.00  0.00    -0.004 A 
ATOM      5  C6  UNL d   1       0.834  -0.766   2.258  0.00  0.00    -0.075 A 
ATOM      6  C7  UNL d   1       2.063  -1.030   3.076  0.00  0.00     0.076 C 
ATOM      7  C8  UNL d   1       0.956  -0.432   0.902  0.00  0.00     0.001 A 
ENDROOT
BRANCH   1   8
ATOM      8  C1  UNL d   1      -0.032   0.176  -1.341  0.00  0.00     0.053 C 
ATOM      9  C   UNL d   1       0.069   1.679  -1.542  0.00  0.00     0.018 C 
ENDBRANCH   1   8
TORSDOF 1
ENDMDL
