MODEL 1
REMARK minimizedAffinity -5.89799118
REMARK minimizedRMSD -1
REMARK  1 active torsions:
REMARK  status: ('A' for Active; 'I' for Inactive)
REMARK    1  A    between atoms: C1_2  and  C2_3 
ROOT
ATOM      1  C2  UNL d   1      -0.147   0.261  -0.283  0.00  0.00    -0.073 A 
ATOM      2  C3  UNL d   1      -1.477  -0.069  -0.003  0.00  0.00    -0.002 A 
ATOM      3  C4  UNL d   1      -1.829  -0.580   1.247  0.00  0.00     0.004 A 
ATOM      4  C5  UNL d   1      -0.856  -0.760   2.231  0.00  0.00    -0.004 A 
ATOM      5  C6  UNL d   1       0.477  -0.426   1.974  0.00  0.00    -0.075 A 
ATOM      6  C7  UNL d   1       1.536  -0.615   3.020  0.00  0.00     0.076 C 
ATOM      7  C8  UNL d   1       0.823   0.085   0.715  0.00  0.00     0.001 A 
ENDROOT
BRANCH   1   8
ATOM      8  C1  UNL d   1       0.236   0.820  -1.629  0.00  0.00     0.053 C 
ATOM      9  C   UNL d   1      -0.456   2.143  -1.915  0.00  0.00     0.018 C 
ENDBRANCH   1   8
TORSDOF 1
ENDMDL
