MODEL 1
REMARK minimizedAffinity -5.56977701
REMARK minimizedRMSD -1
REMARK  1 active torsions:
REMARK  status: ('A' for Active; 'I' for Inactive)
REMARK    1  A    between atoms: C1_2  and  C2_3 
ROOT
ATOM      1  C2  UNL d   1      -0.067  -0.052  -0.163  0.00  0.00    -0.073 A 
ATOM      2  C3  UNL d   1      -1.424  -0.199   0.143  0.00  0.00    -0.002 A 
ATOM      3  C4  UNL d   1      -1.820  -0.576   1.427  0.00  0.00     0.004 A 
ATOM      4  C5  UNL d   1      -0.865  -0.804   2.418  0.00  0.00    -0.004 A 
ATOM      5  C6  UNL d   1       0.496  -0.651   2.134  0.00  0.00    -0.075 A 
ATOM      6  C7  UNL d   1       1.535  -0.894   3.188  0.00  0.00     0.076 C 
ATOM      7  C8  UNL d   1       0.886  -0.274   0.842  0.00  0.00     0.001 A 
ENDROOT
BRANCH   1   8
ATOM      8  C1  UNL d   1       0.366   0.362  -1.546  0.00  0.00     0.053 C 
ATOM      9  C   UNL d   1      -0.286   1.665  -1.981  0.00  0.00     0.018 C 
ENDBRANCH   1   8
TORSDOF 1
ENDMDL
