MODEL 1
REMARK minimizedAffinity -4.33790064
REMARK minimizedRMSD -1
REMARK  1 active torsions:
REMARK  status: ('A' for Active; 'I' for Inactive)
REMARK    1  A    between atoms: C1_2  and  C2_3 
ROOT
ATOM      1  C2  UNL d   1      -0.947  -0.768   0.558  0.00  0.00    -0.073 A 
ATOM      2  C3  UNL d   1      -1.963  -0.567   1.499  0.00  0.00    -0.002 A 
ATOM      3  C4  UNL d   1      -1.946  -1.255   2.713  0.00  0.00     0.004 A 
ATOM      4  C5  UNL d   1      -0.912  -2.145   3.000  0.00  0.00    -0.004 A 
ATOM      5  C6  UNL d   1       0.119  -2.351   2.078  0.00  0.00    -0.075 A 
ATOM      6  C7  UNL d   1       1.238  -3.307   2.371  0.00  0.00     0.076 C 
ATOM      7  C8  UNL d   1       0.094  -1.658   0.860  0.00  0.00     0.001 A 
ENDROOT
BRANCH   1   8
ATOM      8  C1  UNL d   1      -0.958  -0.022  -0.751  0.00  0.00     0.053 C 
ATOM      9  C   UNL d   1      -2.312  -0.096  -1.439  0.00  0.00     0.018 C 
ENDBRANCH   1   8
TORSDOF 1
ENDMDL
