MODEL 1
REMARK minimizedAffinity -4.7189579
REMARK minimizedRMSD -1
REMARK  1 active torsions:
REMARK  status: ('A' for Active; 'I' for Inactive)
REMARK    1  A    between atoms: C1_2  and  C2_3 
ROOT
ATOM      1  C2  UNL d   1      -0.670   0.819  -1.407  0.00  0.00    -0.073 A 
ATOM      2  C3  UNL d   1       0.377   1.627  -1.863  0.00  0.00    -0.002 A 
ATOM      3  C4  UNL d   1       0.113   2.731  -2.675  0.00  0.00     0.004 A 
ATOM      4  C5  UNL d   1      -1.199   3.042  -3.032  0.00  0.00    -0.004 A 
ATOM      5  C6  UNL d   1      -2.260   2.254  -2.575  0.00  0.00    -0.075 A 
ATOM      6  C7  UNL d   1      -3.677   2.574  -2.952  0.00  0.00     0.076 C 
ATOM      7  C8  UNL d   1      -1.987   1.145  -1.763  0.00  0.00     0.001 A 
ENDROOT
BRANCH   1   8
ATOM      8  C1  UNL d   1      -0.391  -0.371  -0.525  0.00  0.00     0.053 C 
ATOM      9  C   UNL d   1       1.075  -0.455  -0.129  0.00  0.00     0.018 C 
ENDBRANCH   1   8
TORSDOF 1
ENDMDL
