MODEL 1
REMARK minimizedAffinity -4.84457064
REMARK minimizedRMSD -1
REMARK  1 active torsions:
REMARK  status: ('A' for Active; 'I' for Inactive)
REMARK    1  A    between atoms: C1_2  and  C2_3 
ROOT
ATOM      1  C2  UNL d   1       0.434  -0.129   0.391  0.00  0.00    -0.073 A 
ATOM      2  C3  UNL d   1       1.670   0.273   0.908  0.00  0.00    -0.002 A 
ATOM      3  C4  UNL d   1       2.040  -0.083   2.206  0.00  0.00     0.004 A 
ATOM      4  C5  UNL d   1       1.183  -0.848   2.996  0.00  0.00    -0.004 A 
ATOM      5  C6  UNL d   1      -0.052  -1.269   2.492  0.00  0.00    -0.075 A 
ATOM      6  C7  UNL d   1      -0.987  -2.091   3.330  0.00  0.00     0.076 C 
ATOM      7  C8  UNL d   1      -0.418  -0.906   1.189  0.00  0.00     0.001 A 
ENDROOT
BRANCH   1   8
ATOM      8  C1  UNL d   1       0.032   0.247  -1.012  0.00  0.00     0.053 C 
ATOM      9  C   UNL d   1       0.100   1.749  -1.241  0.00  0.00     0.018 C 
ENDBRANCH   1   8
TORSDOF 1
ENDMDL
