MODEL 1
REMARK minimizedAffinity 6.64809895
REMARK minimizedRMSD -1
REMARK  0 active torsions:
REMARK  status: ('A' for Active; 'I' for Inactive)
ROOT
ATOM      1  C4' PXY d   1      -0.206   2.516   2.227  0.00  0.00     0.077 C 
ATOM      2  C1' PXY d   1      -1.091   4.779  -3.018  0.00  0.00     0.077 C 
ATOM      3  C1  PXY d   1      -0.866   4.175  -1.646  0.00  0.00    -0.082 A 
ATOM      4  C2  PXY d   1      -0.580   4.964  -0.623  0.00  0.00     0.003 A 
ATOM      5  C3  PXY d   1      -0.342   4.432   0.618  0.00  0.00     0.003 A 
ATOM      6  C4  PXY d   1      -0.450   3.083   0.826  0.00  0.00    -0.082 A 
ATOM      7  C5  PXY d   1      -0.752   2.272  -0.211  0.00  0.00     0.003 A 
ATOM      8  C6  PXY d   1      -0.950   2.828  -1.471  0.00  0.00     0.003 A 
ENDROOT
TORSDOF 0
ENDMDL
