MODEL 1
REMARK minimizedAffinity 12.3812237
REMARK minimizedRMSD -1
REMARK  0 active torsions:
REMARK  status: ('A' for Active; 'I' for Inactive)
ROOT
ATOM      1  C4' PXY d   1      -4.188   1.307  -0.888  0.00  0.00     0.077 C 
ATOM      2  C1' PXY d   1       1.107  -0.817  -1.818  0.00  0.00     0.077 C 
ATOM      3  C1  PXY d   1      -0.286  -0.269  -1.583  0.00  0.00    -0.082 A 
ATOM      4  C2  PXY d   1      -0.436   0.965  -1.129  0.00  0.00     0.003 A 
ATOM      5  C3  PXY d   1      -1.688   1.466  -0.880  0.00  0.00     0.003 A 
ATOM      6  C4  PXY d   1      -2.800   0.715  -1.149  0.00  0.00    -0.082 A 
ATOM      7  C5  PXY d   1      -2.657  -0.541  -1.622  0.00  0.00     0.003 A 
ATOM      8  C6  PXY d   1      -1.376  -1.045  -1.829  0.00  0.00     0.003 A 
ENDROOT
TORSDOF 0
ENDMDL
