MODEL 1
REMARK minimizedAffinity 11.4145594
REMARK minimizedRMSD -1
REMARK  0 active torsions:
REMARK  status: ('A' for Active; 'I' for Inactive)
ROOT
ATOM      1  C4' PXY d   1      -5.178   0.884   0.829  0.00  0.00     0.077 C 
ATOM      2  C1' PXY d   1      -1.628  -1.408  -3.116  0.00  0.00     0.077 C 
ATOM      3  C1  PXY d   1      -2.554  -0.795  -2.083  0.00  0.00    -0.082 A 
ATOM      4  C2  PXY d   1      -3.088  -1.562  -1.147  0.00  0.00     0.003 A 
ATOM      5  C3  PXY d   1      -3.952  -1.031  -0.225  0.00  0.00     0.003 A 
ATOM      6  C4  PXY d   1      -4.231   0.310  -0.228  0.00  0.00    -0.082 A 
ATOM      7  C5  PXY d   1      -3.681   1.101  -1.174  0.00  0.00     0.003 A 
ATOM      8  C6  PXY d   1      -2.839   0.535  -2.126  0.00  0.00     0.003 A 
ENDROOT
TORSDOF 0
ENDMDL
