MODEL 1
REMARK minimizedAffinity 12.710247
REMARK minimizedRMSD -1
REMARK  0 active torsions:
REMARK  status: ('A' for Active; 'I' for Inactive)
ROOT
ATOM      1  C4' PXY d   1       0.881  -1.220  -1.736  0.00  0.00     0.077 C 
ATOM      2  C1' PXY d   1      -4.543   0.709  -1.209  0.00  0.00     0.077 C 
ATOM      3  C1  PXY d   1      -3.117   0.216  -1.350  0.00  0.00    -0.082 A 
ATOM      4  C2  PXY d   1      -2.890  -1.045  -1.681  0.00  0.00     0.003 A 
ATOM      5  C3  PXY d   1      -1.607  -1.517  -1.781  0.00  0.00     0.003 A 
ATOM      6  C4  PXY d   1      -0.543  -0.675  -1.592  0.00  0.00    -0.082 A 
ATOM      7  C5  PXY d   1      -0.766   0.615  -1.264  0.00  0.00     0.003 A 
ATOM      8  C6  PXY d   1      -2.076   1.064  -1.127  0.00  0.00     0.003 A 
ENDROOT
TORSDOF 0
ENDMDL
