MODEL 1
REMARK minimizedAffinity 5.62471628
REMARK minimizedRMSD -1
REMARK  0 active torsions:
REMARK  status: ('A' for Active; 'I' for Inactive)
ROOT
ATOM      1  C4' PXY d   1      -0.843   1.859   2.119  0.00  0.00     0.077 C 
ATOM      2  C1' PXY d   1      -1.117   6.000  -1.905  0.00  0.00     0.077 C 
ATOM      3  C1  PXY d   1      -1.043   4.905  -0.859  0.00  0.00    -0.082 A 
ATOM      4  C2  PXY d   1      -1.636   5.077   0.311  0.00  0.00     0.003 A 
ATOM      5  C3  PXY d   1      -1.552   4.111   1.280  0.00  0.00     0.003 A 
ATOM      6  C4  PXY d   1      -0.899   2.934   1.030  0.00  0.00    -0.082 A 
ATOM      7  C5  PXY d   1      -0.300   2.746  -0.165  0.00  0.00     0.003 A 
ATOM      8  C6  PXY d   1      -0.362   3.756  -1.121  0.00  0.00     0.003 A 
ENDROOT
TORSDOF 0
ENDMDL
