MODEL 1
REMARK minimizedAffinity 8.69404984
REMARK minimizedRMSD -1
REMARK  0 active torsions:
REMARK  status: ('A' for Active; 'I' for Inactive)
ROOT
ATOM      1  C4' PXY d   1      -0.068   0.344   3.402  0.00  0.00     0.077 C 
ATOM      2  C1' PXY d   1       0.008   4.524  -0.589  0.00  0.00     0.077 C 
ATOM      3  C1  PXY d   1      -0.000   3.431   0.461  0.00  0.00    -0.082 A 
ATOM      4  C2  PXY d   1      -0.779   2.374   0.299  0.00  0.00     0.003 A 
ATOM      5  C3  PXY d   1      -0.822   1.391   1.255  0.00  0.00     0.003 A 
ATOM      6  C4  PXY d   1      -0.021   1.467   2.363  0.00  0.00    -0.082 A 
ATOM      7  C5  PXY d   1       0.784   2.537   2.530  0.00  0.00     0.003 A 
ATOM      8  C6  PXY d   1       0.783   3.544   1.568  0.00  0.00     0.003 A 
ENDROOT
TORSDOF 0
ENDMDL
