MODEL 1
REMARK minimizedAffinity 6.02519751
REMARK minimizedRMSD -1
REMARK  0 active torsions:
REMARK  status: ('A' for Active; 'I' for Inactive)
ROOT
ATOM      1  C4' PXY d   1       1.549  -0.984  -2.094  0.00  0.00     0.077 C 
ATOM      2  C1' PXY d   1      -4.109  -0.151  -1.251  0.00  0.00     0.077 C 
ATOM      3  C1  PXY d   1      -2.624  -0.357  -1.472  0.00  0.00    -0.082 A 
ATOM      4  C2  PXY d   1      -2.194  -1.478  -2.027  0.00  0.00     0.003 A 
ATOM      5  C3  PXY d   1      -0.852  -1.694  -2.205  0.00  0.00     0.003 A 
ATOM      6  C4  PXY d   1       0.057  -0.730  -1.860  0.00  0.00    -0.082 A 
ATOM      7  C5  PXY d   1      -0.374   0.422  -1.303  0.00  0.00     0.003 A 
ATOM      8  C6  PXY d   1      -1.738   0.605  -1.093  0.00  0.00     0.003 A 
ENDROOT
TORSDOF 0
ENDMDL
