MODEL 1
REMARK minimizedAffinity 12.9035883
REMARK minimizedRMSD -1
REMARK  0 active torsions:
REMARK  status: ('A' for Active; 'I' for Inactive)
ROOT
ATOM      1  C4' PXY d   1      -0.728   1.050   4.038  0.00  0.00     0.077 C 
ATOM      2  C1' PXY d   1       2.619  -3.386   5.628  0.00  0.00     0.077 C 
ATOM      3  C1  PXY d   1       1.731  -2.227   5.218  0.00  0.00    -0.082 A 
ATOM      4  C2  PXY d   1       1.992  -1.567   4.102  0.00  0.00     0.003 A 
ATOM      5  C3  PXY d   1       1.219  -0.497   3.732  0.00  0.00     0.003 A 
ATOM      6  C4  PXY d   1       0.135  -0.132   4.486  0.00  0.00    -0.082 A 
ATOM      7  C5  PXY d   1      -0.143  -0.807   5.621  0.00  0.00     0.003 A 
ATOM      8  C6  PXY d   1       0.678  -1.865   6.000  0.00  0.00     0.003 A 
ENDROOT
TORSDOF 0
ENDMDL
