MODEL 1
REMARK minimizedAffinity 4.20935106
REMARK minimizedRMSD -1
REMARK  0 active torsions:
REMARK  status: ('A' for Active; 'I' for Inactive)
ROOT
ATOM      1  C4' PXY d   1       0.310   1.174   3.823  0.00  0.00     0.077 C 
ATOM      2  C1' PXY d   1      -0.408   4.894  -0.542  0.00  0.00     0.077 C 
ATOM      3  C1  PXY d   1      -0.208   3.915   0.598  0.00  0.00    -0.082 A 
ATOM      4  C2  PXY d   1      -1.261   3.389   1.201  0.00  0.00     0.003 A 
ATOM      5  C3  PXY d   1      -1.099   2.527   2.254  0.00  0.00     0.003 A 
ATOM      6  C4  PXY d   1       0.156   2.159   2.661  0.00  0.00    -0.082 A 
ATOM      7  C5  PXY d   1       1.236   2.684   2.045  0.00  0.00     0.003 A 
ATOM      8  C6  PXY d   1       1.049   3.589   1.004  0.00  0.00     0.003 A 
ENDROOT
TORSDOF 0
ENDMDL
