MODEL 1
REMARK minimizedAffinity 0.30711174
REMARK minimizedRMSD -1
REMARK  0 active torsions:
REMARK  status: ('A' for Active; 'I' for Inactive)
ROOT
ATOM      1  C4' PXY d   1      -0.789   1.804   2.196  0.00  0.00     0.077 C 
ATOM      2  C1' PXY d   1      -0.637   5.423  -2.310  0.00  0.00     0.077 C 
ATOM      3  C1  PXY d   1      -0.683   4.465  -1.136  0.00  0.00    -0.082 A 
ATOM      4  C2  PXY d   1      -0.655   4.941   0.099  0.00  0.00     0.003 A 
ATOM      5  C3  PXY d   1      -0.663   4.087   1.172  0.00  0.00     0.003 A 
ATOM      6  C4  PXY d   1      -0.755   2.734   0.980  0.00  0.00    -0.082 A 
ATOM      7  C5  PXY d   1      -0.795   2.241  -0.276  0.00  0.00     0.003 A 
ATOM      8  C6  PXY d   1      -0.744   3.123  -1.352  0.00  0.00     0.003 A 
ENDROOT
TORSDOF 0
ENDMDL
