MODEL 1
REMARK minimizedAffinity 0.806533575
REMARK minimizedRMSD -1
REMARK  0 active torsions:
REMARK  status: ('A' for Active; 'I' for Inactive)
ROOT
ATOM      1  C4' PXY d   1      -4.139  -5.991   5.543  0.00  0.00     0.077 C 
ATOM      2  C1' PXY d   1      -5.570  -0.398   5.247  0.00  0.00     0.077 C 
ATOM      3  C1  PXY d   1      -5.187  -1.863   5.314  0.00  0.00    -0.082 A 
ATOM      4  C2  PXY d   1      -6.000  -2.726   5.902  0.00  0.00     0.003 A 
ATOM      5  C3  PXY d   1      -5.655  -4.049   6.000  0.00  0.00     0.003 A 
ATOM      6  C4  PXY d   1      -4.489  -4.504   5.443  0.00  0.00    -0.082 A 
ATOM      7  C5  PXY d   1      -3.659  -3.632   4.832  0.00  0.00     0.003 A 
ATOM      8  C6  PXY d   1      -4.009  -2.286   4.780  0.00  0.00     0.003 A 
ENDROOT
TORSDOF 0
ENDMDL
