MODEL 1
REMARK minimizedAffinity 7.2313776
REMARK minimizedRMSD -1
REMARK  0 active torsions:
REMARK  status: ('A' for Active; 'I' for Inactive)
ROOT
ATOM      1  C4' PXY d   1      -0.125   0.323   3.297  0.00  0.00     0.077 C 
ATOM      2  C1' PXY d   1      -0.084   4.061  -1.113  0.00  0.00     0.077 C 
ATOM      3  C1  PXY d   1      -0.085   3.074   0.038  0.00  0.00    -0.082 A 
ATOM      4  C2  PXY d   1      -1.175   2.928   0.774  0.00  0.00     0.003 A 
ATOM      5  C3  PXY d   1      -1.183   2.064   1.838  0.00  0.00     0.003 A 
ATOM      6  C4  PXY d   1      -0.082   1.301   2.119  0.00  0.00    -0.082 A 
ATOM      7  C5  PXY d   1       1.031   1.436   1.367  0.00  0.00     0.003 A 
ATOM      8  C6  PXY d   1       1.032   2.350   0.317  0.00  0.00     0.003 A 
ENDROOT
TORSDOF 0
ENDMDL
