MODEL 1
REMARK minimizedAffinity 6.369452
REMARK minimizedRMSD -1
REMARK  0 active torsions:
REMARK  status: ('A' for Active; 'I' for Inactive)
ROOT
ATOM      1  C4' PXY d   1      -0.433   3.079   1.350  0.00  0.00     0.077 C 
ATOM      2  C1' PXY d   1       1.656  -1.745   3.755  0.00  0.00     0.077 C 
ATOM      3  C1  PXY d   1       1.096  -0.483   3.128  0.00  0.00    -0.082 A 
ATOM      4  C2  PXY d   1       1.742   0.092   2.127  0.00  0.00     0.003 A 
ATOM      5  C3  PXY d   1       1.267   1.251   1.570  0.00  0.00     0.003 A 
ATOM      6  C4  PXY d   1       0.090   1.798   2.007  0.00  0.00    -0.082 A 
ATOM      7  C5  PXY d   1      -0.580   1.211   3.021  0.00  0.00     0.003 A 
ATOM      8  C6  PXY d   1      -0.059   0.058   3.600  0.00  0.00     0.003 A 
ENDROOT
TORSDOF 0
ENDMDL
