MODEL 1
REMARK minimizedAffinity -0.276142776
REMARK minimizedRMSD -1
REMARK  0 active torsions:
REMARK  status: ('A' for Active; 'I' for Inactive)
ROOT
ATOM      1  C1  BNZ d   1      -3.876   4.746  -5.803  0.00  0.00     0.000 A 
ATOM      2  C2  BNZ d   1      -3.229   5.939  -5.986  0.00  0.00     0.000 A 
ATOM      3  C3  BNZ d   1      -1.863   6.000  -5.999  0.00  0.00     0.000 A 
ATOM      4  C4  BNZ d   1      -1.147   4.876  -5.789  0.00  0.00     0.000 A 
ATOM      5  C5  BNZ d   1      -1.785   3.667  -5.594  0.00  0.00     0.000 A 
ATOM      6  C6  BNZ d   1      -3.160   3.603  -5.620  0.00  0.00     0.000 A 
ENDROOT
TORSDOF 0
ENDMDL
