MODEL 1
REMARK minimizedAffinity -0.409268498
REMARK minimizedRMSD -1
REMARK  0 active torsions:
REMARK  status: ('A' for Active; 'I' for Inactive)
ROOT
ATOM      1  C1  BNZ d   1      -0.318  -3.592  -0.644  0.00  0.00     0.000 A 
ATOM      2  C2  BNZ d   1      -0.436  -2.680   0.371  0.00  0.00     0.000 A 
ATOM      3  C3  BNZ d   1      -1.553  -1.901   0.486  0.00  0.00     0.000 A 
ATOM      4  C4  BNZ d   1      -2.532  -2.006  -0.436  0.00  0.00     0.000 A 
ATOM      5  C5  BNZ d   1      -2.424  -2.914  -1.470  0.00  0.00     0.000 A 
ATOM      6  C6  BNZ d   1      -1.315  -3.724  -1.561  0.00  0.00     0.000 A 
ENDROOT
TORSDOF 0
ENDMDL
