MODEL 1
REMARK minimizedAffinity -3.15444422
REMARK minimizedRMSD -1
REMARK  0 active torsions:
REMARK  status: ('A' for Active; 'I' for Inactive)
ROOT
ATOM      1  C1  BNZ d   1      -1.710  -4.105  -0.446  0.00  0.00     0.000 A 
ATOM      2  C2  BNZ d   1      -2.660  -3.366   0.207  0.00  0.00     0.000 A 
ATOM      3  C3  BNZ d   1      -2.322  -2.215   0.863  0.00  0.00     0.000 A 
ATOM      4  C4  BNZ d   1      -1.031  -1.827   0.900  0.00  0.00     0.000 A 
ATOM      5  C5  BNZ d   1      -0.060  -2.567   0.254  0.00  0.00     0.000 A 
ATOM      6  C6  BNZ d   1      -0.410  -3.703  -0.439  0.00  0.00     0.000 A 
ENDROOT
TORSDOF 0
ENDMDL
