MODEL 1
REMARK minimizedAffinity -2.96516657
REMARK minimizedRMSD -1
REMARK  0 active torsions:
REMARK  status: ('A' for Active; 'I' for Inactive)
ROOT
ATOM      1  C1  BNZ d   1      -2.197  -3.620  -1.214  0.00  0.00     0.000 A 
ATOM      2  C2  BNZ d   1      -0.837  -3.646  -1.057  0.00  0.00     0.000 A 
ATOM      3  C3  BNZ d   1      -0.147  -4.824  -1.125  0.00  0.00     0.000 A 
ATOM      4  C4  BNZ d   1      -0.821  -5.978  -1.310  0.00  0.00     0.000 A 
ATOM      5  C5  BNZ d   1      -2.194  -5.969  -1.461  0.00  0.00     0.000 A 
ATOM      6  C6  BNZ d   1      -2.880  -4.777  -1.431  0.00  0.00     0.000 A 
ENDROOT
TORSDOF 0
ENDMDL
