MODEL 1
REMARK minimizedAffinity 3.39764524
REMARK minimizedRMSD -1
REMARK  0 active torsions:
REMARK  status: ('A' for Active; 'I' for Inactive)
ROOT
ATOM      1  C1  BNZ d   1       1.561   2.985   2.578  0.00  0.00     0.000 A 
ATOM      2  C2  BNZ d   1       2.478   3.789   3.202  0.00  0.00     0.000 A 
ATOM      3  C3  BNZ d   1       3.819   3.583   3.031  0.00  0.00     0.000 A 
ATOM      4  C4  BNZ d   1       4.240   2.552   2.271  0.00  0.00     0.000 A 
ATOM      5  C5  BNZ d   1       3.328   1.727   1.644  0.00  0.00     0.000 A 
ATOM      6  C6  BNZ d   1       1.979   1.961   1.786  0.00  0.00     0.000 A 
ENDROOT
TORSDOF 0
ENDMDL
