MODEL 1
REMARK minimizedAffinity -0.794325769
REMARK minimizedRMSD -1
REMARK  0 active torsions:
REMARK  status: ('A' for Active; 'I' for Inactive)
ROOT
ATOM      1  C1  BNZ d   1       1.475   3.307   3.921  0.00  0.00     0.000 A 
ATOM      2  C2  BNZ d   1       1.900   2.234   3.184  0.00  0.00     0.000 A 
ATOM      3  C3  BNZ d   1       2.989   2.335   2.363  0.00  0.00     0.000 A 
ATOM      4  C4  BNZ d   1       3.625   3.518   2.250  0.00  0.00     0.000 A 
ATOM      5  C5  BNZ d   1       3.203   4.612   2.979  0.00  0.00     0.000 A 
ATOM      6  C6  BNZ d   1       2.131   4.496   3.834  0.00  0.00     0.000 A 
ENDROOT
TORSDOF 0
ENDMDL
