MODEL 1
REMARK minimizedAffinity 2.7865262
REMARK minimizedRMSD -1
REMARK  0 active torsions:
REMARK  status: ('A' for Active; 'I' for Inactive)
ROOT
ATOM      1  C1  BNZ d   1       4.482   2.821   2.148  0.00  0.00     0.000 A 
ATOM      2  C2  BNZ d   1       3.994   1.564   1.910  0.00  0.00     0.000 A 
ATOM      3  C3  BNZ d   1       2.649   1.337   1.834  0.00  0.00     0.000 A 
ATOM      4  C4  BNZ d   1       1.792   2.359   2.037  0.00  0.00     0.000 A 
ATOM      5  C5  BNZ d   1       2.267   3.631   2.287  0.00  0.00     0.000 A 
ATOM      6  C6  BNZ d   1       3.623   3.863   2.324  0.00  0.00     0.000 A 
ENDROOT
TORSDOF 0
ENDMDL
