MODEL 1
REMARK minimizedAffinity -2.6059401
REMARK minimizedRMSD -1
REMARK  0 active torsions:
REMARK  status: ('A' for Active; 'I' for Inactive)
ROOT
ATOM      1  C1  BNZ d   1       2.084  -1.901   0.223  0.00  0.00     0.000 A 
ATOM      2  C2  BNZ d   1       2.735  -3.024  -0.215  0.00  0.00     0.000 A 
ATOM      3  C3  BNZ d   1       2.036  -4.144  -0.570  0.00  0.00     0.000 A 
ATOM      4  C4  BNZ d   1       0.693  -4.153  -0.449  0.00  0.00     0.000 A 
ATOM      5  C5  BNZ d   1       0.023  -3.032  -0.000  0.00  0.00     0.000 A 
ATOM      6  C6  BNZ d   1       0.727  -1.894   0.319  0.00  0.00     0.000 A 
ENDROOT
TORSDOF 0
ENDMDL
