MODEL 1
REMARK minimizedAffinity 3.73936272
REMARK minimizedRMSD -1
REMARK  0 active torsions:
REMARK  status: ('A' for Active; 'I' for Inactive)
ROOT
ATOM      1  C1  BNZ d   1       4.079   3.599   1.598  0.00  0.00     0.000 A 
ATOM      2  C2  BNZ d   1       3.592   2.349   1.328  0.00  0.00     0.000 A 
ATOM      3  C3  BNZ d   1       2.426   1.915   1.894  0.00  0.00     0.000 A 
ATOM      4  C4  BNZ d   1       1.771   2.715   2.759  0.00  0.00     0.000 A 
ATOM      5  C5  BNZ d   1       2.255   3.975   3.050  0.00  0.00     0.000 A 
ATOM      6  C6  BNZ d   1       3.408   4.423   2.448  0.00  0.00     0.000 A 
ENDROOT
TORSDOF 0
ENDMDL
