MODEL 1
REMARK minimizedAffinity 3.89925551
REMARK minimizedRMSD -1
REMARK  0 active torsions:
REMARK  status: ('A' for Active; 'I' for Inactive)
ROOT
ATOM      1  C1  BNZ d   1       2.753   4.456   2.388  0.00  0.00     0.000 A 
ATOM      2  C2  BNZ d   1       1.993   3.390   1.986  0.00  0.00     0.000 A 
ATOM      3  C3  BNZ d   1       2.549   2.150   1.839  0.00  0.00     0.000 A 
ATOM      4  C4  BNZ d   1       3.870   1.986   2.055  0.00  0.00     0.000 A 
ATOM      5  C5  BNZ d   1       4.651   3.053   2.452  0.00  0.00     0.000 A 
ATOM      6  C6  BNZ d   1       4.081   4.291   2.636  0.00  0.00     0.000 A 
ENDROOT
TORSDOF 0
ENDMDL
