MODEL 1
REMARK minimizedAffinity -0.0592481531
REMARK minimizedRMSD -1
REMARK  0 active torsions:
REMARK  status: ('A' for Active; 'I' for Inactive)
ROOT
ATOM      1  C1  BNZ d   1      -0.956  -3.733  -0.646  0.00  0.00     0.000 A 
ATOM      2  C2  BNZ d   1      -0.042  -3.148   0.189  0.00  0.00     0.000 A 
ATOM      3  C3  BNZ d   1       1.167  -3.739   0.428  0.00  0.00     0.000 A 
ATOM      4  C4  BNZ d   1       1.444  -4.932  -0.136  0.00  0.00     0.000 A 
ATOM      5  C5  BNZ d   1       0.529  -5.540  -0.972  0.00  0.00     0.000 A 
ATOM      6  C6  BNZ d   1      -0.671  -4.923  -1.241  0.00  0.00     0.000 A 
ENDROOT
TORSDOF 0
ENDMDL
