MODEL 1
REMARK minimizedAffinity 5.02878332
REMARK minimizedRMSD -1
REMARK  0 active torsions:
REMARK  status: ('A' for Active; 'I' for Inactive)
ROOT
ATOM      1  C1  BNZ d   1       3.009   3.880   2.936  0.00  0.00     0.000 A 
ATOM      2  C2  BNZ d   1       1.753   3.401   2.677  0.00  0.00     0.000 A 
ATOM      3  C3  BNZ d   1       1.577   2.165   2.119  0.00  0.00     0.000 A 
ATOM      4  C4  BNZ d   1       2.656   1.429   1.785  0.00  0.00     0.000 A 
ATOM      5  C5  BNZ d   1       3.929   1.902   2.031  0.00  0.00     0.000 A 
ATOM      6  C6  BNZ d   1       4.102   3.130   2.629  0.00  0.00     0.000 A 
ENDROOT
TORSDOF 0
ENDMDL
