MODEL 1
REMARK minimizedAffinity 6.96514654
REMARK minimizedRMSD -1
REMARK  0 active torsions:
REMARK  status: ('A' for Active; 'I' for Inactive)
ROOT
ATOM      1  C1  BNZ d   1       5.248   2.660   3.743  0.00  0.00     0.000 A 
ATOM      2  C2  BNZ d   1       6.000   2.741   4.885  0.00  0.00     0.000 A 
ATOM      3  C3  BNZ d   1       6.000   3.878   5.644  0.00  0.00     0.000 A 
ATOM      4  C4  BNZ d   1       5.280   4.945   5.240  0.00  0.00     0.000 A 
ATOM      5  C5  BNZ d   1       4.524   4.882   4.086  0.00  0.00     0.000 A 
ATOM      6  C6  BNZ d   1       4.496   3.722   3.346  0.00  0.00     0.000 A 
ENDROOT
TORSDOF 0
ENDMDL
