MODEL 1
REMARK minimizedAffinity 0.0760938376
REMARK minimizedRMSD -1
REMARK  0 active torsions:
REMARK  status: ('A' for Active; 'I' for Inactive)
ROOT
ATOM      1  C1  BNZ d   1       2.945   5.911   1.913  0.00  0.00     0.000 A 
ATOM      2  C2  BNZ d   1       4.104   5.943   2.641  0.00  0.00     0.000 A 
ATOM      3  C3  BNZ d   1       4.072   5.967   4.007  0.00  0.00     0.000 A 
ATOM      4  C4  BNZ d   1       2.883   5.999   4.642  0.00  0.00     0.000 A 
ATOM      5  C5  BNZ d   1       1.705   5.977   3.922  0.00  0.00     0.000 A 
ATOM      6  C6  BNZ d   1       1.741   5.914   2.547  0.00  0.00     0.000 A 
ENDROOT
TORSDOF 0
ENDMDL
