MODEL 1
REMARK minimizedAffinity 3.92245483
REMARK minimizedRMSD -1
REMARK  0 active torsions:
REMARK  status: ('A' for Active; 'I' for Inactive)
ROOT
ATOM      1  C1  BNZ d   1       2.944   2.579   2.326  0.00  0.00     0.000 A 
ATOM      2  C2  BNZ d   1       2.842   3.942   2.408  0.00  0.00     0.000 A 
ATOM      3  C3  BNZ d   1       3.948   4.736   2.276  0.00  0.00     0.000 A 
ATOM      4  C4  BNZ d   1       5.157   4.165   2.103  0.00  0.00     0.000 A 
ATOM      5  C5  BNZ d   1       5.277   2.791   2.027  0.00  0.00     0.000 A 
ATOM      6  C6  BNZ d   1       4.157   1.997   2.121  0.00  0.00     0.000 A 
ENDROOT
TORSDOF 0
ENDMDL
