MODEL 1
REMARK minimizedAffinity 4.6827178
REMARK minimizedRMSD -1
REMARK  0 active torsions:
REMARK  status: ('A' for Active; 'I' for Inactive)
ROOT
ATOM      1  C1  BNZ d   1       2.590   3.777   2.430  0.00  0.00     0.000 A 
ATOM      2  C2  BNZ d   1       2.204   4.958   3.006  0.00  0.00     0.000 A 
ATOM      3  C3  BNZ d   1       1.480   4.969   4.165  0.00  0.00     0.000 A 
ATOM      4  C4  BNZ d   1       1.109   3.799   4.725  0.00  0.00     0.000 A 
ATOM      5  C5  BNZ d   1       1.482   2.600   4.152  0.00  0.00     0.000 A 
ATOM      6  C6  BNZ d   1       2.244   2.593   3.007  0.00  0.00     0.000 A 
ENDROOT
TORSDOF 0
ENDMDL
