MODEL 1
REMARK minimizedAffinity 0.120251521
REMARK minimizedRMSD -1
REMARK  0 active torsions:
REMARK  status: ('A' for Active; 'I' for Inactive)
ROOT
ATOM      1  C1  BNZ d   1       2.800   3.053   2.120  0.00  0.00     0.000 A 
ATOM      2  C2  BNZ d   1       3.117   3.711   3.279  0.00  0.00     0.000 A 
ATOM      3  C3  BNZ d   1       3.698   4.948   3.245  0.00  0.00     0.000 A 
ATOM      4  C4  BNZ d   1       3.998   5.508   2.056  0.00  0.00     0.000 A 
ATOM      5  C5  BNZ d   1       3.693   4.853   0.879  0.00  0.00     0.000 A 
ATOM      6  C6  BNZ d   1       3.073   3.625   0.916  0.00  0.00     0.000 A 
ENDROOT
TORSDOF 0
ENDMDL
