MODEL 1
REMARK minimizedAffinity 5.167171
REMARK minimizedRMSD -1
REMARK  1 active torsions:
REMARK  status: ('A' for Active; 'I' for Inactive)
REMARK    1  A    between atoms: C3_4  and  O_7 
ROOT
ATOM      1  C   UNL d   1      -1.955  -0.104   0.192  0.00  0.00    -0.033 A 
ATOM      2  C1  UNL d   1      -0.592  -0.389   0.085  0.00  0.00     0.039 A 
ATOM      3  C2  UNL d   1       0.183  -0.542   1.236  0.00  0.00    -0.080 A 
ATOM      4  C3  UNL d   1      -0.415  -0.408   2.486  0.00  0.00     0.150 A 
ATOM      5  C4  UNL d   1      -1.773  -0.128   2.600  0.00  0.00    -0.007 A 
ATOM      6  C5  UNL d   1      -2.545   0.025   1.449  0.00  0.00     0.039 A 
ENDROOT
BRANCH   4   7
ATOM      7  O   UNL d   1       0.302  -0.544   3.637  0.00  0.00    -0.526 OA
ATOM      8  H5  UNL d   1       1.231  -0.707   3.404  0.00  0.00     0.418 HD
ENDBRANCH   4   7
TORSDOF 1
ENDMDL
