MODEL 1
REMARK minimizedAffinity 1.43676805
REMARK minimizedRMSD -1
REMARK  1 active torsions:
REMARK  status: ('A' for Active; 'I' for Inactive)
REMARK    1  A    between atoms: C3_4  and  O_7 
ROOT
ATOM      1  C   UNL d   1      -0.791  -0.382   1.383  0.00  0.00    -0.033 A 
ATOM      2  C1  UNL d   1      -0.789  -1.248   2.478  0.00  0.00     0.039 A 
ATOM      3  C2  UNL d   1       0.053  -2.362   2.487  0.00  0.00    -0.080 A 
ATOM      4  C3  UNL d   1       0.886  -2.598   1.397  0.00  0.00     0.150 A 
ATOM      5  C4  UNL d   1       0.892  -1.737   0.305  0.00  0.00    -0.007 A 
ATOM      6  C5  UNL d   1       0.050  -0.625   0.297  0.00  0.00     0.039 A 
ENDROOT
BRANCH   4   7
ATOM      7  O   UNL d   1       1.722  -3.675   1.359  0.00  0.00    -0.526 OA
ATOM      8  H5  UNL d   1       1.589  -4.196   2.168  0.00  0.00     0.418 HD
ENDBRANCH   4   7
TORSDOF 1
ENDMDL
