MODEL 1
REMARK minimizedAffinity -1.48890364
REMARK minimizedRMSD -1
REMARK  1 active torsions:
REMARK  status: ('A' for Active; 'I' for Inactive)
REMARK    1  A    between atoms: C3_4  and  O_7 
ROOT
ATOM      1  C   UNL d   1       0.083   0.021   0.832  0.00  0.00    -0.033 A 
ATOM      2  C1  UNL d   1      -0.061  -0.864   1.903  0.00  0.00     0.039 A 
ATOM      3  C2  UNL d   1       0.622  -2.082   1.901  0.00  0.00    -0.080 A 
ATOM      4  C3  UNL d   1       1.445  -2.402   0.824  0.00  0.00     0.150 A 
ATOM      5  C4  UNL d   1       1.596  -1.524  -0.244  0.00  0.00    -0.007 A 
ATOM      6  C5  UNL d   1       0.913  -0.309  -0.240  0.00  0.00     0.039 A 
ENDROOT
BRANCH   4   7
ATOM      7  O   UNL d   1       2.127  -3.581   0.776  0.00  0.00    -0.526 OA
ATOM      8  H5  UNL d   1       1.904  -4.099   1.567  0.00  0.00     0.418 HD
ENDBRANCH   4   7
TORSDOF 1
ENDMDL
