MODEL 1
REMARK minimizedAffinity 2.88705516
REMARK minimizedRMSD -1
REMARK  1 active torsions:
REMARK  status: ('A' for Active; 'I' for Inactive)
REMARK    1  A    between atoms: C3_4  and  O_7 
ROOT
ATOM      1  C   UNL d   1      -4.141   0.896  -3.001  0.00  0.00    -0.033 A 
ATOM      2  C1  UNL d   1      -3.010   1.697  -2.836  0.00  0.00     0.039 A 
ATOM      3  C2  UNL d   1      -3.115   3.086  -2.936  0.00  0.00    -0.080 A 
ATOM      4  C3  UNL d   1      -4.356   3.660  -3.199  0.00  0.00     0.150 A 
ATOM      5  C4  UNL d   1      -5.488   2.867  -3.360  0.00  0.00    -0.007 A 
ATOM      6  C5  UNL d   1      -5.381   1.481  -3.261  0.00  0.00     0.039 A 
ENDROOT
BRANCH   4   7
ATOM      7  O   UNL d   1      -4.507   5.010  -3.311  0.00  0.00    -0.526 OA
ATOM      8  H5  UNL d   1      -3.636   5.427  -3.205  0.00  0.00     0.418 HD
ENDBRANCH   4   7
TORSDOF 1
ENDMDL
