MODEL 1
REMARK minimizedAffinity -1.88442051
REMARK minimizedRMSD -1
REMARK  1 active torsions:
REMARK  status: ('A' for Active; 'I' for Inactive)
REMARK    1  A    between atoms: C3_4  and  O_7 
ROOT
ATOM      1  C   UNL d   1      -0.716  -0.367   1.545  0.00  0.00    -0.033 A 
ATOM      2  C1  UNL d   1      -0.427  -1.059   2.723  0.00  0.00     0.039 A 
ATOM      3  C2  UNL d   1       0.530  -2.076   2.719  0.00  0.00    -0.080 A 
ATOM      4  C3  UNL d   1       1.190  -2.389   1.534  0.00  0.00     0.150 A 
ATOM      5  C4  UNL d   1       0.909  -1.701   0.359  0.00  0.00    -0.007 A 
ATOM      6  C5  UNL d   1      -0.047  -0.687   0.364  0.00  0.00     0.039 A 
ENDROOT
BRANCH   4   7
ATOM      7  O   UNL d   1       2.128  -3.377   1.481  0.00  0.00    -0.526 OA
ATOM      8  H5  UNL d   1       2.197  -3.784   2.360  0.00  0.00     0.418 HD
ENDBRANCH   4   7
TORSDOF 1
ENDMDL
