MODEL 1
REMARK minimizedAffinity -0.549190223
REMARK minimizedRMSD -1
REMARK  0 active torsions:
REMARK  status: ('A' for Active; 'I' for Inactive)
ROOT
ATOM      1  C   UNL d   1       1.768  -1.377   2.557  0.00  0.00     0.124 A 
ATOM      2  C1  UNL d   1       0.444  -0.962   2.570  0.00  0.00     0.062 A 
ATOM      3  C2  UNL d   1      -0.108  -0.344   1.452  0.00  0.00     0.162 A 
ATOM      4  C3  UNL d   1       0.665  -0.138   0.309  0.00  0.00    -0.034 A 
ATOM      5  C4  UNL d   1       1.997  -0.556   0.303  0.00  0.00     0.162 A 
ATOM      6  C5  UNL d   1       2.544  -1.173   1.424  0.00  0.00     0.062 A 
ATOM      7  F   UNL d   1       3.824  -1.573   1.409  0.00  0.00    -0.097 F 
ATOM      8  F1  UNL d   1       2.769  -0.373  -0.778  0.00  0.00    -0.096 F 
ATOM      9  I   UNL d   1      -0.156   0.786  -1.366  0.00  0.00    -0.060 I 
ATOM     10  F2  UNL d   1      -1.390   0.046   1.493  0.00  0.00    -0.096 F 
ATOM     11  F3  UNL d   1      -0.307  -1.157   3.664  0.00  0.00    -0.097 F 
ATOM     12  F4  UNL d   1       2.297  -1.970   3.635  0.00  0.00    -0.092 F 
ENDROOT
TORSDOF 0
ENDMDL
