MODEL 1
REMARK minimizedAffinity 2.23164725
REMARK minimizedRMSD -1
REMARK  0 active torsions:
REMARK  status: ('A' for Active; 'I' for Inactive)
ROOT
ATOM      1  C   UNL d   1       0.786  -1.264   1.288  0.00  0.00     0.124 A 
ATOM      2  C1  UNL d   1      -0.450  -0.722   1.608  0.00  0.00     0.062 A 
ATOM      3  C2  UNL d   1      -1.165   0.001   0.657  0.00  0.00     0.162 A 
ATOM      4  C3  UNL d   1      -0.646   0.184  -0.624  0.00  0.00    -0.034 A 
ATOM      5  C4  UNL d   1       0.599  -0.364  -0.939  0.00  0.00     0.162 A 
ATOM      6  C5  UNL d   1       1.310  -1.085   0.015  0.00  0.00     0.062 A 
ATOM      7  F   UNL d   1       2.505  -1.608  -0.296  0.00  0.00    -0.097 F 
ATOM      8  F1  UNL d   1       1.128  -0.207  -2.161  0.00  0.00    -0.096 F 
ATOM      9  I   UNL d   1      -1.712   1.264  -2.049  0.00  0.00    -0.060 I 
ATOM     10  F2  UNL d   1      -2.358   0.514   0.995  0.00  0.00    -0.096 F 
ATOM     11  F3  UNL d   1      -0.958  -0.893   2.837  0.00  0.00    -0.097 F 
ATOM     12  F4  UNL d   1       1.473  -1.958   2.205  0.00  0.00    -0.092 F 
ENDROOT
TORSDOF 0
ENDMDL
