MODEL 1
REMARK minimizedAffinity 9.63388729
REMARK minimizedRMSD -1
REMARK  0 active torsions:
REMARK  status: ('A' for Active; 'I' for Inactive)
ROOT
ATOM      1  C   UNL d   1       1.018   4.527  -3.788  0.00  0.00     0.124 A 
ATOM      2  C1  UNL d   1       0.776   4.667  -2.428  0.00  0.00     0.062 A 
ATOM      3  C2  UNL d   1       0.623   3.541  -1.625  0.00  0.00     0.162 A 
ATOM      4  C3  UNL d   1       0.711   2.264  -2.180  0.00  0.00    -0.034 A 
ATOM      5  C4  UNL d   1       0.954   2.131  -3.548  0.00  0.00     0.162 A 
ATOM      6  C5  UNL d   1       1.107   3.260  -4.346  0.00  0.00     0.062 A 
ATOM      7  F   UNL d   1       1.340   3.123  -5.660  0.00  0.00    -0.097 F 
ATOM      8  F1  UNL d   1       1.045   0.918  -4.113  0.00  0.00    -0.096 F 
ATOM      9  I   UNL d   1       0.482   0.577  -0.982  0.00  0.00    -0.060 I 
ATOM     10  F2  UNL d   1       0.390   3.706  -0.315  0.00  0.00    -0.096 F 
ATOM     11  F3  UNL d   1       0.690   5.891  -1.887  0.00  0.00    -0.097 F 
ATOM     12  F4  UNL d   1       1.165   5.613  -4.559  0.00  0.00    -0.092 F 
ENDROOT
TORSDOF 0
ENDMDL
