MODEL 1
REMARK minimizedAffinity -2.65986371
REMARK minimizedRMSD -1
REMARK  0 active torsions:
REMARK  status: ('A' for Active; 'I' for Inactive)
ROOT
ATOM      1  C   UNL d   1       0.950  -1.131   1.412  0.00  0.00     0.124 A 
ATOM      2  C1  UNL d   1       1.363  -1.150   0.087  0.00  0.00     0.062 A 
ATOM      3  C2  UNL d   1       0.612  -0.503  -0.890  0.00  0.00     0.162 A 
ATOM      4  C3  UNL d   1      -0.561   0.170  -0.545  0.00  0.00    -0.034 A 
ATOM      5  C4  UNL d   1      -0.970   0.184   0.789  0.00  0.00     0.162 A 
ATOM      6  C5  UNL d   1      -0.215  -0.464   1.762  0.00  0.00     0.062 A 
ATOM      7  F   UNL d   1      -0.616  -0.445   3.041  0.00  0.00    -0.097 F 
ATOM      8  F1  UNL d   1      -2.092   0.821   1.155  0.00  0.00    -0.096 F 
ATOM      9  I   UNL d   1      -1.687   1.138  -2.003  0.00  0.00    -0.060 I 
ATOM     10  F2  UNL d   1       1.035  -0.538  -2.163  0.00  0.00    -0.096 F 
ATOM     11  F3  UNL d   1       2.488  -1.794  -0.254  0.00  0.00    -0.097 F 
ATOM     12  F4  UNL d   1       1.675  -1.755   2.349  0.00  0.00    -0.092 F 
ENDROOT
TORSDOF 0
ENDMDL
