MODEL 1
REMARK minimizedAffinity 1.16453779
REMARK minimizedRMSD -1
REMARK  0 active torsions:
REMARK  status: ('A' for Active; 'I' for Inactive)
ROOT
ATOM      1  C   UNL d   1       1.163  -1.456   1.891  0.00  0.00     0.124 A 
ATOM      2  C1  UNL d   1      -0.063  -0.827   2.053  0.00  0.00     0.062 A 
ATOM      3  C2  UNL d   1      -0.673  -0.193   0.975  0.00  0.00     0.162 A 
ATOM      4  C3  UNL d   1      -0.057  -0.185  -0.277  0.00  0.00    -0.034 A 
ATOM      5  C4  UNL d   1       1.177  -0.819  -0.432  0.00  0.00     0.162 A 
ATOM      6  C5  UNL d   1       1.782  -1.451   0.649  0.00  0.00     0.062 A 
ATOM      7  F   UNL d   1       2.968  -2.058   0.490  0.00  0.00    -0.097 F 
ATOM      8  F1  UNL d   1       1.796  -0.830  -1.622  0.00  0.00    -0.096 F 
ATOM      9  I   UNL d   1      -0.966   0.762  -1.892  0.00  0.00    -0.060 I 
ATOM     10  F2  UNL d   1      -1.859   0.406   1.160  0.00  0.00    -0.096 F 
ATOM     11  F3  UNL d   1      -0.663  -0.829   3.253  0.00  0.00    -0.097 F 
ATOM     12  F4  UNL d   1       1.749  -2.064   2.931  0.00  0.00    -0.092 F 
ENDROOT
TORSDOF 0
ENDMDL
