MODEL 1
REMARK minimizedAffinity -0.764433861
REMARK minimizedRMSD -1
REMARK  0 active torsions:
REMARK  status: ('A' for Active; 'I' for Inactive)
ROOT
ATOM      1  C   UNL d   1      -0.508   1.422  -1.802  0.00  0.00     0.124 A 
ATOM      2  C1  UNL d   1      -0.658   2.163  -0.637  0.00  0.00     0.062 A 
ATOM      3  C2  UNL d   1      -0.387   1.584   0.599  0.00  0.00     0.162 A 
ATOM      4  C3  UNL d   1       0.037   0.258   0.678  0.00  0.00    -0.034 A 
ATOM      5  C4  UNL d   1       0.185  -0.481  -0.497  0.00  0.00     0.162 A 
ATOM      6  C5  UNL d   1      -0.087   0.102  -1.731  0.00  0.00     0.062 A 
ATOM      7  F   UNL d   1       0.059  -0.615  -2.855  0.00  0.00    -0.097 F 
ATOM      8  F1  UNL d   1       0.592  -1.758  -0.458  0.00  0.00    -0.096 F 
ATOM      9  I   UNL d   1       0.443  -0.611   2.526  0.00  0.00    -0.060 I 
ATOM     10  F2  UNL d   1      -0.541   2.323   1.708  0.00  0.00    -0.096 F 
ATOM     11  F3  UNL d   1      -1.066   3.438  -0.703  0.00  0.00    -0.097 F 
ATOM     12  F4  UNL d   1      -0.770   1.981  -2.990  0.00  0.00    -0.092 F 
ENDROOT
TORSDOF 0
ENDMDL
