MODEL 1
REMARK minimizedAffinity 1.79083848
REMARK minimizedRMSD -1
REMARK  0 active torsions:
REMARK  status: ('A' for Active; 'I' for Inactive)
ROOT
ATOM      1  C   UNL d   1      -2.690   2.663   2.419  0.00  0.00     0.124 A 
ATOM      2  C1  UNL d   1      -3.812   1.895   2.138  0.00  0.00     0.062 A 
ATOM      3  C2  UNL d   1      -4.686   1.534   3.159  0.00  0.00     0.162 A 
ATOM      4  C3  UNL d   1      -4.443   1.941   4.471  0.00  0.00    -0.034 A 
ATOM      5  C4  UNL d   1      -3.313   2.712   4.746  0.00  0.00     0.162 A 
ATOM      6  C5  UNL d   1      -2.441   3.070   3.722  0.00  0.00     0.062 A 
ATOM      7  F   UNL d   1      -1.358   3.812   3.996  0.00  0.00    -0.097 F 
ATOM      8  F1  UNL d   1      -3.049   3.120   5.996  0.00  0.00    -0.096 F 
ATOM      9  I   UNL d   1      -5.749   1.403   5.999  0.00  0.00    -0.060 I 
ATOM     10  F2  UNL d   1      -5.762   0.792   2.858  0.00  0.00    -0.096 F 
ATOM     11  F3  UNL d   1      -4.053   1.500   0.880  0.00  0.00    -0.097 F 
ATOM     12  F4  UNL d   1      -1.849   3.008   1.435  0.00  0.00    -0.092 F 
ENDROOT
TORSDOF 0
ENDMDL
