MODEL 1
REMARK minimizedAffinity 7.34793472
REMARK minimizedRMSD -1
REMARK  0 active torsions:
REMARK  status: ('A' for Active; 'I' for Inactive)
ROOT
ATOM      1  C   UNL d   1      -0.610   2.697   1.165  0.00  0.00    -0.002 A 
ATOM      2  C1  UNL d   1       0.639   2.094   1.124  0.00  0.00     0.010 A 
ATOM      3  C2  UNL d   1       0.807   0.778   1.559  0.00  0.00     0.041 A 
ATOM      4  C3  UNL d   1      -0.313   0.071   2.038  0.00  0.00    -0.075 A 
ATOM      5  S   UNL d   1      -0.346  -1.552   2.622  0.00  0.00     0.015 SA
ATOM      6  C4  UNL d   1      -2.019  -1.483   2.938  0.00  0.00     0.022 A 
ATOM      7  C5  UNL d   1      -2.555  -0.260   2.613  0.00  0.00     0.026 A 
ATOM      8  C6  UNL d   1      -1.581   0.656   2.088  0.00  0.00    -0.082 A 
ATOM      9  C7  UNL d   1      -1.719   1.992   1.641  0.00  0.00     0.045 A 
ENDROOT
TORSDOF 0
ENDMDL
