MODEL 1
REMARK minimizedAffinity -1.70615375
REMARK minimizedRMSD -1
REMARK  0 active torsions:
REMARK  status: ('A' for Active; 'I' for Inactive)
ROOT
ATOM      1  C   UNL d   1       0.721   0.848   0.795  0.00  0.00    -0.002 A 
ATOM      2  C1  UNL d   1       0.360  -0.460   1.083  0.00  0.00     0.010 A 
ATOM      3  C2  UNL d   1      -0.871  -0.743   1.677  0.00  0.00     0.041 A 
ATOM      4  C3  UNL d   1      -1.744   0.321   1.977  0.00  0.00    -0.075 A 
ATOM      5  S   UNL d   1      -3.303   0.213   2.704  0.00  0.00     0.015 SA
ATOM      6  C4  UNL d   1      -3.529   1.902   2.648  0.00  0.00     0.022 A 
ATOM      7  C5  UNL d   1      -2.450   2.548   2.091  0.00  0.00     0.026 A 
ATOM      8  C6  UNL d   1      -1.404   1.647   1.695  0.00  0.00    -0.082 A 
ATOM      9  C7  UNL d   1      -0.148   1.902   1.094  0.00  0.00     0.045 A 
ENDROOT
TORSDOF 0
ENDMDL
