MODEL 1
REMARK minimizedAffinity 3.80058169
REMARK minimizedRMSD -1
REMARK  0 active torsions:
REMARK  status: ('A' for Active; 'I' for Inactive)
ROOT
ATOM      1  C   UNL d   1       0.442   2.470   1.224  0.00  0.00    -0.002 A 
ATOM      2  C1  UNL d   1      -0.809   2.974   1.551  0.00  0.00     0.010 A 
ATOM      3  C2  UNL d   1      -1.823   2.124   1.994  0.00  0.00     0.041 A 
ATOM      4  C3  UNL d   1      -1.556   0.746   2.107  0.00  0.00    -0.075 A 
ATOM      5  S   UNL d   1      -2.645  -0.485   2.630  0.00  0.00     0.015 SA
ATOM      6  C4  UNL d   1      -1.475  -1.708   2.433  0.00  0.00     0.022 A 
ATOM      7  C5  UNL d   1      -0.277  -1.208   1.980  0.00  0.00     0.026 A 
ATOM      8  C6  UNL d   1      -0.304   0.214   1.785  0.00  0.00    -0.082 A 
ATOM      9  C7  UNL d   1       0.703   1.102   1.338  0.00  0.00     0.045 A 
ENDROOT
TORSDOF 0
ENDMDL
