MODEL 1
REMARK minimizedAffinity 10.772954
REMARK minimizedRMSD -1
REMARK  0 active torsions:
REMARK  status: ('A' for Active; 'I' for Inactive)
ROOT
ATOM      1  C   UNL d   1       1.919   1.131   0.625  0.00  0.00    -0.002 A 
ATOM      2  C1  UNL d   1       1.467   0.095   1.429  0.00  0.00     0.010 A 
ATOM      3  C2  UNL d   1       0.150   0.077   1.892  0.00  0.00     0.041 A 
ATOM      4  C3  UNL d   1      -0.714   1.128   1.528  0.00  0.00    -0.075 A 
ATOM      5  S   UNL d   1      -2.369   1.316   1.975  0.00  0.00     0.015 SA
ATOM      6  C4  UNL d   1      -2.515   2.777   1.109  0.00  0.00     0.022 A 
ATOM      7  C5  UNL d   1      -1.339   3.128   0.488  0.00  0.00     0.026 A 
ATOM      8  C6  UNL d   1      -0.283   2.183   0.718  0.00  0.00    -0.082 A 
ATOM      9  C7  UNL d   1       1.059   2.173   0.266  0.00  0.00     0.045 A 
ENDROOT
TORSDOF 0
ENDMDL
