MODEL 1
REMARK minimizedAffinity 8.24106312
REMARK minimizedRMSD -1
REMARK  0 active torsions:
REMARK  status: ('A' for Active; 'I' for Inactive)
ROOT
ATOM      1  C   UNL d   1      -2.715  -3.293  -0.948  0.00  0.00    -0.002 A 
ATOM      2  C1  UNL d   1      -1.480  -3.916  -0.834  0.00  0.00     0.010 A 
ATOM      3  C2  UNL d   1      -0.600  -3.567   0.193  0.00  0.00     0.041 A 
ATOM      4  C3  UNL d   1      -0.987  -2.574   1.114  0.00  0.00    -0.075 A 
ATOM      5  S   UNL d   1      -0.075  -1.985   2.453  0.00  0.00     0.015 SA
ATOM      6  C4  UNL d   1      -1.303  -0.894   2.906  0.00  0.00     0.022 A 
ATOM      7  C5  UNL d   1      -2.389  -0.963   2.067  0.00  0.00     0.026 A 
ATOM      8  C6  UNL d   1      -2.226  -1.933   1.020  0.00  0.00    -0.082 A 
ATOM      9  C7  UNL d   1      -3.095  -2.308  -0.032  0.00  0.00     0.045 A 
ENDROOT
TORSDOF 0
ENDMDL
