MODEL 1
REMARK minimizedAffinity 9.19415665
REMARK minimizedRMSD -1
REMARK  0 active torsions:
REMARK  status: ('A' for Active; 'I' for Inactive)
ROOT
ATOM      1  C   UNL d   1      -4.254  -2.627  -1.407  0.00  0.00    -0.002 A 
ATOM      2  C1  UNL d   1      -3.408  -2.100  -2.374  0.00  0.00     0.010 A 
ATOM      3  C2  UNL d   1      -2.065  -2.479  -2.425  0.00  0.00     0.041 A 
ATOM      4  C3  UNL d   1      -1.582  -3.406  -1.480  0.00  0.00    -0.075 A 
ATOM      5  S   UNL d   1       0.025  -4.017  -1.351  0.00  0.00     0.015 SA
ATOM      6  C4  UNL d   1      -0.373  -4.992  -0.011  0.00  0.00     0.022 A 
ATOM      7  C5  UNL d   1      -1.696  -4.866   0.343  0.00  0.00     0.026 A 
ATOM      8  C6  UNL d   1      -2.415  -3.951  -0.498  0.00  0.00    -0.082 A 
ATOM      9  C7  UNL d   1      -3.771  -3.546  -0.472  0.00  0.00     0.045 A 
ENDROOT
TORSDOF 0
ENDMDL
