MODEL 1
REMARK minimizedAffinity 13.5128164
REMARK minimizedRMSD -1
REMARK  0 active torsions:
REMARK  status: ('A' for Active; 'I' for Inactive)
ROOT
ATOM      1  C   UNL d   1      -2.915  -2.218  -0.534  0.00  0.00    -0.002 A 
ATOM      2  C1  UNL d   1      -3.108  -1.493  -1.701  0.00  0.00     0.010 A 
ATOM      3  C2  UNL d   1      -2.260  -1.672  -2.797  0.00  0.00     0.041 A 
ATOM      4  C3  UNL d   1      -1.207  -2.603  -2.699  0.00  0.00    -0.075 A 
ATOM      5  S   UNL d   1      -0.045  -2.989  -3.912  0.00  0.00     0.015 SA
ATOM      6  C4  UNL d   1       0.733  -4.127  -2.910  0.00  0.00     0.022 A 
ATOM      7  C5  UNL d   1       0.135  -4.222  -1.676  0.00  0.00     0.026 A 
ATOM      8  C6  UNL d   1      -0.994  -3.346  -1.534  0.00  0.00    -0.082 A 
ATOM      9  C7  UNL d   1      -1.869  -3.141  -0.441  0.00  0.00     0.045 A 
ENDROOT
TORSDOF 0
ENDMDL
