MODEL 1
REMARK minimizedAffinity 10.9955015
REMARK minimizedRMSD -1
REMARK  0 active torsions:
REMARK  status: ('A' for Active; 'I' for Inactive)
ROOT
ATOM      1  C   UNL d   1       1.341  -0.260   1.715  0.00  0.00    -0.002 A 
ATOM      2  C1  UNL d   1       1.967   0.758   1.010  0.00  0.00     0.010 A 
ATOM      3  C2  UNL d   1       1.323   1.978   0.800  0.00  0.00     0.041 A 
ATOM      4  C3  UNL d   1       0.025   2.161   1.317  0.00  0.00    -0.075 A 
ATOM      5  S   UNL d   1      -0.958   3.572   1.185  0.00  0.00     0.015 SA
ATOM      6  C4  UNL d   1      -2.232   2.857   2.062  0.00  0.00     0.022 A 
ATOM      7  C5  UNL d   1      -1.933   1.574   2.454  0.00  0.00     0.026 A 
ATOM      8  C6  UNL d   1      -0.626   1.152   2.032  0.00  0.00    -0.082 A 
ATOM      9  C7  UNL d   1       0.053  -0.075   2.227  0.00  0.00     0.045 A 
ENDROOT
TORSDOF 0
ENDMDL
