MODEL 1
REMARK minimizedAffinity 9.23073673
REMARK minimizedRMSD -1
REMARK  0 active torsions:
REMARK  status: ('A' for Active; 'I' for Inactive)
ROOT
ATOM      1  C   UNL d   1      -0.819   2.835   1.189  0.00  0.00    -0.002 A 
ATOM      2  C1  UNL d   1       0.471   2.326   1.141  0.00  0.00     0.010 A 
ATOM      3  C2  UNL d   1       0.734   1.016   1.545  0.00  0.00     0.041 A 
ATOM      4  C3  UNL d   1      -0.333   0.217   2.002  0.00  0.00    -0.075 A 
ATOM      5  S   UNL d   1      -0.249  -1.417   2.546  0.00  0.00     0.015 SA
ATOM      6  C4  UNL d   1      -1.924  -1.478   2.856  0.00  0.00     0.022 A 
ATOM      7  C5  UNL d   1      -2.547  -0.290   2.556  0.00  0.00     0.026 A 
ATOM      8  C6  UNL d   1      -1.641   0.707   2.059  0.00  0.00    -0.082 A 
ATOM      9  C7  UNL d   1      -1.874   2.040   1.643  0.00  0.00     0.045 A 
ENDROOT
TORSDOF 0
ENDMDL
