MODEL 1
REMARK minimizedAffinity 8.58508873
REMARK minimizedRMSD -1
REMARK  0 active torsions:
REMARK  status: ('A' for Active; 'I' for Inactive)
ROOT
ATOM      1  C   UNL d   1      -0.740   2.469   1.257  0.00  0.00    -0.002 A 
ATOM      2  C1  UNL d   1       0.527   1.912   1.352  0.00  0.00     0.010 A 
ATOM      3  C2  UNL d   1       0.698   0.613   1.834  0.00  0.00     0.041 A 
ATOM      4  C3  UNL d   1      -0.438  -0.125   2.221  0.00  0.00    -0.075 A 
ATOM      5  S   UNL d   1      -0.471  -1.734   2.839  0.00  0.00     0.015 SA
ATOM      6  C4  UNL d   1      -2.168  -1.721   2.991  0.00  0.00     0.022 A 
ATOM      7  C5  UNL d   1      -2.713  -0.526   2.585  0.00  0.00     0.026 A 
ATOM      8  C6  UNL d   1      -1.724   0.414   2.134  0.00  0.00    -0.082 A 
ATOM      9  C7  UNL d   1      -1.864   1.734   1.642  0.00  0.00     0.045 A 
ENDROOT
TORSDOF 0
ENDMDL
