MODEL 1
REMARK minimizedAffinity 7.91221046
REMARK minimizedRMSD -1
REMARK  0 active torsions:
REMARK  status: ('A' for Active; 'I' for Inactive)
ROOT
ATOM      1  C   UNL d   1       0.819   0.702   1.824  0.00  0.00    -0.002 A 
ATOM      2  C1  UNL d   1       0.828   1.859   1.058  0.00  0.00     0.010 A 
ATOM      3  C2  UNL d   1      -0.306   2.670   0.983  0.00  0.00     0.041 A 
ATOM      4  C3  UNL d   1      -1.460   2.296   1.700  0.00  0.00    -0.075 A 
ATOM      5  S   UNL d   1      -2.965   3.135   1.759  0.00  0.00     0.015 SA
ATOM      6  C4  UNL d   1      -3.654   1.978   2.803  0.00  0.00     0.022 A 
ATOM      7  C5  UNL d   1      -2.772   0.969   3.109  0.00  0.00     0.026 A 
ATOM      8  C6  UNL d   1      -1.493   1.135   2.479  0.00  0.00    -0.082 A 
ATOM      9  C7  UNL d   1      -0.327   0.334   2.533  0.00  0.00     0.045 A 
ENDROOT
TORSDOF 0
ENDMDL
