MODEL 1
REMARK minimizedAffinity 17.6469841
REMARK minimizedRMSD -1
REMARK  0 active torsions:
REMARK  status: ('A' for Active; 'I' for Inactive)
ROOT
ATOM      1  C   UNL d   1       4.867   5.750  -6.000  0.00  0.00    -0.002 A 
ATOM      2  C1  UNL d   1       5.645   5.942  -4.867  0.00  0.00     0.010 A 
ATOM      3  C2  UNL d   1       5.189   5.531  -3.613  0.00  0.00     0.041 A 
ATOM      4  C3  UNL d   1       3.925   4.916  -3.516  0.00  0.00    -0.075 A 
ATOM      5  S   UNL d   1       3.161   4.330  -2.086  0.00  0.00     0.015 SA
ATOM      6  C4  UNL d   1       1.784   3.811  -2.945  0.00  0.00     0.022 A 
ATOM      7  C5  UNL d   1       1.887   4.070  -4.291  0.00  0.00     0.026 A 
ATOM      8  C6  UNL d   1       3.123   4.711  -4.643  0.00  0.00    -0.082 A 
ATOM      9  C7  UNL d   1       3.614   5.140  -5.899  0.00  0.00     0.045 A 
ENDROOT
TORSDOF 0
ENDMDL
