MODEL 1
REMARK minimizedAffinity -0.281012774
REMARK minimizedRMSD -1
REMARK  0 active torsions:
REMARK  status: ('A' for Active; 'I' for Inactive)
ROOT
ATOM      1  C   UNL d   1       5.197   5.989  -5.658  0.00  0.00     0.172 C 
ATOM      2  N   UNL d   1       3.888   5.380  -5.608  0.00  0.00    -0.070 N 
ATOM      3  C1  UNL d   1       3.614   4.113  -5.168  0.00  0.00    -0.004 A 
ATOM      4  C2  UNL d   1       2.255   3.912  -5.279  0.00  0.00    -0.047 A 
ATOM      5  C3  UNL d   1       1.693   5.100  -5.805  0.00  0.00    -0.047 A 
ATOM      6  C4  UNL d   1       2.727   5.992  -6.000  0.00  0.00    -0.004 A 
ENDROOT
TORSDOF 0
ENDMDL
