MODEL 1
REMARK minimizedAffinity -3.42906213
REMARK minimizedRMSD -1
REMARK  0 active torsions:
REMARK  status: ('A' for Active; 'I' for Inactive)
ROOT
ATOM      1  C   UNL d   1      -2.408   0.755  -6.000  0.00  0.00     0.172 C 
ATOM      2  N   UNL d   1      -3.196  -0.060  -5.105  0.00  0.00    -0.070 N 
ATOM      3  C1  UNL d   1      -2.703  -0.836  -4.089  0.00  0.00    -0.004 A 
ATOM      4  C2  UNL d   1      -3.770  -1.453  -3.473  0.00  0.00    -0.047 A 
ATOM      5  C3  UNL d   1      -4.945  -1.034  -4.142  0.00  0.00    -0.047 A 
ATOM      6  C4  UNL d   1      -4.560  -0.173  -5.148  0.00  0.00    -0.004 A 
ENDROOT
TORSDOF 0
ENDMDL
