MODEL 1
REMARK minimizedAffinity 5.04324007
REMARK minimizedRMSD -1
REMARK  0 active torsions:
REMARK  status: ('A' for Active; 'I' for Inactive)
ROOT
ATOM      1  C   UNL d   1       4.596   2.515  -5.035  0.00  0.00     0.172 C 
ATOM      2  N   UNL d   1       4.390   3.925  -5.270  0.00  0.00    -0.070 N 
ATOM      3  C1  UNL d   1       3.337   4.666  -4.805  0.00  0.00    -0.004 A 
ATOM      4  C2  UNL d   1       3.506   5.961  -5.244  0.00  0.00    -0.047 A 
ATOM      5  C3  UNL d   1       4.702   6.000  -6.000  0.00  0.00    -0.047 A 
ATOM      6  C4  UNL d   1       5.229   4.726  -6.000  0.00  0.00    -0.004 A 
ENDROOT
TORSDOF 0
ENDMDL
