MODEL 1
REMARK minimizedAffinity 5.25968361
REMARK minimizedRMSD -1
REMARK  0 active torsions:
REMARK  status: ('A' for Active; 'I' for Inactive)
ROOT
ATOM      1  C   UNL d   1      -5.512   1.151  -4.493  0.00  0.00     0.172 C 
ATOM      2  N   UNL d   1      -4.342   1.443  -3.699  0.00  0.00    -0.070 N 
ATOM      3  C1  UNL d   1      -3.632   2.614  -3.724  0.00  0.00    -0.004 A 
ATOM      4  C2  UNL d   1      -2.593   2.497  -2.825  0.00  0.00    -0.047 A 
ATOM      5  C3  UNL d   1      -2.681   1.211  -2.241  0.00  0.00    -0.047 A 
ATOM      6  C4  UNL d   1      -3.773   0.580  -2.800  0.00  0.00    -0.004 A 
ENDROOT
TORSDOF 0
ENDMDL
