MODEL 1
REMARK minimizedAffinity 2.73437834
REMARK minimizedRMSD -1
REMARK  0 active torsions:
REMARK  status: ('A' for Active; 'I' for Inactive)
ROOT
ATOM      1  C   UNL d   1       1.048   5.961  -6.000  0.00  0.00     0.172 C 
ATOM      2  N   UNL d   1       2.351   5.384  -5.763  0.00  0.00    -0.070 N 
ATOM      3  C1  UNL d   1       3.551   5.999  -6.000  0.00  0.00    -0.004 A 
ATOM      4  C2  UNL d   1       4.553   5.121  -5.645  0.00  0.00    -0.047 A 
ATOM      5  C3  UNL d   1       3.932   3.937  -5.181  0.00  0.00    -0.047 A 
ATOM      6  C4  UNL d   1       2.569   4.127  -5.265  0.00  0.00    -0.004 A 
ENDROOT
TORSDOF 0
ENDMDL
