MODEL 1
REMARK minimizedAffinity 1.02119482
REMARK minimizedRMSD -1
REMARK  0 active torsions:
REMARK  status: ('A' for Active; 'I' for Inactive)
ROOT
ATOM      1  C   UNL d   1       5.946  -2.495   5.718  0.00  0.00     0.172 C 
ATOM      2  N   UNL d   1       5.702  -3.833   5.232  0.00  0.00    -0.070 N 
ATOM      3  C1  UNL d   1       5.340  -4.908   5.999  0.00  0.00    -0.004 A 
ATOM      4  C2  UNL d   1       5.205  -5.996   5.165  0.00  0.00    -0.047 A 
ATOM      5  C3  UNL d   1       5.497  -5.561   3.851  0.00  0.00    -0.047 A 
ATOM      6  C4  UNL d   1       5.801  -4.218   3.921  0.00  0.00    -0.004 A 
ENDROOT
TORSDOF 0
ENDMDL
