MODEL 1
REMARK minimizedAffinity 5.34466314
REMARK minimizedRMSD -1
REMARK  0 active torsions:
REMARK  status: ('A' for Active; 'I' for Inactive)
ROOT
ATOM      1  C   UNL d   1       4.885   2.570  -4.915  0.00  0.00     0.172 C 
ATOM      2  N   UNL d   1       4.488   3.930  -5.194  0.00  0.00    -0.070 N 
ATOM      3  C1  UNL d   1       3.353   4.541  -4.732  0.00  0.00    -0.004 A 
ATOM      4  C2  UNL d   1       3.340   5.830  -5.219  0.00  0.00    -0.047 A 
ATOM      5  C3  UNL d   1       4.508   6.000  -6.000  0.00  0.00    -0.047 A 
ATOM      6  C4  UNL d   1       5.200   4.808  -5.967  0.00  0.00    -0.004 A 
ENDROOT
TORSDOF 0
ENDMDL
