MODEL 1
REMARK minimizedAffinity -0.263535887
REMARK minimizedRMSD -1
REMARK  0 active torsions:
REMARK  status: ('A' for Active; 'I' for Inactive)
ROOT
ATOM      1  C   UNL d   1      -0.127   5.571  -5.929  0.00  0.00     0.172 C 
ATOM      2  N   UNL d   1       1.256   5.157  -5.910  0.00  0.00    -0.070 N 
ATOM      3  C1  UNL d   1       2.338   5.992  -5.818  0.00  0.00    -0.004 A 
ATOM      4  C2  UNL d   1       3.474   5.213  -5.831  0.00  0.00    -0.047 A 
ATOM      5  C3  UNL d   1       3.061   3.863  -5.935  0.00  0.00    -0.047 A 
ATOM      6  C4  UNL d   1       1.683   3.858  -5.982  0.00  0.00    -0.004 A 
ENDROOT
TORSDOF 0
ENDMDL
