MODEL 1
REMARK minimizedAffinity 3.02352858
REMARK minimizedRMSD -1
REMARK  2 active torsions:
REMARK  status: ('A' for Active; 'I' for Inactive)
REMARK    1  A    between atoms: C1_2  and  C2_3 
REMARK    2  A    between atoms: C2_3  and  C3_4 
ROOT
ATOM      1  C3  UNL d   1       3.638   3.576   5.965  0.00  0.00    -0.075 A 
ATOM      2  C4  UNL d   1       2.239   3.491   5.920  0.00  0.00     0.002 A 
ATOM      3  C5  UNL d   1       1.460   4.648   5.886  0.00  0.00     0.002 A 
ATOM      4  C6  UNL d   1       2.067   5.901   5.906  0.00  0.00    -0.004 A 
ATOM      5  C7  UNL d   1       3.455   5.998   5.967  0.00  0.00     0.002 A 
ATOM      6  C8  UNL d   1       4.238   4.842   5.997  0.00  0.00     0.002 A 
ENDROOT
BRANCH   1   7
ATOM      7  C2  UNL d   1       4.488   2.328   5.972  0.00  0.00     0.056 C 
BRANCH   7   8
ATOM      8  C1  UNL d   1       3.704   1.037   5.716  0.00  0.00     0.007 C 
ATOM      9  C   UNL d   1       2.194   1.228   5.788  0.00  0.00     0.009 C 
ENDBRANCH   7   8
ENDBRANCH   1   7
TORSDOF 2
ENDMDL
