MODEL 1
REMARK minimizedAffinity 3.6595571
REMARK minimizedRMSD -1
REMARK  2 active torsions:
REMARK  status: ('A' for Active; 'I' for Inactive)
REMARK    1  A    between atoms: C1_2  and  C2_3 
REMARK    2  A    between atoms: C2_3  and  C3_4 
ROOT
ATOM      1  C3  UNL d   1       4.458   0.543   0.546  0.00  0.00    -0.075 A 
ATOM      2  C4  UNL d   1       4.419   0.990  -0.783  0.00  0.00     0.002 A 
ATOM      3  C5  UNL d   1       3.860   0.192  -1.782  0.00  0.00     0.002 A 
ATOM      4  C6  UNL d   1       3.342  -1.062  -1.468  0.00  0.00    -0.004 A 
ATOM      5  C7  UNL d   1       3.390  -1.522  -0.153  0.00  0.00     0.002 A 
ATOM      6  C8  UNL d   1       3.945  -0.725   0.849  0.00  0.00     0.002 A 
ENDROOT
BRANCH   1   7
ATOM      7  C2  UNL d   1       5.035   1.414   1.637  0.00  0.00     0.056 C 
BRANCH   7   8
ATOM      8  C1  UNL d   1       4.574   2.874   1.580  0.00  0.00     0.007 C 
ATOM      9  C   UNL d   1       4.136   3.419   2.933  0.00  0.00     0.009 C 
ENDBRANCH   7   8
ENDBRANCH   1   7
TORSDOF 2
ENDMDL
