MODEL 1
REMARK minimizedAffinity -4.9384408
REMARK minimizedRMSD -1
REMARK  2 active torsions:
REMARK  status: ('A' for Active; 'I' for Inactive)
REMARK    1  A    between atoms: C1_2  and  C2_3 
REMARK    2  A    between atoms: C2_3  and  C3_4 
ROOT
ATOM      1  C3  UNL d   1       3.030   3.593   5.578  0.00  0.00    -0.075 A 
ATOM      2  C4  UNL d   1       4.058   4.337   4.981  0.00  0.00     0.002 A 
ATOM      3  C5  UNL d   1       5.239   3.715   4.574  0.00  0.00     0.002 A 
ATOM      4  C6  UNL d   1       5.411   2.346   4.768  0.00  0.00    -0.004 A 
ATOM      5  C7  UNL d   1       4.403   1.600   5.375  0.00  0.00     0.002 A 
ATOM      6  C8  UNL d   1       3.219   2.219   5.778  0.00  0.00     0.002 A 
ENDROOT
BRANCH   1   7
ATOM      7  C2  UNL d   1       1.738   4.255   5.993  0.00  0.00     0.056 C 
BRANCH   7   8
ATOM      8  C1  UNL d   1       1.566   5.679   5.455  0.00  0.00     0.007 C 
ATOM      9  C   UNL d   1       0.217   5.910   4.788  0.00  0.00     0.009 C 
ENDBRANCH   7   8
ENDBRANCH   1   7
TORSDOF 2
ENDMDL
