MODEL 1
REMARK minimizedAffinity 4.24554825
REMARK minimizedRMSD -1
REMARK  2 active torsions:
REMARK  status: ('A' for Active; 'I' for Inactive)
REMARK    1  A    between atoms: C1_2  and  C2_3 
REMARK    2  A    between atoms: C2_3  and  C3_4 
ROOT
ATOM      1  C3  UNL d   1       4.003   2.205   5.743  0.00  0.00    -0.075 A 
ATOM      2  C4  UNL d   1       3.058   3.209   5.999  0.00  0.00     0.002 A 
ATOM      3  C5  UNL d   1       3.369   4.550   5.773  0.00  0.00     0.002 A 
ATOM      4  C6  UNL d   1       4.630   4.905   5.298  0.00  0.00    -0.004 A 
ATOM      5  C7  UNL d   1       5.582   3.917   5.055  0.00  0.00     0.002 A 
ATOM      6  C8  UNL d   1       5.271   2.574   5.277  0.00  0.00     0.002 A 
ENDROOT
BRANCH   1   7
ATOM      7  C2  UNL d   1       3.662   0.750   5.958  0.00  0.00     0.056 C 
BRANCH   7   8
ATOM      8  C1  UNL d   1       2.193   0.407   5.687  0.00  0.00     0.007 C 
ATOM      9  C   UNL d   1       1.978  -0.307   4.360  0.00  0.00     0.009 C 
ENDBRANCH   7   8
ENDBRANCH   1   7
TORSDOF 2
ENDMDL
