MODEL 1
REMARK minimizedAffinity 2.53191543
REMARK minimizedRMSD -1
REMARK  2 active torsions:
REMARK  status: ('A' for Active; 'I' for Inactive)
REMARK    1  A    between atoms: C1_2  and  C2_3 
REMARK    2  A    between atoms: C2_3  and  C3_4 
ROOT
ATOM      1  C3  UNL d   1       4.134   3.766   5.340  0.00  0.00    -0.075 A 
ATOM      2  C4  UNL d   1       2.894   3.708   5.994  0.00  0.00     0.002 A 
ATOM      3  C5  UNL d   1       1.995   4.771   5.903  0.00  0.00     0.002 A 
ATOM      4  C6  UNL d   1       2.326   5.906   5.167  0.00  0.00    -0.004 A 
ATOM      5  C7  UNL d   1       3.561   5.982   4.527  0.00  0.00     0.002 A 
ATOM      6  C8  UNL d   1       4.461   4.919   4.613  0.00  0.00     0.002 A 
ENDROOT
BRANCH   1   7
ATOM      7  C2  UNL d   1       5.099   2.608   5.411  0.00  0.00     0.056 C 
BRANCH   7   8
ATOM      8  C1  UNL d   1       4.479   1.255   5.045  0.00  0.00     0.007 C 
ATOM      9  C   UNL d   1       3.320   0.862   5.951  0.00  0.00     0.009 C 
ENDBRANCH   7   8
ENDBRANCH   1   7
TORSDOF 2
ENDMDL
