MODEL 1
REMARK minimizedAffinity -0.968515217
REMARK minimizedRMSD -1
REMARK  2 active torsions:
REMARK  status: ('A' for Active; 'I' for Inactive)
REMARK    1  A    between atoms: C1_2  and  C2_3 
REMARK    2  A    between atoms: C2_3  and  C3_4 
ROOT
ATOM      1  C3  UNL d   1       5.000   2.837   3.483  0.00  0.00    -0.075 A 
ATOM      2  C4  UNL d   1       4.116   2.205   4.370  0.00  0.00     0.002 A 
ATOM      3  C5  UNL d   1       3.842   2.766   5.617  0.00  0.00     0.002 A 
ATOM      4  C6  UNL d   1       4.454   3.958   5.997  0.00  0.00    -0.004 A 
ATOM      5  C7  UNL d   1       5.346   4.587   5.131  0.00  0.00     0.002 A 
ATOM      6  C8  UNL d   1       5.618   4.030   3.880  0.00  0.00     0.002 A 
ENDROOT
BRANCH   1   7
ATOM      7  C2  UNL d   1       5.278   2.251   2.119  0.00  0.00     0.056 C 
BRANCH   7   8
ATOM      8  C1  UNL d   1       4.183   2.531   1.085  0.00  0.00     0.007 C 
ATOM      9  C   UNL d   1       3.919   1.353   0.156  0.00  0.00     0.009 C 
ENDBRANCH   7   8
ENDBRANCH   1   7
TORSDOF 2
ENDMDL
