MODEL 1
REMARK minimizedAffinity 8.53773499
REMARK minimizedRMSD -1
REMARK  2 active torsions:
REMARK  status: ('A' for Active; 'I' for Inactive)
REMARK    1  A    between atoms: C1_2  and  C2_3 
REMARK    2  A    between atoms: C2_3  and  C3_4 
ROOT
ATOM      1  C3  UNL d   1       3.719   3.855   5.013  0.00  0.00    -0.075 A 
ATOM      2  C4  UNL d   1       4.758   4.785   4.862  0.00  0.00     0.002 A 
ATOM      3  C5  UNL d   1       5.772   4.569   3.929  0.00  0.00     0.002 A 
ATOM      4  C6  UNL d   1       5.767   3.418   3.144  0.00  0.00    -0.004 A 
ATOM      5  C7  UNL d   1       4.749   2.479   3.297  0.00  0.00     0.002 A 
ATOM      6  C8  UNL d   1       3.730   2.695   4.226  0.00  0.00     0.002 A 
ENDROOT
BRANCH   1   7
ATOM      7  C2  UNL d   1       2.602   4.097   5.999  0.00  0.00     0.056 C 
BRANCH   7   8
ATOM      8  C1  UNL d   1       2.051   5.527   5.979  0.00  0.00     0.007 C 
ATOM      9  C   UNL d   1       0.529   5.584   5.991  0.00  0.00     0.009 C 
ENDBRANCH   7   8
ENDBRANCH   1   7
TORSDOF 2
ENDMDL
