MODEL 1
REMARK minimizedAffinity 11.5291319
REMARK minimizedRMSD -1
REMARK  2 active torsions:
REMARK  status: ('A' for Active; 'I' for Inactive)
REMARK    1  A    between atoms: C1_2  and  C2_3 
REMARK    2  A    between atoms: C2_3  and  C3_4 
ROOT
ATOM      1  C3  UNL d   1      -3.652   1.368  -4.090  0.00  0.00    -0.075 A 
ATOM      2  C4  UNL d   1      -3.629   2.753  -3.869  0.00  0.00     0.002 A 
ATOM      3  C5  UNL d   1      -4.783   3.517  -4.043  0.00  0.00     0.002 A 
ATOM      4  C6  UNL d   1      -5.969   2.910  -4.450  0.00  0.00    -0.004 A 
ATOM      5  C7  UNL d   1      -5.999   1.538  -4.688  0.00  0.00     0.002 A 
ATOM      6  C8  UNL d   1      -4.847   0.770  -4.511  0.00  0.00     0.002 A 
ENDROOT
BRANCH   1   7
ATOM      7  C2  UNL d   1      -2.414   0.531  -3.875  0.00  0.00     0.056 C 
BRANCH   7   8
ATOM      8  C1  UNL d   1      -2.039   0.339  -2.402  0.00  0.00     0.007 C 
ATOM      9  C   UNL d   1      -3.048  -0.500  -1.630  0.00  0.00     0.009 C 
ENDBRANCH   7   8
ENDBRANCH   1   7
TORSDOF 2
ENDMDL
