MODEL 1
REMARK minimizedAffinity 5.11218405
REMARK minimizedRMSD -1
REMARK  2 active torsions:
REMARK  status: ('A' for Active; 'I' for Inactive)
REMARK    1  A    between atoms: C1_2  and  C2_3 
REMARK    2  A    between atoms: C2_3  and  C3_4 
ROOT
ATOM      1  C3  UNL d   1       4.459   3.307   5.072  0.00  0.00    -0.075 A 
ATOM      2  C4  UNL d   1       5.362   4.380   5.065  0.00  0.00     0.002 A 
ATOM      3  C5  UNL d   1       4.973   5.636   5.532  0.00  0.00     0.002 A 
ATOM      4  C6  UNL d   1       3.677   5.838   6.000  0.00  0.00    -0.004 A 
ATOM      5  C7  UNL d   1       2.766   4.784   5.995  0.00  0.00     0.002 A 
ATOM      6  C8  UNL d   1       3.154   3.525   5.533  0.00  0.00     0.002 A 
ENDROOT
BRANCH   1   7
ATOM      7  C2  UNL d   1       4.882   1.938   4.596  0.00  0.00     0.056 C 
BRANCH   7   8
ATOM      8  C1  UNL d   1       5.365   1.905   3.142  0.00  0.00     0.007 C 
ATOM      9  C   UNL d   1       4.781   3.024   2.290  0.00  0.00     0.009 C 
ENDBRANCH   7   8
ENDBRANCH   1   7
TORSDOF 2
ENDMDL
