MODEL 1
REMARK minimizedAffinity 1.2196883
REMARK minimizedRMSD -1
REMARK  0 active torsions:
REMARK  status: ('A' for Active; 'I' for Inactive)
ROOT
ATOM      1  C1  DEN d   1       3.164   5.339   5.357  0.00  0.00     0.130 A 
ATOM      2  C2  DEN d   1       4.505   5.812   5.687  0.00  0.00    -0.031 A 
ATOM      3  C3  DEN d   1       5.340   4.635   6.000  0.00  0.00     0.027 A 
ATOM      4  C4  DEN d   1       4.691   2.139   6.000  0.00  0.00     0.027 A 
ATOM      5  C5  DEN d   1       3.661   1.247   5.796  0.00  0.00    -0.003 A 
ATOM      6  C6  DEN d   1       2.396   1.655   5.468  0.00  0.00     0.001 A 
ATOM      7  C7  DEN d   1       2.138   2.989   5.289  0.00  0.00     0.017 A 
ATOM      8  C8  DEN d   1       3.169   3.895   5.500  0.00  0.00    -0.094 A 
ATOM      9  C9  DEN d   1       4.444   3.461   5.819  0.00  0.00    -0.072 A 
ENDROOT
TORSDOF 0
ENDMDL
