MODEL 1
REMARK minimizedAffinity -5.46441078
REMARK minimizedRMSD -1
REMARK  0 active torsions:
REMARK  status: ('A' for Active; 'I' for Inactive)
ROOT
ATOM      1  C1  DEN d   1       4.061   4.818   4.350  0.00  0.00     0.130 A 
ATOM      2  C2  DEN d   1       5.248   4.919   5.195  0.00  0.00    -0.031 A 
ATOM      3  C3  DEN d   1       5.347   3.680   5.993  0.00  0.00     0.027 A 
ATOM      4  C4  DEN d   1       3.789   1.625   5.999  0.00  0.00     0.027 A 
ATOM      5  C5  DEN d   1       2.644   1.083   5.459  0.00  0.00    -0.003 A 
ATOM      6  C6  DEN d   1       1.879   1.756   4.544  0.00  0.00     0.001 A 
ATOM      7  C7  DEN d   1       2.274   2.993   4.108  0.00  0.00     0.017 A 
ATOM      8  C8  DEN d   1       3.423   3.549   4.653  0.00  0.00    -0.094 A 
ATOM      9  C9  DEN d   1       4.190   2.848   5.568  0.00  0.00    -0.072 A 
ENDROOT
TORSDOF 0
ENDMDL
