MODEL 1
REMARK minimizedAffinity 3.82027698
REMARK minimizedRMSD -1
REMARK  0 active torsions:
REMARK  status: ('A' for Active; 'I' for Inactive)
ROOT
ATOM      1  C1  DEN d   1       3.747   2.026   4.967  0.00  0.00     0.130 A 
ATOM      2  C2  DEN d   1       2.949   1.759   3.774  0.00  0.00    -0.031 A 
ATOM      3  C3  DEN d   1       2.920   2.990   2.959  0.00  0.00     0.027 A 
ATOM      4  C4  DEN d   1       4.029   5.271   3.426  0.00  0.00     0.027 A 
ATOM      5  C5  DEN d   1       4.799   5.983   4.319  0.00  0.00    -0.003 A 
ATOM      6  C6  DEN d   1       5.240   5.442   5.497  0.00  0.00     0.001 A 
ATOM      7  C7  DEN d   1       4.952   4.135   5.793  0.00  0.00     0.017 A 
ATOM      8  C8  DEN d   1       4.171   3.413   4.901  0.00  0.00    -0.094 A 
ATOM      9  C9  DEN d   1       3.745   3.975   3.710  0.00  0.00    -0.072 A 
ENDROOT
TORSDOF 0
ENDMDL
