MODEL 1
REMARK minimizedAffinity -2.82097936
REMARK minimizedRMSD -1
REMARK  0 active torsions:
REMARK  status: ('A' for Active; 'I' for Inactive)
ROOT
ATOM      1  C1  DEN d   1       3.456   2.790   6.000  0.00  0.00     0.130 A 
ATOM      2  C2  DEN d   1       4.289   1.963   5.131  0.00  0.00    -0.031 A 
ATOM      3  C3  DEN d   1       4.380   2.630   3.816  0.00  0.00     0.027 A 
ATOM      4  C4  DEN d   1       3.323   4.853   3.048  0.00  0.00     0.027 A 
ATOM      5  C5  DEN d   1       2.522   5.907   3.431  0.00  0.00    -0.003 A 
ATOM      6  C6  DEN d   1       1.954   5.978   4.675  0.00  0.00     0.001 A 
ATOM      7  C7  DEN d   1       2.215   4.999   5.597  0.00  0.00     0.017 A 
ATOM      8  C8  DEN d   1       3.015   3.930   5.216  0.00  0.00    -0.094 A 
ATOM      9  C9  DEN d   1       3.590   3.882   3.958  0.00  0.00    -0.072 A 
ENDROOT
TORSDOF 0
ENDMDL
