MODEL 1
REMARK minimizedAffinity -2.82974076
REMARK minimizedRMSD -1
REMARK  0 active torsions:
REMARK  status: ('A' for Active; 'I' for Inactive)
ROOT
ATOM      1  C1  DEN d   1       4.138   2.248   5.272  0.00  0.00     0.130 A 
ATOM      2  C2  DEN d   1       3.016   1.392   5.646  0.00  0.00    -0.031 A 
ATOM      3  C3  DEN d   1       1.876   2.263   6.000  0.00  0.00     0.027 A 
ATOM      4  C4  DEN d   1       1.741   4.839   5.999  0.00  0.00     0.027 A 
ATOM      5  C5  DEN d   1       2.445   6.000   5.766  0.00  0.00    -0.003 A 
ATOM      6  C6  DEN d   1       3.762   5.992   5.388  0.00  0.00     0.001 A 
ATOM      7  C7  DEN d   1       4.403   4.798   5.188  0.00  0.00     0.017 A 
ATOM      8  C8  DEN d   1       3.703   3.624   5.428  0.00  0.00    -0.094 A 
ATOM      9  C9  DEN d   1       2.369   3.652   5.798  0.00  0.00    -0.072 A 
ENDROOT
TORSDOF 0
ENDMDL
