MODEL 1
REMARK minimizedAffinity 5.14879084
REMARK minimizedRMSD -1
REMARK  0 active torsions:
REMARK  status: ('A' for Active; 'I' for Inactive)
ROOT
ATOM      1  C1  DEN d   1       3.377   1.942   5.999  0.00  0.00     0.130 A 
ATOM      2  C2  DEN d   1       2.852   1.109   4.921  0.00  0.00    -0.031 A 
ATOM      3  C3  DEN d   1       3.071   1.820   3.646  0.00  0.00     0.027 A 
ATOM      4  C4  DEN d   1       4.172   4.117   3.237  0.00  0.00     0.027 A 
ATOM      5  C5  DEN d   1       4.762   5.203   3.845  0.00  0.00    -0.003 A 
ATOM      6  C6  DEN d   1       4.899   5.293   5.205  0.00  0.00     0.001 A 
ATOM      7  C7  DEN d   1       4.482   4.258   6.000  0.00  0.00     0.017 A 
ATOM      8  C8  DEN d   1       3.880   3.163   5.395  0.00  0.00    -0.094 A 
ATOM      9  C9  DEN d   1       3.761   3.085   4.017  0.00  0.00    -0.072 A 
ENDROOT
TORSDOF 0
ENDMDL
