MODEL 1
REMARK minimizedAffinity 10.390461
REMARK minimizedRMSD -1
REMARK  0 active torsions:
REMARK  status: ('A' for Active; 'I' for Inactive)
ROOT
ATOM      1  C   UNL d   1      -4.014   1.066   0.916  0.00  0.00     0.020 A 
ATOM      2  C1  UNL d   1      -4.999   0.836   1.876  0.00  0.00     0.020 A 
ATOM      3  C2  UNL d   1      -4.642   0.385   3.148  0.00  0.00     0.034 A 
ATOM      4  C3  UNL d   1      -3.297   0.162   3.464  0.00  0.00     0.017 A 
ATOM      5  C4  UNL d   1      -2.309   0.393   2.500  0.00  0.00     0.017 A 
ATOM      6  C5  UNL d   1      -2.672   0.845   1.227  0.00  0.00     0.034 A 
ATOM      7 Cl   UNL d   1      -0.628   0.141   2.815  0.00  0.00    -0.070 Cl
ATOM      8 Cl1  UNL d   1      -2.927  -0.395   5.057  0.00  0.00    -0.070 Cl
ENDROOT
TORSDOF 0
ENDMDL
