MODEL 1
REMARK minimizedAffinity 4.20460892
REMARK minimizedRMSD -1
REMARK  0 active torsions:
REMARK  status: ('A' for Active; 'I' for Inactive)
ROOT
ATOM      1  C   UNL d   1       0.686   0.388   2.062  0.00  0.00     0.020 A 
ATOM      2  C1  UNL d   1       0.628   0.510   3.449  0.00  0.00     0.020 A 
ATOM      3  C2  UNL d   1      -0.604   0.689   4.083  0.00  0.00     0.034 A 
ATOM      4  C3  UNL d   1      -1.782   0.746   3.329  0.00  0.00     0.017 A 
ATOM      5  C4  UNL d   1      -1.722   0.623   1.936  0.00  0.00     0.017 A 
ATOM      6  C5  UNL d   1      -0.486   0.444   1.307  0.00  0.00     0.034 A 
ATOM      7 Cl   UNL d   1      -3.132   0.683   0.938  0.00  0.00    -0.070 Cl
ATOM      8 Cl1  UNL d   1      -3.270   0.969   4.178  0.00  0.00    -0.070 Cl
ENDROOT
TORSDOF 0
ENDMDL
