MODEL 1
REMARK minimizedAffinity 11.1276903
REMARK minimizedRMSD -1
REMARK  0 active torsions:
REMARK  status: ('A' for Active; 'I' for Inactive)
ROOT
ATOM      1  C   UNL d   1       5.516  -4.125   1.809  0.00  0.00     0.020 A 
ATOM      2  C1  UNL d   1       5.517  -5.500   2.042  0.00  0.00     0.020 A 
ATOM      3  C2  UNL d   1       5.668  -5.987   3.342  0.00  0.00     0.034 A 
ATOM      4  C3  UNL d   1       5.818  -5.100   4.414  0.00  0.00     0.017 A 
ATOM      5  C4  UNL d   1       5.817  -3.720   4.178  0.00  0.00     0.017 A 
ATOM      6  C5  UNL d   1       5.666  -3.237   2.875  0.00  0.00     0.034 A 
ATOM      7 Cl   UNL d   1       5.998  -2.563   5.450  0.00  0.00    -0.070 Cl
ATOM      8 Cl1  UNL d   1       5.999  -5.773   5.995  0.00  0.00    -0.070 Cl
ENDROOT
TORSDOF 0
ENDMDL
