MODEL 1
REMARK minimizedAffinity 1.42833948
REMARK minimizedRMSD -1
REMARK  0 active torsions:
REMARK  status: ('A' for Active; 'I' for Inactive)
ROOT
ATOM      1  C   UNL d   1      -3.160  -0.322   1.413  0.00  0.00     0.020 A 
ATOM      2  C1  UNL d   1      -3.963   0.793   1.655  0.00  0.00     0.020 A 
ATOM      3  C2  UNL d   1      -3.429   1.910   2.302  0.00  0.00     0.034 A 
ATOM      4  C3  UNL d   1      -2.090   1.915   2.708  0.00  0.00     0.017 A 
ATOM      5  C4  UNL d   1      -1.285   0.796   2.464  0.00  0.00     0.017 A 
ATOM      6  C5  UNL d   1      -1.825  -0.320   1.816  0.00  0.00     0.034 A 
ATOM      7 Cl   UNL d   1       0.376   0.728   2.936  0.00  0.00    -0.070 Cl
ATOM      8 Cl1  UNL d   1      -1.497   3.330   3.502  0.00  0.00    -0.070 Cl
ENDROOT
TORSDOF 0
ENDMDL
