MODEL 1
REMARK minimizedAffinity 14.8924675
REMARK minimizedRMSD -1
REMARK  0 active torsions:
REMARK  status: ('A' for Active; 'I' for Inactive)
ROOT
ATOM      1  C   UNL d   1      -4.992   5.782   5.976  0.00  0.00     0.020 A 
ATOM      2  C1  UNL d   1      -5.995   4.872   5.644  0.00  0.00     0.020 A 
ATOM      3  C2  UNL d   1      -5.849   4.049   4.525  0.00  0.00     0.034 A 
ATOM      4  C3  UNL d   1      -4.697   4.134   3.735  0.00  0.00     0.017 A 
ATOM      5  C4  UNL d   1      -3.691   5.048   4.069  0.00  0.00     0.017 A 
ATOM      6  C5  UNL d   1      -3.843   5.869   5.190  0.00  0.00     0.034 A 
ATOM      7 Cl   UNL d   1      -2.242   5.210   3.142  0.00  0.00    -0.070 Cl
ATOM      8 Cl1  UNL d   1      -4.583   3.086   2.366  0.00  0.00    -0.070 Cl
ENDROOT
TORSDOF 0
ENDMDL
