MODEL 1
REMARK minimizedAffinity 12.2922964
REMARK minimizedRMSD -1
REMARK  0 active torsions:
REMARK  status: ('A' for Active; 'I' for Inactive)
ROOT
ATOM      1  C   UNL d   1      -4.042   0.267   2.288  0.00  0.00     0.020 A 
ATOM      2  C1  UNL d   1      -3.713   1.438   1.607  0.00  0.00     0.020 A 
ATOM      3  C2  UNL d   1      -2.376   1.737   1.338  0.00  0.00     0.034 A 
ATOM      4  C3  UNL d   1      -1.362   0.864   1.750  0.00  0.00     0.017 A 
ATOM      5  C4  UNL d   1      -1.693  -0.311   2.434  0.00  0.00     0.017 A 
ATOM      6  C5  UNL d   1      -3.034  -0.606   2.701  0.00  0.00     0.034 A 
ATOM      7 Cl   UNL d   1      -0.498  -1.437   2.974  0.00  0.00    -0.070 Cl
ATOM      8 Cl1  UNL d   1       0.270   1.297   1.383  0.00  0.00    -0.070 Cl
ENDROOT
TORSDOF 0
ENDMDL
