MODEL 1
REMARK minimizedAffinity 3.23751426
REMARK minimizedRMSD -1
REMARK  0 active torsions:
REMARK  status: ('A' for Active; 'I' for Inactive)
ROOT
ATOM      1  C   UNL d   1      -4.015   0.299   2.975  0.00  0.00     0.020 A 
ATOM      2  C1  UNL d   1      -4.099   0.320   1.584  0.00  0.00     0.020 A 
ATOM      3  C2  UNL d   1      -2.936   0.266   0.813  0.00  0.00     0.034 A 
ATOM      4  C3  UNL d   1      -1.683   0.191   1.433  0.00  0.00     0.017 A 
ATOM      5  C4  UNL d   1      -1.600   0.171   2.830  0.00  0.00     0.017 A 
ATOM      6  C5  UNL d   1      -2.767   0.225   3.597  0.00  0.00     0.034 A 
ATOM      7 Cl   UNL d   1      -0.090   0.079   3.666  0.00  0.00    -0.070 Cl
ATOM      8 Cl1  UNL d   1      -0.287   0.128   0.417  0.00  0.00    -0.070 Cl
ENDROOT
TORSDOF 0
ENDMDL
