MODEL 1
REMARK minimizedAffinity 7.29837704
REMARK minimizedRMSD -1
REMARK  0 active torsions:
REMARK  status: ('A' for Active; 'I' for Inactive)
ROOT
ATOM      1  C   UNL d   1      -3.325  -0.591  -5.975  0.00  0.00     0.020 A 
ATOM      2  C1  UNL d   1      -4.521  -1.307  -5.982  0.00  0.00     0.020 A 
ATOM      3  C2  UNL d   1      -4.499  -2.703  -5.989  0.00  0.00     0.034 A 
ATOM      4  C3  UNL d   1      -3.278  -3.388  -5.990  0.00  0.00     0.017 A 
ATOM      5  C4  UNL d   1      -2.078  -2.668  -5.984  0.00  0.00     0.017 A 
ATOM      6  C5  UNL d   1      -2.106  -1.270  -5.976  0.00  0.00     0.034 A 
ATOM      7 Cl   UNL d   1      -0.532  -3.443  -5.985  0.00  0.00    -0.070 Cl
ATOM      8 Cl1  UNL d   1      -3.325  -5.115  -5.999  0.00  0.00    -0.070 Cl
ENDROOT
TORSDOF 0
ENDMDL
