MODEL 1
REMARK minimizedAffinity 10.7503796
REMARK minimizedRMSD -1
REMARK  0 active torsions:
REMARK  status: ('A' for Active; 'I' for Inactive)
ROOT
ATOM      1  C   UNL d   1       0.563   1.596   3.684  0.00  0.00     0.020 A 
ATOM      2  C1  UNL d   1      -0.576   2.396   3.752  0.00  0.00     0.020 A 
ATOM      3  C2  UNL d   1      -1.739   2.015   3.078  0.00  0.00     0.034 A 
ATOM      4  C3  UNL d   1      -1.764   0.831   2.332  0.00  0.00     0.017 A 
ATOM      5  C4  UNL d   1      -0.619   0.028   2.264  0.00  0.00     0.017 A 
ATOM      6  C5  UNL d   1       0.542   0.414   2.941  0.00  0.00     0.034 A 
ATOM      7 Cl   UNL d   1      -0.574  -1.447   1.364  0.00  0.00    -0.070 Cl
ATOM      8 Cl1  UNL d   1      -3.235   0.422   1.524  0.00  0.00    -0.070 Cl
ENDROOT
TORSDOF 0
ENDMDL
