MODEL 1
REMARK minimizedAffinity 5.70103931
REMARK minimizedRMSD -1
REMARK  0 active torsions:
REMARK  status: ('A' for Active; 'I' for Inactive)
ROOT
ATOM      1  C   UNL d   1      -1.114   2.694   2.075  0.00  0.00     0.020 A 
ATOM      2  C1  UNL d   1       0.108   2.043   2.234  0.00  0.00     0.020 A 
ATOM      3  C2  UNL d   1       0.140   0.708   2.643  0.00  0.00     0.034 A 
ATOM      4  C3  UNL d   1      -1.053   0.021   2.895  0.00  0.00     0.017 A 
ATOM      5  C4  UNL d   1      -2.279   0.675   2.735  0.00  0.00     0.017 A 
ATOM      6  C5  UNL d   1      -2.305   2.012   2.324  0.00  0.00     0.034 A 
ATOM      7 Cl   UNL d   1      -3.793  -0.107   3.026  0.00  0.00    -0.070 Cl
ATOM      8 Cl1  UNL d   1      -0.939  -1.629   3.398  0.00  0.00    -0.070 Cl
ENDROOT
TORSDOF 0
ENDMDL
