MODEL 1
REMARK minimizedAffinity 3.84619713
REMARK minimizedRMSD -1
REMARK  0 active torsions:
REMARK  status: ('A' for Active; 'I' for Inactive)
ROOT
ATOM      1  C   UNL d   1      -5.940   0.101   2.220  0.00  0.00     0.020 A 
ATOM      2  C1  UNL d   1      -5.210   0.748   1.224  0.00  0.00     0.020 A 
ATOM      3  C2  UNL d   1      -3.819   0.825   1.316  0.00  0.00     0.034 A 
ATOM      4  C3  UNL d   1      -3.153   0.253   2.407  0.00  0.00     0.017 A 
ATOM      5  C4  UNL d   1      -3.887  -0.396   3.406  0.00  0.00     0.017 A 
ATOM      6  C5  UNL d   1      -5.280  -0.470   3.309  0.00  0.00     0.034 A 
ATOM      7 Cl   UNL d   1      -3.136  -1.125   4.782  0.00  0.00    -0.070 Cl
ATOM      8 Cl1  UNL d   1      -1.431   0.385   2.456  0.00  0.00    -0.070 Cl
ENDROOT
TORSDOF 0
ENDMDL
