MODEL 1
REMARK minimizedAffinity 7.383461
REMARK minimizedRMSD -1
REMARK  0 active torsions:
REMARK  status: ('A' for Active; 'I' for Inactive)
ROOT
ATOM      1  C   UNL d   1      -4.568  -0.221   1.557  0.00  0.00     0.020 A 
ATOM      2  C1  UNL d   1      -3.584  -1.163   1.260  0.00  0.00     0.020 A 
ATOM      3  C2  UNL d   1      -2.238  -0.789   1.253  0.00  0.00     0.034 A 
ATOM      4  C3  UNL d   1      -1.873   0.531   1.544  0.00  0.00     0.017 A 
ATOM      5  C4  UNL d   1      -2.862   1.476   1.842  0.00  0.00     0.017 A 
ATOM      6  C5  UNL d   1      -4.207   1.096   1.847  0.00  0.00     0.034 A 
ATOM      7 Cl   UNL d   1      -2.489   3.123   2.210  0.00  0.00    -0.070 Cl
ATOM      8 Cl1  UNL d   1      -0.191   0.923   1.518  0.00  0.00    -0.070 Cl
ENDROOT
TORSDOF 0
ENDMDL
