MODEL 1
REMARK minimizedAffinity 2.99435186
REMARK minimizedRMSD -1
REMARK  0 active torsions:
REMARK  status: ('A' for Active; 'I' for Inactive)
ROOT
ATOM      1  C   UNL d   1      -0.512   0.577   2.053  0.00  0.00     0.020 A 
ATOM      2  C1  UNL d   1      -0.647   0.672   3.437  0.00  0.00     0.020 A 
ATOM      3  C2  UNL d   1      -1.918   0.667   4.017  0.00  0.00     0.034 A 
ATOM      4  C3  UNL d   1      -3.058   0.566   3.211  0.00  0.00     0.017 A 
ATOM      5  C4  UNL d   1      -2.922   0.470   1.822  0.00  0.00     0.017 A 
ATOM      6  C5  UNL d   1      -1.647   0.476   1.247  0.00  0.00     0.034 A 
ATOM      7 Cl   UNL d   1      -4.282   0.343   0.763  0.00  0.00    -0.070 Cl
ATOM      8 Cl1  UNL d   1      -4.598   0.565   3.996  0.00  0.00    -0.070 Cl
ENDROOT
TORSDOF 0
ENDMDL
