MODEL 1
REMARK minimizedAffinity 5.28683138
REMARK minimizedRMSD -1
REMARK  0 active torsions:
REMARK  status: ('A' for Active; 'I' for Inactive)
ROOT
ATOM      1  C   UNL d   1      -1.634   0.667   2.212  0.00  0.00     0.020 A 
ATOM      2  C1  UNL d   1      -2.145   0.009   1.094  0.00  0.00     0.020 A 
ATOM      3  C2  UNL d   1      -3.496   0.139   0.764  0.00  0.00     0.034 A 
ATOM      4  C3  UNL d   1      -4.340   0.929   1.552  0.00  0.00     0.017 A 
ATOM      5  C4  UNL d   1      -3.826   1.590   2.674  0.00  0.00     0.017 A 
ATOM      6  C5  UNL d   1      -2.473   1.456   3.000  0.00  0.00     0.034 A 
ATOM      7 Cl   UNL d   1      -4.806   2.582   3.695  0.00  0.00    -0.070 Cl
ATOM      8 Cl1  UNL d   1      -6.000   1.046   1.085  0.00  0.00    -0.070 Cl
ENDROOT
TORSDOF 0
ENDMDL
