MODEL 1
REMARK minimizedAffinity 1.08005297
REMARK minimizedRMSD -1
REMARK  0 active torsions:
REMARK  status: ('A' for Active; 'I' for Inactive)
ROOT
ATOM      1  C   UNL d   1       0.240   0.063   2.153  0.00  0.00     0.020 A 
ATOM      2  C1  UNL d   1       0.215   0.042   3.547  0.00  0.00     0.020 A 
ATOM      3  C2  UNL d   1      -1.004   0.103   4.224  0.00  0.00     0.034 A 
ATOM      4  C3  UNL d   1      -2.204   0.185   3.508  0.00  0.00     0.017 A 
ATOM      5  C4  UNL d   1      -2.178   0.205   2.109  0.00  0.00     0.017 A 
ATOM      6  C5  UNL d   1      -0.954   0.144   1.435  0.00  0.00     0.034 A 
ATOM      7 Cl   UNL d   1      -3.617   0.304   1.156  0.00  0.00    -0.070 Cl
ATOM      8 Cl1  UNL d   1      -3.675   0.256   4.411  0.00  0.00    -0.070 Cl
ENDROOT
TORSDOF 0
ENDMDL
