MODEL 1
REMARK minimizedAffinity 0.702928364
REMARK minimizedRMSD -1
REMARK  0 active torsions:
REMARK  status: ('A' for Active; 'I' for Inactive)
ROOT
ATOM      1  C   UNL d   1      -1.778  -6.000   0.746  0.00  0.00     0.020 A 
ATOM      2  C1  UNL d   1      -0.445  -5.733   1.059  0.00  0.00     0.020 A 
ATOM      3  C2  UNL d   1      -0.003  -4.412   1.158  0.00  0.00     0.034 A 
ATOM      4  C3  UNL d   1      -0.893  -3.354   0.943  0.00  0.00     0.017 A 
ATOM      5  C4  UNL d   1      -2.230  -3.623   0.629  0.00  0.00     0.017 A 
ATOM      6  C5  UNL d   1      -2.668  -4.947   0.531  0.00  0.00     0.034 A 
ATOM      7 Cl   UNL d   1      -3.387  -2.369   0.350  0.00  0.00    -0.070 Cl
ATOM      8 Cl1  UNL d   1      -0.276  -1.745   1.081  0.00  0.00    -0.070 Cl
ENDROOT
TORSDOF 0
ENDMDL
