MODEL 1
REMARK minimizedAffinity 3.72318077
REMARK minimizedRMSD -1
REMARK  0 active torsions:
REMARK  status: ('A' for Active; 'I' for Inactive)
ROOT
ATOM      1  C   UNL d   1       0.441   0.421   2.435  0.00  0.00     0.020 A 
ATOM      2  C1  UNL d   1       1.375   0.211   3.449  0.00  0.00     0.020 A 
ATOM      3  C2  UNL d   1       2.716  -0.010   3.129  0.00  0.00     0.034 A 
ATOM      4  C3  UNL d   1       3.127  -0.021   1.791  0.00  0.00     0.017 A 
ATOM      5  C4  UNL d   1       2.189   0.190   0.774  0.00  0.00     0.017 A 
ATOM      6  C5  UNL d   1       0.848   0.410   1.101  0.00  0.00     0.034 A 
ATOM      7 Cl   UNL d   1       2.621   0.190  -0.900  0.00  0.00    -0.070 Cl
ATOM      8 Cl1  UNL d   1       4.802  -0.300   1.467  0.00  0.00    -0.070 Cl
ENDROOT
TORSDOF 0
ENDMDL
