MODEL 1
REMARK minimizedAffinity 10.7477236
REMARK minimizedRMSD -1
REMARK  0 active torsions:
REMARK  status: ('A' for Active; 'I' for Inactive)
ROOT
ATOM      1  C   UNL d   1      -4.213   2.014   1.476  0.00  0.00     0.020 A 
ATOM      2  C1  UNL d   1      -5.216   1.367   0.755  0.00  0.00     0.020 A 
ATOM      3  C2  UNL d   1      -5.022   0.057   0.312  0.00  0.00     0.034 A 
ATOM      4  C3  UNL d   1      -3.824  -0.610   0.589  0.00  0.00     0.017 A 
ATOM      5  C4  UNL d   1      -2.818   0.040   1.313  0.00  0.00     0.017 A 
ATOM      6  C5  UNL d   1      -3.017   1.352   1.754  0.00  0.00     0.034 A 
ATOM      7 Cl   UNL d   1      -1.312  -0.718   1.693  0.00  0.00    -0.070 Cl
ATOM      8 Cl1  UNL d   1      -3.653  -2.229   0.010  0.00  0.00    -0.070 Cl
ENDROOT
TORSDOF 0
ENDMDL
