MODEL 1
REMARK minimizedAffinity 5.81230307
REMARK minimizedRMSD -1
REMARK  0 active torsions:
REMARK  status: ('A' for Active; 'I' for Inactive)
ROOT
ATOM      1  C   UNL d   1      -5.127   0.475   3.091  0.00  0.00     0.020 A 
ATOM      2  C1  UNL d   1      -4.007   1.254   3.382  0.00  0.00     0.020 A 
ATOM      3  C2  UNL d   1      -2.829   1.084   2.651  0.00  0.00     0.034 A 
ATOM      4  C3  UNL d   1      -2.768   0.133   1.626  0.00  0.00     0.017 A 
ATOM      5  C4  UNL d   1      -3.892  -0.649   1.335  0.00  0.00     0.017 A 
ATOM      6  C5  UNL d   1      -5.069  -0.474   2.069  0.00  0.00     0.034 A 
ATOM      7 Cl   UNL d   1      -3.892  -1.842   0.085  0.00  0.00    -0.070 Cl
ATOM      8 Cl1  UNL d   1      -1.279  -0.024   0.764  0.00  0.00    -0.070 Cl
ENDROOT
TORSDOF 0
ENDMDL
