MODEL 1
REMARK minimizedAffinity -0.250593245
REMARK minimizedRMSD -1
REMARK  0 active torsions:
REMARK  status: ('A' for Active; 'I' for Inactive)
ROOT
ATOM      1  N1  IND d   1       1.768  -1.009   0.274  0.00  0.00    -0.196 N 
ATOM      2  C2  IND d   1       1.455  -0.857  -1.048  0.00  0.00     0.054 A 
ATOM      3  C3  IND d   1       0.119  -0.715  -1.201  0.00  0.00    -0.031 A 
ATOM      4  C4  IND d   1      -1.729  -0.599   0.587  0.00  0.00     0.051 A 
ATOM      5  C5  IND d   1      -1.936  -0.725   1.932  0.00  0.00    -0.031 A 
ATOM      6  C6  IND d   1      -0.898  -0.955   2.811  0.00  0.00     0.015 A 
ATOM      7  C7  IND d   1       0.394  -1.055   2.377  0.00  0.00    -0.016 A 
ATOM      8  C8  IND d   1       0.607  -0.934   1.011  0.00  0.00    -0.047 A 
ATOM      9  C9  IND d   1      -0.448  -0.744   0.110  0.00  0.00    -0.096 A 
ATOM     10  HN1 IND d   1       2.558  -1.131   0.591  0.00  0.00     0.298 HD
ENDROOT
TORSDOF 0
ENDMDL
