MODEL 1
REMARK minimizedAffinity 5.29626703
REMARK minimizedRMSD -1
REMARK  0 active torsions:
REMARK  status: ('A' for Active; 'I' for Inactive)
ROOT
ATOM      1  N1  IND d   1       1.718  -1.181   3.211  0.00  0.00    -0.196 N 
ATOM      2  C2  IND d   1       1.003  -2.236   3.705  0.00  0.00     0.054 A 
ATOM      3  C3  IND d   1      -0.183  -2.342   3.064  0.00  0.00    -0.031 A 
ATOM      4  C4  IND d   1      -1.113  -0.955   1.105  0.00  0.00     0.051 A 
ATOM      5  C5  IND d   1      -0.838   0.140   0.335  0.00  0.00    -0.031 A 
ATOM      6  C6  IND d   1       0.327   0.864   0.485  0.00  0.00     0.015 A 
ATOM      7  C7  IND d   1       1.270   0.511   1.408  0.00  0.00    -0.016 A 
ATOM      8  C8  IND d   1       0.992  -0.596   2.197  0.00  0.00    -0.047 A 
ATOM      9  C9  IND d   1      -0.208  -1.309   2.077  0.00  0.00    -0.096 A 
ATOM     10  HN1 IND d   1       2.491  -0.925   3.488  0.00  0.00     0.298 HD
ENDROOT
TORSDOF 0
ENDMDL
