MODEL 1
REMARK minimizedAffinity -1.48697841
REMARK minimizedRMSD -1
REMARK  0 active torsions:
REMARK  status: ('A' for Active; 'I' for Inactive)
ROOT
ATOM      1  N1  IND d   1      -1.594   1.675  -2.413  0.00  0.00    -0.196 N 
ATOM      2  C2  IND d   1      -0.705   1.835  -3.439  0.00  0.00     0.054 A 
ATOM      3  C3  IND d   1       0.494   1.303  -3.110  0.00  0.00    -0.031 A 
ATOM      4  C4  IND d   1       1.190   0.033  -0.982  0.00  0.00     0.051 A 
ATOM      5  C5  IND d   1       0.732  -0.333   0.253  0.00  0.00    -0.031 A 
ATOM      6  C6  IND d   1      -0.552  -0.044   0.669  0.00  0.00     0.015 A 
ATOM      7  C7  IND d   1      -1.433   0.614  -0.142  0.00  0.00    -0.016 A 
ATOM      8  C8  IND d   1      -0.969   0.993  -1.393  0.00  0.00    -0.047 A 
ATOM      9  C9  IND d   1       0.346   0.740  -1.805  0.00  0.00    -0.096 A 
ATOM     10  HN1 IND d   1      -2.408   1.954  -2.407  0.00  0.00     0.298 HD
ENDROOT
TORSDOF 0
ENDMDL
