MODEL 1
REMARK minimizedAffinity 0.752136111
REMARK minimizedRMSD -1
REMARK  0 active torsions:
REMARK  status: ('A' for Active; 'I' for Inactive)
ROOT
ATOM      1  N1  IND d   1       0.664  -1.688   1.171  0.00  0.00    -0.196 N 
ATOM      2  C2  IND d   1       0.045  -1.913   2.368  0.00  0.00     0.054 A 
ATOM      3  C3  IND d   1      -1.002  -1.071   2.522  0.00  0.00    -0.031 A 
ATOM      4  C4  IND d   1      -1.940   0.686   0.892  0.00  0.00     0.051 A 
ATOM      5  C5  IND d   1      -1.689   1.281  -0.313  0.00  0.00    -0.031 A 
ATOM      6  C6  IND d   1      -0.620   0.907  -1.102  0.00  0.00     0.015 A 
ATOM      7  C7  IND d   1       0.234  -0.088  -0.719  0.00  0.00    -0.016 A 
ATOM      8  C8  IND d   1      -0.014  -0.689   0.507  0.00  0.00    -0.047 A 
ATOM      9  C9  IND d   1      -1.072  -0.285   1.331  0.00  0.00    -0.096 A 
ATOM     10  HN1 IND d   1       1.361  -2.101   0.881  0.00  0.00     0.298 HD
ENDROOT
TORSDOF 0
ENDMDL
