MODEL 1
REMARK minimizedAffinity 12.0130615
REMARK minimizedRMSD -1
REMARK  0 active torsions:
REMARK  status: ('A' for Active; 'I' for Inactive)
ROOT
ATOM      1  N1  IND d   1      -4.876   4.757  -3.756  0.00  0.00    -0.196 N 
ATOM      2  C2  IND d   1      -5.952   4.520  -4.565  0.00  0.00     0.054 A 
ATOM      3  C3  IND d   1      -6.000   3.214  -4.913  0.00  0.00    -0.031 A 
ATOM      4  C4  IND d   1      -4.474   1.272  -4.187  0.00  0.00     0.051 A 
ATOM      5  C5  IND d   1      -3.335   1.002  -3.483  0.00  0.00    -0.031 A 
ATOM      6  C6  IND d   1      -2.638   1.990  -2.818  0.00  0.00     0.015 A 
ATOM      7  C7  IND d   1      -3.063   3.289  -2.823  0.00  0.00    -0.016 A 
ATOM      8  C8  IND d   1      -4.216   3.567  -3.543  0.00  0.00    -0.047 A 
ATOM      9  C9  IND d   1      -4.904   2.576  -4.255  0.00  0.00    -0.096 A 
ATOM     10  HN1 IND d   1      -4.650   5.522  -3.434  0.00  0.00     0.298 HD
ENDROOT
TORSDOF 0
ENDMDL
