MODEL 1
REMARK minimizedAffinity -2.3614397
REMARK minimizedRMSD -1
REMARK  0 active torsions:
REMARK  status: ('A' for Active; 'I' for Inactive)
ROOT
ATOM      1  N1  IND d   1       1.601  -1.650  -0.434  0.00  0.00    -0.196 N 
ATOM      2  C2  IND d   1       2.339  -2.560   0.269  0.00  0.00     0.054 A 
ATOM      3  C3  IND d   1       1.944  -2.589   1.562  0.00  0.00    -0.031 A 
ATOM      4  C4  IND d   1       0.039  -1.301   2.718  0.00  0.00     0.051 A 
ATOM      5  C5  IND d   1      -0.893  -0.326   2.495  0.00  0.00    -0.031 A 
ATOM      6  C6  IND d   1      -1.046   0.268   1.259  0.00  0.00     0.015 A 
ATOM      7  C7  IND d   1      -0.277  -0.102   0.192  0.00  0.00    -0.016 A 
ATOM      8  C8  IND d   1       0.675  -1.086   0.416  0.00  0.00    -0.047 A 
ATOM      9  C9  IND d   1       0.864  -1.662   1.679  0.00  0.00    -0.096 A 
ATOM     10  HN1 IND d   1       1.698  -1.461  -1.267  0.00  0.00     0.298 HD
ENDROOT
TORSDOF 0
ENDMDL
