MODEL 1
REMARK minimizedAffinity 0.903355837
REMARK minimizedRMSD -1
REMARK  0 active torsions:
REMARK  status: ('A' for Active; 'I' for Inactive)
ROOT
ATOM      1  N1  IND d   1       0.366  -0.344  -1.315  0.00  0.00    -0.196 N 
ATOM      2  C2  IND d   1      -0.644   0.513  -1.653  0.00  0.00     0.054 A 
ATOM      3  C3  IND d   1      -1.352   0.861  -0.555  0.00  0.00    -0.031 A 
ATOM      4  C4  IND d   1      -0.967   0.225   1.909  0.00  0.00     0.051 A 
ATOM      5  C5  IND d   1      -0.190  -0.565   2.709  0.00  0.00    -0.031 A 
ATOM      6  C6  IND d   1       0.834  -1.335   2.199  0.00  0.00     0.015 A 
ATOM      7  C7  IND d   1       1.129  -1.335   0.865  0.00  0.00    -0.016 A 
ATOM      8  C8  IND d   1       0.337  -0.540   0.048  0.00  0.00    -0.047 A 
ATOM      9  C9  IND d   1      -0.731   0.211   0.555  0.00  0.00    -0.096 A 
ATOM     10  HN1 IND d   1       0.925  -0.701  -1.862  0.00  0.00     0.298 HD
ENDROOT
TORSDOF 0
ENDMDL
