MODEL 1
REMARK minimizedAffinity 0.796138883
REMARK minimizedRMSD -1
REMARK  0 active torsions:
REMARK  status: ('A' for Active; 'I' for Inactive)
ROOT
ATOM      1  N1  IND d   1      -0.346   0.723  -0.329  0.00  0.00    -0.196 N 
ATOM      2  C2  IND d   1      -1.408   1.266   0.339  0.00  0.00     0.054 A 
ATOM      3  C3  IND d   1      -1.556   0.676   1.547  0.00  0.00    -0.031 A 
ATOM      4  C4  IND d   1      -0.107  -1.129   2.673  0.00  0.00     0.051 A 
ATOM      5  C5  IND d   1       0.952  -1.961   2.440  0.00  0.00    -0.031 A 
ATOM      6  C6  IND d   1       1.648  -1.938   1.248  0.00  0.00     0.015 A 
ATOM      7  C7  IND d   1       1.317  -1.071   0.246  0.00  0.00    -0.016 A 
ATOM      8  C8  IND d   1       0.237  -0.230   0.477  0.00  0.00    -0.047 A 
ATOM      9  C9  IND d   1      -0.500  -0.278   1.667  0.00  0.00    -0.096 A 
ATOM     10  HN1 IND d   1      -0.087   0.940  -1.119  0.00  0.00     0.298 HD
ENDROOT
TORSDOF 0
ENDMDL
