MODEL 1
REMARK minimizedAffinity -1.93825805
REMARK minimizedRMSD -1
REMARK  0 active torsions:
REMARK  status: ('A' for Active; 'I' for Inactive)
ROOT
ATOM      1  N1  IND d   1       0.188   0.106  -0.662  0.00  0.00    -0.196 N 
ATOM      2  C2  IND d   1      -0.833   0.912  -0.241  0.00  0.00     0.054 A 
ATOM      3  C3  IND d   1      -1.179   0.606   1.030  0.00  0.00    -0.031 A 
ATOM      4  C4  IND d   1      -0.139  -1.111   2.641  0.00  0.00     0.051 A 
ATOM      5  C5  IND d   1       0.794  -2.108   2.697  0.00  0.00    -0.031 A 
ATOM      6  C6  IND d   1       1.591  -2.423   1.615  0.00  0.00     0.015 A 
ATOM      7  C7  IND d   1       1.491  -1.741   0.435  0.00  0.00    -0.016 A 
ATOM      8  C8  IND d   1       0.540  -0.733   0.372  0.00  0.00    -0.047 A 
ATOM      9  C9  IND d   1      -0.300  -0.437   1.453  0.00  0.00    -0.096 A 
ATOM     10  HN1 IND d   1       0.549   0.120  -1.443  0.00  0.00     0.298 HD
ENDROOT
TORSDOF 0
ENDMDL
