MODEL 1
REMARK minimizedAffinity -3.38147402
REMARK minimizedRMSD -1
REMARK  1 active torsions:
REMARK  status: ('A' for Active; 'I' for Inactive)
REMARK    1  A    between atoms: C1_2  and  C2_3 
ROOT
ATOM      1  C2  UNL d   1       0.103   0.078   0.104  0.00  0.00    -0.077 A 
ATOM      2  C3  UNL d   1       0.560  -1.230   0.317  0.00  0.00     0.002 A 
ATOM      3  C4  UNL d   1       1.896  -1.466   0.647  0.00  0.00     0.002 A 
ATOM      4  C5  UNL d   1       2.784  -0.399   0.771  0.00  0.00    -0.004 A 
ATOM      5  C6  UNL d   1       2.339   0.905   0.559  0.00  0.00     0.002 A 
ATOM      6  C7  UNL d   1       1.004   1.143   0.228  0.00  0.00     0.002 A 
ENDROOT
BRANCH   1   7
ATOM      7  C1  UNL d   1      -1.349   0.339  -0.204  0.00  0.00     0.055 C 
ATOM      8  C   UNL d   1      -1.589   0.428  -1.704  0.00  0.00     0.019 C 
ENDBRANCH   1   7
TORSDOF 1
ENDMDL
