MODEL 1
REMARK minimizedAffinity -3.63839149
REMARK minimizedRMSD -1
REMARK  1 active torsions:
REMARK  status: ('A' for Active; 'I' for Inactive)
REMARK    1  A    between atoms: C1_2  and  C2_3 
ROOT
ATOM      1  C2  UNL d   1       0.686   0.447   0.333  0.00  0.00    -0.077 A 
ATOM      2  C3  UNL d   1       0.370  -0.858   0.735  0.00  0.00     0.002 A 
ATOM      3  C4  UNL d   1      -0.962  -1.272   0.805  0.00  0.00     0.002 A 
ATOM      4  C5  UNL d   1      -1.986  -0.389   0.470  0.00  0.00    -0.004 A 
ATOM      5  C6  UNL d   1      -1.682   0.911   0.071  0.00  0.00     0.002 A 
ATOM      6  C7  UNL d   1      -0.352   1.327   0.001  0.00  0.00     0.002 A 
ENDROOT
BRANCH   1   7
ATOM      7  C1  UNL d   1       2.124   0.880   0.209  0.00  0.00     0.055 C 
ATOM      8  C   UNL d   1       2.950   0.401   1.394  0.00  0.00     0.019 C 
ENDBRANCH   1   7
TORSDOF 1
ENDMDL
