MODEL 1
REMARK minimizedAffinity -1.12309539
REMARK minimizedRMSD -1
REMARK  1 active torsions:
REMARK  status: ('A' for Active; 'I' for Inactive)
REMARK    1  A    between atoms: C1_2  and  C2_3 
ROOT
ATOM      1  C2  UNL d   1       1.421  -0.529   0.597  0.00  0.00    -0.077 A 
ATOM      2  C3  UNL d   1       0.653   0.522   0.076  0.00  0.00     0.002 A 
ATOM      3  C4  UNL d   1      -0.741   0.455   0.093  0.00  0.00     0.002 A 
ATOM      4  C5  UNL d   1      -1.380  -0.659   0.634  0.00  0.00    -0.004 A 
ATOM      5  C6  UNL d   1      -0.626  -1.710   1.154  0.00  0.00     0.002 A 
ATOM      6  C7  UNL d   1       0.768  -1.645   1.136  0.00  0.00     0.002 A 
ENDROOT
BRANCH   1   7
ATOM      7  C1  UNL d   1       2.924  -0.437   0.624  0.00  0.00     0.055 C 
ATOM      8  C   UNL d   1       3.403   0.471   1.748  0.00  0.00     0.019 C 
ENDBRANCH   1   7
TORSDOF 1
ENDMDL
