MODEL 1
REMARK minimizedAffinity -5.55969858
REMARK minimizedRMSD -1
REMARK  1 active torsions:
REMARK  status: ('A' for Active; 'I' for Inactive)
REMARK    1  A    between atoms: C1_2  and  C2_3 
ROOT
ATOM      1  C2  UNL d   1       0.072   0.127   0.280  0.00  0.00    -0.077 A 
ATOM      2  C3  UNL d   1       0.651   1.313  -0.191  0.00  0.00     0.002 A 
ATOM      3  C4  UNL d   1       2.038   1.469  -0.196  0.00  0.00     0.002 A 
ATOM      4  C5  UNL d   1       2.858   0.442   0.265  0.00  0.00    -0.004 A 
ATOM      5  C6  UNL d   1       2.292  -0.741   0.738  0.00  0.00     0.002 A 
ATOM      6  C7  UNL d   1       0.906  -0.899   0.745  0.00  0.00     0.002 A 
ENDROOT
BRANCH   1   7
ATOM      7  C1  UNL d   1      -1.422  -0.063   0.240  0.00  0.00     0.055 C 
ATOM      8  C   UNL d   1      -1.960   0.081  -1.175  0.00  0.00     0.019 C 
ENDBRANCH   1   7
TORSDOF 1
ENDMDL
