MODEL 1
REMARK minimizedAffinity -4.04788828
REMARK minimizedRMSD -1
REMARK  1 active torsions:
REMARK  status: ('A' for Active; 'I' for Inactive)
REMARK    1  A    between atoms: C1_2  and  C2_3 
ROOT
ATOM      1  C2  UNL d   1      -0.313   0.054   0.280  0.00  0.00    -0.077 A 
ATOM      2  C3  UNL d   1       0.180  -1.153   0.795  0.00  0.00     0.002 A 
ATOM      3  C4  UNL d   1       1.540  -1.296   1.079  0.00  0.00     0.002 A 
ATOM      4  C5  UNL d   1       2.415  -0.236   0.855  0.00  0.00    -0.004 A 
ATOM      5  C6  UNL d   1       1.935   0.967   0.341  0.00  0.00     0.002 A 
ATOM      6  C7  UNL d   1       0.576   1.112   0.056  0.00  0.00     0.002 A 
ENDROOT
BRANCH   1   7
ATOM      7  C1  UNL d   1      -1.787   0.227   0.020  0.00  0.00     0.055 C 
ATOM      8  C   UNL d   1      -2.088   0.244  -1.472  0.00  0.00     0.019 C 
ENDBRANCH   1   7
TORSDOF 1
ENDMDL
