MODEL 1
REMARK minimizedAffinity 4.72243881
REMARK minimizedRMSD -1
REMARK  1 active torsions:
REMARK  status: ('A' for Active; 'I' for Inactive)
REMARK    1  A    between atoms: C1_2  and  C2_3 
ROOT
ATOM      1  C2  UNL d   1      -4.870   2.752  -1.729  0.00  0.00    -0.077 A 
ATOM      2  C3  UNL d   1      -5.250   1.610  -1.008  0.00  0.00     0.002 A 
ATOM      3  C4  UNL d   1      -5.811   1.733   0.265  0.00  0.00     0.002 A 
ATOM      4  C5  UNL d   1      -5.999   2.994   0.826  0.00  0.00    -0.004 A 
ATOM      5  C6  UNL d   1      -5.622   4.135   0.119  0.00  0.00     0.002 A 
ATOM      6  C7  UNL d   1      -5.061   4.014  -1.153  0.00  0.00     0.002 A 
ENDROOT
BRANCH   1   7
ATOM      7  C1  UNL d   1      -4.311   2.624  -3.122  0.00  0.00     0.055 C 
ATOM      8  C   UNL d   1      -3.751   1.231  -3.368  0.00  0.00     0.019 C 
ENDBRANCH   1   7
TORSDOF 1
ENDMDL
