MODEL 1
REMARK minimizedAffinity -3.48968291
REMARK minimizedRMSD -1
REMARK  0 active torsions:
REMARK  status: ('A' for Active; 'I' for Inactive)
ROOT
ATOM      1  C   UNL d   1       2.450  -0.019   1.840  0.00  0.00     0.172 C 
ATOM      2  N   UNL d   1       1.068   0.348   2.041  0.00  0.00    -0.070 N 
ATOM      3  C1  UNL d   1      -0.016  -0.318   1.535  0.00  0.00    -0.004 A 
ATOM      4  C2  UNL d   1      -1.150   0.345   1.952  0.00  0.00    -0.047 A 
ATOM      5  C3  UNL d   1      -0.733   1.448   2.734  0.00  0.00    -0.047 A 
ATOM      6  C4  UNL d   1       0.645   1.426   2.773  0.00  0.00    -0.004 A 
ENDROOT
TORSDOF 0
ENDMDL
