MODEL 1
REMARK minimizedAffinity -3.00080156
REMARK minimizedRMSD -1
REMARK  0 active torsions:
REMARK  status: ('A' for Active; 'I' for Inactive)
ROOT
ATOM      1  C   UNL d   1      -1.200   0.025   0.475  0.00  0.00     0.172 C 
ATOM      2  N   UNL d   1       0.212   0.183   0.733  0.00  0.00    -0.070 N 
ATOM      3  C1  UNL d   1       0.779   1.175   1.488  0.00  0.00    -0.004 A 
ATOM      4  C2  UNL d   1       2.143   0.975   1.490  0.00  0.00    -0.047 A 
ATOM      5  C3  UNL d   1       2.404  -0.176   0.709  0.00  0.00    -0.047 A 
ATOM      6  C4  UNL d   1       1.191  -0.646   0.253  0.00  0.00    -0.004 A 
ENDROOT
TORSDOF 0
ENDMDL
