MODEL 1
REMARK minimizedAffinity -2.78542328
REMARK minimizedRMSD -1
REMARK  0 active torsions:
REMARK  status: ('A' for Active; 'I' for Inactive)
ROOT
ATOM      1  C   UNL d   1      -1.546   0.423   2.044  0.00  0.00     0.172 C 
ATOM      2  N   UNL d   1      -0.146   0.653   1.777  0.00  0.00    -0.070 N 
ATOM      3  C1  UNL d   1       0.738  -0.275   1.296  0.00  0.00    -0.004 A 
ATOM      4  C2  UNL d   1       1.969   0.334   1.180  0.00  0.00    -0.047 A 
ATOM      5  C3  UNL d   1       1.819   1.675   1.607  0.00  0.00    -0.047 A 
ATOM      6  C4  UNL d   1       0.500   1.846   1.971  0.00  0.00    -0.004 A 
ENDROOT
TORSDOF 0
ENDMDL
