MODEL 1
REMARK minimizedAffinity -3.40839672
REMARK minimizedRMSD -1
REMARK  0 active torsions:
REMARK  status: ('A' for Active; 'I' for Inactive)
ROOT
ATOM      1  C   UNL d   1       2.361   1.492   0.578  0.00  0.00     0.172 C 
ATOM      2  N   UNL d   1       1.109   1.265   1.261  0.00  0.00    -0.070 N 
ATOM      3  C1  UNL d   1       0.551   2.091   2.200  0.00  0.00    -0.004 A 
ATOM      4  C2  UNL d   1      -0.638   1.525   2.606  0.00  0.00    -0.047 A 
ATOM      5  C3  UNL d   1      -0.800   0.317   1.887  0.00  0.00    -0.047 A 
ATOM      6  C4  UNL d   1       0.296   0.181   1.061  0.00  0.00    -0.004 A 
ENDROOT
TORSDOF 0
ENDMDL
