MODEL 1
REMARK minimizedAffinity -0.148709938
REMARK minimizedRMSD -1
REMARK  0 active torsions:
REMARK  status: ('A' for Active; 'I' for Inactive)
ROOT
ATOM      1  C   UNL d   1      -1.348  -0.364   0.124  0.00  0.00     0.172 C 
ATOM      2  N   UNL d   1      -0.934   0.319   1.326  0.00  0.00    -0.070 N 
ATOM      3  C1  UNL d   1      -1.541   0.222   2.549  0.00  0.00    -0.004 A 
ATOM      4  C2  UNL d   1      -0.848   1.023   3.430  0.00  0.00    -0.047 A 
ATOM      5  C3  UNL d   1       0.214   1.623   2.712  0.00  0.00    -0.047 A 
ATOM      6  C4  UNL d   1       0.137   1.170   1.412  0.00  0.00    -0.004 A 
ENDROOT
TORSDOF 0
ENDMDL
