MODEL 1
REMARK minimizedAffinity -1.18868768
REMARK minimizedRMSD -1
REMARK  0 active torsions:
REMARK  status: ('A' for Active; 'I' for Inactive)
ROOT
ATOM      1  C   UNL d   1      -1.741  -0.609   0.361  0.00  0.00     0.172 C 
ATOM      2  N   UNL d   1      -0.898   0.222   1.188  0.00  0.00    -0.070 N 
ATOM      3  C1  UNL d   1       0.300   0.768   0.813  0.00  0.00    -0.004 A 
ATOM      4  C2  UNL d   1       0.788   1.490   1.880  0.00  0.00    -0.047 A 
ATOM      5  C3  UNL d   1      -0.150   1.375   2.934  0.00  0.00    -0.047 A 
ATOM      6  C4  UNL d   1      -1.184   0.584   2.478  0.00  0.00    -0.004 A 
ENDROOT
TORSDOF 0
ENDMDL
