MODEL 1
REMARK minimizedAffinity -1.96003902
REMARK minimizedRMSD -1
REMARK  0 active torsions:
REMARK  status: ('A' for Active; 'I' for Inactive)
ROOT
ATOM      1  C   UNL d   1      -0.954   0.757   2.711  0.00  0.00     0.172 C 
ATOM      2  N   UNL d   1       0.216   0.918   1.881  0.00  0.00    -0.070 N 
ATOM      3  C1  UNL d   1       1.470   0.451   2.171  0.00  0.00    -0.004 A 
ATOM      4  C2  UNL d   1       2.304   0.808   1.132  0.00  0.00    -0.047 A 
ATOM      5  C3  UNL d   1       1.523   1.514   0.187  0.00  0.00    -0.047 A 
ATOM      6  C4  UNL d   1       0.235   1.568   0.675  0.00  0.00    -0.004 A 
ENDROOT
TORSDOF 0
ENDMDL
