MODEL 1
REMARK minimizedAffinity 0.199328735
REMARK minimizedRMSD -1
REMARK  0 active torsions:
REMARK  status: ('A' for Active; 'I' for Inactive)
ROOT
ATOM      1  C   UNL d   1       1.143   1.913   1.139  0.00  0.00     0.172 C 
ATOM      2  N   UNL d   1       0.047   0.973   1.137  0.00  0.00    -0.070 N 
ATOM      3  C1  UNL d   1      -0.711   0.628   2.224  0.00  0.00    -0.004 A 
ATOM      4  C2  UNL d   1      -1.649  -0.292   1.809  0.00  0.00    -0.047 A 
ATOM      5  C3  UNL d   1      -1.448  -0.508   0.424  0.00  0.00    -0.047 A 
ATOM      6  C4  UNL d   1      -0.392   0.288   0.034  0.00  0.00    -0.004 A 
ENDROOT
TORSDOF 0
ENDMDL
