MODEL 1
REMARK minimizedAffinity -0.746978819
REMARK minimizedRMSD -1
REMARK  0 active torsions:
REMARK  status: ('A' for Active; 'I' for Inactive)
ROOT
ATOM      1  C   UNL d   1      -0.639  -1.125  -0.521  0.00  0.00     0.077 C 
ATOM      2  C1  UNL d   1       0.691  -0.737   0.054  0.00  0.00    -0.074 A 
ATOM      3  C2  UNL d   1       1.857  -1.420  -0.307  0.00  0.00    -0.005 A 
ATOM      4  C3  UNL d   1       3.088  -1.041   0.229  0.00  0.00     0.006 A 
ATOM      5  C4  UNL d   1       3.165   0.022   1.129  0.00  0.00    -0.005 A 
ATOM      6  C5  UNL d   1       2.010   0.717   1.501  0.00  0.00    -0.074 A 
ATOM      7  C6  UNL d   1       2.078   1.869   2.460  0.00  0.00     0.077 C 
ATOM      8  C7  UNL d   1       0.778   0.336   0.953  0.00  0.00    -0.001 A 
ENDROOT
TORSDOF 0
ENDMDL
