MODEL 1
REMARK minimizedAffinity 4.01457214
REMARK minimizedRMSD -1
REMARK  0 active torsions:
REMARK  status: ('A' for Active; 'I' for Inactive)
ROOT
ATOM      1  C   UNL d   1       3.530   2.378  -0.369  0.00  0.00     0.077 C 
ATOM      2  C1  UNL d   1       2.466   1.613   0.361  0.00  0.00    -0.074 A 
ATOM      3  C2  UNL d   1       2.033   2.014   1.628  0.00  0.00    -0.005 A 
ATOM      4  C3  UNL d   1       1.036   1.298   2.290  0.00  0.00     0.006 A 
ATOM      5  C4  UNL d   1       0.463   0.175   1.692  0.00  0.00    -0.005 A 
ATOM      6  C5  UNL d   1       0.882  -0.241   0.425  0.00  0.00    -0.074 A 
ATOM      7  C6  UNL d   1       0.269  -1.440  -0.236  0.00  0.00     0.077 C 
ATOM      8  C7  UNL d   1       1.880   0.488  -0.237  0.00  0.00    -0.001 A 
ENDROOT
TORSDOF 0
ENDMDL
