MODEL 1
REMARK minimizedAffinity 0.421835035
REMARK minimizedRMSD -1
REMARK  0 active torsions:
REMARK  status: ('A' for Active; 'I' for Inactive)
ROOT
ATOM      1  C   UNL d   1       1.880   1.892   1.978  0.00  0.00     0.077 C 
ATOM      2  C1  UNL d   1       1.497   0.717   1.128  0.00  0.00    -0.074 A 
ATOM      3  C2  UNL d   1       2.441  -0.251   0.772  0.00  0.00    -0.005 A 
ATOM      4  C3  UNL d   1       2.067  -1.343  -0.011  0.00  0.00     0.006 A 
ATOM      5  C4  UNL d   1       0.748  -1.478  -0.445  0.00  0.00    -0.005 A 
ATOM      6  C5  UNL d   1      -0.210  -0.520  -0.099  0.00  0.00    -0.074 A 
ATOM      7  C6  UNL d   1      -1.634  -0.654  -0.549  0.00  0.00     0.077 C 
ATOM      8  C7  UNL d   1       0.172   0.571   0.694  0.00  0.00    -0.001 A 
ENDROOT
TORSDOF 0
ENDMDL
