MODEL 1
REMARK minimizedAffinity 5.42561579
REMARK minimizedRMSD -1
REMARK  0 active torsions:
REMARK  status: ('A' for Active; 'I' for Inactive)
ROOT
ATOM      1  C   UNL d   1      -1.201  -3.007  -5.999  0.00  0.00     0.077 C 
ATOM      2  C1  UNL d   1      -0.581  -4.055  -5.123  0.00  0.00    -0.074 A 
ATOM      3  C2  UNL d   1       0.695  -4.558  -5.398  0.00  0.00    -0.005 A 
ATOM      4  C3  UNL d   1       1.263  -5.525  -4.569  0.00  0.00     0.006 A 
ATOM      5  C4  UNL d   1       0.562  -5.999  -3.460  0.00  0.00    -0.005 A 
ATOM      6  C5  UNL d   1      -0.714  -5.508  -3.169  0.00  0.00    -0.074 A 
ATOM      7  C6  UNL d   1      -1.477  -6.000  -1.975  0.00  0.00     0.077 C 
ATOM      8  C7  UNL d   1      -1.275  -4.531  -4.002  0.00  0.00    -0.001 A 
ENDROOT
TORSDOF 0
ENDMDL
