MODEL 1
REMARK minimizedAffinity 9.53203583
REMARK minimizedRMSD -1
REMARK  0 active torsions:
REMARK  status: ('A' for Active; 'I' for Inactive)
ROOT
ATOM      1  O1  BZF d   1      -3.011  -2.567  -1.500  0.00  0.00    -0.204 OA
ATOM      2  C2  BZF d   1      -2.360  -2.908  -0.330  0.00  0.00     0.174 A 
ATOM      3  C3  BZF d   1      -2.690  -4.159   0.053  0.00  0.00    -0.012 A 
ATOM      4  C3A BZF d   1      -3.532  -4.662  -0.988  0.00  0.00    -0.107 A 
ATOM      5  C4  BZF d   1      -4.165  -5.855  -1.190  0.00  0.00     0.055 A 
ATOM      6  C5  BZF d   1      -4.972  -6.000  -2.273  0.00  0.00    -0.016 A 
ATOM      7  C6  BZF d   1      -5.172  -4.972  -3.172  0.00  0.00     0.022 A 
ATOM      8  C7  BZF d   1      -4.562  -3.772  -3.017  0.00  0.00     0.029 A 
ATOM      9  C7A BZF d   1      -3.720  -3.634  -1.940  0.00  0.00     0.058 A 
ENDROOT
TORSDOF 0
ENDMDL
