MODEL 1
REMARK minimizedAffinity 3.6615622
REMARK minimizedRMSD -1
REMARK  0 active torsions:
REMARK  status: ('A' for Active; 'I' for Inactive)
ROOT
ATOM      1  O1  BZF d   1       2.453  -0.748   1.125  0.00  0.00    -0.204 OA
ATOM      2  C2  BZF d   1       1.507   0.182   0.737  0.00  0.00     0.174 A 
ATOM      3  C3  BZF d   1       2.095   1.337   0.365  0.00  0.00    -0.012 A 
ATOM      4  C3A BZF d   1       3.501   1.084   0.442  0.00  0.00    -0.107 A 
ATOM      5  C4  BZF d   1       4.607   1.842   0.180  0.00  0.00     0.055 A 
ATOM      6  C5  BZF d   1       5.838   1.322   0.427  0.00  0.00    -0.016 A 
ATOM      7  C6  BZF d   1       6.000   0.051   0.940  0.00  0.00     0.022 A 
ATOM      8  C7  BZF d   1       4.933  -0.740   1.211  0.00  0.00     0.029 A 
ATOM      9  C7A BZF d   1       3.689  -0.229   0.931  0.00  0.00     0.058 A 
ENDROOT
TORSDOF 0
ENDMDL
