MODEL 1
REMARK minimizedAffinity 8.35900879
REMARK minimizedRMSD -1
REMARK  0 active torsions:
REMARK  status: ('A' for Active; 'I' for Inactive)
ROOT
ATOM      1  O1  BZF d   1      -4.547   4.469   5.136  0.00  0.00    -0.204 OA
ATOM      2  C2  BZF d   1      -5.334   5.565   5.432  0.00  0.00     0.174 A 
ATOM      3  C3  BZF d   1      -5.984   5.999   4.333  0.00  0.00    -0.012 A 
ATOM      4  C3A BZF d   1      -5.649   5.063   3.304  0.00  0.00    -0.107 A 
ATOM      5  C4  BZF d   1      -6.000   4.947   1.989  0.00  0.00     0.055 A 
ATOM      6  C5  BZF d   1      -5.441   3.961   1.240  0.00  0.00    -0.016 A 
ATOM      7  C6  BZF d   1      -4.525   3.076   1.772  0.00  0.00     0.022 A 
ATOM      8  C7  BZF d   1      -4.150   3.147   3.073  0.00  0.00     0.029 A 
ATOM      9  C7A BZF d   1      -4.738   4.123   3.840  0.00  0.00     0.058 A 
ENDROOT
TORSDOF 0
ENDMDL
