MODEL 1
REMARK minimizedAffinity 0.97870481
REMARK minimizedRMSD -1
REMARK  0 active torsions:
REMARK  status: ('A' for Active; 'I' for Inactive)
ROOT
ATOM      1  O1  BZF d   1      -2.722  -5.830  -4.784  0.00  0.00    -0.204 OA
ATOM      2  C2  BZF d   1      -3.047  -5.255  -5.998  0.00  0.00     0.174 A 
ATOM      3  C3  BZF d   1      -4.279  -4.709  -5.953  0.00  0.00    -0.012 A 
ATOM      4  C3A BZF d   1      -4.717  -4.877  -4.601  0.00  0.00    -0.107 A 
ATOM      5  C4  BZF d   1      -5.854  -4.526  -3.932  0.00  0.00     0.055 A 
ATOM      6  C5  BZF d   1      -6.000  -4.902  -2.634  0.00  0.00    -0.016 A 
ATOM      7  C6  BZF d   1      -5.031  -5.632  -1.977  0.00  0.00     0.022 A 
ATOM      8  C7  BZF d   1      -3.884  -5.999  -2.598  0.00  0.00     0.029 A 
ATOM      9  C7A BZF d   1      -3.719  -5.593  -3.899  0.00  0.00     0.058 A 
ENDROOT
TORSDOF 0
ENDMDL
