MODEL 1
REMARK minimizedAffinity 4.48368359
REMARK minimizedRMSD -1
REMARK  0 active torsions:
REMARK  status: ('A' for Active; 'I' for Inactive)
ROOT
ATOM      1  O1  BZF d   1      -3.925  -4.131  -5.690  0.00  0.00    -0.204 OA
ATOM      2  C2  BZF d   1      -2.617  -4.529  -5.885  0.00  0.00     0.174 A 
ATOM      3  C3  BZF d   1      -2.171  -5.242  -4.831  0.00  0.00    -0.012 A 
ATOM      4  C3A BZF d   1      -3.299  -5.371  -3.960  0.00  0.00    -0.107 A 
ATOM      5  C4  BZF d   1      -3.490  -5.988  -2.757  0.00  0.00     0.055 A 
ATOM      6  C5  BZF d   1      -4.692  -5.865  -2.135  0.00  0.00    -0.016 A 
ATOM      7  C6  BZF d   1      -5.722  -5.130  -2.685  0.00  0.00     0.022 A 
ATOM      8  C7  BZF d   1      -5.581  -4.504  -3.879  0.00  0.00     0.029 A 
ATOM      9  C7A BZF d   1      -4.378  -4.654  -4.525  0.00  0.00     0.058 A 
ENDROOT
TORSDOF 0
ENDMDL
