MODEL 1
REMARK minimizedAffinity -1.56203389
REMARK minimizedRMSD -1
REMARK  0 active torsions:
REMARK  status: ('A' for Active; 'I' for Inactive)
ROOT
ATOM      1  O1  BZF d   1      -3.556  -3.852  -5.946  0.00  0.00    -0.204 OA
ATOM      2  C2  BZF d   1      -2.349  -4.523  -6.000  0.00  0.00     0.174 A 
ATOM      3  C3  BZF d   1      -2.248  -5.406  -4.985  0.00  0.00    -0.012 A 
ATOM      4  C3A BZF d   1      -3.505  -5.345  -4.306  0.00  0.00    -0.107 A 
ATOM      5  C4  BZF d   1      -4.020  -6.000  -3.224  0.00  0.00     0.055 A 
ATOM      6  C5  BZF d   1      -5.254  -5.656  -2.769  0.00  0.00    -0.016 A 
ATOM      7  C6  BZF d   1      -5.997  -4.660  -3.368  0.00  0.00     0.022 A 
ATOM      8  C7  BZF d   1      -5.530  -3.985  -4.447  0.00  0.00     0.029 A 
ATOM      9  C7A BZF d   1      -4.297  -4.353  -4.929  0.00  0.00     0.058 A 
ENDROOT
TORSDOF 0
ENDMDL
