MODEL 1
REMARK minimizedAffinity -1.36982346
REMARK minimizedRMSD -1
REMARK  0 active torsions:
REMARK  status: ('A' for Active; 'I' for Inactive)
ROOT
ATOM      1  O1  BZF d   1      -0.773  -3.897   0.717  0.00  0.00    -0.204 OA
ATOM      2  C2  BZF d   1      -0.905  -2.757   1.487  0.00  0.00     0.174 A 
ATOM      3  C3  BZF d   1      -1.398  -1.739   0.753  0.00  0.00    -0.012 A 
ATOM      4  C3A BZF d   1      -1.672  -2.300  -0.534  0.00  0.00    -0.107 A 
ATOM      5  C4  BZF d   1      -2.189  -1.790  -1.690  0.00  0.00     0.055 A 
ATOM      6  C5  BZF d   1      -2.258  -2.585  -2.790  0.00  0.00    -0.016 A 
ATOM      7  C6  BZF d   1      -1.815  -3.891  -2.771  0.00  0.00     0.022 A 
ATOM      8  C7  BZF d   1      -1.299  -4.443  -1.646  0.00  0.00     0.029 A 
ATOM      9  C7A BZF d   1      -1.259  -3.652  -0.524  0.00  0.00     0.058 A 
ENDROOT
TORSDOF 0
ENDMDL
