MODEL 1
REMARK minimizedAffinity 9.04005623
REMARK minimizedRMSD -1
REMARK  0 active torsions:
REMARK  status: ('A' for Active; 'I' for Inactive)
ROOT
ATOM      1  O1  BZF d   1       4.500  -1.050   1.838  0.00  0.00    -0.204 OA
ATOM      2  C2  BZF d   1       5.688  -0.685   1.236  0.00  0.00     0.174 A 
ATOM      3  C3  BZF d   1       5.592   0.547   0.696  0.00  0.00    -0.012 A 
ATOM      4  C3A BZF d   1       4.289   1.016   1.058  0.00  0.00    -0.107 A 
ATOM      5  C4  BZF d   1       3.613   2.180   0.827  0.00  0.00     0.055 A 
ATOM      6  C5  BZF d   1       2.328   2.292   1.255  0.00  0.00    -0.016 A 
ATOM      7  C6  BZF d   1       1.688   1.261   1.911  0.00  0.00     0.022 A 
ATOM      8  C7  BZF d   1       2.319   0.090   2.167  0.00  0.00     0.029 A 
ATOM      9  C7A BZF d   1       3.629  -0.015   1.765  0.00  0.00     0.058 A 
ENDROOT
TORSDOF 0
ENDMDL
