MODEL 1
REMARK minimizedAffinity 3.73636246
REMARK minimizedRMSD -1
REMARK  0 active torsions:
REMARK  status: ('A' for Active; 'I' for Inactive)
ROOT
ATOM      1  O1  BZF d   1      -3.037  -2.732  -1.707  0.00  0.00    -0.204 OA
ATOM      2  C2  BZF d   1      -2.326  -1.822  -2.465  0.00  0.00     0.174 A 
ATOM      3  C3  BZF d   1      -1.205  -1.437  -1.823  0.00  0.00    -0.012 A 
ATOM      4  C3A BZF d   1      -1.168  -2.220  -0.626  0.00  0.00    -0.107 A 
ATOM      5  C4  BZF d   1      -0.289  -2.303   0.415  0.00  0.00     0.055 A 
ATOM      6  C5  BZF d   1      -0.582  -3.116   1.464  0.00  0.00    -0.016 A 
ATOM      7  C6  BZF d   1      -1.747  -3.854   1.507  0.00  0.00     0.022 A 
ATOM      8  C7  BZF d   1      -2.647  -3.809   0.495  0.00  0.00     0.029 A 
ATOM      9  C7A BZF d   1      -2.338  -3.014  -0.581  0.00  0.00     0.058 A 
ENDROOT
TORSDOF 0
ENDMDL
