MODEL 1
REMARK minimizedAffinity 9.58080864
REMARK minimizedRMSD -1
REMARK  0 active torsions:
REMARK  status: ('A' for Active; 'I' for Inactive)
ROOT
ATOM      1  O1  BZF d   1       5.942   2.722  -0.733  0.00  0.00    -0.204 OA
ATOM      2  C2  BZF d   1       5.916   3.671   0.271  0.00  0.00     0.174 A 
ATOM      3  C3  BZF d   1       5.869   3.082   1.484  0.00  0.00    -0.012 A 
ATOM      4  C3A BZF d   1       5.958   1.678   1.224  0.00  0.00    -0.107 A 
ATOM      5  C4  BZF d   1       5.979   0.574   2.028  0.00  0.00     0.055 A 
ATOM      6  C5  BZF d   1       5.999  -0.659   1.457  0.00  0.00    -0.016 A 
ATOM      7  C6  BZF d   1       5.995  -0.824   0.087  0.00  0.00     0.022 A 
ATOM      8  C7  BZF d   1       5.980   0.241  -0.751  0.00  0.00     0.029 A 
ATOM      9  C7A BZF d   1       5.992   1.488  -0.177  0.00  0.00     0.058 A 
ENDROOT
TORSDOF 0
ENDMDL
