MODEL 1
REMARK minimizedAffinity 13.498744
REMARK minimizedRMSD -1
REMARK  0 active torsions:
REMARK  status: ('A' for Active; 'I' for Inactive)
ROOT
ATOM      1  O1  BZF d   1       5.887  -0.585   2.331  0.00  0.00    -0.204 OA
ATOM      2  C2  BZF d   1       6.000  -0.279   0.988  0.00  0.00     0.174 A 
ATOM      3  C3  BZF d   1       4.789  -0.020   0.453  0.00  0.00    -0.012 A 
ATOM      4  C3A BZF d   1       3.872  -0.083   1.549  0.00  0.00    -0.107 A 
ATOM      5  C4  BZF d   1       2.523   0.099   1.656  0.00  0.00     0.055 A 
ATOM      6  C5  BZF d   1       1.922  -0.108   2.857  0.00  0.00    -0.016 A 
ATOM      7  C6  BZF d   1       2.637  -0.501   3.969  0.00  0.00     0.022 A 
ATOM      8  C7  BZF d   1       3.978  -0.690   3.913  0.00  0.00     0.029 A 
ATOM      9  C7A BZF d   1       4.593  -0.450   2.709  0.00  0.00     0.058 A 
ENDROOT
TORSDOF 0
ENDMDL
