MODEL 1
REMARK minimizedAffinity 3.59757328
REMARK minimizedRMSD -1
REMARK  0 active torsions:
REMARK  status: ('A' for Active; 'I' for Inactive)
ROOT
ATOM      1  O1  BZF d   1      -0.752  -1.571  -5.998  0.00  0.00    -0.204 OA
ATOM      2  C2  BZF d   1      -1.725  -2.553  -5.988  0.00  0.00     0.174 A 
ATOM      3  C3  BZF d   1      -1.166  -3.780  -6.000  0.00  0.00    -0.012 A 
ATOM      4  C3A BZF d   1       0.244  -3.552  -5.925  0.00  0.00    -0.107 A 
ATOM      5  C4  BZF d   1       1.329  -4.381  -5.884  0.00  0.00     0.055 A 
ATOM      6  C5  BZF d   1       2.575  -3.840  -5.886  0.00  0.00    -0.016 A 
ATOM      7  C6  BZF d   1       2.774  -2.476  -5.934  0.00  0.00     0.022 A 
ATOM      8  C7  BZF d   1       1.729  -1.613  -5.971  0.00  0.00     0.029 A 
ATOM      9  C7A BZF d   1       0.468  -2.156  -5.935  0.00  0.00     0.058 A 
ENDROOT
TORSDOF 0
ENDMDL
