MODEL 1
REMARK minimizedAffinity -2.75281739
REMARK minimizedRMSD -1
REMARK  0 active torsions:
REMARK  status: ('A' for Active; 'I' for Inactive)
ROOT
ATOM      1  O1  BZF d   1       5.625   2.108   2.246  0.00  0.00    -0.204 OA
ATOM      2  C2  BZF d   1       4.892   1.909   1.092  0.00  0.00     0.174 A 
ATOM      3  C3  BZF d   1       4.227   3.031   0.749  0.00  0.00    -0.012 A 
ATOM      4  C3A BZF d   1       4.638   4.018   1.700  0.00  0.00    -0.107 A 
ATOM      5  C4  BZF d   1       4.335   5.338   1.874  0.00  0.00     0.055 A 
ATOM      6  C5  BZF d   1       4.850   5.999   2.944  0.00  0.00    -0.016 A 
ATOM      7  C6  BZF d   1       5.666   5.371   3.861  0.00  0.00     0.022 A 
ATOM      8  C7  BZF d   1       6.000   4.064   3.728  0.00  0.00     0.029 A 
ATOM      9  C7A BZF d   1       5.507   3.402   2.629  0.00  0.00     0.058 A 
ENDROOT
TORSDOF 0
ENDMDL
