MODEL 1
REMARK minimizedAffinity 2.61375475
REMARK minimizedRMSD -1
REMARK  0 active torsions:
REMARK  status: ('A' for Active; 'I' for Inactive)
ROOT
ATOM      1  O1  BZF d   1      -2.719  -3.800  -5.740  0.00  0.00    -0.204 OA
ATOM      2  C2  BZF d   1      -1.821  -2.773  -5.956  0.00  0.00     0.174 A 
ATOM      3  C3  BZF d   1      -1.640  -2.052  -4.831  0.00  0.00    -0.012 A 
ATOM      4  C3A BZF d   1      -2.406  -2.723  -3.826  0.00  0.00    -0.107 A 
ATOM      5  C4  BZF d   1      -2.614  -2.496  -2.496  0.00  0.00     0.055 A 
ATOM      6  C5  BZF d   1      -3.477  -3.296  -1.816  0.00  0.00    -0.016 A 
ATOM      7  C6  BZF d   1      -4.151  -4.328  -2.435  0.00  0.00     0.022 A 
ATOM      8  C7  BZF d   1      -3.973  -4.596  -3.752  0.00  0.00     0.029 A 
ATOM      9  C7A BZF d   1      -3.077  -3.809  -4.434  0.00  0.00     0.058 A 
ENDROOT
TORSDOF 0
ENDMDL
