MODEL 1
REMARK minimizedAffinity 12.2606554
REMARK minimizedRMSD -1
REMARK  0 active torsions:
REMARK  status: ('A' for Active; 'I' for Inactive)
ROOT
ATOM      1  O1  BZF d   1       0.069  -3.854   0.215  0.00  0.00    -0.204 OA
ATOM      2  C2  BZF d   1      -0.358  -3.449   1.464  0.00  0.00     0.174 A 
ATOM      3  C3  BZF d   1      -1.629  -3.000   1.414  0.00  0.00    -0.012 A 
ATOM      4  C3A BZF d   1      -2.052  -3.220   0.065  0.00  0.00    -0.107 A 
ATOM      5  C4  BZF d   1      -3.224  -2.995  -0.600  0.00  0.00     0.055 A 
ATOM      6  C5  BZF d   1      -3.287  -3.254  -1.932  0.00  0.00    -0.016 A 
ATOM      7  C6  BZF d   1      -2.199  -3.733  -2.631  0.00  0.00     0.022 A 
ATOM      8  C7  BZF d   1      -1.017  -3.977  -2.014  0.00  0.00     0.029 A 
ATOM      9  C7A BZF d   1      -0.960  -3.748  -0.661  0.00  0.00     0.058 A 
ENDROOT
TORSDOF 0
ENDMDL
