MODEL 1
REMARK minimizedAffinity 14.9106274
REMARK minimizedRMSD -1
REMARK  0 active torsions:
REMARK  status: ('A' for Active; 'I' for Inactive)
ROOT
ATOM      1  O1  BZF d   1       4.208  -0.872   1.907  0.00  0.00    -0.204 OA
ATOM      2  C2  BZF d   1       5.208  -0.362   1.100  0.00  0.00     0.174 A 
ATOM      3  C3  BZF d   1       4.792   0.757   0.473  0.00  0.00    -0.012 A 
ATOM      4  C3A BZF d   1       3.480   1.011   0.985  0.00  0.00    -0.107 A 
ATOM      5  C4  BZF d   1       2.557   1.991   0.758  0.00  0.00     0.055 A 
ATOM      6  C5  BZF d   1       1.344   1.909   1.364  0.00  0.00    -0.016 A 
ATOM      7  C6  BZF d   1       1.019   0.860   2.200  0.00  0.00     0.022 A 
ATOM      8  C7  BZF d   1       1.904  -0.133   2.460  0.00  0.00     0.029 A 
ATOM      9  C7A BZF d   1       3.143  -0.036   1.874  0.00  0.00     0.058 A 
ENDROOT
TORSDOF 0
ENDMDL
