MODEL 1
REMARK minimizedAffinity -1.90303147
REMARK minimizedRMSD -1
REMARK  0 active torsions:
REMARK  status: ('A' for Active; 'I' for Inactive)
ROOT
ATOM      1  O1  BZF d   1      -2.254  -5.502  -4.533  0.00  0.00    -0.204 OA
ATOM      2  C2  BZF d   1      -2.504  -5.030  -5.807  0.00  0.00     0.174 A 
ATOM      3  C3  BZF d   1      -3.826  -4.842  -5.996  0.00  0.00    -0.012 A 
ATOM      4  C3A BZF d   1      -4.432  -5.132  -4.733  0.00  0.00    -0.107 A 
ATOM      5  C4  BZF d   1      -5.721  -5.110  -4.283  0.00  0.00     0.055 A 
ATOM      6  C5  BZF d   1      -5.985  -5.519  -3.014  0.00  0.00    -0.016 A 
ATOM      7  C6  BZF d   1      -4.986  -5.961  -2.172  0.00  0.00     0.022 A 
ATOM      8  C7  BZF d   1      -3.692  -5.996  -2.572  0.00  0.00     0.029 A 
ATOM      9  C7A BZF d   1      -3.418  -5.552  -3.842  0.00  0.00     0.058 A 
ENDROOT
TORSDOF 0
ENDMDL
