MODEL 1
REMARK minimizedAffinity 6.31195879
REMARK minimizedRMSD -1
REMARK  0 active torsions:
REMARK  status: ('A' for Active; 'I' for Inactive)
ROOT
ATOM      1  O1  BZF d   1      -3.289  -3.693  -4.098  0.00  0.00    -0.204 OA
ATOM      2  C2  BZF d   1      -2.541  -3.123  -3.086  0.00  0.00     0.174 A 
ATOM      3  C3  BZF d   1      -2.999  -3.508  -1.878  0.00  0.00    -0.012 A 
ATOM      4  C3A BZF d   1      -4.044  -4.446  -2.153  0.00  0.00    -0.107 A 
ATOM      5  C4  BZF d   1      -4.872  -5.189  -1.360  0.00  0.00     0.055 A 
ATOM      6  C5  BZF d   1      -5.834  -5.952  -1.942  0.00  0.00    -0.016 A 
ATOM      7  C6  BZF d   1      -6.000  -5.992  -3.311  0.00  0.00     0.022 A 
ATOM      8  C7  BZF d   1      -5.200  -5.276  -4.138  0.00  0.00     0.029 A 
ATOM      9  C7A BZF d   1      -4.205  -4.530  -3.555  0.00  0.00     0.058 A 
ENDROOT
TORSDOF 0
ENDMDL
