MODEL 1
REMARK minimizedAffinity -2.91784501
REMARK minimizedRMSD -1
REMARK  0 active torsions:
REMARK  status: ('A' for Active; 'I' for Inactive)
ROOT
ATOM      1  C   UNL d   1      -0.650   0.157   2.858  0.00  0.00     0.023 A 
ATOM      2  C1  UNL d   1       0.507   0.744   2.345  0.00  0.00     0.003 A 
ATOM      3  C2  UNL d   1       0.790   0.655   0.980  0.00  0.00     0.048 A 
ATOM      4  C3  UNL d   1      -0.089  -0.021   0.134  0.00  0.00     0.023 A 
ATOM      5  C4  UNL d   1      -1.248  -0.608   0.643  0.00  0.00     0.048 A 
ATOM      6  C5  UNL d   1      -1.527  -0.518   2.008  0.00  0.00     0.003 A 
ATOM      7  I   UNL d   1       0.330  -0.154  -1.897  0.00  0.00    -0.146 I 
ENDROOT
TORSDOF 0
ENDMDL
