MODEL 1
REMARK minimizedAffinity -1.4322257
REMARK minimizedRMSD -1
REMARK  0 active torsions:
REMARK  status: ('A' for Active; 'I' for Inactive)
ROOT
ATOM      1  C   UNL d   1      -0.353   0.622  -1.429  0.00  0.00     0.023 A 
ATOM      2  C1  UNL d   1      -1.625   0.615  -0.858  0.00  0.00     0.003 A 
ATOM      3  C2  UNL d   1      -1.780   0.345   0.503  0.00  0.00     0.048 A 
ATOM      4  C3  UNL d   1      -0.657   0.082   1.287  0.00  0.00     0.023 A 
ATOM      5  C4  UNL d   1       0.619   0.088   0.720  0.00  0.00     0.048 A 
ATOM      6  C5  UNL d   1       0.768   0.359  -0.641  0.00  0.00     0.003 A 
ATOM      7  I   UNL d   1      -0.884  -0.321   3.314  0.00  0.00    -0.146 I 
ENDROOT
TORSDOF 0
ENDMDL
