MODEL 1
REMARK minimizedAffinity -3.61800933
REMARK minimizedRMSD -1
REMARK  0 active torsions:
REMARK  status: ('A' for Active; 'I' for Inactive)
ROOT
ATOM      1  C   UNL d   1      -0.773   0.919  -1.242  0.00  0.00     0.023 A 
ATOM      2  C1  UNL d   1       0.443   0.913  -0.559  0.00  0.00     0.003 A 
ATOM      3  C2  UNL d   1       0.487   0.546   0.788  0.00  0.00     0.048 A 
ATOM      4  C3  UNL d   1      -0.689   0.185   1.445  0.00  0.00     0.023 A 
ATOM      5  C4  UNL d   1      -1.908   0.189   0.765  0.00  0.00     0.048 A 
ATOM      6  C5  UNL d   1      -1.947   0.557  -0.581  0.00  0.00     0.003 A 
ATOM      7  I   UNL d   1      -0.626  -0.361   3.449  0.00  0.00    -0.146 I 
ENDROOT
TORSDOF 0
ENDMDL
