MODEL 1
REMARK minimizedAffinity -1.24323666
REMARK minimizedRMSD -1
REMARK  0 active torsions:
REMARK  status: ('A' for Active; 'I' for Inactive)
ROOT
ATOM      1  C   UNL d   1      -1.868  -1.301   3.261  0.00  0.00     0.023 A 
ATOM      2  C1  UNL d   1      -1.909  -1.369   1.868  0.00  0.00     0.003 A 
ATOM      3  C2  UNL d   1      -0.889  -0.790   1.110  0.00  0.00     0.048 A 
ATOM      4  C3  UNL d   1       0.169  -0.146   1.750  0.00  0.00     0.023 A 
ATOM      5  C4  UNL d   1       0.214  -0.077   3.144  0.00  0.00     0.048 A 
ATOM      6  C5  UNL d   1      -0.808  -0.657   3.898  0.00  0.00     0.003 A 
ATOM      7  I   UNL d   1       1.688   0.716   0.624  0.00  0.00    -0.146 I 
ENDROOT
TORSDOF 0
ENDMDL
