MODEL 1
REMARK minimizedAffinity -3.58490896
REMARK minimizedRMSD -1
REMARK  0 active torsions:
REMARK  status: ('A' for Active; 'I' for Inactive)
ROOT
ATOM      1  C   UNL d   1      -1.330  -0.360   2.988  0.00  0.00     0.023 A 
ATOM      2  C1  UNL d   1      -2.242  -0.501   1.941  0.00  0.00     0.003 A 
ATOM      3  C2  UNL d   1      -1.842  -0.251   0.627  0.00  0.00     0.048 A 
ATOM      4  C3  UNL d   1      -0.529   0.139   0.366  0.00  0.00     0.023 A 
ATOM      5  C4  UNL d   1       0.387   0.280   1.409  0.00  0.00     0.048 A 
ATOM      6  C5  UNL d   1      -0.017   0.030   2.722  0.00  0.00     0.003 A 
ATOM      7  I   UNL d   1       0.068   0.511  -1.590  0.00  0.00    -0.146 I 
ENDROOT
TORSDOF 0
ENDMDL
