MODEL 1
REMARK minimizedAffinity -3.25220776
REMARK minimizedRMSD -1
REMARK  0 active torsions:
REMARK  status: ('A' for Active; 'I' for Inactive)
ROOT
ATOM      1  C   UNL d   1      -0.398  -0.282   2.125  0.00  0.00     0.023 A 
ATOM      2  C1  UNL d   1      -1.425  -0.454   1.196  0.00  0.00     0.003 A 
ATOM      3  C2  UNL d   1      -1.168  -0.297  -0.168  0.00  0.00     0.048 A 
ATOM      4  C3  UNL d   1       0.118   0.032  -0.596  0.00  0.00     0.023 A 
ATOM      5  C4  UNL d   1       1.148   0.204   0.330  0.00  0.00     0.048 A 
ATOM      6  C5  UNL d   1       0.887   0.047   1.692  0.00  0.00     0.003 A 
ATOM      7  I   UNL d   1       0.503   0.266  -2.625  0.00  0.00    -0.146 I 
ENDROOT
TORSDOF 0
ENDMDL
