MODEL 1
REMARK minimizedAffinity -1.80051398
REMARK minimizedRMSD -1
REMARK  0 active torsions:
REMARK  status: ('A' for Active; 'I' for Inactive)
ROOT
ATOM      1  C   UNL d   1       1.612  -1.985  -4.010  0.00  0.00     0.023 A 
ATOM      2  C1  UNL d   1       2.145  -0.875  -3.354  0.00  0.00     0.003 A 
ATOM      3  C2  UNL d   1       1.352  -0.134  -2.476  0.00  0.00     0.048 A 
ATOM      4  C3  UNL d   1       0.027  -0.509  -2.257  0.00  0.00     0.023 A 
ATOM      5  C4  UNL d   1      -0.511  -1.620  -2.910  0.00  0.00     0.048 A 
ATOM      6  C5  UNL d   1       0.286  -2.357  -3.788  0.00  0.00     0.003 A 
ATOM      7  I   UNL d   1      -1.156   0.592  -0.950  0.00  0.00    -0.146 I 
ENDROOT
TORSDOF 0
ENDMDL
