MODEL 1
REMARK minimizedAffinity -2.47902036
REMARK minimizedRMSD -1
REMARK  0 active torsions:
REMARK  status: ('A' for Active; 'I' for Inactive)
ROOT
ATOM      1  C   UNL d   1      -1.423  -0.373   2.682  0.00  0.00     0.023 A 
ATOM      2  C1  UNL d   1      -0.055  -0.543   2.466  0.00  0.00     0.003 A 
ATOM      3  C2  UNL d   1       0.475  -0.390   1.184  0.00  0.00     0.048 A 
ATOM      4  C3  UNL d   1      -0.368  -0.064   0.122  0.00  0.00     0.023 A 
ATOM      5  C4  UNL d   1      -1.737   0.108   0.333  0.00  0.00     0.048 A 
ATOM      6  C5  UNL d   1      -2.263  -0.047   1.617  0.00  0.00     0.003 A 
ATOM      7  I   UNL d   1       0.418   0.165  -1.788  0.00  0.00    -0.146 I 
ENDROOT
TORSDOF 0
ENDMDL
