MODEL 1
REMARK minimizedAffinity -0.191729203
REMARK minimizedRMSD -1
REMARK  0 active torsions:
REMARK  status: ('A' for Active; 'I' for Inactive)
ROOT
ATOM      1  C   UNL d   1      -0.153   0.634   1.518  0.00  0.00     0.023 A 
ATOM      2  C1  UNL d   1       1.169   0.567   1.079  0.00  0.00     0.003 A 
ATOM      3  C2  UNL d   1       1.447   0.399  -0.279  0.00  0.00     0.048 A 
ATOM      4  C3  UNL d   1       0.398   0.301  -1.193  0.00  0.00     0.023 A 
ATOM      5  C4  UNL d   1      -0.927   0.369  -0.758  0.00  0.00     0.048 A 
ATOM      6  C5  UNL d   1      -1.200   0.535   0.601  0.00  0.00     0.003 A 
ATOM      7  I   UNL d   1       0.809   0.052  -3.215  0.00  0.00    -0.146 I 
ENDROOT
TORSDOF 0
ENDMDL
