MODEL 1
REMARK minimizedAffinity -0.269245088
REMARK minimizedRMSD -1
REMARK  0 active torsions:
REMARK  status: ('A' for Active; 'I' for Inactive)
ROOT
ATOM      1  C   UNL d   1       0.238  -0.311   3.107  0.00  0.00     0.023 A 
ATOM      2  C1  UNL d   1       1.413   0.097   2.476  0.00  0.00     0.003 A 
ATOM      3  C2  UNL d   1       1.459   0.203   1.084  0.00  0.00     0.048 A 
ATOM      4  C3  UNL d   1       0.325  -0.100   0.330  0.00  0.00     0.023 A 
ATOM      5  C4  UNL d   1      -0.853  -0.507   0.958  0.00  0.00     0.048 A 
ATOM      6  C5  UNL d   1      -0.894  -0.612   2.349  0.00  0.00     0.003 A 
ATOM      7  I   UNL d   1       0.391   0.057  -1.741  0.00  0.00    -0.146 I 
ENDROOT
TORSDOF 0
ENDMDL
