MODEL 1
REMARK minimizedAffinity -2.20674706
REMARK minimizedRMSD -1
REMARK  0 active torsions:
REMARK  status: ('A' for Active; 'I' for Inactive)
ROOT
ATOM      1  C   UNL d   1      -2.147  -0.561   2.085  0.00  0.00     0.023 A 
ATOM      2  C1  UNL d   1      -1.105  -0.455   3.007  0.00  0.00     0.003 A 
ATOM      3  C2  UNL d   1       0.161  -0.043   2.587  0.00  0.00     0.048 A 
ATOM      4  C3  UNL d   1       0.379   0.262   1.243  0.00  0.00     0.023 A 
ATOM      5  C4  UNL d   1      -0.661   0.158   0.318  0.00  0.00     0.048 A 
ATOM      6  C5  UNL d   1      -1.925  -0.255   0.742  0.00  0.00     0.003 A 
ATOM      7  I   UNL d   1       2.263   0.875   0.616  0.00  0.00    -0.146 I 
ENDROOT
TORSDOF 0
ENDMDL
