MODEL 1
REMARK minimizedAffinity -2.95198655
REMARK minimizedRMSD -1
REMARK  0 active torsions:
REMARK  status: ('A' for Active; 'I' for Inactive)
ROOT
ATOM      1  C   UNL d   1      -0.842  -0.439   3.642  0.00  0.00     0.023 A 
ATOM      2  C1  UNL d   1      -1.652  -0.910   2.608  0.00  0.00     0.003 A 
ATOM      3  C2  UNL d   1      -1.258  -0.740   1.279  0.00  0.00     0.048 A 
ATOM      4  C3  UNL d   1      -0.054  -0.100   0.991  0.00  0.00     0.023 A 
ATOM      5  C4  UNL d   1       0.760   0.371   2.022  0.00  0.00     0.048 A 
ATOM      6  C5  UNL d   1       0.362   0.201   3.350  0.00  0.00     0.003 A 
ATOM      7  I   UNL d   1       0.534   0.153  -0.986  0.00  0.00    -0.146 I 
ENDROOT
TORSDOF 0
ENDMDL
