MODEL 1
REMARK minimizedAffinity -2.19697618
REMARK minimizedRMSD -1
REMARK  0 active torsions:
REMARK  status: ('A' for Active; 'I' for Inactive)
ROOT
ATOM      1  C   UNL d   1       0.372  -0.024   3.074  0.00  0.00     0.023 A 
ATOM      2  C1  UNL d   1      -0.865  -0.270   2.478  0.00  0.00     0.003 A 
ATOM      3  C2  UNL d   1      -1.006  -0.175   1.092  0.00  0.00     0.048 A 
ATOM      4  C3  UNL d   1       0.096   0.165   0.307  0.00  0.00     0.023 A 
ATOM      5  C4  UNL d   1       1.336   0.411   0.899  0.00  0.00     0.048 A 
ATOM      6  C5  UNL d   1       1.471   0.316   2.285  0.00  0.00     0.003 A 
ATOM      7  I   UNL d   1      -0.111   0.307  -1.756  0.00  0.00    -0.146 I 
ENDROOT
TORSDOF 0
ENDMDL
