MODEL 1
REMARK minimizedAffinity -4.41095304
REMARK minimizedRMSD -1
REMARK  0 active torsions:
REMARK  status: ('A' for Active; 'I' for Inactive)
ROOT
ATOM      1  C   UNL d   1      -0.703  -0.802   3.217  0.00  0.00     0.023 A 
ATOM      2  C1  UNL d   1       0.463  -0.146   2.823  0.00  0.00     0.003 A 
ATOM      3  C2  UNL d   1       0.649   0.206   1.484  0.00  0.00     0.048 A 
ATOM      4  C3  UNL d   1      -0.335  -0.101   0.545  0.00  0.00     0.023 A 
ATOM      5  C4  UNL d   1      -1.504  -0.757   0.935  0.00  0.00     0.048 A 
ATOM      6  C5  UNL d   1      -1.685  -1.107   2.274  0.00  0.00     0.003 A 
ATOM      7  I   UNL d   1      -0.060   0.421  -1.448  0.00  0.00    -0.146 I 
ENDROOT
TORSDOF 0
ENDMDL
