MODEL 1
REMARK minimizedAffinity -3.741045
REMARK minimizedRMSD -1
REMARK  0 active torsions:
REMARK  status: ('A' for Active; 'I' for Inactive)
ROOT
ATOM      1  C   UNL d   1      -0.422  -0.394   2.305  0.00  0.00     0.023 A 
ATOM      2  C1  UNL d   1       0.909  -0.602   1.944  0.00  0.00     0.003 A 
ATOM      3  C2  UNL d   1       1.278  -0.592   0.597  0.00  0.00     0.048 A 
ATOM      4  C3  UNL d   1       0.311  -0.372  -0.384  0.00  0.00     0.023 A 
ATOM      5  C4  UNL d   1      -1.022  -0.163  -0.027  0.00  0.00     0.048 A 
ATOM      6  C5  UNL d   1      -1.386  -0.175   1.321  0.00  0.00     0.003 A 
ATOM      7  I   UNL d   1       0.859  -0.357  -2.389  0.00  0.00    -0.146 I 
ENDROOT
TORSDOF 0
ENDMDL
