MODEL 1
REMARK minimizedAffinity -0.0560943782
REMARK minimizedRMSD -1
REMARK  0 active torsions:
REMARK  status: ('A' for Active; 'I' for Inactive)
ROOT
ATOM      1  C   UNL d   1       0.275   0.842  -1.187  0.00  0.00     0.023 A 
ATOM      2  C1  UNL d   1       1.199   0.412  -0.235  0.00  0.00     0.003 A 
ATOM      3  C2  UNL d   1       0.829  -0.538   0.719  0.00  0.00     0.048 A 
ATOM      4  C3  UNL d   1      -0.467  -1.054   0.715  0.00  0.00     0.023 A 
ATOM      5  C4  UNL d   1      -1.394  -0.627  -0.237  0.00  0.00     0.048 A 
ATOM      6  C5  UNL d   1      -1.020   0.324  -1.188  0.00  0.00     0.003 A 
ATOM      7  I   UNL d   1      -1.020  -2.468   2.134  0.00  0.00    -0.146 I 
ENDROOT
TORSDOF 0
ENDMDL
