MODEL 1
REMARK minimizedAffinity 0.838807046
REMARK minimizedRMSD -1
REMARK  1 active torsions:
REMARK  status: ('A' for Active; 'I' for Inactive)
REMARK    1  A    between atoms: C3_4  and  O_7 
ROOT
ATOM      1  C   UNL d   1      -5.599  -0.917   1.430  0.00  0.00    -0.033 A 
ATOM      2  C1  UNL d   1      -5.995  -1.805   2.432  0.00  0.00     0.039 A 
ATOM      3  C2  UNL d   1      -5.993  -1.400   3.768  0.00  0.00    -0.080 A 
ATOM      4  C3  UNL d   1      -5.593  -0.105   4.089  0.00  0.00     0.150 A 
ATOM      5  C4  UNL d   1      -5.201   0.786   3.096  0.00  0.00    -0.007 A 
ATOM      6  C5  UNL d   1      -5.204   0.379   1.762  0.00  0.00     0.039 A 
ENDROOT
BRANCH   4   7
ATOM      7  O   UNL d   1      -5.570   0.334   5.379  0.00  0.00    -0.526 OA
ATOM      8  H5  UNL d   1      -5.838  -0.398   5.958  0.00  0.00     0.418 HD
ENDBRANCH   4   7
TORSDOF 1
ENDMDL
