MODEL 1
REMARK minimizedAffinity -4.20414591
REMARK minimizedRMSD -1
REMARK  1 active torsions:
REMARK  status: ('A' for Active; 'I' for Inactive)
REMARK    1  A    between atoms: C3_4  and  O_7 
ROOT
ATOM      1  C   UNL d   1       0.854  -0.002   0.011  0.00  0.00    -0.033 A 
ATOM      2  C1  UNL d   1       0.812  -0.091   1.403  0.00  0.00     0.039 A 
ATOM      3  C2  UNL d   1      -0.177   0.587   2.119  0.00  0.00    -0.080 A 
ATOM      4  C3  UNL d   1      -1.118   1.348   1.430  0.00  0.00     0.150 A 
ATOM      5  C4  UNL d   1      -1.084   1.438   0.043  0.00  0.00    -0.007 A 
ATOM      6  C5  UNL d   1      -0.095   0.761  -0.670  0.00  0.00     0.039 A 
ENDROOT
BRANCH   4   7
ATOM      7  O   UNL d   1      -2.099   2.031   2.086  0.00  0.00    -0.526 OA
ATOM      8  H5  UNL d   1      -1.980   1.899   3.041  0.00  0.00     0.418 HD
ENDBRANCH   4   7
TORSDOF 1
ENDMDL
