MODEL 1
REMARK minimizedAffinity -2.34620428
REMARK minimizedRMSD -1
REMARK  1 active torsions:
REMARK  status: ('A' for Active; 'I' for Inactive)
REMARK    1  A    between atoms: C3_4  and  O_7 
ROOT
ATOM      1  C   UNL d   1       0.646  -0.049   0.997  0.00  0.00    -0.033 A 
ATOM      2  C1  UNL d   1       1.184   1.001   1.744  0.00  0.00     0.039 A 
ATOM      3  C2  UNL d   1       0.366   2.050   2.167  0.00  0.00    -0.080 A 
ATOM      4  C3  UNL d   1      -0.987   2.037   1.838  0.00  0.00     0.150 A 
ATOM      5  C4  UNL d   1      -1.530   0.992   1.097  0.00  0.00    -0.007 A 
ATOM      6  C5  UNL d   1      -0.711  -0.054   0.675  0.00  0.00     0.039 A 
ENDROOT
BRANCH   4   7
ATOM      7  O   UNL d   1      -1.824   3.041   2.224  0.00  0.00    -0.526 OA
ATOM      8  H5  UNL d   1      -1.304   3.707   2.703  0.00  0.00     0.418 HD
ENDBRANCH   4   7
TORSDOF 1
ENDMDL
