MODEL 1
REMARK minimizedAffinity -3.08278966
REMARK minimizedRMSD -1
REMARK  1 active torsions:
REMARK  status: ('A' for Active; 'I' for Inactive)
REMARK    1  A    between atoms: C3_4  and  O_7 
ROOT
ATOM      1  C   UNL d   1       0.008  -0.199  -0.746  0.00  0.00    -0.033 A 
ATOM      2  C1  UNL d   1      -0.521   1.027  -1.157  0.00  0.00     0.039 A 
ATOM      3  C2  UNL d   1      -1.022   1.924  -0.212  0.00  0.00    -0.080 A 
ATOM      4  C3  UNL d   1      -0.988   1.586   1.137  0.00  0.00     0.150 A 
ATOM      5  C4  UNL d   1      -0.459   0.368   1.554  0.00  0.00    -0.007 A 
ATOM      6  C5  UNL d   1       0.040  -0.527   0.609  0.00  0.00     0.039 A 
ENDROOT
BRANCH   4   7
ATOM      7  O   UNL d   1      -1.471   2.427   2.096  0.00  0.00    -0.526 OA
ATOM      8  H5  UNL d   1      -1.831   3.217   1.659  0.00  0.00     0.418 HD
ENDBRANCH   4   7
TORSDOF 1
ENDMDL
