MODEL 1
REMARK minimizedAffinity -1.49461281
REMARK minimizedRMSD -1
REMARK  1 active torsions:
REMARK  status: ('A' for Active; 'I' for Inactive)
REMARK    1  A    between atoms: C3_4  and  O_7 
ROOT
ATOM      1  C   UNL d   1       0.616  -0.737  -0.824  0.00  0.00    -0.033 A 
ATOM      2  C1  UNL d   1       0.861  -0.944   0.535  0.00  0.00     0.039 A 
ATOM      3  C2  UNL d   1       0.537   0.047   1.463  0.00  0.00    -0.080 A 
ATOM      4  C3  UNL d   1      -0.032   1.238   1.021  0.00  0.00     0.150 A 
ATOM      5  C4  UNL d   1      -0.282   1.449  -0.331  0.00  0.00    -0.007 A 
ATOM      6  C5  UNL d   1       0.043   0.459  -1.257  0.00  0.00     0.039 A 
ENDROOT
BRANCH   4   7
ATOM      7  O   UNL d   1      -0.361   2.236   1.889  0.00  0.00    -0.526 OA
ATOM      8  H5  UNL d   1      -0.105   1.961   2.785  0.00  0.00     0.418 HD
ENDBRANCH   4   7
TORSDOF 1
ENDMDL
