MODEL 1
REMARK minimizedAffinity -2.45530844
REMARK minimizedRMSD -1
REMARK  1 active torsions:
REMARK  status: ('A' for Active; 'I' for Inactive)
REMARK    1  A    between atoms: C3_4  and  O_7 
ROOT
ATOM      1  C   UNL d   1      -0.146  -0.005   0.253  0.00  0.00    -0.033 A 
ATOM      2  C1  UNL d   1       0.434   0.230   1.501  0.00  0.00     0.039 A 
ATOM      3  C2  UNL d   1      -0.107   1.192   2.355  0.00  0.00    -0.080 A 
ATOM      4  C3  UNL d   1      -1.229   1.911   1.950  0.00  0.00     0.150 A 
ATOM      5  C4  UNL d   1      -1.815   1.680   0.710  0.00  0.00    -0.007 A 
ATOM      6  C5  UNL d   1      -1.272   0.719  -0.142  0.00  0.00     0.039 A 
ENDROOT
BRANCH   4   7
ATOM      7  O   UNL d   1      -1.790   2.864   2.748  0.00  0.00    -0.526 OA
ATOM      8  H5  UNL d   1      -1.262   2.935   3.561  0.00  0.00     0.418 HD
ENDBRANCH   4   7
TORSDOF 1
ENDMDL
