MODEL 1
REMARK minimizedAffinity -4.95788765
REMARK minimizedRMSD -1
REMARK  1 active torsions:
REMARK  status: ('A' for Active; 'I' for Inactive)
REMARK    1  A    between atoms: C3_4  and  O_7 
ROOT
ATOM      1  C   UNL d   1      -0.086  -0.492   0.875  0.00  0.00    -0.033 A 
ATOM      2  C1  UNL d   1       0.324  -0.032   2.127  0.00  0.00     0.039 A 
ATOM      3  C2  UNL d   1      -0.165   1.179   2.623  0.00  0.00    -0.080 A 
ATOM      4  C3  UNL d   1      -1.063   1.917   1.858  0.00  0.00     0.150 A 
ATOM      5  C4  UNL d   1      -1.479   1.463   0.611  0.00  0.00    -0.007 A 
ATOM      6  C5  UNL d   1      -0.989   0.254   0.117  0.00  0.00     0.039 A 
ENDROOT
BRANCH   4   7
ATOM      7  O   UNL d   1      -1.564   3.106   2.297  0.00  0.00    -0.526 OA
ATOM      8  H5  UNL d   1      -1.166   3.308   3.161  0.00  0.00     0.418 HD
ENDBRANCH   4   7
TORSDOF 1
ENDMDL
