MODEL 1
REMARK minimizedAffinity -4.34157324
REMARK minimizedRMSD -1
REMARK  1 active torsions:
REMARK  status: ('A' for Active; 'I' for Inactive)
REMARK    1  A    between atoms: C3_4  and  O_7 
ROOT
ATOM      1  C   UNL d   1      -0.266  -0.016  -0.301  0.00  0.00    -0.033 A 
ATOM      2  C1  UNL d   1      -1.062   0.965  -0.895  0.00  0.00     0.039 A 
ATOM      3  C2  UNL d   1      -1.538   2.036  -0.135  0.00  0.00    -0.080 A 
ATOM      4  C3  UNL d   1      -1.210   2.114   1.215  0.00  0.00     0.150 A 
ATOM      5  C4  UNL d   1      -0.414   1.142   1.813  0.00  0.00    -0.007 A 
ATOM      6  C5  UNL d   1       0.059   0.074   1.053  0.00  0.00     0.039 A 
ENDROOT
BRANCH   4   7
ATOM      7  O   UNL d   1      -1.655   3.137   1.998  0.00  0.00    -0.526 OA
ATOM      8  H5  UNL d   1      -2.216   3.717   1.457  0.00  0.00     0.418 HD
ENDBRANCH   4   7
TORSDOF 1
ENDMDL
