MODEL 1
REMARK minimizedAffinity -1.71077025
REMARK minimizedRMSD -1
REMARK  1 active torsions:
REMARK  status: ('A' for Active; 'I' for Inactive)
REMARK    1  A    between atoms: C3_4  and  O_7 
ROOT
ATOM      1  C   UNL d   1       0.642  -1.160  -0.230  0.00  0.00    -0.033 A 
ATOM      2  C1  UNL d   1      -0.061  -0.094  -0.796  0.00  0.00     0.039 A 
ATOM      3  C2  UNL d   1      -0.408   1.009  -0.015  0.00  0.00    -0.080 A 
ATOM      4  C3  UNL d   1      -0.047   1.036   1.329  0.00  0.00     0.150 A 
ATOM      5  C4  UNL d   1       0.657  -0.020   1.899  0.00  0.00    -0.007 A 
ATOM      6  C5  UNL d   1       1.002  -1.122   1.118  0.00  0.00     0.039 A 
ENDROOT
BRANCH   4   7
ATOM      7  O   UNL d   1      -0.368   2.090   2.133  0.00  0.00    -0.526 OA
ATOM      8  H5  UNL d   1      -0.878   2.731   1.610  0.00  0.00     0.418 HD
ENDBRANCH   4   7
TORSDOF 1
ENDMDL
