MODEL 1
REMARK minimizedAffinity -2.51371479
REMARK minimizedRMSD -1
REMARK  1 active torsions:
REMARK  status: ('A' for Active; 'I' for Inactive)
REMARK    1  A    between atoms: C3_4  and  O_7 
ROOT
ATOM      1  C   UNL d   1       0.151  -0.067   0.805  0.00  0.00    -0.033 A 
ATOM      2  C1  UNL d   1       0.640  -0.039  -0.503  0.00  0.00     0.039 A 
ATOM      3  C2  UNL d   1       0.437  -1.130  -1.349  0.00  0.00    -0.080 A 
ATOM      4  C3  UNL d   1      -0.255  -2.242  -0.877  0.00  0.00     0.150 A 
ATOM      5  C4  UNL d   1      -0.747  -2.276   0.423  0.00  0.00    -0.007 A 
ATOM      6  C5  UNL d   1      -0.543  -1.185   1.268  0.00  0.00     0.039 A 
ENDROOT
BRANCH   4   7
ATOM      7  O   UNL d   1      -0.473  -3.333  -1.665  0.00  0.00    -0.526 OA
ATOM      8  H5  UNL d   1      -0.051  -3.180  -2.527  0.00  0.00     0.418 HD
ENDBRANCH   4   7
TORSDOF 1
ENDMDL
