MODEL 1
REMARK minimizedAffinity -0.989810526
REMARK minimizedRMSD -1
REMARK  1 active torsions:
REMARK  status: ('A' for Active; 'I' for Inactive)
REMARK    1  A    between atoms: C3_4  and  O_7 
ROOT
ATOM      1  C   UNL d   1      -0.366   1.440   2.621  0.00  0.00    -0.033 A 
ATOM      2  C1  UNL d   1      -0.057   0.247   1.965  0.00  0.00     0.039 A 
ATOM      3  C2  UNL d   1       0.053   0.221   0.574  0.00  0.00    -0.080 A 
ATOM      4  C3  UNL d   1      -0.147   1.394  -0.149  0.00  0.00     0.150 A 
ATOM      5  C4  UNL d   1      -0.451   2.587   0.498  0.00  0.00    -0.007 A 
ATOM      6  C5  UNL d   1      -0.562   2.610   1.887  0.00  0.00     0.039 A 
ENDROOT
BRANCH   4   7
ATOM      7  O   UNL d   1      -0.055   1.417  -1.509  0.00  0.00    -0.526 OA
ATOM      8  H5  UNL d   1       0.133   0.516  -1.820  0.00  0.00     0.418 HD
ENDBRANCH   4   7
TORSDOF 1
ENDMDL
