MODEL 1
REMARK minimizedAffinity -4.38444138
REMARK minimizedRMSD -1
REMARK  1 active torsions:
REMARK  status: ('A' for Active; 'I' for Inactive)
REMARK    1  A    between atoms: C3_4  and  O_7 
ROOT
ATOM      1  C   UNL d   1       0.118  -0.406  -0.286  0.00  0.00    -0.033 A 
ATOM      2  C1  UNL d   1      -0.868   0.440  -0.796  0.00  0.00     0.039 A 
ATOM      3  C2  UNL d   1      -1.392   1.463  -0.002  0.00  0.00    -0.080 A 
ATOM      4  C3  UNL d   1      -0.921   1.628   1.297  0.00  0.00     0.150 A 
ATOM      5  C4  UNL d   1       0.065   0.791   1.810  0.00  0.00    -0.007 A 
ATOM      6  C5  UNL d   1       0.586  -0.230   1.016  0.00  0.00     0.039 A 
ENDROOT
BRANCH   4   7
ATOM      7  O   UNL d   1      -1.405   2.609   2.111  0.00  0.00    -0.526 OA
ATOM      8  H5  UNL d   1      -2.100   3.090   1.633  0.00  0.00     0.418 HD
ENDBRANCH   4   7
TORSDOF 1
ENDMDL
