MODEL 1
REMARK minimizedAffinity 19.5275459
REMARK minimizedRMSD -1
REMARK  0 active torsions:
REMARK  status: ('A' for Active; 'I' for Inactive)
ROOT
ATOM      1  C   UNL d   1      -0.204  -2.420  -0.959  0.00  0.00     0.124 A 
ATOM      2  C1  UNL d   1       0.135  -3.746  -1.189  0.00  0.00     0.062 A 
ATOM      3  C2  UNL d   1       1.448  -4.173  -1.012  0.00  0.00     0.162 A 
ATOM      4  C3  UNL d   1       2.432  -3.273  -0.601  0.00  0.00    -0.034 A 
ATOM      5  C4  UNL d   1       2.083  -1.941  -0.373  0.00  0.00     0.162 A 
ATOM      6  C5  UNL d   1       0.769  -1.519  -0.551  0.00  0.00     0.062 A 
ATOM      7  F   UNL d   1       0.443  -0.237  -0.328  0.00  0.00    -0.097 F 
ATOM      8  F1  UNL d   1       3.003  -1.049   0.023  0.00  0.00    -0.096 F 
ATOM      9  I   UNL d   1       4.396  -3.907  -0.336  0.00  0.00    -0.060 I 
ATOM     10  F2  UNL d   1       1.748  -5.460  -1.241  0.00  0.00    -0.096 F 
ATOM     11  F3  UNL d   1      -0.803  -4.618  -1.583  0.00  0.00    -0.097 F 
ATOM     12  F4  UNL d   1      -1.468  -2.012  -1.130  0.00  0.00    -0.092 F 
ENDROOT
TORSDOF 0
ENDMDL
