MODEL 1
REMARK minimizedAffinity 19.904583
REMARK minimizedRMSD -1
REMARK  0 active torsions:
REMARK  status: ('A' for Active; 'I' for Inactive)
ROOT
ATOM      1  C   UNL d   1       3.926  -4.932  -1.249  0.00  0.00     0.124 A 
ATOM      2  C1  UNL d   1       2.622  -4.928  -0.774  0.00  0.00     0.062 A 
ATOM      3  C2  UNL d   1       2.130  -3.820  -0.090  0.00  0.00     0.162 A 
ATOM      4  C3  UNL d   1       2.942  -2.705   0.122  0.00  0.00    -0.034 A 
ATOM      5  C4  UNL d   1       4.253  -2.718  -0.359  0.00  0.00     0.162 A 
ATOM      6  C5  UNL d   1       4.740  -3.828  -1.041  0.00  0.00     0.062 A 
ATOM      7  F   UNL d   1       6.000  -3.830  -1.500  0.00  0.00    -0.097 F 
ATOM      8  F1  UNL d   1       5.061  -1.664  -0.173  0.00  0.00    -0.096 F 
ATOM      9  I   UNL d   1       2.210  -1.047   1.143  0.00  0.00    -0.060 I 
ATOM     10  F2  UNL d   1       0.866  -3.843   0.358  0.00  0.00    -0.096 F 
ATOM     11  F3  UNL d   1       1.833  -5.994  -0.973  0.00  0.00    -0.097 F 
ATOM     12  F4  UNL d   1       4.397  -6.000  -1.906  0.00  0.00    -0.092 F 
ENDROOT
TORSDOF 0
ENDMDL
