MODEL 1
REMARK minimizedAffinity 17.1152687
REMARK minimizedRMSD -1
REMARK  0 active torsions:
REMARK  status: ('A' for Active; 'I' for Inactive)
ROOT
ATOM      1  C   UNL d   1      -5.770   2.157  -1.092  0.00  0.00     0.124 A 
ATOM      2  C1  UNL d   1      -5.750   3.099  -2.111  0.00  0.00     0.062 A 
ATOM      3  C2  UNL d   1      -5.813   2.693  -3.441  0.00  0.00     0.162 A 
ATOM      4  C3  UNL d   1      -5.898   1.338  -3.760  0.00  0.00    -0.034 A 
ATOM      5  C4  UNL d   1      -5.916   0.396  -2.730  0.00  0.00     0.162 A 
ATOM      6  C5  UNL d   1      -5.853   0.807  -1.402  0.00  0.00     0.062 A 
ATOM      7  F   UNL d   1      -5.872  -0.105  -0.419  0.00  0.00    -0.097 F 
ATOM      8  F1  UNL d   1      -5.997  -0.915  -3.001  0.00  0.00    -0.096 F 
ATOM      9  I   UNL d   1      -5.992   0.727  -5.747  0.00  0.00    -0.060 I 
ATOM     10  F2  UNL d   1      -5.792   3.626  -4.405  0.00  0.00    -0.096 F 
ATOM     11  F3  UNL d   1      -5.669   4.404  -1.814  0.00  0.00    -0.097 F 
ATOM     12  F4  UNL d   1      -5.708   2.550   0.187  0.00  0.00    -0.092 F 
ENDROOT
TORSDOF 0
ENDMDL
