MODEL 1
REMARK minimizedAffinity 9.51525784
REMARK minimizedRMSD -1
REMARK  0 active torsions:
REMARK  status: ('A' for Active; 'I' for Inactive)
ROOT
ATOM      1  C   UNL d   1      -5.353   2.213  -4.661  0.00  0.00     0.124 A 
ATOM      2  C1  UNL d   1      -5.681   1.070  -3.945  0.00  0.00     0.062 A 
ATOM      3  C2  UNL d   1      -5.678   1.091  -2.554  0.00  0.00     0.162 A 
ATOM      4  C3  UNL d   1      -5.348   2.259  -1.867  0.00  0.00    -0.034 A 
ATOM      5  C4  UNL d   1      -5.018   3.405  -2.594  0.00  0.00     0.162 A 
ATOM      6  C5  UNL d   1      -5.022   3.379  -3.985  0.00  0.00     0.062 A 
ATOM      7  F   UNL d   1      -4.705   4.485  -4.674  0.00  0.00    -0.097 F 
ATOM      8  F1  UNL d   1      -4.695   4.545  -1.966  0.00  0.00    -0.096 F 
ATOM      9  I   UNL d   1      -5.343   2.294   0.213  0.00  0.00    -0.060 I 
ATOM     10  F2  UNL d   1      -5.999  -0.029  -1.888  0.00  0.00    -0.096 F 
ATOM     11  F3  UNL d   1      -6.000  -0.058  -4.596  0.00  0.00    -0.097 F 
ATOM     12  F4  UNL d   1      -5.355   2.191  -6.000  0.00  0.00    -0.092 F 
ENDROOT
TORSDOF 0
ENDMDL
