MODEL 1
REMARK minimizedAffinity 6.82583857
REMARK minimizedRMSD -1
REMARK  0 active torsions:
REMARK  status: ('A' for Active; 'I' for Inactive)
ROOT
ATOM      1  C   UNL d   1       0.544  -3.529  -0.720  0.00  0.00     0.124 A 
ATOM      2  C1  UNL d   1       1.123  -4.708  -1.169  0.00  0.00     0.062 A 
ATOM      3  C2  UNL d   1       2.508  -4.850  -1.174  0.00  0.00     0.162 A 
ATOM      4  C3  UNL d   1       3.324  -3.810  -0.727  0.00  0.00    -0.034 A 
ATOM      5  C4  UNL d   1       2.734  -2.627  -0.278  0.00  0.00     0.162 A 
ATOM      6  C5  UNL d   1       1.350  -2.490  -0.275  0.00  0.00     0.062 A 
ATOM      7  F   UNL d   1       0.792  -1.350   0.159  0.00  0.00    -0.097 F 
ATOM      8  F1  UNL d   1       3.489  -1.608   0.158  0.00  0.00    -0.096 F 
ATOM      9  I   UNL d   1       5.394  -4.019  -0.733  0.00  0.00    -0.060 I 
ATOM     10  F2  UNL d   1       3.040  -6.000  -1.613  0.00  0.00    -0.096 F 
ATOM     11  F3  UNL d   1       0.347  -5.712  -1.600  0.00  0.00    -0.097 F 
ATOM     12  F4  UNL d   1      -0.788  -3.394  -0.717  0.00  0.00    -0.092 F 
ENDROOT
TORSDOF 0
ENDMDL
