MODEL 1
REMARK minimizedAffinity 16.5258446
REMARK minimizedRMSD -1
REMARK  0 active torsions:
REMARK  status: ('A' for Active; 'I' for Inactive)
ROOT
ATOM      1  C   UNL d   1       0.544  -3.194  -0.333  0.00  0.00     0.124 A 
ATOM      2  C1  UNL d   1       0.942  -4.465  -0.722  0.00  0.00     0.062 A 
ATOM      3  C2  UNL d   1       2.294  -4.762  -0.866  0.00  0.00     0.162 A 
ATOM      4  C3  UNL d   1       3.259  -3.785  -0.620  0.00  0.00    -0.034 A 
ATOM      5  C4  UNL d   1       2.851  -2.509  -0.230  0.00  0.00     0.162 A 
ATOM      6  C5  UNL d   1       1.499  -2.217  -0.087  0.00  0.00     0.062 A 
ATOM      7  F   UNL d   1       1.116  -0.988   0.289  0.00  0.00    -0.097 F 
ATOM      8  F1  UNL d   1       3.753  -1.546   0.015  0.00  0.00    -0.096 F 
ATOM      9  I   UNL d   1       5.282  -4.225  -0.834  0.00  0.00    -0.060 I 
ATOM     10  F2  UNL d   1       2.650  -5.999  -1.244  0.00  0.00    -0.096 F 
ATOM     11  F3  UNL d   1       0.022  -5.410  -0.962  0.00  0.00    -0.097 F 
ATOM     12  F4  UNL d   1      -0.758  -2.911  -0.196  0.00  0.00    -0.092 F 
ENDROOT
TORSDOF 0
ENDMDL
