MODEL 1
REMARK minimizedAffinity 13.3530741
REMARK minimizedRMSD -1
REMARK  0 active torsions:
REMARK  status: ('A' for Active; 'I' for Inactive)
ROOT
ATOM      1  C   UNL d   1      -5.197   3.632  -4.647  0.00  0.00     0.124 A 
ATOM      2  C1  UNL d   1      -5.133   4.276  -3.419  0.00  0.00     0.062 A 
ATOM      3  C2  UNL d   1      -5.362   3.567  -2.244  0.00  0.00     0.162 A 
ATOM      4  C3  UNL d   1      -5.656   2.204  -2.290  0.00  0.00    -0.034 A 
ATOM      5  C4  UNL d   1      -5.719   1.563  -3.529  0.00  0.00     0.162 A 
ATOM      6  C5  UNL d   1      -5.489   2.277  -4.701  0.00  0.00     0.062 A 
ATOM      7  F   UNL d   1      -5.551   1.653  -5.886  0.00  0.00    -0.097 F 
ATOM      8  F1  UNL d   1      -5.999   0.254  -3.610  0.00  0.00    -0.096 F 
ATOM      9  I   UNL d   1      -5.999   1.140  -0.535  0.00  0.00    -0.060 I 
ATOM     10  F2  UNL d   1      -5.294   4.215  -1.071  0.00  0.00    -0.096 F 
ATOM     11  F3  UNL d   1      -4.851   5.586  -3.365  0.00  0.00    -0.097 F 
ATOM     12  F4  UNL d   1      -4.977   4.318  -5.776  0.00  0.00    -0.092 F 
ENDROOT
TORSDOF 0
ENDMDL
