MODEL 1
REMARK minimizedAffinity 17.0650463
REMARK minimizedRMSD -1
REMARK  0 active torsions:
REMARK  status: ('A' for Active; 'I' for Inactive)
ROOT
ATOM      1  C   UNL d   1       0.568   4.113  -1.083  0.00  0.00     0.124 A 
ATOM      2  C1  UNL d   1      -0.044   4.965  -1.992  0.00  0.00     0.062 A 
ATOM      3  C2  UNL d   1      -1.364   4.748  -2.375  0.00  0.00     0.162 A 
ATOM      4  C3  UNL d   1      -2.083   3.675  -1.848  0.00  0.00    -0.034 A 
ATOM      5  C4  UNL d   1      -1.461   2.823  -0.935  0.00  0.00     0.162 A 
ATOM      6  C5  UNL d   1      -0.141   3.043  -0.555  0.00  0.00     0.062 A 
ATOM      7  F   UNL d   1       0.448   2.219   0.324  0.00  0.00    -0.097 F 
ATOM      8  F1  UNL d   1      -2.123   1.781  -0.408  0.00  0.00    -0.096 F 
ATOM      9  I   UNL d   1      -4.058   3.348  -2.419  0.00  0.00    -0.060 I 
ATOM     10  F2  UNL d   1      -1.930   5.587  -3.256  0.00  0.00    -0.096 F 
ATOM     11  F3  UNL d   1       0.639   5.999  -2.504  0.00  0.00    -0.097 F 
ATOM     12  F4  UNL d   1       1.839   4.323  -0.716  0.00  0.00    -0.092 F 
ENDROOT
TORSDOF 0
ENDMDL
