MODEL 1
REMARK minimizedAffinity 9.56685829
REMARK minimizedRMSD -1
REMARK  0 active torsions:
REMARK  status: ('A' for Active; 'I' for Inactive)
ROOT
ATOM      1  C1  BNZ d   1      -5.998  -1.802  -1.843  0.00  0.00     0.000 A 
ATOM      2  C2  BNZ d   1      -6.000  -1.755  -0.474  0.00  0.00     0.000 A 
ATOM      3  C3  BNZ d   1      -5.545  -0.650   0.189  0.00  0.00     0.000 A 
ATOM      4  C4  BNZ d   1      -5.052   0.390  -0.515  0.00  0.00     0.000 A 
ATOM      5  C5  BNZ d   1      -5.035   0.354  -1.895  0.00  0.00     0.000 A 
ATOM      6  C6  BNZ d   1      -5.530  -0.744  -2.560  0.00  0.00     0.000 A 
ENDROOT
TORSDOF 0
ENDMDL
