MODEL 1
REMARK minimizedAffinity 2.91807079
REMARK minimizedRMSD -1
REMARK  0 active torsions:
REMARK  status: ('A' for Active; 'I' for Inactive)
ROOT
ATOM      1  C1  BNZ d   1       5.632   1.773   0.118  0.00  0.00     0.000 A 
ATOM      2  C2  BNZ d   1       4.464   1.084   0.308  0.00  0.00     0.000 A 
ATOM      3  C3  BNZ d   1       3.658   0.766  -0.750  0.00  0.00     0.000 A 
ATOM      4  C4  BNZ d   1       4.002   1.171  -1.990  0.00  0.00     0.000 A 
ATOM      5  C5  BNZ d   1       5.172   1.874  -2.197  0.00  0.00     0.000 A 
ATOM      6  C6  BNZ d   1       5.999   2.158  -1.135  0.00  0.00     0.000 A 
ENDROOT
TORSDOF 0
ENDMDL
