MODEL 1
REMARK minimizedAffinity 6.88028574
REMARK minimizedRMSD -1
REMARK  0 active torsions:
REMARK  status: ('A' for Active; 'I' for Inactive)
ROOT
ATOM      1  C1  BNZ d   1       5.992   3.650  -3.740  0.00  0.00     0.000 A 
ATOM      2  C2  BNZ d   1       6.000   2.351  -3.308  0.00  0.00     0.000 A 
ATOM      3  C3  BNZ d   1       5.983   2.057  -1.973  0.00  0.00     0.000 A 
ATOM      4  C4  BNZ d   1       5.998   3.061  -1.073  0.00  0.00     0.000 A 
ATOM      5  C5  BNZ d   1       5.999   4.377  -1.493  0.00  0.00     0.000 A 
ATOM      6  C6  BNZ d   1       5.977   4.669  -2.838  0.00  0.00     0.000 A 
ENDROOT
TORSDOF 0
ENDMDL
