MODEL 1
REMARK minimizedAffinity 8.01179123
REMARK minimizedRMSD -1
REMARK  0 active torsions:
REMARK  status: ('A' for Active; 'I' for Inactive)
ROOT
ATOM      1  C1  BNZ d   1      -2.995  -1.751  -4.613  0.00  0.00     0.000 A 
ATOM      2  C2  BNZ d   1      -1.952  -1.777  -3.726  0.00  0.00     0.000 A 
ATOM      3  C3  BNZ d   1      -1.587  -2.941  -3.108  0.00  0.00     0.000 A 
ATOM      4  C4  BNZ d   1      -2.290  -4.066  -3.347  0.00  0.00     0.000 A 
ATOM      5  C5  BNZ d   1      -3.351  -4.054  -4.231  0.00  0.00     0.000 A 
ATOM      6  C6  BNZ d   1      -3.690  -2.890  -4.881  0.00  0.00     0.000 A 
ENDROOT
TORSDOF 0
ENDMDL
