MODEL 1
REMARK minimizedAffinity 11.3163548
REMARK minimizedRMSD -1
REMARK  0 active torsions:
REMARK  status: ('A' for Active; 'I' for Inactive)
ROOT
ATOM      1  C1  BNZ d   1      -0.506   4.557   1.023  0.00  0.00     0.000 A 
ATOM      2  C2  BNZ d   1       0.262   4.704   2.148  0.00  0.00     0.000 A 
ATOM      3  C3  BNZ d   1       0.178   3.807   3.175  0.00  0.00     0.000 A 
ATOM      4  C4  BNZ d   1      -0.701   2.787   3.095  0.00  0.00     0.000 A 
ATOM      5  C5  BNZ d   1      -1.489   2.631   1.972  0.00  0.00     0.000 A 
ATOM      6  C6  BNZ d   1      -1.374   3.514   0.923  0.00  0.00     0.000 A 
ENDROOT
TORSDOF 0
ENDMDL
