MODEL 1
REMARK minimizedAffinity 12.4641848
REMARK minimizedRMSD -1
REMARK  0 active torsions:
REMARK  status: ('A' for Active; 'I' for Inactive)
ROOT
ATOM      1  C1  BNZ d   1       2.670  -0.412   1.562  0.00  0.00     0.000 A 
ATOM      2  C2  BNZ d   1       1.911  -0.622   0.441  0.00  0.00     0.000 A 
ATOM      3  C3  BNZ d   1       2.350  -0.215  -0.787  0.00  0.00     0.000 A 
ATOM      4  C4  BNZ d   1       3.526   0.436  -0.889  0.00  0.00     0.000 A 
ATOM      5  C5  BNZ d   1       4.299   0.663   0.233  0.00  0.00     0.000 A 
ATOM      6  C6  BNZ d   1       3.872   0.218   1.463  0.00  0.00     0.000 A 
ENDROOT
TORSDOF 0
ENDMDL
