MODEL 1
REMARK minimizedAffinity 3.36483884
REMARK minimizedRMSD -1
REMARK  0 active torsions:
REMARK  status: ('A' for Active; 'I' for Inactive)
ROOT
ATOM      1  C1  BNZ d   1       1.498  -0.464   0.479  0.00  0.00     0.000 A 
ATOM      2  C2  BNZ d   1       2.004   0.100  -0.662  0.00  0.00     0.000 A 
ATOM      3  C3  BNZ d   1       3.163   0.824  -0.630  0.00  0.00     0.000 A 
ATOM      4  C4  BNZ d   1       3.794   1.015   0.547  0.00  0.00     0.000 A 
ATOM      5  C5  BNZ d   1       3.291   0.460   1.707  0.00  0.00     0.000 A 
ATOM      6  C6  BNZ d   1       2.145  -0.300   1.665  0.00  0.00     0.000 A 
ENDROOT
TORSDOF 0
ENDMDL
