MODEL 1
REMARK minimizedAffinity 15.2512302
REMARK minimizedRMSD -1
REMARK  0 active torsions:
REMARK  status: ('A' for Active; 'I' for Inactive)
ROOT
ATOM      1  C1  BNZ d   1       6.000   3.493  -2.563  0.00  0.00     0.000 A 
ATOM      2  C2  BNZ d   1       5.931   3.362  -3.924  0.00  0.00     0.000 A 
ATOM      3  C3  BNZ d   1       5.871   4.463  -4.731  0.00  0.00     0.000 A 
ATOM      4  C4  BNZ d   1       5.840   5.692  -4.176  0.00  0.00     0.000 A 
ATOM      5  C5  BNZ d   1       5.899   5.841  -2.804  0.00  0.00     0.000 A 
ATOM      6  C6  BNZ d   1       5.999   4.731  -1.997  0.00  0.00     0.000 A 
ENDROOT
TORSDOF 0
ENDMDL
