MODEL 1
REMARK minimizedAffinity 9.66016388
REMARK minimizedRMSD -1
REMARK  0 active torsions:
REMARK  status: ('A' for Active; 'I' for Inactive)
ROOT
ATOM      1  C1  BNZ d   1      -0.822   3.761   0.772  0.00  0.00     0.000 A 
ATOM      2  C2  BNZ d   1      -1.463   4.938   1.052  0.00  0.00     0.000 A 
ATOM      3  C3  BNZ d   1      -0.923   5.839   1.927  0.00  0.00     0.000 A 
ATOM      4  C4  BNZ d   1       0.235   5.543   2.552  0.00  0.00     0.000 A 
ATOM      5  C5  BNZ d   1       0.889   4.356   2.288  0.00  0.00     0.000 A 
ATOM      6  C6  BNZ d   1       0.362   3.470   1.376  0.00  0.00     0.000 A 
ENDROOT
TORSDOF 0
ENDMDL
