MODEL 1
REMARK minimizedAffinity -4.15231466
REMARK minimizedRMSD -1
REMARK  2 active torsions:
REMARK  status: ('A' for Active; 'I' for Inactive)
REMARK    1  A    between atoms: C2'_3  and  C1'_4 
REMARK    2  A    between atoms: C1'_4  and  C1_5 
ROOT
ATOM      1  C1  I4B d   1      -0.962   1.377   0.243  0.00  0.00    -0.075 A 
ATOM      2  C2  I4B d   1      -1.593   2.159   1.178  0.00  0.00     0.003 A 
ATOM      3  C3  I4B d   1      -1.448   3.567   1.145  0.00  0.00     0.002 A 
ATOM      4  C4  I4B d   1      -0.629   4.144   0.196  0.00  0.00    -0.004 A 
ATOM      5  C5  I4B d   1      -0.009   3.351  -0.766  0.00  0.00     0.002 A 
ATOM      6  C6  I4B d   1      -0.186   1.960  -0.751  0.00  0.00     0.003 A 
ENDROOT
BRANCH   1   7
ATOM      7  C1' I4B d   1      -1.110  -0.109   0.327  0.00  0.00     0.060 C 
BRANCH   7   8
ATOM      8  C2' I4B d   1       0.259  -0.700   0.595  0.00  0.00    -0.013 C 
ATOM      9  C4' I4B d   1       0.305  -1.383   1.937  0.00  0.00     0.013 C 
ATOM     10  C3' I4B d   1       0.573  -1.661  -0.513  0.00  0.00     0.013 C 
ENDBRANCH   7   8
ENDBRANCH   1   7
TORSDOF 2
ENDMDL
