MODEL 1
REMARK minimizedAffinity -0.750431061
REMARK minimizedRMSD -1
REMARK  2 active torsions:
REMARK  status: ('A' for Active; 'I' for Inactive)
REMARK    1  A    between atoms: C2'_3  and  C1'_4 
REMARK    2  A    between atoms: C1'_4  and  C1_5 
ROOT
ATOM      1  C1  I4B d   1      -0.684   0.515   0.854  0.00  0.00    -0.075 A 
ATOM      2  C2  I4B d   1      -1.312   1.200  -0.156  0.00  0.00     0.003 A 
ATOM      3  C3  I4B d   1      -1.797   2.511   0.067  0.00  0.00     0.002 A 
ATOM      4  C4  I4B d   1      -1.678   3.076   1.321  0.00  0.00    -0.004 A 
ATOM      5  C5  I4B d   1      -1.020   2.389   2.337  0.00  0.00     0.002 A 
ATOM      6  C6  I4B d   1      -0.509   1.105   2.099  0.00  0.00     0.003 A 
ENDROOT
BRANCH   1   7
ATOM      7  C1' I4B d   1      -0.213  -0.881   0.594  0.00  0.00     0.060 C 
BRANCH   7   8
ATOM      8  C2' I4B d   1       0.484  -0.896  -0.752  0.00  0.00    -0.013 C 
ATOM      9  C4' I4B d   1       1.733  -0.056  -0.728  0.00  0.00     0.013 C 
ATOM     10  C3' I4B d   1       0.796  -2.321  -1.096  0.00  0.00     0.013 C 
ENDBRANCH   7   8
ENDBRANCH   1   7
TORSDOF 2
ENDMDL
