MODEL 1
REMARK minimizedAffinity -2.59635305
REMARK minimizedRMSD -1
REMARK  2 active torsions:
REMARK  status: ('A' for Active; 'I' for Inactive)
REMARK    1  A    between atoms: C2'_3  and  C1'_4 
REMARK    2  A    between atoms: C1'_4  and  C1_5 
ROOT
ATOM      1  C1  I4B d   1       0.554   0.019  -0.306  0.00  0.00    -0.075 A 
ATOM      2  C2  I4B d   1      -0.066   1.145  -0.788  0.00  0.00     0.003 A 
ATOM      3  C3  I4B d   1      -0.919   1.903   0.049  0.00  0.00     0.002 A 
ATOM      4  C4  I4B d   1      -1.163   1.474   1.338  0.00  0.00    -0.004 A 
ATOM      5  C5  I4B d   1      -0.517   0.345   1.832  0.00  0.00     0.002 A 
ATOM      6  C6  I4B d   1       0.357  -0.381   1.010  0.00  0.00     0.003 A 
ENDROOT
BRANCH   1   7
ATOM      7  C1' I4B d   1       1.423  -0.777  -1.228  0.00  0.00     0.060 C 
BRANCH   7   8
ATOM      8  C2' I4B d   1       0.661  -2.024  -1.627  0.00  0.00    -0.013 C 
ATOM      9  C4' I4B d   1       0.344  -2.021  -3.099  0.00  0.00     0.013 C 
ATOM     10  C3' I4B d   1       1.494  -3.214  -1.255  0.00  0.00     0.013 C 
ENDBRANCH   7   8
ENDBRANCH   1   7
TORSDOF 2
ENDMDL
