MODEL 1
REMARK minimizedAffinity -6.18622065
REMARK minimizedRMSD -1
REMARK  2 active torsions:
REMARK  status: ('A' for Active; 'I' for Inactive)
REMARK    1  A    between atoms: C2'_3  and  C1'_4 
REMARK    2  A    between atoms: C1'_4  and  C1_5 
ROOT
ATOM      1  C1  I4B d   1      -0.557   1.149   0.369  0.00  0.00    -0.075 A 
ATOM      2  C2  I4B d   1      -1.543   1.399   1.290  0.00  0.00     0.003 A 
ATOM      3  C3  I4B d   1      -2.093   2.698   1.410  0.00  0.00     0.002 A 
ATOM      4  C4  I4B d   1      -1.597   3.722   0.629  0.00  0.00    -0.004 A 
ATOM      5  C5  I4B d   1      -0.613   3.461  -0.320  0.00  0.00     0.002 A 
ATOM      6  C6  I4B d   1      -0.098   2.164  -0.461  0.00  0.00     0.003 A 
ENDROOT
BRANCH   1   7
ATOM      7  C1' I4B d   1       0.026  -0.227   0.291  0.00  0.00     0.060 C 
BRANCH   7   8
ATOM      8  C2' I4B d   1       0.661  -0.388  -1.074  0.00  0.00    -0.013 C 
ATOM      9  C4' I4B d   1       2.003   0.294  -1.135  0.00  0.00     0.013 C 
ATOM     10  C3' I4B d   1       0.787  -1.856  -1.356  0.00  0.00     0.013 C 
ENDBRANCH   7   8
ENDBRANCH   1   7
TORSDOF 2
ENDMDL
