MODEL 1
REMARK minimizedAffinity -6.26269197
REMARK minimizedRMSD -1
REMARK  2 active torsions:
REMARK  status: ('A' for Active; 'I' for Inactive)
REMARK    1  A    between atoms: C2'_3  and  C1'_4 
REMARK    2  A    between atoms: C1'_4  and  C1_5 
ROOT
ATOM      1  C1  I4B d   1      -0.368   0.258   0.544  0.00  0.00    -0.075 A 
ATOM      2  C2  I4B d   1      -0.345   0.721   1.837  0.00  0.00     0.003 A 
ATOM      3  C3  I4B d   1      -1.061   1.890   2.188  0.00  0.00     0.002 A 
ATOM      4  C4  I4B d   1      -1.742   2.590   1.213  0.00  0.00    -0.004 A 
ATOM      5  C5  I4B d   1      -1.784   2.107  -0.092  0.00  0.00     0.002 A 
ATOM      6  C6  I4B d   1      -1.103   0.927  -0.426  0.00  0.00     0.003 A 
ENDROOT
BRANCH   1   7
ATOM      7  C1' I4B d   1       0.426  -0.961   0.201  0.00  0.00     0.060 C 
BRANCH   7   8
ATOM      8  C2' I4B d   1       0.939  -0.800  -1.216  0.00  0.00    -0.013 C 
ATOM      9  C4' I4B d   1       2.180   0.053  -1.253  0.00  0.00     0.013 C 
ATOM     10  C3' I4B d   1       1.206  -2.168  -1.770  0.00  0.00     0.013 C 
ENDBRANCH   7   8
ENDBRANCH   1   7
TORSDOF 2
ENDMDL
