MODEL 1
REMARK minimizedAffinity -5.70039082
REMARK minimizedRMSD -1
REMARK  2 active torsions:
REMARK  status: ('A' for Active; 'I' for Inactive)
REMARK    1  A    between atoms: C2'_3  and  C1'_4 
REMARK    2  A    between atoms: C1'_4  and  C1_5 
ROOT
ATOM      1  C1  I4B d   1       0.250  -0.152  -0.153  0.00  0.00    -0.075 A 
ATOM      2  C2  I4B d   1       0.164  -0.528   1.165  0.00  0.00     0.003 A 
ATOM      3  C3  I4B d   1      -0.641   0.212   2.065  0.00  0.00     0.002 A 
ATOM      4  C4  I4B d   1      -1.297   1.341   1.621  0.00  0.00    -0.004 A 
ATOM      5  C5  I4B d   1      -1.227   1.707   0.279  0.00  0.00     0.002 A 
ATOM      6  C6  I4B d   1      -0.458   0.949  -0.616  0.00  0.00     0.003 A 
ENDROOT
BRANCH   1   7
ATOM      7  C1' I4B d   1       1.135  -0.936  -1.069  0.00  0.00     0.060 C 
BRANCH   7   8
ATOM      8  C2' I4B d   1       0.381  -2.180  -1.494  0.00  0.00    -0.013 C 
ATOM      9  C4' I4B d   1      -0.257  -1.996  -2.846  0.00  0.00     0.013 C 
ATOM     10  C3' I4B d   1       1.348  -3.326  -1.504  0.00  0.00     0.013 C 
ENDBRANCH   7   8
ENDBRANCH   1   7
TORSDOF 2
ENDMDL
