MODEL 1
REMARK minimizedAffinity -5.10871506
REMARK minimizedRMSD -1
REMARK  2 active torsions:
REMARK  status: ('A' for Active; 'I' for Inactive)
REMARK    1  A    between atoms: C2'_3  and  C1'_4 
REMARK    2  A    between atoms: C1'_4  and  C1_5 
ROOT
ATOM      1  C1  I4B d   1      -0.849   1.334  -0.398  0.00  0.00    -0.075 A 
ATOM      2  C2  I4B d   1      -1.516   1.593   0.774  0.00  0.00     0.003 A 
ATOM      3  C3  I4B d   1      -1.546   2.906   1.301  0.00  0.00     0.002 A 
ATOM      4  C4  I4B d   1      -0.858   3.914   0.656  0.00  0.00    -0.004 A 
ATOM      5  C5  I4B d   1      -0.202   3.654  -0.543  0.00  0.00     0.002 A 
ATOM      6  C6  I4B d   1      -0.207   2.359  -1.081  0.00  0.00     0.003 A 
ENDROOT
BRANCH   1   7
ATOM      7  C1' I4B d   1      -0.810  -0.071  -0.910  0.00  0.00     0.060 C 
BRANCH   7   8
ATOM      8  C2' I4B d   1       0.404  -0.752  -0.312  0.00  0.00    -0.013 C 
ATOM      9  C4' I4B d   1       0.182  -1.087   1.140  0.00  0.00     0.013 C 
ATOM     10  C3' I4B d   1       0.685  -1.987  -1.115  0.00  0.00     0.013 C 
ENDBRANCH   7   8
ENDBRANCH   1   7
TORSDOF 2
ENDMDL
