MODEL 1
REMARK minimizedAffinity -2.64884949
REMARK minimizedRMSD -1
REMARK  2 active torsions:
REMARK  status: ('A' for Active; 'I' for Inactive)
REMARK    1  A    between atoms: C2'_3  and  C1'_4 
REMARK    2  A    between atoms: C1'_4  and  C1_5 
ROOT
ATOM      1  C1  I4B d   1      -0.479   1.028   0.015  0.00  0.00    -0.075 A 
ATOM      2  C2  I4B d   1      -0.745   2.362  -0.166  0.00  0.00     0.003 A 
ATOM      3  C3  I4B d   1      -1.459   3.087   0.819  0.00  0.00     0.002 A 
ATOM      4  C4  I4B d   1      -1.929   2.431   1.938  0.00  0.00    -0.004 A 
ATOM      5  C5  I4B d   1      -1.639   1.083   2.131  0.00  0.00     0.002 A 
ATOM      6  C6  I4B d   1      -0.899   0.380   1.170  0.00  0.00     0.003 A 
ENDROOT
BRANCH   1   7
ATOM      7  C1' I4B d   1       0.248   0.286  -1.060  0.00  0.00     0.060 C 
BRANCH   7   8
ATOM      8  C2' I4B d   1       0.967  -0.883  -0.417  0.00  0.00    -0.013 C 
ATOM      9  C4' I4B d   1       1.007  -2.073  -1.339  0.00  0.00     0.013 C 
ATOM     10  C3' I4B d   1       2.350  -0.433  -0.053  0.00  0.00     0.013 C 
ENDBRANCH   7   8
ENDBRANCH   1   7
TORSDOF 2
ENDMDL
