MODEL 1
REMARK minimizedAffinity -3.01096034
REMARK minimizedRMSD -1
REMARK  2 active torsions:
REMARK  status: ('A' for Active; 'I' for Inactive)
REMARK    1  A    between atoms: C2'_3  and  C1'_4 
REMARK    2  A    between atoms: C1'_4  and  C1_5 
ROOT
ATOM      1  C1  I4B d   1      -1.022   0.865   0.018  0.00  0.00    -0.075 A 
ATOM      2  C2  I4B d   1      -0.399   1.783  -0.789  0.00  0.00     0.003 A 
ATOM      3  C3  I4B d   1       0.908   1.536  -1.273  0.00  0.00     0.002 A 
ATOM      4  C4  I4B d   1       1.571   0.389  -0.885  0.00  0.00    -0.004 A 
ATOM      5  C5  I4B d   1       0.929  -0.552  -0.085  0.00  0.00     0.002 A 
ATOM      6  C6  I4B d   1      -0.381  -0.319   0.360  0.00  0.00     0.003 A 
ENDROOT
BRANCH   1   7
ATOM      7  C1' I4B d   1      -2.391   1.173   0.538  0.00  0.00     0.060 C 
BRANCH   7   8
ATOM      8  C2' I4B d   1      -2.237   2.007   1.793  0.00  0.00    -0.013 C 
ATOM      9  C4' I4B d   1      -0.845   1.892   2.357  0.00  0.00     0.013 C 
ATOM     10  C3' I4B d   1      -2.566   3.428   1.448  0.00  0.00     0.013 C 
ENDBRANCH   7   8
ENDBRANCH   1   7
TORSDOF 2
ENDMDL
