MODEL 1
REMARK minimizedAffinity -4.05467892
REMARK minimizedRMSD -1
REMARK  2 active torsions:
REMARK  status: ('A' for Active; 'I' for Inactive)
REMARK    1  A    between atoms: C2'_3  and  C1'_4 
REMARK    2  A    between atoms: C1'_4  and  C1_5 
ROOT
ATOM      1  C1  I4B d   1       0.356   0.049  -0.188  0.00  0.00    -0.075 A 
ATOM      2  C2  I4B d   1       0.034   1.314  -0.614  0.00  0.00     0.003 A 
ATOM      3  C3  I4B d   1      -0.794   2.144   0.179  0.00  0.00     0.002 A 
ATOM      4  C4  I4B d   1      -1.316   1.656   1.360  0.00  0.00    -0.004 A 
ATOM      5  C5  I4B d   1      -0.970   0.382   1.801  0.00  0.00     0.002 A 
ATOM      6  C6  I4B d   1      -0.119  -0.422   1.029  0.00  0.00     0.003 A 
ENDROOT
BRANCH   1   7
ATOM      7  C1' I4B d   1       1.205  -0.813  -1.067  0.00  0.00     0.060 C 
BRANCH   7   8
ATOM      8  C2' I4B d   1       0.391  -2.031  -1.453  0.00  0.00    -0.013 C 
ATOM      9  C4' I4B d   1      -0.151  -1.904  -2.852  0.00  0.00     0.013 C 
ATOM     10  C3' I4B d   1       1.273  -3.237  -1.321  0.00  0.00     0.013 C 
ENDBRANCH   7   8
ENDBRANCH   1   7
TORSDOF 2
ENDMDL
