MODEL 1
REMARK minimizedAffinity -2.6052196
REMARK minimizedRMSD -1
REMARK  2 active torsions:
REMARK  status: ('A' for Active; 'I' for Inactive)
REMARK    1  A    between atoms: C2'_3  and  C1'_4 
REMARK    2  A    between atoms: C1'_4  and  C1_5 
ROOT
ATOM      1  C1  I4B d   1       0.644  -1.087  -0.275  0.00  0.00    -0.075 A 
ATOM      2  C2  I4B d   1       0.173  -1.267   1.001  0.00  0.00     0.003 A 
ATOM      3  C3  I4B d   1      -0.472  -0.205   1.680  0.00  0.00     0.002 A 
ATOM      4  C4  I4B d   1      -0.578   1.027   1.067  0.00  0.00    -0.004 A 
ATOM      5  C5  I4B d   1      -0.121   1.201  -0.236  0.00  0.00     0.002 A 
ATOM      6  C6  I4B d   1       0.483   0.134  -0.916  0.00  0.00     0.003 A 
ENDROOT
BRANCH   1   7
ATOM      7  C1' I4B d   1       1.349  -2.221  -0.950  0.00  0.00     0.060 C 
BRANCH   7   8
ATOM      8  C2' I4B d   1       0.324  -3.001  -1.747  0.00  0.00    -0.013 C 
ATOM      9  C4' I4B d   1       0.364  -2.623  -3.204  0.00  0.00     0.013 C 
ATOM     10  C3' I4B d   1       0.604  -4.462  -1.559  0.00  0.00     0.013 C 
ENDBRANCH   7   8
ENDBRANCH   1   7
TORSDOF 2
ENDMDL
