MODEL 1
REMARK minimizedAffinity -4.69920301
REMARK minimizedRMSD -1
REMARK  2 active torsions:
REMARK  status: ('A' for Active; 'I' for Inactive)
REMARK    1  A    between atoms: C2'_3  and  C1'_4 
REMARK    2  A    between atoms: C1'_4  and  C1_5 
ROOT
ATOM      1  C1  I4B d   1      -0.246   0.635   0.157  0.00  0.00    -0.075 A 
ATOM      2  C2  I4B d   1      -0.887   1.815  -0.129  0.00  0.00     0.003 A 
ATOM      3  C3  I4B d   1      -1.627   2.485   0.875  0.00  0.00     0.002 A 
ATOM      4  C4  I4B d   1      -1.741   1.918   2.128  0.00  0.00    -0.004 A 
ATOM      5  C5  I4B d   1      -1.071   0.734   2.423  0.00  0.00     0.002 A 
ATOM      6  C6  I4B d   1      -0.308   0.095   1.435  0.00  0.00     0.003 A 
ENDROOT
BRANCH   1   7
ATOM      7  C1' I4B d   1       0.500  -0.063  -0.936  0.00  0.00     0.060 C 
BRANCH   7   8
ATOM      8  C2' I4B d   1       1.381  -1.118  -0.299  0.00  0.00    -0.013 C 
ATOM      9  C4' I4B d   1       1.332  -2.409  -1.074  0.00  0.00     0.013 C 
ATOM     10  C3' I4B d   1       2.779  -0.578  -0.236  0.00  0.00     0.013 C 
ENDBRANCH   7   8
ENDBRANCH   1   7
TORSDOF 2
ENDMDL
