MODEL 1
REMARK minimizedAffinity -4.12718582
REMARK minimizedRMSD -1
REMARK  0 active torsions:
REMARK  status: ('A' for Active; 'I' for Inactive)
ROOT
ATOM      1  C1  BNZ d   1      -0.526   0.006  -0.031  0.00  0.00     0.000 A 
ATOM      2  C2  BNZ d   1       0.842   0.005   0.039  0.00  0.00     0.000 A 
ATOM      3  C3  BNZ d   1       1.535   1.170   0.217  0.00  0.00     0.000 A 
ATOM      4  C4  BNZ d   1       0.862   2.337   0.285  0.00  0.00     0.000 A 
ATOM      5  C5  BNZ d   1      -0.516   2.356   0.207  0.00  0.00     0.000 A 
ATOM      6  C6  BNZ d   1      -1.212   1.177   0.067  0.00  0.00     0.000 A 
ENDROOT
TORSDOF 0
ENDMDL
