MODEL 1
REMARK minimizedAffinity -3.15572762
REMARK minimizedRMSD -1
REMARK  0 active torsions:
REMARK  status: ('A' for Active; 'I' for Inactive)
ROOT
ATOM      1  C1  BNZ d   1       2.052   1.646   0.605  0.00  0.00     0.000 A 
ATOM      2  C2  BNZ d   1       1.649   0.347   0.440  0.00  0.00     0.000 A 
ATOM      3  C3  BNZ d   1       0.321   0.026   0.401  0.00  0.00     0.000 A 
ATOM      4  C4  BNZ d   1      -0.601   0.996   0.568  0.00  0.00     0.000 A 
ATOM      5  C5  BNZ d   1      -0.211   2.308   0.745  0.00  0.00     0.000 A 
ATOM      6  C6  BNZ d   1       1.126   2.634   0.744  0.00  0.00     0.000 A 
ENDROOT
TORSDOF 0
ENDMDL
