MODEL 1
REMARK minimizedAffinity 1.07342386
REMARK minimizedRMSD -1
REMARK  0 active torsions:
REMARK  status: ('A' for Active; 'I' for Inactive)
ROOT
ATOM      1  C1  BNZ d   1      -1.875   0.008  -0.629  0.00  0.00     0.000 A 
ATOM      2  C2  BNZ d   1      -2.259   1.137  -1.302  0.00  0.00     0.000 A 
ATOM      3  C3  BNZ d   1      -1.926   2.378  -0.834  0.00  0.00     0.000 A 
ATOM      4  C4  BNZ d   1      -1.246   2.489   0.325  0.00  0.00     0.000 A 
ATOM      5  C5  BNZ d   1      -0.859   1.360   1.019  0.00  0.00     0.000 A 
ATOM      6  C6  BNZ d   1      -1.162   0.112   0.525  0.00  0.00     0.000 A 
ENDROOT
TORSDOF 0
ENDMDL
