MODEL 1
REMARK minimizedAffinity -1.09468138
REMARK minimizedRMSD -1
REMARK  0 active torsions:
REMARK  status: ('A' for Active; 'I' for Inactive)
ROOT
ATOM      1  C1  BNZ d   1      -0.661   1.253   0.410  0.00  0.00     0.000 A 
ATOM      2  C2  BNZ d   1       0.603   0.792   0.153  0.00  0.00     0.000 A 
ATOM      3  C3  BNZ d   1       0.870  -0.548   0.139  0.00  0.00     0.000 A 
ATOM      4  C4  BNZ d   1      -0.116  -1.424   0.421  0.00  0.00     0.000 A 
ATOM      5  C5  BNZ d   1      -1.393  -0.975   0.691  0.00  0.00     0.000 A 
ATOM      6  C6  BNZ d   1      -1.667   0.373   0.666  0.00  0.00     0.000 A 
ENDROOT
TORSDOF 0
ENDMDL
