MODEL 1
REMARK minimizedAffinity -4.97713423
REMARK minimizedRMSD -1
REMARK  0 active torsions:
REMARK  status: ('A' for Active; 'I' for Inactive)
ROOT
ATOM      1  C1  BNZ d   1       1.542   2.395  -0.076  0.00  0.00     0.000 A 
ATOM      2  C2  BNZ d   1       0.368   3.088  -0.203  0.00  0.00     0.000 A 
ATOM      3  C3  BNZ d   1      -0.836   2.461  -0.041  0.00  0.00     0.000 A 
ATOM      4  C4  BNZ d   1      -0.866   1.136   0.207  0.00  0.00     0.000 A 
ATOM      5  C5  BNZ d   1       0.309   0.421   0.328  0.00  0.00     0.000 A 
ATOM      6  C6  BNZ d   1       1.520   1.063   0.203  0.00  0.00     0.000 A 
ENDROOT
TORSDOF 0
ENDMDL
