MODEL 1
REMARK minimizedAffinity -1.69260812
REMARK minimizedRMSD -1
REMARK  0 active torsions:
REMARK  status: ('A' for Active; 'I' for Inactive)
ROOT
ATOM      1  C1  BNZ d   1      -0.214  -1.250  -1.552  0.00  0.00     0.000 A 
ATOM      2  C2  BNZ d   1       0.943  -0.533  -1.409  0.00  0.00     0.000 A 
ATOM      3  C3  BNZ d   1       1.192   0.174  -0.266  0.00  0.00     0.000 A 
ATOM      4  C4  BNZ d   1       0.267   0.195   0.715  0.00  0.00     0.000 A 
ATOM      5  C5  BNZ d   1      -0.909  -0.515   0.582  0.00  0.00     0.000 A 
ATOM      6  C6  BNZ d   1      -1.139  -1.257  -0.554  0.00  0.00     0.000 A 
ENDROOT
TORSDOF 0
ENDMDL
