MODEL 1
REMARK minimizedAffinity -5.22527266
REMARK minimizedRMSD -1
REMARK  0 active torsions:
REMARK  status: ('A' for Active; 'I' for Inactive)
ROOT
ATOM      1  C1  BNZ d   1      -0.235   1.414   0.564  0.00  0.00     0.000 A 
ATOM      2  C2  BNZ d   1       0.746   0.514   0.240  0.00  0.00     0.000 A 
ATOM      3  C3  BNZ d   1       2.019   0.934  -0.029  0.00  0.00     0.000 A 
ATOM      4  C4  BNZ d   1       2.300   2.253  -0.013  0.00  0.00     0.000 A 
ATOM      5  C5  BNZ d   1       1.320   3.172   0.303  0.00  0.00     0.000 A 
ATOM      6  C6  BNZ d   1       0.049   2.744   0.611  0.00  0.00     0.000 A 
ENDROOT
TORSDOF 0
ENDMDL
