MODEL 1
REMARK minimizedAffinity -4.54319477
REMARK minimizedRMSD -1
REMARK  0 active torsions:
REMARK  status: ('A' for Active; 'I' for Inactive)
ROOT
ATOM      1  C1  BNZ d   1       0.171  -0.037   0.342  0.00  0.00     0.000 A 
ATOM      2  C2  BNZ d   1       0.698   1.213   0.155  0.00  0.00     0.000 A 
ATOM      3  C3  BNZ d   1      -0.109   2.315   0.116  0.00  0.00     0.000 A 
ATOM      4  C4  BNZ d   1      -1.445   2.162   0.225  0.00  0.00     0.000 A 
ATOM      5  C5  BNZ d   1      -1.993   0.907   0.405  0.00  0.00     0.000 A 
ATOM      6  C6  BNZ d   1      -1.173  -0.196   0.482  0.00  0.00     0.000 A 
ENDROOT
TORSDOF 0
ENDMDL
