MODEL 1
REMARK minimizedAffinity -4.35053396
REMARK minimizedRMSD -1
REMARK  0 active torsions:
REMARK  status: ('A' for Active; 'I' for Inactive)
ROOT
ATOM      1  C1  BNZ d   1      -0.117   1.703   0.186  0.00  0.00     0.000 A 
ATOM      2  C2  BNZ d   1      -0.163   2.863   0.911  0.00  0.00     0.000 A 
ATOM      3  C3  BNZ d   1       0.909   3.712   0.942  0.00  0.00     0.000 A 
ATOM      4  C4  BNZ d   1       2.037   3.380   0.282  0.00  0.00     0.000 A 
ATOM      5  C5  BNZ d   1       2.101   2.209  -0.447  0.00  0.00     0.000 A 
ATOM      6  C6  BNZ d   1       1.007   1.376  -0.508  0.00  0.00     0.000 A 
ENDROOT
TORSDOF 0
ENDMDL
