MODEL 1
REMARK minimizedAffinity -5.00596571
REMARK minimizedRMSD -1
REMARK  0 active torsions:
REMARK  status: ('A' for Active; 'I' for Inactive)
ROOT
ATOM      1  C1  BNZ d   1       0.333   2.906   0.095  0.00  0.00     0.000 A 
ATOM      2  C2  BNZ d   1      -0.881   2.292  -0.065  0.00  0.00     0.000 A 
ATOM      3  C3  BNZ d   1      -0.983   0.929  -0.058  0.00  0.00     0.000 A 
ATOM      4  C4  BNZ d   1       0.133   0.182   0.067  0.00  0.00     0.000 A 
ATOM      5  C5  BNZ d   1       1.365   0.786   0.220  0.00  0.00     0.000 A 
ATOM      6  C6  BNZ d   1       1.459   2.158   0.252  0.00  0.00     0.000 A 
ENDROOT
TORSDOF 0
ENDMDL
