MODEL 1
REMARK minimizedAffinity -4.08345985
REMARK minimizedRMSD -1
REMARK  0 active torsions:
REMARK  status: ('A' for Active; 'I' for Inactive)
ROOT
ATOM      1  C1  BNZ d   1       0.204   0.307   0.329  0.00  0.00     0.000 A 
ATOM      2  C2  BNZ d   1       1.470   0.635   0.738  0.00  0.00     0.000 A 
ATOM      3  C3  BNZ d   1       1.796   1.928   1.039  0.00  0.00     0.000 A 
ATOM      4  C4  BNZ d   1       0.869   2.896   0.892  0.00  0.00     0.000 A 
ATOM      5  C5  BNZ d   1      -0.408   2.584   0.471  0.00  0.00     0.000 A 
ATOM      6  C6  BNZ d   1      -0.744   1.276   0.207  0.00  0.00     0.000 A 
ENDROOT
TORSDOF 0
ENDMDL
