MODEL 1
REMARK minimizedAffinity -3.10582685
REMARK minimizedRMSD -1
REMARK  0 active torsions:
REMARK  status: ('A' for Active; 'I' for Inactive)
ROOT
ATOM      1  C1  BNZ d   1      -1.134   1.547   0.232  0.00  0.00     0.000 A 
ATOM      2  C2  BNZ d   1       0.038   0.933  -0.123  0.00  0.00     0.000 A 
ATOM      3  C3  BNZ d   1       0.227  -0.401   0.108  0.00  0.00     0.000 A 
ATOM      4  C4  BNZ d   1      -0.739  -1.110   0.727  0.00  0.00     0.000 A 
ATOM      5  C5  BNZ d   1      -1.922  -0.504   1.099  0.00  0.00     0.000 A 
ATOM      6  C6  BNZ d   1      -2.124   0.831   0.831  0.00  0.00     0.000 A 
ENDROOT
TORSDOF 0
ENDMDL
