MODEL 1
REMARK minimizedAffinity -3.62857652
REMARK minimizedRMSD -1
REMARK  0 active torsions:
REMARK  status: ('A' for Active; 'I' for Inactive)
ROOT
ATOM      1  C1  BNZ d   1      -0.743   1.164   0.478  0.00  0.00     0.000 A 
ATOM      2  C2  BNZ d   1       0.532   0.753   0.191  0.00  0.00     0.000 A 
ATOM      3  C3  BNZ d   1       0.869  -0.570   0.246  0.00  0.00     0.000 A 
ATOM      4  C4  BNZ d   1      -0.055  -1.475   0.628  0.00  0.00     0.000 A 
ATOM      5  C5  BNZ d   1      -1.342  -1.075   0.930  0.00  0.00     0.000 A 
ATOM      6  C6  BNZ d   1      -1.688   0.253   0.835  0.00  0.00     0.000 A 
ENDROOT
TORSDOF 0
ENDMDL
