MODEL 1
REMARK minimizedAffinity -3.67531967
REMARK minimizedRMSD -1
REMARK  0 active torsions:
REMARK  status: ('A' for Active; 'I' for Inactive)
ROOT
ATOM      1  C1  BNZ d   1       0.252   1.255   0.480  0.00  0.00     0.000 A 
ATOM      2  C2  BNZ d   1       1.111   0.231   0.181  0.00  0.00     0.000 A 
ATOM      3  C3  BNZ d   1       0.719  -1.072   0.308  0.00  0.00     0.000 A 
ATOM      4  C4  BNZ d   1      -0.517  -1.350   0.772  0.00  0.00     0.000 A 
ATOM      5  C5  BNZ d   1      -1.392  -0.329   1.086  0.00  0.00     0.000 A 
ATOM      6  C6  BNZ d   1      -1.006   0.982   0.920  0.00  0.00     0.000 A 
ENDROOT
TORSDOF 0
ENDMDL
