MODEL 1
REMARK minimizedAffinity -4.86376572
REMARK minimizedRMSD -1
REMARK  0 active torsions:
REMARK  status: ('A' for Active; 'I' for Inactive)
ROOT
ATOM      1  C1  BNZ d   1       1.162   3.134  -0.141  0.00  0.00     0.000 A 
ATOM      2  C2  BNZ d   1      -0.203   3.130  -0.039  0.00  0.00     0.000 A 
ATOM      3  C3  BNZ d   1      -0.902   1.955  -0.034  0.00  0.00     0.000 A 
ATOM      4  C4  BNZ d   1      -0.238   0.789  -0.171  0.00  0.00     0.000 A 
ATOM      5  C5  BNZ d   1       1.138   0.777  -0.285  0.00  0.00     0.000 A 
ATOM      6  C6  BNZ d   1       1.840   1.959  -0.250  0.00  0.00     0.000 A 
ENDROOT
TORSDOF 0
ENDMDL
