MODEL 1
REMARK minimizedAffinity -4.84608126
REMARK minimizedRMSD -1
REMARK  0 active torsions:
REMARK  status: ('A' for Active; 'I' for Inactive)
ROOT
ATOM      1  C1  BNZ d   1       0.894   0.354   0.323  0.00  0.00     0.000 A 
ATOM      2  C2  BNZ d   1      -0.060   1.334   0.387  0.00  0.00     0.000 A 
ATOM      3  C3  BNZ d   1       0.252   2.586   0.839  0.00  0.00     0.000 A 
ATOM      4  C4  BNZ d   1       1.506   2.845   1.263  0.00  0.00     0.000 A 
ATOM      5  C5  BNZ d   1       2.477   1.864   1.213  0.00  0.00     0.000 A 
ATOM      6  C6  BNZ d   1       2.169   0.616   0.722  0.00  0.00     0.000 A 
ENDROOT
TORSDOF 0
ENDMDL
