MODEL 1
REMARK minimizedAffinity -5.39315462
REMARK minimizedRMSD -1
REMARK  0 active torsions:
REMARK  status: ('A' for Active; 'I' for Inactive)
ROOT
ATOM      1  C1  BNZ d   1       2.122   3.760   0.285  0.00  0.00     0.000 A 
ATOM      2  C2  BNZ d   1       0.809   3.779  -0.104  0.00  0.00     0.000 A 
ATOM      3  C3  BNZ d   1       0.149   2.618  -0.399  0.00  0.00     0.000 A 
ATOM      4  C4  BNZ d   1       0.813   1.446  -0.343  0.00  0.00     0.000 A 
ATOM      5  C5  BNZ d   1       2.140   1.411   0.039  0.00  0.00     0.000 A 
ATOM      6  C6  BNZ d   1       2.789   2.577   0.373  0.00  0.00     0.000 A 
ENDROOT
TORSDOF 0
ENDMDL
