MODEL 1
REMARK minimizedAffinity -2.72435069
REMARK minimizedRMSD -1
REMARK  0 active torsions:
REMARK  status: ('A' for Active; 'I' for Inactive)
ROOT
ATOM      1  C   UNL d   1      -0.635  -1.765   1.198  0.00  0.00     0.172 C 
ATOM      2  N   UNL d   1      -0.351  -0.433   0.719  0.00  0.00    -0.070 N 
ATOM      3  C1  UNL d   1       0.767  -0.056   0.024  0.00  0.00    -0.004 A 
ATOM      4  C2  UNL d   1       0.660   1.291  -0.249  0.00  0.00    -0.047 A 
ATOM      5  C3  UNL d   1      -0.564   1.739   0.302  0.00  0.00    -0.047 A 
ATOM      6  C4  UNL d   1      -1.170   0.651   0.895  0.00  0.00    -0.004 A 
ENDROOT
TORSDOF 0
ENDMDL
