MODEL 1
REMARK minimizedAffinity -2.69391012
REMARK minimizedRMSD -1
REMARK  0 active torsions:
REMARK  status: ('A' for Active; 'I' for Inactive)
ROOT
ATOM      1  C   UNL d   1       0.387   0.678  -0.668  0.00  0.00     0.172 C 
ATOM      2  N   UNL d   1      -0.245  -0.444  -0.015  0.00  0.00    -0.070 N 
ATOM      3  C1  UNL d   1      -1.581  -0.744  -0.057  0.00  0.00    -0.004 A 
ATOM      4  C2  UNL d   1      -1.781  -1.885   0.690  0.00  0.00    -0.047 A 
ATOM      5  C3  UNL d   1      -0.523  -2.283   1.200  0.00  0.00    -0.047 A 
ATOM      6  C4  UNL d   1       0.410  -1.374   0.749  0.00  0.00    -0.004 A 
ENDROOT
TORSDOF 0
ENDMDL
