MODEL 1
REMARK minimizedAffinity -1.29958081
REMARK minimizedRMSD -1
REMARK  0 active torsions:
REMARK  status: ('A' for Active; 'I' for Inactive)
ROOT
ATOM      1  C   UNL d   1       1.038   0.826   0.395  0.00  0.00     0.172 C 
ATOM      2  N   UNL d   1       2.284   0.738   1.120  0.00  0.00    -0.070 N 
ATOM      3  C1  UNL d   1       2.825  -0.408   1.640  0.00  0.00    -0.004 A 
ATOM      4  C2  UNL d   1       4.013  -0.072   2.253  0.00  0.00    -0.047 A 
ATOM      5  C3  UNL d   1       4.191   1.323   2.097  0.00  0.00    -0.047 A 
ATOM      6  C4  UNL d   1       3.106   1.799   1.392  0.00  0.00    -0.004 A 
ENDROOT
TORSDOF 0
ENDMDL
