MODEL 1
REMARK minimizedAffinity 0.407898009
REMARK minimizedRMSD -1
REMARK  0 active torsions:
REMARK  status: ('A' for Active; 'I' for Inactive)
ROOT
ATOM      1  C   UNL d   1       3.228   1.485  -3.156  0.00  0.00     0.172 C 
ATOM      2  N   UNL d   1       1.818   1.407  -3.456  0.00  0.00    -0.070 N 
ATOM      3  C1  UNL d   1       0.972   0.405  -3.064  0.00  0.00    -0.004 A 
ATOM      4  C2  UNL d   1      -0.284   0.699  -3.549  0.00  0.00    -0.047 A 
ATOM      5  C3  UNL d   1      -0.190   1.920  -4.258  0.00  0.00    -0.047 A 
ATOM      6  C4  UNL d   1       1.123   2.336  -4.185  0.00  0.00    -0.004 A 
ENDROOT
TORSDOF 0
ENDMDL
