MODEL 1
REMARK minimizedAffinity -3.18795872
REMARK minimizedRMSD -1
REMARK  0 active torsions:
REMARK  status: ('A' for Active; 'I' for Inactive)
ROOT
ATOM      1  C   UNL d   1      -1.921  -1.901   0.561  0.00  0.00     0.172 C 
ATOM      2  N   UNL d   1      -1.208  -0.651   0.445  0.00  0.00    -0.070 N 
ATOM      3  C1  UNL d   1      -1.629   0.557   0.936  0.00  0.00    -0.004 A 
ATOM      4  C2  UNL d   1      -0.672   1.497   0.620  0.00  0.00    -0.047 A 
ATOM      5  C3  UNL d   1       0.359   0.832  -0.085  0.00  0.00    -0.047 A 
ATOM      6  C4  UNL d   1       0.001  -0.496  -0.180  0.00  0.00    -0.004 A 
ENDROOT
TORSDOF 0
ENDMDL
