MODEL 1
REMARK minimizedAffinity -3.6858182
REMARK minimizedRMSD -1
REMARK  0 active torsions:
REMARK  status: ('A' for Active; 'I' for Inactive)
ROOT
ATOM      1  C   UNL d   1      -1.677  -2.162   0.747  0.00  0.00     0.172 C 
ATOM      2  N   UNL d   1      -1.128  -0.850   0.497  0.00  0.00    -0.070 N 
ATOM      3  C1  UNL d   1       0.094  -0.588  -0.063  0.00  0.00    -0.004 A 
ATOM      4  C2  UNL d   1       0.243   0.780  -0.130  0.00  0.00    -0.047 A 
ATOM      5  C3  UNL d   1      -0.929   1.361   0.409  0.00  0.00    -0.047 A 
ATOM      6  C4  UNL d   1      -1.761   0.330   0.790  0.00  0.00    -0.004 A 
ENDROOT
TORSDOF 0
ENDMDL
