MODEL 1
REMARK minimizedAffinity -0.565944254
REMARK minimizedRMSD -1
REMARK  0 active torsions:
REMARK  status: ('A' for Active; 'I' for Inactive)
ROOT
ATOM      1  C   UNL d   1       0.321   0.294  -0.129  0.00  0.00     0.172 C 
ATOM      2  N   UNL d   1       1.591   0.590   0.490  0.00  0.00    -0.070 N 
ATOM      3  C1  UNL d   1       2.529  -0.333   0.868  0.00  0.00    -0.004 A 
ATOM      4  C2  UNL d   1       3.595   0.348   1.415  0.00  0.00    -0.047 A 
ATOM      5  C3  UNL d   1       3.287   1.728   1.365  0.00  0.00    -0.047 A 
ATOM      6  C4  UNL d   1       2.041   1.850   0.787  0.00  0.00    -0.004 A 
ENDROOT
TORSDOF 0
ENDMDL
