MODEL 1
REMARK minimizedAffinity -3.22079754
REMARK minimizedRMSD -1
REMARK  0 active torsions:
REMARK  status: ('A' for Active; 'I' for Inactive)
ROOT
ATOM      1  C   UNL d   1       0.671   1.020   0.200  0.00  0.00     0.172 C 
ATOM      2  N   UNL d   1      -0.434   0.136  -0.089  0.00  0.00    -0.070 N 
ATOM      3  C1  UNL d   1      -0.614  -0.562  -1.253  0.00  0.00    -0.004 A 
ATOM      4  C2  UNL d   1      -1.781  -1.285  -1.135  0.00  0.00    -0.047 A 
ATOM      5  C3  UNL d   1      -2.321  -1.012   0.144  0.00  0.00    -0.047 A 
ATOM      6  C4  UNL d   1      -1.467  -0.129   0.770  0.00  0.00    -0.004 A 
ENDROOT
TORSDOF 0
ENDMDL
