MODEL 1
REMARK minimizedAffinity -1.88091016
REMARK minimizedRMSD -1
REMARK  0 active torsions:
REMARK  status: ('A' for Active; 'I' for Inactive)
ROOT
ATOM      1  C   UNL d   1       3.050   0.726   1.372  0.00  0.00     0.172 C 
ATOM      2  N   UNL d   1       1.822   0.315   0.733  0.00  0.00    -0.070 N 
ATOM      3  C1  UNL d   1       0.947   1.142   0.080  0.00  0.00    -0.004 A 
ATOM      4  C2  UNL d   1      -0.095   0.369  -0.386  0.00  0.00    -0.047 A 
ATOM      5  C3  UNL d   1       0.163  -0.967   0.000  0.00  0.00    -0.047 A 
ATOM      6  C4  UNL d   1       1.356  -0.972   0.692  0.00  0.00    -0.004 A 
ENDROOT
TORSDOF 0
ENDMDL
