MODEL 1
REMARK minimizedAffinity -3.63778973
REMARK minimizedRMSD -1
REMARK  0 active torsions:
REMARK  status: ('A' for Active; 'I' for Inactive)
ROOT
ATOM      1  C   UNL d   1      -0.072   0.725   0.035  0.00  0.00     0.172 C 
ATOM      2  N   UNL d   1      -0.321  -0.669   0.315  0.00  0.00    -0.070 N 
ATOM      3  C1  UNL d   1      -1.549  -1.277   0.313  0.00  0.00    -0.004 A 
ATOM      4  C2  UNL d   1      -1.362  -2.606   0.627  0.00  0.00    -0.047 A 
ATOM      5  C3  UNL d   1       0.025  -2.803   0.825  0.00  0.00    -0.047 A 
ATOM      6  C4  UNL d   1       0.646  -1.588   0.625  0.00  0.00    -0.004 A 
ENDROOT
TORSDOF 0
ENDMDL
