MODEL 1
REMARK minimizedAffinity -1.8127532
REMARK minimizedRMSD -1
REMARK  0 active torsions:
REMARK  status: ('A' for Active; 'I' for Inactive)
ROOT
ATOM      1  C   UNL d   1       2.271   1.416  -2.941  0.00  0.00     0.172 C 
ATOM      2  N   UNL d   1       1.368   0.767  -2.021  0.00  0.00    -0.070 N 
ATOM      3  C1  UNL d   1       1.351  -0.571  -1.728  0.00  0.00    -0.004 A 
ATOM      4  C2  UNL d   1       0.348  -0.789  -0.809  0.00  0.00    -0.047 A 
ATOM      5  C3  UNL d   1      -0.260   0.460  -0.541  0.00  0.00    -0.047 A 
ATOM      6  C4  UNL d   1       0.391   1.406  -1.304  0.00  0.00    -0.004 A 
ENDROOT
TORSDOF 0
ENDMDL
