MODEL 1
REMARK minimizedAffinity -2.82135057
REMARK minimizedRMSD -1
REMARK  0 active torsions:
REMARK  status: ('A' for Active; 'I' for Inactive)
ROOT
ATOM      1  C   UNL d   1      -1.721  -2.214   0.394  0.00  0.00     0.172 C 
ATOM      2  N   UNL d   1      -1.120  -0.902   0.338  0.00  0.00    -0.070 N 
ATOM      3  C1  UNL d   1       0.174  -0.632  -0.020  0.00  0.00    -0.004 A 
ATOM      4  C2  UNL d   1       0.356   0.732   0.053  0.00  0.00    -0.047 A 
ATOM      5  C3  UNL d   1      -0.870   1.301   0.472  0.00  0.00    -0.047 A 
ATOM      6  C4  UNL d   1      -1.766   0.267   0.641  0.00  0.00    -0.004 A 
ENDROOT
TORSDOF 0
ENDMDL
