MODEL 1
REMARK minimizedAffinity -3.60296917
REMARK minimizedRMSD -1
REMARK  0 active torsions:
REMARK  status: ('A' for Active; 'I' for Inactive)
ROOT
ATOM      1  C   UNL d   1      -0.035   0.676   0.002  0.00  0.00     0.172 C 
ATOM      2  N   UNL d   1      -0.437  -0.636   0.451  0.00  0.00    -0.070 N 
ATOM      3  C1  UNL d   1      -1.658  -1.216   0.230  0.00  0.00    -0.004 A 
ATOM      4  C2  UNL d   1      -1.645  -2.464   0.814  0.00  0.00    -0.047 A 
ATOM      5  C3  UNL d   1      -0.372  -2.640   1.407  0.00  0.00    -0.047 A 
ATOM      6  C4  UNL d   1       0.355  -1.493   1.167  0.00  0.00    -0.004 A 
ENDROOT
TORSDOF 0
ENDMDL
