MODEL 1
REMARK minimizedAffinity -3.80954146
REMARK minimizedRMSD -1
REMARK  1 active torsions:
REMARK  status: ('A' for Active; 'I' for Inactive)
REMARK    1  A    between atoms: C3_4  and  O_7 
ROOT
ATOM      1  C   UNL d   1       0.341   0.032   1.191  0.00  0.00    -0.033 A 
ATOM      2  C1  UNL d   1      -0.112   1.350   1.267  0.00  0.00     0.039 A 
ATOM      3  C2  UNL d   1      -0.228   2.119   0.107  0.00  0.00    -0.080 A 
ATOM      4  C3  UNL d   1       0.112   1.558  -1.121  0.00  0.00     0.150 A 
ATOM      5  C4  UNL d   1       0.561   0.244  -1.204  0.00  0.00    -0.007 A 
ATOM      6  C5  UNL d   1       0.677  -0.522  -0.045  0.00  0.00     0.039 A 
ENDROOT
BRANCH   4   7
ATOM      7  O   UNL d   1       0.021   2.270  -2.279  0.00  0.00    -0.526 OA
ATOM      8  H5  UNL d   1      -0.276   3.171  -2.064  0.00  0.00     0.418 HD
ENDBRANCH   4   7
TORSDOF 1
ENDMDL
