MODEL 1
REMARK minimizedAffinity -2.32826304
REMARK minimizedRMSD -1
REMARK  1 active torsions:
REMARK  status: ('A' for Active; 'I' for Inactive)
REMARK    1  A    between atoms: C3_4  and  O_7 
ROOT
ATOM      1  C   UNL d   1       0.421  -0.787  -0.723  0.00  0.00    -0.033 A 
ATOM      2  C1  UNL d   1       1.050  -1.075   0.490  0.00  0.00     0.039 A 
ATOM      3  C2  UNL d   1       0.852  -0.246   1.596  0.00  0.00    -0.080 A 
ATOM      4  C3  UNL d   1       0.023   0.866   1.476  0.00  0.00     0.150 A 
ATOM      5  C4  UNL d   1      -0.610   1.157   0.272  0.00  0.00    -0.007 A 
ATOM      6  C5  UNL d   1      -0.410   0.328  -0.831  0.00  0.00     0.039 A 
ENDROOT
BRANCH   4   7
ATOM      7  O   UNL d   1      -0.197   1.707   2.526  0.00  0.00    -0.526 OA
ATOM      8  H5  UNL d   1       0.328   1.398   3.283  0.00  0.00     0.418 HD
ENDBRANCH   4   7
TORSDOF 1
ENDMDL
