MODEL 1
REMARK minimizedAffinity -4.22828245
REMARK minimizedRMSD -1
REMARK  1 active torsions:
REMARK  status: ('A' for Active; 'I' for Inactive)
REMARK    1  A    between atoms: C3_4  and  O_7 
ROOT
ATOM      1  C   UNL d   1      -0.078  -0.018   1.236  0.00  0.00    -0.033 A 
ATOM      2  C1  UNL d   1      -0.129   0.002  -0.159  0.00  0.00     0.039 A 
ATOM      3  C2  UNL d   1      -0.281   1.214  -0.836  0.00  0.00    -0.080 A 
ATOM      4  C3  UNL d   1      -0.380   2.396  -0.108  0.00  0.00     0.150 A 
ATOM      5  C4  UNL d   1      -0.325   2.384   1.282  0.00  0.00    -0.007 A 
ATOM      6  C5  UNL d   1      -0.175   1.173   1.957  0.00  0.00     0.039 A 
ENDROOT
BRANCH   4   7
ATOM      7  O   UNL d   1      -0.534   3.602  -0.724  0.00  0.00    -0.526 OA
ATOM      8  H5  UNL d   1      -0.583   3.454  -1.683  0.00  0.00     0.418 HD
ENDBRANCH   4   7
TORSDOF 1
ENDMDL
