MODEL 1
REMARK minimizedAffinity -4.47473526
REMARK minimizedRMSD -1
REMARK  1 active torsions:
REMARK  status: ('A' for Active; 'I' for Inactive)
REMARK    1  A    between atoms: C3_4  and  O_7 
ROOT
ATOM      1  C   UNL d   1       0.531  -0.633  -0.073  0.00  0.00    -0.033 A 
ATOM      2  C1  UNL d   1       0.669  -0.588   1.316  0.00  0.00     0.039 A 
ATOM      3  C2  UNL d   1       0.044   0.422   2.050  0.00  0.00    -0.080 A 
ATOM      4  C3  UNL d   1      -0.717   1.379   1.384  0.00  0.00     0.150 A 
ATOM      5  C4  UNL d   1      -0.862   1.338   0.001  0.00  0.00    -0.007 A 
ATOM      6  C5  UNL d   1      -0.236   0.329  -0.730  0.00  0.00     0.039 A 
ENDROOT
BRANCH   4   7
ATOM      7  O   UNL d   1      -1.343   2.386   2.056  0.00  0.00    -0.526 OA
ATOM      8  H5  UNL d   1      -1.130   2.304   3.001  0.00  0.00     0.418 HD
ENDBRANCH   4   7
TORSDOF 1
ENDMDL
