MODEL 1
REMARK minimizedAffinity -2.18523908
REMARK minimizedRMSD -1
REMARK  1 active torsions:
REMARK  status: ('A' for Active; 'I' for Inactive)
REMARK    1  A    between atoms: C3_4  and  O_7 
ROOT
ATOM      1  C   UNL d   1       0.231  -3.735   0.104  0.00  0.00    -0.033 A 
ATOM      2  C1  UNL d   1       0.964  -3.112  -0.908  0.00  0.00     0.039 A 
ATOM      3  C2  UNL d   1       0.382  -2.885  -2.156  0.00  0.00    -0.080 A 
ATOM      4  C3  UNL d   1      -0.933  -3.283  -2.379  0.00  0.00     0.150 A 
ATOM      5  C4  UNL d   1      -1.671  -3.901  -1.375  0.00  0.00    -0.007 A 
ATOM      6  C5  UNL d   1      -1.087  -4.128  -0.129  0.00  0.00     0.039 A 
ENDROOT
BRANCH   4   7
ATOM      7  O   UNL d   1      -1.543  -3.087  -3.583  0.00  0.00    -0.526 OA
ATOM      8  H5  UNL d   1      -0.903  -2.677  -4.188  0.00  0.00     0.418 HD
ENDBRANCH   4   7
TORSDOF 1
ENDMDL
