MODEL 1
REMARK minimizedAffinity -2.87510538
REMARK minimizedRMSD -1
REMARK  1 active torsions:
REMARK  status: ('A' for Active; 'I' for Inactive)
REMARK    1  A    between atoms: C3_4  and  O_7 
ROOT
ATOM      1  C   UNL d   1      -0.267   3.069   1.073  0.00  0.00    -0.033 A 
ATOM      2  C1  UNL d   1      -0.029   1.939   1.857  0.00  0.00     0.039 A 
ATOM      3  C2  UNL d   1       0.075   0.682   1.259  0.00  0.00    -0.080 A 
ATOM      4  C3  UNL d   1      -0.059   0.568  -0.122  0.00  0.00     0.150 A 
ATOM      5  C4  UNL d   1      -0.292   1.691  -0.910  0.00  0.00    -0.007 A 
ATOM      6  C5  UNL d   1      -0.397   2.946  -0.311  0.00  0.00     0.039 A 
ENDROOT
BRANCH   4   7
ATOM      7  O   UNL d   1       0.030  -0.638  -0.750  0.00  0.00    -0.526 OA
ATOM      8  H5  UNL d   1       0.164  -1.326  -0.077  0.00  0.00     0.418 HD
ENDBRANCH   4   7
TORSDOF 1
ENDMDL
