MODEL 1
REMARK minimizedAffinity -2.26123548
REMARK minimizedRMSD -1
REMARK  1 active torsions:
REMARK  status: ('A' for Active; 'I' for Inactive)
REMARK    1  A    between atoms: C3_4  and  O_7 
ROOT
ATOM      1  C   UNL d   1      -0.772  -4.156  -1.225  0.00  0.00    -0.033 A 
ATOM      2  C1  UNL d   1       0.408  -3.895  -0.525  0.00  0.00     0.039 A 
ATOM      3  C2  UNL d   1       0.906  -2.592  -0.455  0.00  0.00    -0.080 A 
ATOM      4  C3  UNL d   1       0.215  -1.562  -1.087  0.00  0.00     0.150 A 
ATOM      5  C4  UNL d   1      -0.963  -1.814  -1.782  0.00  0.00    -0.007 A 
ATOM      6  C5  UNL d   1      -1.458  -3.116  -1.853  0.00  0.00     0.039 A 
ENDROOT
BRANCH   4   7
ATOM      7  O   UNL d   1       0.664  -0.275  -1.050  0.00  0.00    -0.526 OA
ATOM      8  H5  UNL d   1       1.503  -0.256  -0.558  0.00  0.00     0.418 HD
ENDBRANCH   4   7
TORSDOF 1
ENDMDL
