MODEL 1
REMARK minimizedAffinity 0.0403881595
REMARK minimizedRMSD -1
REMARK  1 active torsions:
REMARK  status: ('A' for Active; 'I' for Inactive)
REMARK    1  A    between atoms: C3_4  and  O_7 
ROOT
ATOM      1  C   UNL d   1       1.589   2.931   3.301  0.00  0.00    -0.033 A 
ATOM      2  C1  UNL d   1       2.460   3.917   2.834  0.00  0.00     0.039 A 
ATOM      3  C2  UNL d   1       2.267   4.480   1.570  0.00  0.00    -0.080 A 
ATOM      4  C3  UNL d   1       1.200   4.049   0.786  0.00  0.00     0.150 A 
ATOM      5  C4  UNL d   1       0.326   3.069   1.247  0.00  0.00    -0.007 A 
ATOM      6  C5  UNL d   1       0.521   2.508   2.508  0.00  0.00     0.039 A 
ENDROOT
BRANCH   4   7
ATOM      7  O   UNL d   1       0.974   4.565  -0.455  0.00  0.00    -0.526 OA
ATOM      8  H5  UNL d   1       1.674   5.210  -0.652  0.00  0.00     0.418 HD
ENDBRANCH   4   7
TORSDOF 1
ENDMDL
