MODEL 1
REMARK minimizedAffinity 12.0734701
REMARK minimizedRMSD -1
REMARK  1 active torsions:
REMARK  status: ('A' for Active; 'I' for Inactive)
REMARK    1  A    between atoms: C1_2  and  C2_3 
ROOT
ATOM      1  C2  UNL d   1      -1.559  -1.140  -2.989  0.00  0.00    -0.073 A 
ATOM      2  C3  UNL d   1      -0.663  -0.836  -4.020  0.00  0.00    -0.002 A 
ATOM      3  C4  UNL d   1      -0.269  -1.821  -4.925  0.00  0.00     0.004 A 
ATOM      4  C5  UNL d   1      -0.771  -3.118  -4.814  0.00  0.00    -0.004 A 
ATOM      5  C6  UNL d   1      -1.677  -3.439  -3.798  0.00  0.00    -0.075 A 
ATOM      6  C7  UNL d   1      -2.225  -4.830  -3.663  0.00  0.00     0.076 C 
ATOM      7  C8  UNL d   1      -2.066  -2.444  -2.890  0.00  0.00     0.001 A 
ENDROOT
BRANCH   1   8
ATOM      8  C1  UNL d   1      -1.993  -0.078  -2.012  0.00  0.00     0.053 C 
ATOM      9  C   UNL d   1      -0.832   0.433  -1.173  0.00  0.00     0.018 C 
ENDBRANCH   1   8
TORSDOF 1
ENDMDL
