MODEL 1
REMARK minimizedAffinity 2.43222451
REMARK minimizedRMSD -1
REMARK  1 active torsions:
REMARK  status: ('A' for Active; 'I' for Inactive)
REMARK    1  A    between atoms: C1_2  and  C2_3 
ROOT
ATOM      1  C2  UNL d   1      -3.085  -5.975   1.380  0.00  0.00    -0.073 A 
ATOM      2  C3  UNL d   1      -2.291  -5.991   0.228  0.00  0.00    -0.002 A 
ATOM      3  C4  UNL d   1      -0.899  -5.999   0.331  0.00  0.00     0.004 A 
ATOM      4  C5  UNL d   1      -0.288  -5.998   1.585  0.00  0.00    -0.004 A 
ATOM      5  C6  UNL d   1      -1.065  -5.994   2.748  0.00  0.00    -0.075 A 
ATOM      6  C7  UNL d   1      -0.423  -5.990   4.105  0.00  0.00     0.076 C 
ATOM      7  C8  UNL d   1      -2.462  -5.983   2.636  0.00  0.00     0.001 A 
ENDROOT
BRANCH   1   8
ATOM      8  C1  UNL d   1      -4.588  -5.973   1.274  0.00  0.00     0.053 C 
ATOM      9  C   UNL d   1      -5.256  -5.999   2.640  0.00  0.00     0.018 C 
ENDBRANCH   1   8
TORSDOF 1
ENDMDL
