MODEL 1
REMARK minimizedAffinity 6.93187189
REMARK minimizedRMSD -1
REMARK  1 active torsions:
REMARK  status: ('A' for Active; 'I' for Inactive)
REMARK    1  A    between atoms: C1_2  and  C2_3 
ROOT
ATOM      1  C2  UNL d   1       3.130  -0.427  -4.114  0.00  0.00    -0.073 A 
ATOM      2  C3  UNL d   1       2.942  -0.023  -5.441  0.00  0.00    -0.002 A 
ATOM      3  C4  UNL d   1       3.735   0.986  -5.990  0.00  0.00     0.004 A 
ATOM      4  C5  UNL d   1       4.727   1.595  -5.222  0.00  0.00    -0.004 A 
ATOM      5  C6  UNL d   1       4.938   1.197  -3.898  0.00  0.00    -0.075 A 
ATOM      6  C7  UNL d   1       6.000   1.844  -3.058  0.00  0.00     0.076 C 
ATOM      7  C8  UNL d   1       4.136   0.185  -3.353  0.00  0.00     0.001 A 
ENDROOT
BRANCH   1   8
ATOM      8  C1  UNL d   1       2.281  -1.520  -3.519  0.00  0.00     0.053 C 
ATOM      9  C   UNL d   1       1.219  -2.009  -4.491  0.00  0.00     0.018 C 
ENDBRANCH   1   8
TORSDOF 1
ENDMDL
