MODEL 1
REMARK minimizedAffinity 10.4534092
REMARK minimizedRMSD -1
REMARK  1 active torsions:
REMARK  status: ('A' for Active; 'I' for Inactive)
REMARK    1  A    between atoms: C1_2  and  C2_3 
ROOT
ATOM      1  C2  UNL d   1       1.442  -1.929  -3.510  0.00  0.00    -0.073 A 
ATOM      2  C3  UNL d   1       1.333  -3.116  -4.244  0.00  0.00    -0.002 A 
ATOM      3  C4  UNL d   1       0.080  -3.586  -4.642  0.00  0.00     0.004 A 
ATOM      4  C5  UNL d   1      -1.073  -2.873  -4.317  0.00  0.00    -0.004 A 
ATOM      5  C6  UNL d   1      -0.984  -1.679  -3.594  0.00  0.00    -0.075 A 
ATOM      6  C7  UNL d   1      -2.215  -0.900  -3.235  0.00  0.00     0.076 C 
ATOM      7  C8  UNL d   1       0.277  -1.214  -3.196  0.00  0.00     0.001 A 
ENDROOT
BRANCH   1   8
ATOM      8  C1  UNL d   1       2.792  -1.414  -3.084  0.00  0.00     0.053 C 
ATOM      9  C   UNL d   1       2.863  -1.172  -1.585  0.00  0.00     0.018 C 
ENDBRANCH   1   8
TORSDOF 1
ENDMDL
