MODEL 1
REMARK minimizedAffinity 3.96430254
REMARK minimizedRMSD -1
REMARK  1 active torsions:
REMARK  status: ('A' for Active; 'I' for Inactive)
REMARK    1  A    between atoms: C1_2  and  C2_3 
ROOT
ATOM      1  C2  UNL d   1      -1.455  -5.979   2.495  0.00  0.00    -0.073 A 
ATOM      2  C3  UNL d   1      -0.570  -5.992   1.411  0.00  0.00    -0.002 A 
ATOM      3  C4  UNL d   1       0.809  -5.998   1.626  0.00  0.00     0.004 A 
ATOM      4  C5  UNL d   1       1.317  -6.000   2.925  0.00  0.00    -0.004 A 
ATOM      5  C6  UNL d   1       0.449  -5.999   4.021  0.00  0.00    -0.075 A 
ATOM      6  C7  UNL d   1       0.979  -5.998   5.425  0.00  0.00     0.076 C 
ATOM      7  C8  UNL d   1      -0.935  -5.989   3.797  0.00  0.00     0.001 A 
ENDROOT
BRANCH   1   8
ATOM      8  C1  UNL d   1      -2.944  -5.978   2.268  0.00  0.00     0.053 C 
ATOM      9  C   UNL d   1      -3.295  -5.998   0.789  0.00  0.00     0.018 C 
ENDBRANCH   1   8
TORSDOF 1
ENDMDL
