MODEL 1
REMARK minimizedAffinity 5.0125041
REMARK minimizedRMSD -1
REMARK  1 active torsions:
REMARK  status: ('A' for Active; 'I' for Inactive)
REMARK    1  A    between atoms: C1_2  and  C2_3 
ROOT
ATOM      1  C2  UNL d   1       0.510  -2.036  -4.223  0.00  0.00    -0.073 A 
ATOM      2  C3  UNL d   1       0.051  -3.240  -4.770  0.00  0.00    -0.002 A 
ATOM      3  C4  UNL d   1      -1.271  -3.644  -4.577  0.00  0.00     0.004 A 
ATOM      4  C5  UNL d   1      -2.148  -2.847  -3.842  0.00  0.00    -0.004 A 
ATOM      5  C6  UNL d   1      -1.712  -1.635  -3.297  0.00  0.00    -0.075 A 
ATOM      6  C7  UNL d   1      -2.642  -0.766  -2.502  0.00  0.00     0.076 C 
ATOM      7  C8  UNL d   1      -0.382  -1.237  -3.493  0.00  0.00     0.001 A 
ENDROOT
BRANCH   1   8
ATOM      8  C1  UNL d   1       1.934  -1.593  -4.434  0.00  0.00     0.053 C 
ATOM      9  C   UNL d   1       2.492  -0.870  -3.218  0.00  0.00     0.018 C 
ENDBRANCH   1   8
TORSDOF 1
ENDMDL
