MODEL 1
REMARK minimizedAffinity 11.5361261
REMARK minimizedRMSD -1
REMARK  1 active torsions:
REMARK  status: ('A' for Active; 'I' for Inactive)
REMARK    1  A    between atoms: C1_2  and  C2_3 
ROOT
ATOM      1  C2  UNL d   1       0.945  -1.607  -2.557  0.00  0.00    -0.073 A 
ATOM      2  C3  UNL d   1      -0.030  -1.116  -1.682  0.00  0.00    -0.002 A 
ATOM      3  C4  UNL d   1      -1.377  -1.424  -1.883  0.00  0.00     0.004 A 
ATOM      4  C5  UNL d   1      -1.760  -2.230  -2.954  0.00  0.00    -0.004 A 
ATOM      5  C6  UNL d   1      -0.799  -2.741  -3.832  0.00  0.00    -0.075 A 
ATOM      6  C7  UNL d   1      -1.196  -3.608  -4.991  0.00  0.00     0.076 C 
ATOM      7  C8  UNL d   1       0.550  -2.425  -3.626  0.00  0.00     0.001 A 
ENDROOT
BRANCH   1   8
ATOM      8  C1  UNL d   1       2.401  -1.282  -2.342  0.00  0.00     0.053 C 
ATOM      9  C   UNL d   1       3.020  -0.608  -3.555  0.00  0.00     0.018 C 
ENDBRANCH   1   8
TORSDOF 1
ENDMDL
