MODEL 1
REMARK minimizedAffinity 8.42594814
REMARK minimizedRMSD -1
REMARK  1 active torsions:
REMARK  status: ('A' for Active; 'I' for Inactive)
REMARK    1  A    between atoms: C1_2  and  C2_3 
ROOT
ATOM      1  C2  UNL d   1       2.751   1.737   1.023  0.00  0.00    -0.073 A 
ATOM      2  C3  UNL d   1       3.230   2.893   0.396  0.00  0.00    -0.002 A 
ATOM      3  C4  UNL d   1       4.484   3.407   0.728  0.00  0.00     0.004 A 
ATOM      4  C5  UNL d   1       5.273   2.769   1.684  0.00  0.00    -0.004 A 
ATOM      5  C6  UNL d   1       4.817   1.606   2.314  0.00  0.00    -0.075 A 
ATOM      6  C7  UNL d   1       5.653   0.909   3.346  0.00  0.00     0.076 C 
ATOM      7  C8  UNL d   1       3.556   1.097   1.977  0.00  0.00     0.001 A 
ENDROOT
BRANCH   1   8
ATOM      8  C1  UNL d   1       1.400   1.174   0.663  0.00  0.00     0.053 C 
ATOM      9  C   UNL d   1       0.450   1.168   1.850  0.00  0.00     0.018 C 
ENDBRANCH   1   8
TORSDOF 1
ENDMDL
