MODEL 1
REMARK minimizedAffinity 8.04132366
REMARK minimizedRMSD -1
REMARK  1 active torsions:
REMARK  status: ('A' for Active; 'I' for Inactive)
REMARK    1  A    between atoms: C1_2  and  C2_3 
ROOT
ATOM      1  C2  UNL d   1       4.001   5.446  -3.510  0.00  0.00    -0.076 A 
ATOM      2  C3  UNL d   1       5.400   5.348  -3.405  0.00  0.00     0.004 A 
ATOM      3  C4  UNL d   1       5.999   4.868  -2.242  0.00  0.00    -0.003 A 
ATOM      4  C5  UNL d   1       5.210   4.478  -1.165  0.00  0.00     0.000 A 
ATOM      5  C6  UNL d   1       3.821   4.552  -1.259  0.00  0.00     0.000 A 
ATOM      6  C7  UNL d   1       3.200   5.018  -2.431  0.00  0.00    -0.073 A 
ATOM      7  C8  UNL d   1       1.698   5.082  -2.475  0.00  0.00     0.078 C 
ENDROOT
BRANCH   1   8
ATOM      8  C1  UNL d   1       3.408   6.000  -4.786  0.00  0.00     0.053 C 
ATOM      9  C   UNL d   1       4.400   5.994  -5.940  0.00  0.00     0.018 C 
ENDBRANCH   1   8
TORSDOF 1
ENDMDL
