MODEL 1
REMARK minimizedAffinity 0.371754199
REMARK minimizedRMSD -1
REMARK  1 active torsions:
REMARK  status: ('A' for Active; 'I' for Inactive)
REMARK    1  A    between atoms: C1_2  and  C2_3 
ROOT
ATOM      1  C2  UNL d   1       4.924   4.938  -3.196  0.00  0.00    -0.076 A 
ATOM      2  C3  UNL d   1       6.000   4.644  -4.052  0.00  0.00     0.004 A 
ATOM      3  C4  UNL d   1       5.954   4.981  -5.404  0.00  0.00    -0.003 A 
ATOM      4  C5  UNL d   1       4.832   5.619  -5.922  0.00  0.00     0.000 A 
ATOM      5  C6  UNL d   1       3.763   5.934  -5.083  0.00  0.00     0.000 A 
ATOM      6  C7  UNL d   1       3.800   5.616  -3.715  0.00  0.00    -0.073 A 
ATOM      7  C8  UNL d   1       2.617   5.974  -2.858  0.00  0.00     0.078 C 
ENDROOT
BRANCH   1   8
ATOM      8  C1  UNL d   1       5.020   4.524  -1.745  0.00  0.00     0.053 C 
ATOM      9  C   UNL d   1       5.838   5.500  -0.913  0.00  0.00     0.018 C 
ENDBRANCH   1   8
TORSDOF 1
ENDMDL
