MODEL 1
REMARK minimizedAffinity 10.7243252
REMARK minimizedRMSD -1
REMARK  1 active torsions:
REMARK  status: ('A' for Active; 'I' for Inactive)
REMARK    1  A    between atoms: C1_2  and  C2_3 
ROOT
ATOM      1  C2  UNL d   1       4.754   5.333  -2.276  0.00  0.00    -0.076 A 
ATOM      2  C3  UNL d   1       3.554   5.950  -1.880  0.00  0.00     0.004 A 
ATOM      3  C4  UNL d   1       2.386   5.789  -2.622  0.00  0.00    -0.003 A 
ATOM      4  C5  UNL d   1       2.397   5.007  -3.772  0.00  0.00     0.000 A 
ATOM      5  C6  UNL d   1       3.574   4.373  -4.170  0.00  0.00     0.000 A 
ATOM      6  C7  UNL d   1       4.757   4.512  -3.424  0.00  0.00    -0.073 A 
ATOM      7  C8  UNL d   1       5.999   3.811  -3.902  0.00  0.00     0.078 C 
ENDROOT
BRANCH   1   8
ATOM      8  C1  UNL d   1       5.996   5.567  -1.446  0.00  0.00     0.053 C 
ATOM      9  C   UNL d   1       5.817   5.143   0.003  0.00  0.00     0.018 C 
ENDBRANCH   1   8
TORSDOF 1
ENDMDL
