MODEL 1
REMARK minimizedAffinity -0.115048416
REMARK minimizedRMSD -1
REMARK  1 active torsions:
REMARK  status: ('A' for Active; 'I' for Inactive)
REMARK    1  A    between atoms: C1_2  and  C2_3 
ROOT
ATOM      1  C2  UNL d   1       3.791   5.977  -3.033  0.00  0.00    -0.076 A 
ATOM      2  C3  UNL d   1       3.220   5.946  -4.317  0.00  0.00     0.004 A 
ATOM      3  C4  UNL d   1       4.020   5.950  -5.458  0.00  0.00    -0.003 A 
ATOM      4  C5  UNL d   1       5.404   5.984  -5.334  0.00  0.00     0.000 A 
ATOM      5  C6  UNL d   1       5.988   5.998  -4.068  0.00  0.00     0.000 A 
ATOM      6  C7  UNL d   1       5.197   5.978  -2.907  0.00  0.00    -0.073 A 
ATOM      7  C8  UNL d   1       5.880   5.999  -1.567  0.00  0.00     0.078 C 
ENDROOT
BRANCH   1   8
ATOM      8  C1  UNL d   1       2.873   5.999  -1.832  0.00  0.00     0.053 C 
ATOM      9  C   UNL d   1       2.956   4.721  -1.011  0.00  0.00     0.018 C 
ENDBRANCH   1   8
TORSDOF 1
ENDMDL
