MODEL 1
REMARK minimizedAffinity 6.33401442
REMARK minimizedRMSD -1
REMARK  1 active torsions:
REMARK  status: ('A' for Active; 'I' for Inactive)
REMARK    1  A    between atoms: C1_2  and  C2_3 
ROOT
ATOM      1  C2  UNL d   1       4.068  -3.578   4.528  0.00  0.00    -0.076 A 
ATOM      2  C3  UNL d   1       3.481  -4.817   4.217  0.00  0.00     0.004 A 
ATOM      3  C4  UNL d   1       3.961  -5.999   4.778  0.00  0.00    -0.003 A 
ATOM      4  C5  UNL d   1       5.036  -5.961   5.660  0.00  0.00     0.000 A 
ATOM      5  C6  UNL d   1       5.618  -4.739   5.994  0.00  0.00     0.000 A 
ATOM      6  C7  UNL d   1       5.136  -3.536   5.449  0.00  0.00    -0.073 A 
ATOM      7  C8  UNL d   1       5.806  -2.248   5.839  0.00  0.00     0.078 C 
ENDROOT
BRANCH   1   8
ATOM      8  C1  UNL d   1       3.522  -2.332   3.868  0.00  0.00     0.053 C 
ATOM      9  C   UNL d   1       2.077  -2.495   3.420  0.00  0.00     0.018 C 
ENDBRANCH   1   8
TORSDOF 1
ENDMDL
