MODEL 1
REMARK minimizedAffinity 0.347375691
REMARK minimizedRMSD -1
REMARK  1 active torsions:
REMARK  status: ('A' for Active; 'I' for Inactive)
REMARK    1  A    between atoms: C1_2  and  C2_3 
ROOT
ATOM      1  C2  UNL d   1       3.556   4.567  -3.233  0.00  0.00    -0.076 A 
ATOM      2  C3  UNL d   1       4.783   4.090  -2.740  0.00  0.00     0.004 A 
ATOM      3  C4  UNL d   1       5.987   4.439  -3.351  0.00  0.00    -0.003 A 
ATOM      4  C5  UNL d   1       5.982   5.270  -4.466  0.00  0.00     0.000 A 
ATOM      5  C6  UNL d   1       4.775   5.765  -4.959  0.00  0.00     0.000 A 
ATOM      6  C7  UNL d   1       3.555   5.437  -4.344  0.00  0.00    -0.073 A 
ATOM      7  C8  UNL d   1       2.283   5.995  -4.921  0.00  0.00     0.078 C 
ENDROOT
BRANCH   1   8
ATOM      8  C1  UNL d   1       2.282   4.133  -2.545  0.00  0.00     0.053 C 
ATOM      9  C   UNL d   1       2.409   4.133  -1.029  0.00  0.00     0.018 C 
ENDBRANCH   1   8
TORSDOF 1
ENDMDL
