MODEL 1
REMARK minimizedAffinity 8.70140743
REMARK minimizedRMSD -1
REMARK  1 active torsions:
REMARK  status: ('A' for Active; 'I' for Inactive)
REMARK    1  A    between atoms: C1_2  and  C2_3 
ROOT
ATOM      1  C2  UNL d   1       3.532   4.428  -3.338  0.00  0.00    -0.076 A 
ATOM      2  C3  UNL d   1       4.231   4.064  -2.174  0.00  0.00     0.004 A 
ATOM      3  C4  UNL d   1       5.455   4.651  -1.859  0.00  0.00    -0.003 A 
ATOM      4  C5  UNL d   1       6.000   5.613  -2.702  0.00  0.00     0.000 A 
ATOM      5  C6  UNL d   1       5.311   6.000  -3.852  0.00  0.00     0.000 A 
ATOM      6  C7  UNL d   1       4.069   5.429  -4.175  0.00  0.00    -0.073 A 
ATOM      7  C8  UNL d   1       3.373   5.879  -5.431  0.00  0.00     0.078 C 
ENDROOT
BRANCH   1   8
ATOM      8  C1  UNL d   1       2.222   3.737  -3.642  0.00  0.00     0.053 C 
ATOM      9  C   UNL d   1       1.091   4.212  -2.742  0.00  0.00     0.018 C 
ENDBRANCH   1   8
TORSDOF 1
ENDMDL
