MODEL 1
REMARK minimizedAffinity 4.64734602
REMARK minimizedRMSD -1
REMARK  1 active torsions:
REMARK  status: ('A' for Active; 'I' for Inactive)
REMARK    1  A    between atoms: C1_2  and  C2_3 
ROOT
ATOM      1  C2  UNL d   1       5.455   4.329  -3.819  0.00  0.00    -0.076 A 
ATOM      2  C3  UNL d   1       5.999   4.045  -2.553  0.00  0.00     0.004 A 
ATOM      3  C4  UNL d   1       5.568   4.730  -1.418  0.00  0.00    -0.003 A 
ATOM      4  C5  UNL d   1       4.587   5.708  -1.529  0.00  0.00     0.000 A 
ATOM      5  C6  UNL d   1       4.024   5.990  -2.774  0.00  0.00     0.000 A 
ATOM      6  C7  UNL d   1       4.435   5.298  -3.926  0.00  0.00    -0.073 A 
ATOM      7  C8  UNL d   1       3.799   5.647  -5.243  0.00  0.00     0.078 C 
ENDROOT
BRANCH   1   8
ATOM      8  C1  UNL d   1       5.981   3.573  -5.018  0.00  0.00     0.053 C 
ATOM      9  C   UNL d   1       5.960   2.066  -4.813  0.00  0.00     0.018 C 
ENDBRANCH   1   8
TORSDOF 1
ENDMDL
