MODEL 1
REMARK minimizedAffinity -3.83733535
REMARK minimizedRMSD -1
REMARK  1 active torsions:
REMARK  status: ('A' for Active; 'I' for Inactive)
REMARK    1  A    between atoms: C1_2  and  C2_3 
ROOT
ATOM      1  C2  UNL d   1       4.739   4.684  -3.250  0.00  0.00    -0.076 A 
ATOM      2  C3  UNL d   1       5.932   4.114  -3.728  0.00  0.00     0.004 A 
ATOM      3  C4  UNL d   1       5.999   3.553  -5.002  0.00  0.00    -0.003 A 
ATOM      4  C5  UNL d   1       4.875   3.553  -5.820  0.00  0.00     0.000 A 
ATOM      5  C6  UNL d   1       3.688   4.130  -5.369  0.00  0.00     0.000 A 
ATOM      6  C7  UNL d   1       3.608   4.715  -4.093  0.00  0.00    -0.073 A 
ATOM      7  C8  UNL d   1       2.301   5.317  -3.656  0.00  0.00     0.078 C 
ENDROOT
BRANCH   1   8
ATOM      8  C1  UNL d   1       4.718   5.253  -1.849  0.00  0.00     0.053 C 
ATOM      9  C   UNL d   1       5.999   5.996  -1.503  0.00  0.00     0.018 C 
ENDBRANCH   1   8
TORSDOF 1
ENDMDL
