MODEL 1
REMARK minimizedAffinity -2.73971963
REMARK minimizedRMSD -1
REMARK  1 active torsions:
REMARK  status: ('A' for Active; 'I' for Inactive)
REMARK    1  A    between atoms: C1_2  and  C2_3 
ROOT
ATOM      1  C2  UNL d   1       4.883   3.804  -4.886  0.00  0.00    -0.076 A 
ATOM      2  C3  UNL d   1       3.821   3.274  -4.133  0.00  0.00     0.004 A 
ATOM      3  C4  UNL d   1       2.803   4.095  -3.651  0.00  0.00    -0.003 A 
ATOM      4  C5  UNL d   1       2.830   5.460  -3.915  0.00  0.00     0.000 A 
ATOM      5  C6  UNL d   1       3.866   6.000  -4.676  0.00  0.00     0.000 A 
ATOM      6  C7  UNL d   1       4.892   5.183  -5.184  0.00  0.00    -0.073 A 
ATOM      7  C8  UNL d   1       5.988   5.820  -5.993  0.00  0.00     0.078 C 
ENDROOT
BRANCH   1   8
ATOM      8  C1  UNL d   1       5.973   2.869  -5.360  0.00  0.00     0.053 C 
ATOM      9  C   UNL d   1       5.615   1.405  -5.153  0.00  0.00     0.018 C 
ENDBRANCH   1   8
TORSDOF 1
ENDMDL
