MODEL 1
REMARK minimizedAffinity -1.64188468
REMARK minimizedRMSD -1
REMARK  1 active torsions:
REMARK  status: ('A' for Active; 'I' for Inactive)
REMARK    1  A    between atoms: C1_2  and  C2_3 
ROOT
ATOM      1  C2  UNL d   1       5.452   3.941  -4.650  0.00  0.00    -0.076 A 
ATOM      2  C3  UNL d   1       5.974   3.515  -3.416  0.00  0.00     0.004 A 
ATOM      3  C4  UNL d   1       5.844   4.301  -2.272  0.00  0.00    -0.003 A 
ATOM      4  C5  UNL d   1       5.190   5.526  -2.344  0.00  0.00     0.000 A 
ATOM      5  C6  UNL d   1       4.651   5.956  -3.556  0.00  0.00     0.000 A 
ATOM      6  C7  UNL d   1       4.759   5.168  -4.715  0.00  0.00    -0.073 A 
ATOM      7  C8  UNL d   1       4.164   5.684  -5.996  0.00  0.00     0.078 C 
ENDROOT
BRANCH   1   8
ATOM      8  C1  UNL d   1       5.647   3.058  -5.862  0.00  0.00     0.053 C 
ATOM      9  C   UNL d   1       5.996   1.626  -5.490  0.00  0.00     0.018 C 
ENDBRANCH   1   8
TORSDOF 1
ENDMDL
