MODEL 1
REMARK minimizedAffinity 4.71848154
REMARK minimizedRMSD -1
REMARK  1 active torsions:
REMARK  status: ('A' for Active; 'I' for Inactive)
REMARK    1  A    between atoms: C1_2  and  C2_3 
ROOT
ATOM      1  C2  UNL d   1      -0.756  -4.329  -3.488  0.00  0.00    -0.076 A 
ATOM      2  C3  UNL d   1      -1.224  -3.141  -4.076  0.00  0.00     0.004 A 
ATOM      3  C4  UNL d   1      -1.018  -1.907  -3.461  0.00  0.00    -0.003 A 
ATOM      4  C5  UNL d   1      -0.340  -1.842  -2.248  0.00  0.00     0.000 A 
ATOM      5  C6  UNL d   1       0.146  -3.009  -1.660  0.00  0.00     0.000 A 
ATOM      6  C7  UNL d   1      -0.039  -4.259  -2.275  0.00  0.00    -0.073 A 
ATOM      7  C8  UNL d   1       0.501  -5.486  -1.593  0.00  0.00     0.078 C 
ENDROOT
BRANCH   1   8
ATOM      8  C1  UNL d   1      -1.033  -5.641  -4.188  0.00  0.00     0.053 C 
ATOM      9  C   UNL d   1      -2.066  -5.503  -5.296  0.00  0.00     0.018 C 
ENDBRANCH   1   8
TORSDOF 1
ENDMDL
