MODEL 1
REMARK minimizedAffinity 0.398241341
REMARK minimizedRMSD -1
REMARK  1 active torsions:
REMARK  status: ('A' for Active; 'I' for Inactive)
REMARK    1  A    between atoms: C1_2  and  C2_3 
ROOT
ATOM      1  C2  UNL d   1       5.433   3.827  -4.396  0.00  0.00    -0.076 A 
ATOM      2  C3  UNL d   1       5.977   3.584  -3.123  0.00  0.00     0.004 A 
ATOM      3  C4  UNL d   1       5.853   4.521  -2.098  0.00  0.00    -0.003 A 
ATOM      4  C5  UNL d   1       5.183   5.717  -2.331  0.00  0.00     0.000 A 
ATOM      5  C6  UNL d   1       4.621   5.967  -3.582  0.00  0.00     0.000 A 
ATOM      6  C7  UNL d   1       4.723   5.026  -4.621  0.00  0.00    -0.073 A 
ATOM      7  C8  UNL d   1       4.104   5.351  -5.953  0.00  0.00     0.078 C 
ENDROOT
BRANCH   1   8
ATOM      8  C1  UNL d   1       5.622   2.785  -5.476  0.00  0.00     0.053 C 
ATOM      9  C   UNL d   1       5.544   1.366  -4.936  0.00  0.00     0.018 C 
ENDBRANCH   1   8
TORSDOF 1
ENDMDL
