MODEL 1
REMARK minimizedAffinity -0.231810302
REMARK minimizedRMSD -1
REMARK  1 active torsions:
REMARK  status: ('A' for Active; 'I' for Inactive)
REMARK    1  A    between atoms: C1_2  and  C2_3 
ROOT
ATOM      1  C2  UNL d   1       4.773   5.293  -3.486  0.00  0.00    -0.076 A 
ATOM      2  C3  UNL d   1       5.942   4.622  -3.883  0.00  0.00     0.004 A 
ATOM      3  C4  UNL d   1       5.999   3.934  -5.095  0.00  0.00    -0.003 A 
ATOM      4  C5  UNL d   1       4.886   3.907  -5.928  0.00  0.00     0.000 A 
ATOM      5  C6  UNL d   1       3.723   4.582  -5.558  0.00  0.00     0.000 A 
ATOM      6  C7  UNL d   1       3.656   5.294  -4.348  0.00  0.00    -0.073 A 
ATOM      7  C8  UNL d   1       2.374   5.998  -3.996  0.00  0.00     0.078 C 
ENDROOT
BRANCH   1   8
ATOM      8  C1  UNL d   1       4.762   5.998  -2.149  0.00  0.00     0.053 C 
ATOM      9  C   UNL d   1       5.998   5.692  -1.318  0.00  0.00     0.018 C 
ENDBRANCH   1   8
TORSDOF 1
ENDMDL
