MODEL 1
REMARK minimizedAffinity 0.374219328
REMARK minimizedRMSD -1
REMARK  1 active torsions:
REMARK  status: ('A' for Active; 'I' for Inactive)
REMARK    1  A    between atoms: C1_2  and  C2_3 
ROOT
ATOM      1  C2  UNL d   1       5.547   4.112  -4.468  0.00  0.00    -0.076 A 
ATOM      2  C3  UNL d   1       5.999   3.798  -3.175  0.00  0.00     0.004 A 
ATOM      3  C4  UNL d   1       5.634   4.577  -2.078  0.00  0.00    -0.003 A 
ATOM      4  C5  UNL d   1       4.808   5.681  -2.256  0.00  0.00     0.000 A 
ATOM      5  C6  UNL d   1       4.335   5.997  -3.530  0.00  0.00     0.000 A 
ATOM      6  C7  UNL d   1       4.681   5.213  -4.644  0.00  0.00    -0.073 A 
ATOM      7  C8  UNL d   1       4.147   5.603  -5.995  0.00  0.00     0.078 C 
ENDROOT
BRANCH   1   8
ATOM      8  C1  UNL d   1       5.998   3.248  -5.624  0.00  0.00     0.053 C 
ATOM      9  C   UNL d   1       5.968   1.765  -5.288  0.00  0.00     0.018 C 
ENDBRANCH   1   8
TORSDOF 1
ENDMDL
