MODEL 1
REMARK minimizedAffinity -6.24558687
REMARK minimizedRMSD -1
REMARK  1 active torsions:
REMARK  status: ('A' for Active; 'I' for Inactive)
REMARK    1  A    between atoms: C1_2  and  C2_3 
ROOT
ATOM      1  C2  UNL d   1       0.876  -0.273  -0.582  0.00  0.00    -0.077 A 
ATOM      2  C3  UNL d   1       2.033  -0.904  -1.060  0.00  0.00     0.002 A 
ATOM      3  C4  UNL d   1       2.712  -0.389  -2.166  0.00  0.00     0.002 A 
ATOM      4  C5  UNL d   1       2.245   0.760  -2.799  0.00  0.00    -0.004 A 
ATOM      5  C6  UNL d   1       1.094   1.394  -2.333  0.00  0.00     0.002 A 
ATOM      6  C7  UNL d   1       0.413   0.880  -1.228  0.00  0.00     0.002 A 
ENDROOT
BRANCH   1   7
ATOM      7  C1  UNL d   1       0.169  -0.798   0.641  0.00  0.00     0.055 C 
ATOM      8  C   UNL d   1      -0.805   0.228   1.201  0.00  0.00     0.019 C 
ENDBRANCH   1   7
TORSDOF 1
ENDMDL
