MODEL 1
REMARK minimizedAffinity -4.95000744
REMARK minimizedRMSD -1
REMARK  1 active torsions:
REMARK  status: ('A' for Active; 'I' for Inactive)
REMARK    1  A    between atoms: C1_2  and  C2_3 
ROOT
ATOM      1  C2  UNL d   1       2.144  -2.159  -1.901  0.00  0.00    -0.077 A 
ATOM      2  C3  UNL d   1       1.009  -1.857  -1.134  0.00  0.00     0.002 A 
ATOM      3  C4  UNL d   1       0.982  -0.714  -0.333  0.00  0.00     0.002 A 
ATOM      4  C5  UNL d   1       2.083   0.138  -0.293  0.00  0.00    -0.004 A 
ATOM      5  C6  UNL d   1       3.217  -0.154  -1.050  0.00  0.00     0.002 A 
ATOM      6  C7  UNL d   1       3.247  -1.297  -1.851  0.00  0.00     0.002 A 
ENDROOT
BRANCH   1   7
ATOM      7  C1  UNL d   1       2.157  -3.364  -2.803  0.00  0.00     0.055 C 
ATOM      8  C   UNL d   1       1.395  -3.099  -4.093  0.00  0.00     0.019 C 
ENDBRANCH   1   7
TORSDOF 1
ENDMDL
