MODEL 1
REMARK minimizedAffinity -4.05751276
REMARK minimizedRMSD -1
REMARK  1 active torsions:
REMARK  status: ('A' for Active; 'I' for Inactive)
REMARK    1  A    between atoms: C1_2  and  C2_3 
ROOT
ATOM      1  C2  UNL d   1      -0.328  -0.509   1.047  0.00  0.00    -0.077 A 
ATOM      2  C3  UNL d   1      -0.726  -0.159   2.344  0.00  0.00     0.002 A 
ATOM      3  C4  UNL d   1      -1.696   0.825   2.544  0.00  0.00     0.002 A 
ATOM      4  C5  UNL d   1      -2.278   1.464   1.452  0.00  0.00    -0.004 A 
ATOM      5  C6  UNL d   1      -1.887   1.125   0.157  0.00  0.00     0.002 A 
ATOM      6  C7  UNL d   1      -0.917   0.142  -0.045  0.00  0.00     0.002 A 
ENDROOT
BRANCH   1   7
ATOM      7  C1  UNL d   1       0.682  -1.605   0.827  0.00  0.00     0.055 C 
ATOM      8  C   UNL d   1       0.004  -2.918   0.465  0.00  0.00     0.019 C 
ENDBRANCH   1   7
TORSDOF 1
ENDMDL
