MODEL 1
REMARK minimizedAffinity -5.01060057
REMARK minimizedRMSD -1
REMARK  1 active torsions:
REMARK  status: ('A' for Active; 'I' for Inactive)
REMARK    1  A    between atoms: C1_2  and  C2_3 
ROOT
ATOM      1  C2  UNL d   1       0.034   0.096  -0.279  0.00  0.00    -0.077 A 
ATOM      2  C3  UNL d   1       1.068   0.852  -0.848  0.00  0.00     0.002 A 
ATOM      3  C4  UNL d   1       2.194   0.221  -1.380  0.00  0.00     0.002 A 
ATOM      4  C5  UNL d   1       2.294  -1.168  -1.351  0.00  0.00    -0.004 A 
ATOM      5  C6  UNL d   1       1.272  -1.929  -0.785  0.00  0.00     0.002 A 
ATOM      6  C7  UNL d   1       0.146  -1.300  -0.252  0.00  0.00     0.002 A 
ENDROOT
BRANCH   1   7
ATOM      7  C1  UNL d   1      -1.204   0.773   0.251  0.00  0.00     0.055 C 
ATOM      8  C   UNL d   1      -1.534   0.299   1.659  0.00  0.00     0.019 C 
ENDBRANCH   1   7
TORSDOF 1
ENDMDL
