MODEL 1
REMARK minimizedAffinity -4.88870144
REMARK minimizedRMSD -1
REMARK  1 active torsions:
REMARK  status: ('A' for Active; 'I' for Inactive)
REMARK    1  A    between atoms: C1_2  and  C2_3 
ROOT
ATOM      1  C2  UNL d   1       0.524  -1.441  -0.113  0.00  0.00    -0.077 A 
ATOM      2  C3  UNL d   1      -0.401  -0.394   0.003  0.00  0.00     0.002 A 
ATOM      3  C4  UNL d   1      -0.007   0.925  -0.228  0.00  0.00     0.002 A 
ATOM      4  C5  UNL d   1       1.311   1.209  -0.580  0.00  0.00    -0.004 A 
ATOM      5  C6  UNL d   1       2.239   0.175  -0.696  0.00  0.00     0.002 A 
ATOM      6  C7  UNL d   1       1.847  -1.145  -0.464  0.00  0.00     0.002 A 
ENDROOT
BRANCH   1   7
ATOM      7  C1  UNL d   1       0.089  -2.870   0.087  0.00  0.00     0.055 C 
ATOM      8  C   UNL d   1      -1.265  -3.131  -0.556  0.00  0.00     0.019 C 
ENDBRANCH   1   7
TORSDOF 1
ENDMDL
