MODEL 1
REMARK minimizedAffinity -4.98730755
REMARK minimizedRMSD -1
REMARK  1 active torsions:
REMARK  status: ('A' for Active; 'I' for Inactive)
REMARK    1  A    between atoms: C1_2  and  C2_3 
ROOT
ATOM      1  C2  UNL d   1       0.058  -0.194  -0.166  0.00  0.00    -0.077 A 
ATOM      2  C3  UNL d   1       0.846   0.866  -0.636  0.00  0.00     0.002 A 
ATOM      3  C4  UNL d   1       2.077   0.614  -1.245  0.00  0.00     0.002 A 
ATOM      4  C5  UNL d   1       2.528  -0.695  -1.393  0.00  0.00    -0.004 A 
ATOM      5  C6  UNL d   1       1.753  -1.756  -0.927  0.00  0.00     0.002 A 
ATOM      6  C7  UNL d   1       0.523  -1.507  -0.317  0.00  0.00     0.002 A 
ENDROOT
BRANCH   1   7
ATOM      7  C1  UNL d   1      -1.293   0.071   0.447  0.00  0.00     0.055 C 
ATOM      8  C   UNL d   1      -1.163   0.781   1.787  0.00  0.00     0.019 C 
ENDBRANCH   1   7
TORSDOF 1
ENDMDL
