MODEL 1
REMARK minimizedAffinity -3.83584642
REMARK minimizedRMSD -1
REMARK  1 active torsions:
REMARK  status: ('A' for Active; 'I' for Inactive)
REMARK    1  A    between atoms: C1_2  and  C2_3 
ROOT
ATOM      1  C2  UNL d   1       1.389   0.343  -0.337  0.00  0.00    -0.077 A 
ATOM      2  C3  UNL d   1       0.772  -0.775   0.242  0.00  0.00     0.002 A 
ATOM      3  C4  UNL d   1      -0.600  -0.772   0.497  0.00  0.00     0.002 A 
ATOM      4  C5  UNL d   1      -1.368   0.344   0.171  0.00  0.00    -0.004 A 
ATOM      5  C6  UNL d   1      -0.764   1.462  -0.403  0.00  0.00     0.002 A 
ATOM      6  C7  UNL d   1       0.608   1.461  -0.657  0.00  0.00     0.002 A 
ENDROOT
BRANCH   1   7
ATOM      7  C1  UNL d   1       2.861   0.323  -0.657  0.00  0.00     0.055 C 
ATOM      8  C   UNL d   1       3.197  -0.787  -1.643  0.00  0.00     0.019 C 
ENDBRANCH   1   7
TORSDOF 1
ENDMDL
