MODEL 1
REMARK minimizedAffinity -4.12216997
REMARK minimizedRMSD -1
REMARK  1 active torsions:
REMARK  status: ('A' for Active; 'I' for Inactive)
REMARK    1  A    between atoms: C1_2  and  C2_3 
ROOT
ATOM      1  C2  UNL d   1      -0.854   0.676   1.092  0.00  0.00    -0.077 A 
ATOM      2  C3  UNL d   1      -0.165   1.566   1.928  0.00  0.00     0.002 A 
ATOM      3  C4  UNL d   1      -0.702   1.934   3.163  0.00  0.00     0.002 A 
ATOM      4  C5  UNL d   1      -1.927   1.414   3.575  0.00  0.00    -0.004 A 
ATOM      5  C6  UNL d   1      -2.621   0.530   2.750  0.00  0.00     0.002 A 
ATOM      6  C7  UNL d   1      -2.086   0.162   1.514  0.00  0.00     0.002 A 
ENDROOT
BRANCH   1   7
ATOM      7  C1  UNL d   1      -0.253   0.239  -0.219  0.00  0.00     0.055 C 
ATOM      8  C   UNL d   1       0.516  -1.065  -0.067  0.00  0.00     0.019 C 
ENDBRANCH   1   7
TORSDOF 1
ENDMDL
