MODEL 1
REMARK minimizedAffinity -2.0605402
REMARK minimizedRMSD -1
REMARK  1 active torsions:
REMARK  status: ('A' for Active; 'I' for Inactive)
REMARK    1  A    between atoms: C1_2  and  C2_3 
ROOT
ATOM      1  C2  UNL d   1       0.439  -0.128  -0.684  0.00  0.00    -0.077 A 
ATOM      2  C3  UNL d   1       0.918   0.682  -1.723  0.00  0.00     0.002 A 
ATOM      3  C4  UNL d   1       1.783   0.158  -2.686  0.00  0.00     0.002 A 
ATOM      4  C5  UNL d   1       2.171  -1.178  -2.622  0.00  0.00    -0.004 A 
ATOM      5  C6  UNL d   1       1.701  -1.992  -1.592  0.00  0.00     0.002 A 
ATOM      6  C7  UNL d   1       0.838  -1.469  -0.628  0.00  0.00     0.002 A 
ENDROOT
BRANCH   1   7
ATOM      7  C1  UNL d   1      -0.532   0.422   0.328  0.00  0.00     0.055 C 
ATOM      8  C   UNL d   1      -1.513   1.391  -0.317  0.00  0.00     0.019 C 
ENDBRANCH   1   7
TORSDOF 1
ENDMDL
