MODEL 1
REMARK minimizedAffinity -4.02287292
REMARK minimizedRMSD -1
REMARK  1 active torsions:
REMARK  status: ('A' for Active; 'I' for Inactive)
REMARK    1  A    between atoms: C1_2  and  C2_3 
ROOT
ATOM      1  C2  UNL d   1       0.492  -0.107  -0.757  0.00  0.00    -0.077 A 
ATOM      2  C3  UNL d   1       1.290  -1.255  -0.869  0.00  0.00     0.002 A 
ATOM      3  C4  UNL d   1       2.212  -1.374  -1.910  0.00  0.00     0.002 A 
ATOM      4  C5  UNL d   1       2.349  -0.349  -2.843  0.00  0.00    -0.004 A 
ATOM      5  C6  UNL d   1       1.559   0.795  -2.741  0.00  0.00     0.002 A 
ATOM      6  C7  UNL d   1       0.635   0.916  -1.702  0.00  0.00     0.002 A 
ENDROOT
BRANCH   1   7
ATOM      7  C1  UNL d   1      -0.469   0.045   0.394  0.00  0.00     0.055 C 
ATOM      8  C   UNL d   1      -1.722   0.799  -0.028  0.00  0.00     0.019 C 
ENDBRANCH   1   7
TORSDOF 1
ENDMDL
