MODEL 1
REMARK minimizedAffinity -3.53223777
REMARK minimizedRMSD -1
REMARK  1 active torsions:
REMARK  status: ('A' for Active; 'I' for Inactive)
REMARK    1  A    between atoms: C1_2  and  C2_3 
ROOT
ATOM      1  C2  UNL d   1      -1.488   0.853   1.067  0.00  0.00    -0.077 A 
ATOM      2  C3  UNL d   1      -1.191   2.070   1.696  0.00  0.00     0.002 A 
ATOM      3  C4  UNL d   1      -1.792   2.402   2.912  0.00  0.00     0.002 A 
ATOM      4  C5  UNL d   1      -2.690   1.521   3.510  0.00  0.00    -0.004 A 
ATOM      5  C6  UNL d   1      -2.994   0.309   2.892  0.00  0.00     0.002 A 
ATOM      6  C7  UNL d   1      -2.395  -0.024   1.676  0.00  0.00     0.002 A 
ENDROOT
BRANCH   1   7
ATOM      7  C1  UNL d   1      -0.803   0.472  -0.219  0.00  0.00     0.055 C 
ATOM      8  C   UNL d   1       0.202  -0.650   0.000  0.00  0.00     0.019 C 
ENDBRANCH   1   7
TORSDOF 1
ENDMDL
