MODEL 1
REMARK minimizedAffinity -0.307372123
REMARK minimizedRMSD -1
REMARK  0 active torsions:
REMARK  status: ('A' for Active; 'I' for Inactive)
ROOT
ATOM      1  C   UNL d   1       0.475  -1.205   1.493  0.00  0.00     0.023 A 
ATOM      2  C1  UNL d   1       1.079  -1.277   0.238  0.00  0.00     0.003 A 
ATOM      3  C2  UNL d   1       0.643  -0.447  -0.797  0.00  0.00     0.048 A 
ATOM      4  C3  UNL d   1      -0.397   0.453  -0.569  0.00  0.00     0.023 A 
ATOM      5  C4  UNL d   1      -1.004   0.530   0.685  0.00  0.00     0.048 A 
ATOM      6  C5  UNL d   1      -0.565  -0.303   1.717  0.00  0.00     0.003 A 
ATOM      7  I   UNL d   1      -1.048   1.690  -2.108  0.00  0.00    -0.146 I 
ENDROOT
TORSDOF 0
ENDMDL
