MODEL 1
REMARK minimizedAffinity 0.331561655
REMARK minimizedRMSD -1
REMARK  0 active torsions:
REMARK  status: ('A' for Active; 'I' for Inactive)
ROOT
ATOM      1  C   UNL d   1       0.323  -0.737   0.407  0.00  0.00     0.023 A 
ATOM      2  C1  UNL d   1      -0.734  -0.009   0.951  0.00  0.00     0.003 A 
ATOM      3  C2  UNL d   1      -1.353   0.993   0.200  0.00  0.00     0.048 A 
ATOM      4  C3  UNL d   1      -0.910   1.260  -1.094  0.00  0.00     0.023 A 
ATOM      5  C4  UNL d   1       0.148   0.533  -1.643  0.00  0.00     0.048 A 
ATOM      6  C5  UNL d   1       0.764  -0.467  -0.889  0.00  0.00     0.003 A 
ATOM      7  I   UNL d   1      -1.829   2.750  -2.214  0.00  0.00    -0.146 I 
ENDROOT
TORSDOF 0
ENDMDL
