MODEL 1
REMARK minimizedAffinity -2.68156528
REMARK minimizedRMSD -1
REMARK  0 active torsions:
REMARK  status: ('A' for Active; 'I' for Inactive)
ROOT
ATOM      1  C   UNL d   1       0.582  -1.269   1.905  0.00  0.00     0.023 A 
ATOM      2  C1  UNL d   1      -0.434  -0.322   2.032  0.00  0.00     0.003 A 
ATOM      3  C2  UNL d   1      -0.831   0.431   0.925  0.00  0.00     0.048 A 
ATOM      4  C3  UNL d   1      -0.208   0.230  -0.306  0.00  0.00     0.023 A 
ATOM      5  C4  UNL d   1       0.808  -0.717  -0.439  0.00  0.00     0.048 A 
ATOM      6  C5  UNL d   1       1.202  -1.467   0.671  0.00  0.00     0.003 A 
ATOM      7  I   UNL d   1      -0.798   1.350  -1.956  0.00  0.00    -0.146 I 
ENDROOT
TORSDOF 0
ENDMDL
