MODEL 1
REMARK minimizedAffinity 7.7566638
REMARK minimizedRMSD -1
REMARK  0 active torsions:
REMARK  status: ('A' for Active; 'I' for Inactive)
ROOT
ATOM      1  C   UNL d   1      -5.811   1.912  -3.561  0.00  0.00     0.023 A 
ATOM      2  C1  UNL d   1      -4.568   1.754  -2.947  0.00  0.00     0.003 A 
ATOM      3  C2  UNL d   1      -3.512   1.165  -3.646  0.00  0.00     0.048 A 
ATOM      4  C3  UNL d   1      -3.705   0.736  -4.958  0.00  0.00     0.023 A 
ATOM      5  C4  UNL d   1      -4.947   0.892  -5.577  0.00  0.00     0.048 A 
ATOM      6  C5  UNL d   1      -6.000   1.481  -4.875  0.00  0.00     0.003 A 
ATOM      7  I   UNL d   1      -2.135  -0.142  -6.000  0.00  0.00    -0.146 I 
ENDROOT
TORSDOF 0
ENDMDL
