MODEL 1
REMARK minimizedAffinity -2.45044136
REMARK minimizedRMSD -1
REMARK  0 active torsions:
REMARK  status: ('A' for Active; 'I' for Inactive)
ROOT
ATOM      1  C   UNL d   1       1.703  -2.131   1.966  0.00  0.00     0.023 A 
ATOM      2  C1  UNL d   1       0.578  -1.413   2.372  0.00  0.00     0.003 A 
ATOM      3  C2  UNL d   1      -0.132  -0.644   1.448  0.00  0.00     0.048 A 
ATOM      4  C3  UNL d   1       0.287  -0.599   0.119  0.00  0.00     0.023 A 
ATOM      5  C4  UNL d   1       1.412  -1.317  -0.292  0.00  0.00     0.048 A 
ATOM      6  C5  UNL d   1       2.119  -2.083   0.636  0.00  0.00     0.003 A 
ATOM      7  I   UNL d   1      -0.768   0.544  -1.259  0.00  0.00    -0.146 I 
ENDROOT
TORSDOF 0
ENDMDL
