MODEL 1
REMARK minimizedAffinity -5.42177296
REMARK minimizedRMSD -1
REMARK  0 active torsions:
REMARK  status: ('A' for Active; 'I' for Inactive)
ROOT
ATOM      1  C   UNL d   1       2.750  -1.374   3.070  0.00  0.00     0.023 A 
ATOM      2  C1  UNL d   1       2.785  -1.762   1.731  0.00  0.00     0.003 A 
ATOM      3  C2  UNL d   1       1.732  -1.427   0.878  0.00  0.00     0.048 A 
ATOM      4  C3  UNL d   1       0.647  -0.703   1.370  0.00  0.00     0.023 A 
ATOM      5  C4  UNL d   1       0.608  -0.311   2.710  0.00  0.00     0.048 A 
ATOM      6  C5  UNL d   1       1.663  -0.650   3.559  0.00  0.00     0.003 A 
ATOM      7  I   UNL d   1      -0.922  -0.202   0.102  0.00  0.00    -0.146 I 
ENDROOT
TORSDOF 0
ENDMDL
