MODEL 1
REMARK minimizedAffinity -4.93690491
REMARK minimizedRMSD -1
REMARK  0 active torsions:
REMARK  status: ('A' for Active; 'I' for Inactive)
ROOT
ATOM      1  C   UNL d   1       2.617  -1.537   2.998  0.00  0.00     0.023 A 
ATOM      2  C1  UNL d   1       3.207  -1.366   1.746  0.00  0.00     0.003 A 
ATOM      3  C2  UNL d   1       2.446  -0.903   0.671  0.00  0.00     0.048 A 
ATOM      4  C3  UNL d   1       1.095  -0.612   0.855  0.00  0.00     0.023 A 
ATOM      5  C4  UNL d   1       0.500  -0.781   2.106  0.00  0.00     0.048 A 
ATOM      6  C5  UNL d   1       1.264  -1.245   3.178  0.00  0.00     0.003 A 
ATOM      7  I   UNL d   1      -0.040   0.077  -0.744  0.00  0.00    -0.146 I 
ENDROOT
TORSDOF 0
ENDMDL
