MODEL 1
REMARK minimizedAffinity -3.88714266
REMARK minimizedRMSD -1
REMARK  0 active torsions:
REMARK  status: ('A' for Active; 'I' for Inactive)
ROOT
ATOM      1  C   UNL d   1       2.952  -1.981   2.452  0.00  0.00     0.023 A 
ATOM      2  C1  UNL d   1       3.283  -1.550   1.168  0.00  0.00     0.003 A 
ATOM      3  C2  UNL d   1       2.331  -0.896   0.383  0.00  0.00     0.048 A 
ATOM      4  C3  UNL d   1       1.051  -0.675   0.889  0.00  0.00     0.023 A 
ATOM      5  C4  UNL d   1       0.716  -1.104   2.174  0.00  0.00     0.048 A 
ATOM      6  C5  UNL d   1       1.670  -1.759   2.955  0.00  0.00     0.003 A 
ATOM      7  I   UNL d   1      -0.367   0.299  -0.278  0.00  0.00    -0.146 I 
ENDROOT
TORSDOF 0
ENDMDL
