MODEL 1
REMARK minimizedAffinity -4.00075674
REMARK minimizedRMSD -1
REMARK  0 active torsions:
REMARK  status: ('A' for Active; 'I' for Inactive)
ROOT
ATOM      1  C   UNL d   1       1.001  -1.099   2.477  0.00  0.00     0.023 A 
ATOM      2  C1  UNL d   1      -0.289  -0.568   2.483  0.00  0.00     0.003 A 
ATOM      3  C2  UNL d   1      -0.723   0.226   1.419  0.00  0.00     0.048 A 
ATOM      4  C3  UNL d   1       0.138   0.484   0.352  0.00  0.00     0.023 A 
ATOM      5  C4  UNL d   1       1.429  -0.046   0.342  0.00  0.00     0.048 A 
ATOM      6  C5  UNL d   1       1.859  -0.839   1.409  0.00  0.00     0.003 A 
ATOM      7  I   UNL d   1      -0.506   1.665  -1.232  0.00  0.00    -0.146 I 
ENDROOT
TORSDOF 0
ENDMDL
