MODEL 1
REMARK minimizedAffinity -3.4445312
REMARK minimizedRMSD -1
REMARK  0 active torsions:
REMARK  status: ('A' for Active; 'I' for Inactive)
ROOT
ATOM      1  C   UNL d   1      -3.796   0.842   1.840  0.00  0.00    -0.002 A 
ATOM      2  C1  UNL d   1      -2.847   1.571   2.544  0.00  0.00     0.010 A 
ATOM      3  C2  UNL d   1      -1.499   1.212   2.498  0.00  0.00     0.041 A 
ATOM      4  C3  UNL d   1      -1.115   0.099   1.725  0.00  0.00    -0.075 A 
ATOM      5  S   UNL d   1       0.479  -0.525   1.519  0.00  0.00     0.015 SA
ATOM      6  C4  UNL d   1      -0.062  -1.773   0.492  0.00  0.00     0.022 A 
ATOM      7  C5  UNL d   1      -1.422  -1.730   0.299  0.00  0.00     0.026 A 
ATOM      8  C6  UNL d   1      -2.052  -0.650   1.006  0.00  0.00    -0.082 A 
ATOM      9  C7  UNL d   1      -3.412  -0.261   1.073  0.00  0.00     0.045 A 
ENDROOT
TORSDOF 0
ENDMDL
