MODEL 1
REMARK minimizedAffinity 1.33308864
REMARK minimizedRMSD -1
REMARK  0 active torsions:
REMARK  status: ('A' for Active; 'I' for Inactive)
ROOT
ATOM      1  C   UNL d   1      -4.706   1.406   0.651  0.00  0.00    -0.002 A 
ATOM      2  C1  UNL d   1      -4.575   1.333   2.031  0.00  0.00     0.010 A 
ATOM      3  C2  UNL d   1      -3.535   0.602   2.608  0.00  0.00     0.041 A 
ATOM      4  C3  UNL d   1      -2.617  -0.058   1.767  0.00  0.00    -0.075 A 
ATOM      5  S   UNL d   1      -1.263  -1.010   2.250  0.00  0.00     0.015 SA
ATOM      6  C4  UNL d   1      -0.825  -1.340   0.637  0.00  0.00     0.022 A 
ATOM      7  C5  UNL d   1      -1.680  -0.747  -0.261  0.00  0.00     0.026 A 
ATOM      8  C6  UNL d   1      -2.727   0.003   0.375  0.00  0.00    -0.082 A 
ATOM      9  C7  UNL d   1      -3.793   0.750  -0.180  0.00  0.00     0.045 A 
ENDROOT
TORSDOF 0
ENDMDL
