MODEL 1
REMARK minimizedAffinity -3.42587352
REMARK minimizedRMSD -1
REMARK  0 active torsions:
REMARK  status: ('A' for Active; 'I' for Inactive)
ROOT
ATOM      1  C   UNL d   1      -3.029   0.821   1.891  0.00  0.00    -0.002 A 
ATOM      2  C1  UNL d   1      -2.159   0.846   2.972  0.00  0.00     0.010 A 
ATOM      3  C2  UNL d   1      -0.884   0.284   2.871  0.00  0.00     0.041 A 
ATOM      4  C3  UNL d   1      -0.494  -0.306   1.652  0.00  0.00    -0.075 A 
ATOM      5  S   UNL d   1       1.018  -1.054   1.297  0.00  0.00     0.015 SA
ATOM      6  C4  UNL d   1       0.545  -1.422  -0.299  0.00  0.00     0.022 A 
ATOM      7  C5  UNL d   1      -0.732  -0.993  -0.570  0.00  0.00     0.026 A 
ATOM      8  C6  UNL d   1      -1.352  -0.342   0.549  0.00  0.00    -0.082 A 
ATOM      9  C7  UNL d   1      -2.638   0.234   0.684  0.00  0.00     0.045 A 
ENDROOT
TORSDOF 0
ENDMDL
