MODEL 1
REMARK minimizedAffinity -1.18070471
REMARK minimizedRMSD -1
REMARK  0 active torsions:
REMARK  status: ('A' for Active; 'I' for Inactive)
ROOT
ATOM      1  C   UNL d   1      -0.082  -1.446  -1.983  0.00  0.00    -0.002 A 
ATOM      2  C1  UNL d   1       0.023  -2.673  -1.343  0.00  0.00     0.010 A 
ATOM      3  C2  UNL d   1      -0.472  -2.843  -0.048  0.00  0.00     0.041 A 
ATOM      4  C3  UNL d   1      -1.082  -1.750   0.598  0.00  0.00    -0.075 A 
ATOM      5  S   UNL d   1      -1.761  -1.725   2.182  0.00  0.00     0.015 SA
ATOM      6  C4  UNL d   1      -2.207  -0.085   2.046  0.00  0.00     0.022 A 
ATOM      7  C5  UNL d   1      -1.854   0.446   0.829  0.00  0.00     0.026 A 
ATOM      8  C6  UNL d   1      -1.200  -0.505  -0.027  0.00  0.00    -0.082 A 
ATOM      9  C7  UNL d   1      -0.688  -0.364  -1.339  0.00  0.00     0.045 A 
ENDROOT
TORSDOF 0
ENDMDL
