MODEL 1
REMARK minimizedAffinity -4.36923838
REMARK minimizedRMSD -1
REMARK  0 active torsions:
REMARK  status: ('A' for Active; 'I' for Inactive)
ROOT
ATOM      1  C   UNL d   1      -2.897  -0.027   0.725  0.00  0.00    -0.002 A 
ATOM      2  C1  UNL d   1      -2.711   0.146   2.089  0.00  0.00     0.010 A 
ATOM      3  C2  UNL d   1      -1.509  -0.224   2.694  0.00  0.00     0.041 A 
ATOM      4  C3  UNL d   1      -0.485  -0.774   1.897  0.00  0.00    -0.075 A 
ATOM      5  S   UNL d   1       1.071  -1.299   2.421  0.00  0.00     0.015 SA
ATOM      6  C4  UNL d   1       1.526  -1.764   0.845  0.00  0.00     0.022 A 
ATOM      7  C5  UNL d   1       0.527  -1.532  -0.070  0.00  0.00     0.026 A 
ATOM      8  C6  UNL d   1      -0.649  -0.957   0.521  0.00  0.00    -0.082 A 
ATOM      9  C7  UNL d   1      -1.880  -0.573  -0.062  0.00  0.00     0.045 A 
ENDROOT
TORSDOF 0
ENDMDL
