MODEL 1
REMARK minimizedAffinity -3.01444387
REMARK minimizedRMSD -1
REMARK  0 active torsions:
REMARK  status: ('A' for Active; 'I' for Inactive)
ROOT
ATOM      1  C   UNL d   1      -3.526  -0.232   0.716  0.00  0.00    -0.002 A 
ATOM      2  C1  UNL d   1      -2.705   0.309   1.694  0.00  0.00     0.010 A 
ATOM      3  C2  UNL d   1      -1.390  -0.137   1.845  0.00  0.00     0.041 A 
ATOM      4  C3  UNL d   1      -0.910  -1.145   0.985  0.00  0.00    -0.075 A 
ATOM      5  S   UNL d   1       0.665  -1.847   0.984  0.00  0.00     0.015 SA
ATOM      6  C4  UNL d   1       0.284  -2.880  -0.317  0.00  0.00     0.022 A 
ATOM      7  C5  UNL d   1      -1.009  -2.708  -0.751  0.00  0.00     0.026 A 
ATOM      8  C6  UNL d   1      -1.718  -1.705  -0.008  0.00  0.00    -0.082 A 
ATOM      9  C7  UNL d   1      -3.047  -1.232  -0.135  0.00  0.00     0.045 A 
ENDROOT
TORSDOF 0
ENDMDL
