MODEL 1
REMARK minimizedAffinity -5.04176092
REMARK minimizedRMSD -1
REMARK  0 active torsions:
REMARK  status: ('A' for Active; 'I' for Inactive)
ROOT
ATOM      1  C   UNL d   1      -3.012   0.351   1.397  0.00  0.00    -0.002 A 
ATOM      2  C1  UNL d   1      -1.981   0.298   2.325  0.00  0.00     0.010 A 
ATOM      3  C2  UNL d   1      -0.738  -0.232   1.975  0.00  0.00     0.041 A 
ATOM      4  C3  UNL d   1      -0.545  -0.711   0.665  0.00  0.00    -0.075 A 
ATOM      5  S   UNL d   1       0.893  -1.402   0.011  0.00  0.00     0.015 SA
ATOM      6  C4  UNL d   1       0.173  -1.643  -1.515  0.00  0.00     0.022 A 
ATOM      7  C5  UNL d   1      -1.132  -1.213  -1.543  0.00  0.00     0.026 A 
ATOM      8  C6  UNL d   1      -1.568  -0.668  -0.287  0.00  0.00    -0.082 A 
ATOM      9  C7  UNL d   1      -2.817  -0.125   0.098  0.00  0.00     0.045 A 
ENDROOT
TORSDOF 0
ENDMDL
