MODEL 1
REMARK minimizedAffinity 11.5950079
REMARK minimizedRMSD -1
REMARK  0 active torsions:
REMARK  status: ('A' for Active; 'I' for Inactive)
ROOT
ATOM      1  C   UNL d   1      -0.025   5.995  -1.103  0.00  0.00    -0.002 A 
ATOM      2  C1  UNL d   1       1.137   5.996  -0.344  0.00  0.00     0.010 A 
ATOM      3  C2  UNL d   1       1.471   4.893   0.445  0.00  0.00     0.041 A 
ATOM      4  C3  UNL d   1       0.611   3.778   0.456  0.00  0.00    -0.075 A 
ATOM      5  S   UNL d   1       0.818   2.315   1.345  0.00  0.00     0.015 SA
ATOM      6  C4  UNL d   1      -0.631   1.653   0.737  0.00  0.00     0.022 A 
ATOM      7  C5  UNL d   1      -1.269   2.514  -0.124  0.00  0.00     0.026 A 
ATOM      8  C6  UNL d   1      -0.564   3.752  -0.301  0.00  0.00    -0.082 A 
ATOM      9  C7  UNL d   1      -0.875   4.886  -1.090  0.00  0.00     0.045 A 
ENDROOT
TORSDOF 0
ENDMDL
