MODEL 1
REMARK minimizedAffinity 21.4130192
REMARK minimizedRMSD -1
REMARK  0 active torsions:
REMARK  status: ('A' for Active; 'I' for Inactive)
ROOT
ATOM      1  C   UNL d   1       5.678  -2.014  -0.762  0.00  0.00    -0.002 A 
ATOM      2  C1  UNL d   1       4.833  -2.902  -0.112  0.00  0.00     0.010 A 
ATOM      3  C2  UNL d   1       4.270  -3.979  -0.800  0.00  0.00     0.041 A 
ATOM      4  C3  UNL d   1       4.574  -4.150  -2.165  0.00  0.00    -0.075 A 
ATOM      5  S   UNL d   1       4.000  -5.397  -3.209  0.00  0.00     0.015 SA
ATOM      6  C4  UNL d   1       4.864  -4.780  -4.542  0.00  0.00     0.022 A 
ATOM      7  C5  UNL d   1       5.577  -3.651  -4.217  0.00  0.00     0.026 A 
ATOM      8  C6  UNL d   1       5.422  -3.269  -2.841  0.00  0.00    -0.082 A 
ATOM      9  C7  UNL d   1       5.977  -2.187  -2.116  0.00  0.00     0.045 A 
ENDROOT
TORSDOF 0
ENDMDL
