MODEL 1
REMARK minimizedAffinity 8.27334309
REMARK minimizedRMSD -1
REMARK  0 active torsions:
REMARK  status: ('A' for Active; 'I' for Inactive)
ROOT
ATOM      1  C   UNL d   1      -1.337   3.608   1.382  0.00  0.00    -0.002 A 
ATOM      2  C1  UNL d   1      -0.424   3.681   0.339  0.00  0.00     0.010 A 
ATOM      3  C2  UNL d   1       0.695   2.846   0.315  0.00  0.00     0.041 A 
ATOM      4  C3  UNL d   1       0.882   1.926   1.366  0.00  0.00    -0.075 A 
ATOM      5  S   UNL d   1       2.178   0.804   1.547  0.00  0.00     0.015 SA
ATOM      6  C4  UNL d   1       1.550   0.201   3.012  0.00  0.00     0.022 A 
ATOM      7  C5  UNL d   1       0.381   0.830   3.370  0.00  0.00     0.026 A 
ATOM      8  C6  UNL d   1      -0.024   1.834   2.427  0.00  0.00    -0.082 A 
ATOM      9  C7  UNL d   1      -1.148   2.695   2.423  0.00  0.00     0.045 A 
ENDROOT
TORSDOF 0
ENDMDL
