MODEL 1
REMARK minimizedAffinity 8.86864281
REMARK minimizedRMSD -1
REMARK  0 active torsions:
REMARK  status: ('A' for Active; 'I' for Inactive)
ROOT
ATOM      1  C   UNL d   1       0.610   4.677  -0.037  0.00  0.00    -0.002 A 
ATOM      2  C1  UNL d   1      -0.748   4.858   0.184  0.00  0.00     0.010 A 
ATOM      3  C2  UNL d   1      -1.588   5.268  -0.853  0.00  0.00     0.041 A 
ATOM      4  C3  UNL d   1      -1.036   5.494  -2.129  0.00  0.00    -0.075 A 
ATOM      5  S   UNL d   1      -1.872   6.000  -3.549  0.00  0.00     0.015 SA
ATOM      6  C4  UNL d   1      -0.447   5.987  -4.483  0.00  0.00     0.022 A 
ATOM      7  C5  UNL d   1       0.650   5.609  -3.745  0.00  0.00     0.026 A 
ATOM      8  C6  UNL d   1       0.329   5.318  -2.376  0.00  0.00    -0.082 A 
ATOM      9  C7  UNL d   1       1.154   4.902  -1.304  0.00  0.00     0.045 A 
ENDROOT
TORSDOF 0
ENDMDL
