MODEL 1
REMARK minimizedAffinity -3.28705907
REMARK minimizedRMSD -1
REMARK  0 active torsions:
REMARK  status: ('A' for Active; 'I' for Inactive)
ROOT
ATOM      1  C   UNL d   1      -0.808  -0.043  -0.319  0.00  0.00     0.172 C 
ATOM      2  N   UNL d   1       0.569  -0.089   0.112  0.00  0.00    -0.070 N 
ATOM      3  C1  UNL d   1       1.409   0.987   0.217  0.00  0.00    -0.004 A 
ATOM      4  C2  UNL d   1       2.631   0.527   0.660  0.00  0.00    -0.047 A 
ATOM      5  C3  UNL d   1       2.521  -0.874   0.825  0.00  0.00    -0.047 A 
ATOM      6  C4  UNL d   1       1.234  -1.229   0.479  0.00  0.00    -0.004 A 
ENDROOT
TORSDOF 0
ENDMDL
