MODEL 1
REMARK minimizedAffinity -2.35595298
REMARK minimizedRMSD -1
REMARK  0 active torsions:
REMARK  status: ('A' for Active; 'I' for Inactive)
ROOT
ATOM      1  C   UNL d   1       1.756   0.749   0.361  0.00  0.00     0.172 C 
ATOM      2  N   UNL d   1       0.361   0.378   0.346  0.00  0.00    -0.070 N 
ATOM      3  C1  UNL d   1      -0.681   1.202   0.013  0.00  0.00    -0.004 A 
ATOM      4  C2  UNL d   1      -1.846   0.474   0.122  0.00  0.00    -0.047 A 
ATOM      5  C3  UNL d   1      -1.493  -0.832   0.536  0.00  0.00    -0.047 A 
ATOM      6  C4  UNL d   1      -0.120  -0.864   0.667  0.00  0.00    -0.004 A 
ENDROOT
TORSDOF 0
ENDMDL
