MODEL 1
REMARK minimizedAffinity -2.60701609
REMARK minimizedRMSD -1
REMARK  0 active torsions:
REMARK  status: ('A' for Active; 'I' for Inactive)
ROOT
ATOM      1  C   UNL d   1      -2.300   0.043  -2.343  0.00  0.00     0.172 C 
ATOM      2  N   UNL d   1      -1.286   0.120  -1.318  0.00  0.00    -0.070 N 
ATOM      3  C1  UNL d   1       0.067   0.125  -1.532  0.00  0.00    -0.004 A 
ATOM      4  C2  UNL d   1       0.688   0.210  -0.305  0.00  0.00    -0.047 A 
ATOM      5  C3  UNL d   1      -0.326   0.258   0.681  0.00  0.00    -0.047 A 
ATOM      6  C4  UNL d   1      -1.539   0.201   0.026  0.00  0.00    -0.004 A 
ENDROOT
TORSDOF 0
ENDMDL
