MODEL 1
REMARK minimizedAffinity -3.40171218
REMARK minimizedRMSD -1
REMARK  0 active torsions:
REMARK  status: ('A' for Active; 'I' for Inactive)
ROOT
ATOM      1  C   UNL d   1      -0.877  -0.339   0.914  0.00  0.00     0.172 C 
ATOM      2  N   UNL d   1       0.547  -0.185   0.731  0.00  0.00    -0.070 N 
ATOM      3  C1  UNL d   1       1.401  -1.150   0.266  0.00  0.00    -0.004 A 
ATOM      4  C2  UNL d   1       2.669  -0.611   0.236  0.00  0.00    -0.047 A 
ATOM      5  C3  UNL d   1       2.574   0.722   0.700  0.00  0.00    -0.047 A 
ATOM      6  C4  UNL d   1       1.249   0.960   0.999  0.00  0.00    -0.004 A 
ENDROOT
TORSDOF 0
ENDMDL
