MODEL 1
REMARK minimizedAffinity -3.02984142
REMARK minimizedRMSD -1
REMARK  0 active torsions:
REMARK  status: ('A' for Active; 'I' for Inactive)
ROOT
ATOM      1  C   UNL d   1      -1.043   0.299  -0.425  0.00  0.00     0.172 C 
ATOM      2  N   UNL d   1       0.328   0.191   0.015  0.00  0.00    -0.070 N 
ATOM      3  C1  UNL d   1       0.979  -0.974   0.321  0.00  0.00    -0.004 A 
ATOM      4  C2  UNL d   1       2.265  -0.653   0.697  0.00  0.00    -0.047 A 
ATOM      5  C3  UNL d   1       2.391   0.754   0.616  0.00  0.00    -0.047 A 
ATOM      6  C4  UNL d   1       1.177   1.252   0.192  0.00  0.00    -0.004 A 
ENDROOT
TORSDOF 0
ENDMDL
