MODEL 1
REMARK minimizedAffinity -2.95276451
REMARK minimizedRMSD -1
REMARK  0 active torsions:
REMARK  status: ('A' for Active; 'I' for Inactive)
ROOT
ATOM      1  C   UNL d   1      -0.952  -0.325   0.211  0.00  0.00     0.172 C 
ATOM      2  N   UNL d   1       0.438  -0.018   0.455  0.00  0.00    -0.070 N 
ATOM      3  C1  UNL d   1       1.361  -0.872   0.999  0.00  0.00    -0.004 A 
ATOM      4  C2  UNL d   1       2.565  -0.205   1.065  0.00  0.00    -0.047 A 
ATOM      5  C3  UNL d   1       2.359   1.094   0.544  0.00  0.00    -0.047 A 
ATOM      6  C4  UNL d   1       1.034   1.183   0.174  0.00  0.00    -0.004 A 
ENDROOT
TORSDOF 0
ENDMDL
