MODEL 1
REMARK minimizedAffinity -2.58950496
REMARK minimizedRMSD -1
REMARK  0 active torsions:
REMARK  status: ('A' for Active; 'I' for Inactive)
ROOT
ATOM      1  C   UNL d   1       3.114  -0.370   0.584  0.00  0.00     0.172 C 
ATOM      2  N   UNL d   1       1.673  -0.454   0.520  0.00  0.00    -0.070 N 
ATOM      3  C1  UNL d   1       0.929  -1.579   0.751  0.00  0.00    -0.004 A 
ATOM      4  C2  UNL d   1      -0.399  -1.247   0.592  0.00  0.00    -0.047 A 
ATOM      5  C3  UNL d   1      -0.454   0.126   0.253  0.00  0.00    -0.047 A 
ATOM      6  C4  UNL d   1       0.843   0.592   0.216  0.00  0.00    -0.004 A 
ENDROOT
TORSDOF 0
ENDMDL
