MODEL 1
REMARK minimizedAffinity 6.75963736
REMARK minimizedRMSD -1
REMARK  1 active torsions:
REMARK  status: ('A' for Active; 'I' for Inactive)
REMARK    1  A    between atoms: C1_2  and  C2_3 
ROOT
ATOM      1  C2  UNL d   1      -3.805   1.335  -2.914  0.00  0.00    -0.076 A 
ATOM      2  C3  UNL d   1      -4.944   0.522  -3.049  0.00  0.00     0.004 A 
ATOM      3  C4  UNL d   1      -5.891   0.773  -4.041  0.00  0.00    -0.003 A 
ATOM      4  C5  UNL d   1      -5.714   1.840  -4.914  0.00  0.00     0.000 A 
ATOM      5  C6  UNL d   1      -4.581   2.646  -4.806  0.00  0.00     0.000 A 
ATOM      6  C7  UNL d   1      -3.608   2.397  -3.822  0.00  0.00    -0.073 A 
ATOM      7  C8  UNL d   1      -2.409   3.302  -3.748  0.00  0.00     0.078 C 
ENDROOT
BRANCH   1   8
ATOM      8  C1  UNL d   1      -2.825   1.031  -1.803  0.00  0.00     0.053 C 
ATOM      9  C   UNL d   1      -2.678  -0.461  -1.548  0.00  0.00     0.018 C 
ENDBRANCH   1   8
TORSDOF 1
ENDMDL
