MODEL 1
REMARK minimizedAffinity 6.17562342
REMARK minimizedRMSD -1
REMARK  1 active torsions:
REMARK  status: ('A' for Active; 'I' for Inactive)
REMARK    1  A    between atoms: C1_2  and  C2_3 
ROOT
ATOM      1  C2  UNL d   1       2.352  -2.037   2.971  0.00  0.00    -0.076 A 
ATOM      2  C3  UNL d   1       3.409  -2.343   2.096  0.00  0.00     0.004 A 
ATOM      3  C4  UNL d   1       3.180  -2.545   0.737  0.00  0.00    -0.003 A 
ATOM      4  C5  UNL d   1       1.889  -2.445   0.229  0.00  0.00     0.000 A 
ATOM      5  C6  UNL d   1       0.831  -2.126   1.079  0.00  0.00     0.000 A 
ATOM      6  C7  UNL d   1       1.048  -1.902   2.450  0.00  0.00    -0.073 A 
ATOM      7  C8  UNL d   1      -0.131  -1.566   3.322  0.00  0.00     0.078 C 
ENDROOT
BRANCH   1   8
ATOM      8  C1  UNL d   1       2.658  -1.855   4.441  0.00  0.00     0.053 C 
ATOM      9  C   UNL d   1       3.915  -2.595   4.871  0.00  0.00     0.018 C 
ENDBRANCH   1   8
TORSDOF 1
ENDMDL
