MODEL 1
REMARK minimizedAffinity 12.9471807
REMARK minimizedRMSD -1
REMARK  1 active torsions:
REMARK  status: ('A' for Active; 'I' for Inactive)
REMARK    1  A    between atoms: C1_2  and  C2_3 
ROOT
ATOM      1  C2  UNL d   1       4.223  -3.947  -0.688  0.00  0.00    -0.076 A 
ATOM      2  C3  UNL d   1       2.947  -4.532  -0.605  0.00  0.00     0.004 A 
ATOM      3  C4  UNL d   1       1.929  -3.931   0.134  0.00  0.00    -0.003 A 
ATOM      4  C5  UNL d   1       2.170  -2.735   0.801  0.00  0.00     0.000 A 
ATOM      5  C6  UNL d   1       3.425  -2.132   0.715  0.00  0.00     0.000 A 
ATOM      6  C7  UNL d   1       4.457  -2.716  -0.038  0.00  0.00    -0.073 A 
ATOM      7  C8  UNL d   1       5.792  -2.025  -0.091  0.00  0.00     0.078 C 
ENDROOT
BRANCH   1   8
ATOM      8  C1  UNL d   1       5.296  -4.658  -1.481  0.00  0.00     0.053 C 
ATOM      9  C   UNL d   1       4.763  -5.875  -2.222  0.00  0.00     0.018 C 
ENDBRANCH   1   8
TORSDOF 1
ENDMDL
