MODEL 1
REMARK minimizedAffinity 10.7935944
REMARK minimizedRMSD -1
REMARK  1 active torsions:
REMARK  status: ('A' for Active; 'I' for Inactive)
REMARK    1  A    between atoms: C1_2  and  C2_3 
ROOT
ATOM      1  C2  UNL d   1       2.826  -2.650   2.626  0.00  0.00    -0.076 A 
ATOM      2  C3  UNL d   1       1.925  -1.638   3.002  0.00  0.00     0.004 A 
ATOM      3  C4  UNL d   1       0.938  -1.193   2.125  0.00  0.00    -0.003 A 
ATOM      4  C5  UNL d   1       0.835  -1.753   0.856  0.00  0.00     0.000 A 
ATOM      5  C6  UNL d   1       1.708  -2.770   0.472  0.00  0.00     0.000 A 
ATOM      6  C7  UNL d   1       2.699  -3.241   1.351  0.00  0.00    -0.073 A 
ATOM      7  C8  UNL d   1       3.618  -4.336   0.882  0.00  0.00     0.078 C 
ENDROOT
BRANCH   1   8
ATOM      8  C1  UNL d   1       3.893  -3.072   3.610  0.00  0.00     0.053 C 
ATOM      9  C   UNL d   1       3.719  -2.421   4.973  0.00  0.00     0.018 C 
ENDBRANCH   1   8
TORSDOF 1
ENDMDL
