MODEL 1
REMARK minimizedAffinity 13.0872879
REMARK minimizedRMSD -1
REMARK  1 active torsions:
REMARK  status: ('A' for Active; 'I' for Inactive)
REMARK    1  A    between atoms: C1_2  and  C2_3 
ROOT
ATOM      1  C2  UNL d   1      -2.887   1.187  -2.247  0.00  0.00    -0.076 A 
ATOM      2  C3  UNL d   1      -3.305   2.314  -2.974  0.00  0.00     0.004 A 
ATOM      3  C4  UNL d   1      -2.393   3.077  -3.702  0.00  0.00    -0.003 A 
ATOM      4  C5  UNL d   1      -1.048   2.724  -3.715  0.00  0.00     0.000 A 
ATOM      5  C6  UNL d   1      -0.619   1.598  -3.013  0.00  0.00     0.000 A 
ATOM      6  C7  UNL d   1      -1.528   0.809  -2.287  0.00  0.00    -0.073 A 
ATOM      7  C8  UNL d   1      -1.008  -0.391  -1.543  0.00  0.00     0.078 C 
ENDROOT
BRANCH   1   8
ATOM      8  C1  UNL d   1      -3.917   0.414  -1.454  0.00  0.00     0.053 C 
ATOM      9  C   UNL d   1      -4.277  -0.913  -2.104  0.00  0.00     0.018 C 
ENDBRANCH   1   8
TORSDOF 1
ENDMDL
