MODEL 1
REMARK minimizedAffinity 15.2031679
REMARK minimizedRMSD -1
REMARK  1 active torsions:
REMARK  status: ('A' for Active; 'I' for Inactive)
REMARK    1  A    between atoms: C1_2  and  C2_3 
ROOT
ATOM      1  C2  UNL d   1       2.291   3.869  -5.407  0.00  0.00    -0.076 A 
ATOM      2  C3  UNL d   1       3.573   3.326  -5.211  0.00  0.00     0.004 A 
ATOM      3  C4  UNL d   1       4.717   4.096  -5.413  0.00  0.00    -0.003 A 
ATOM      4  C5  UNL d   1       4.597   5.422  -5.814  0.00  0.00     0.000 A 
ATOM      5  C6  UNL d   1       3.333   5.982  -5.996  0.00  0.00     0.000 A 
ATOM      6  C7  UNL d   1       2.170   5.224  -5.781  0.00  0.00    -0.073 A 
ATOM      7  C8  UNL d   1       0.832   5.877  -5.998  0.00  0.00     0.078 C 
ENDROOT
BRANCH   1   8
ATOM      8  C1  UNL d   1       1.087   2.977  -5.199  0.00  0.00     0.053 C 
ATOM      9  C   UNL d   1       0.147   3.509  -4.128  0.00  0.00     0.018 C 
ENDBRANCH   1   8
TORSDOF 1
ENDMDL
