MODEL 1
REMARK minimizedAffinity 7.85199642
REMARK minimizedRMSD -1
REMARK  1 active torsions:
REMARK  status: ('A' for Active; 'I' for Inactive)
REMARK    1  A    between atoms: C1_2  and  C2_3 
ROOT
ATOM      1  C2  UNL d   1      -2.360   2.257  -4.315  0.00  0.00    -0.076 A 
ATOM      2  C3  UNL d   1      -1.288   2.636  -5.142  0.00  0.00     0.004 A 
ATOM      3  C4  UNL d   1       0.018   2.664  -4.656  0.00  0.00    -0.003 A 
ATOM      4  C5  UNL d   1       0.274   2.312  -3.336  0.00  0.00     0.000 A 
ATOM      5  C6  UNL d   1      -0.775   1.916  -2.506  0.00  0.00     0.000 A 
ATOM      6  C7  UNL d   1      -2.096   1.867  -2.985  0.00  0.00    -0.073 A 
ATOM      7  C8  UNL d   1      -3.189   1.438  -2.045  0.00  0.00     0.078 C 
ENDROOT
BRANCH   1   8
ATOM      8  C1  UNL d   1      -3.759   2.272  -4.890  0.00  0.00     0.053 C 
ATOM      9  C   UNL d   1      -3.944   1.249  -5.999  0.00  0.00     0.018 C 
ENDBRANCH   1   8
TORSDOF 1
ENDMDL
