MODEL 1
REMARK minimizedAffinity -3.70116425
REMARK minimizedRMSD -1
REMARK  0 active torsions:
REMARK  status: ('A' for Active; 'I' for Inactive)
ROOT
ATOM      1  C   UNL d   1      -0.489   0.880  -0.385  0.00  0.00     0.172 C 
ATOM      2  N   UNL d   1       0.404  -0.168   0.050  0.00  0.00    -0.070 N 
ATOM      3  C1  UNL d   1       1.771  -0.120   0.010  0.00  0.00    -0.004 A 
ATOM      4  C2  UNL d   1       2.251  -1.311   0.512  0.00  0.00    -0.047 A 
ATOM      5  C3  UNL d   1       1.132  -2.103   0.865  0.00  0.00    -0.047 A 
ATOM      6  C4  UNL d   1       0.001  -1.371   0.568  0.00  0.00    -0.004 A 
ENDROOT
TORSDOF 0
ENDMDL
