MODEL 1
REMARK minimizedAffinity -3.85200214
REMARK minimizedRMSD -1
REMARK  0 active torsions:
REMARK  status: ('A' for Active; 'I' for Inactive)
ROOT
ATOM      1  C   UNL d   1      -0.847   0.684  -0.279  0.00  0.00     0.172 C 
ATOM      2  N   UNL d   1       0.123  -0.298   0.145  0.00  0.00    -0.070 N 
ATOM      3  C1  UNL d   1       1.482  -0.130   0.144  0.00  0.00    -0.004 A 
ATOM      4  C2  UNL d   1       2.051  -1.291   0.619  0.00  0.00    -0.047 A 
ATOM      5  C3  UNL d   1       0.998  -2.189   0.914  0.00  0.00    -0.047 A 
ATOM      6  C4  UNL d   1      -0.185  -1.549   0.611  0.00  0.00    -0.004 A 
ENDROOT
TORSDOF 0
ENDMDL
