MODEL 1
REMARK minimizedAffinity -3.79943871
REMARK minimizedRMSD -1
REMARK  0 active torsions:
REMARK  status: ('A' for Active; 'I' for Inactive)
ROOT
ATOM      1  C   UNL d   1      -0.084   0.872  -0.080  0.00  0.00     0.172 C 
ATOM      2  N   UNL d   1       0.488  -0.427   0.186  0.00  0.00    -0.070 N 
ATOM      3  C1  UNL d   1       1.734  -0.659   0.704  0.00  0.00    -0.004 A 
ATOM      4  C2  UNL d   1       1.901  -2.023   0.806  0.00  0.00    -0.047 A 
ATOM      5  C3  UNL d   1       0.715  -2.632   0.333  0.00  0.00    -0.047 A 
ATOM      6  C4  UNL d   1      -0.143  -1.621  -0.044  0.00  0.00    -0.004 A 
ENDROOT
TORSDOF 0
ENDMDL
