MODEL 1
REMARK minimizedAffinity -4.18156481
REMARK minimizedRMSD -1
REMARK  0 active torsions:
REMARK  status: ('A' for Active; 'I' for Inactive)
ROOT
ATOM      1  C   UNL d   1      -0.337   0.447   0.094  0.00  0.00     0.172 C 
ATOM      2  N   UNL d   1       0.175  -0.721   0.772  0.00  0.00    -0.070 N 
ATOM      3  C1  UNL d   1      -0.364  -1.294   1.892  0.00  0.00    -0.004 A 
ATOM      4  C2  UNL d   1       0.412  -2.383   2.225  0.00  0.00    -0.047 A 
ATOM      5  C3  UNL d   1       1.455  -2.466   1.272  0.00  0.00    -0.047 A 
ATOM      6  C4  UNL d   1       1.284  -1.425   0.384  0.00  0.00    -0.004 A 
ENDROOT
TORSDOF 0
ENDMDL
