MODEL 1
REMARK minimizedAffinity -3.61197877
REMARK minimizedRMSD -1
REMARK  0 active torsions:
REMARK  status: ('A' for Active; 'I' for Inactive)
ROOT
ATOM      1  C   UNL d   1       1.579  -2.598   1.081  0.00  0.00     0.172 C 
ATOM      2  N   UNL d   1       1.067  -1.359   0.544  0.00  0.00    -0.070 N 
ATOM      3  C1  UNL d   1      -0.187  -0.853   0.762  0.00  0.00    -0.004 A 
ATOM      4  C2  UNL d   1      -0.284   0.341   0.080  0.00  0.00    -0.047 A 
ATOM      5  C3  UNL d   1       0.953   0.559  -0.571  0.00  0.00    -0.047 A 
ATOM      6  C4  UNL d   1       1.771  -0.509  -0.267  0.00  0.00    -0.004 A 
ENDROOT
TORSDOF 0
ENDMDL
