MODEL 1
REMARK minimizedAffinity -3.27425504
REMARK minimizedRMSD -1
REMARK  0 active torsions:
REMARK  status: ('A' for Active; 'I' for Inactive)
ROOT
ATOM      1  C   UNL d   1       1.955  -1.592   0.325  0.00  0.00     0.172 C 
ATOM      2  N   UNL d   1       1.041  -0.513   0.029  0.00  0.00    -0.070 N 
ATOM      3  C1  UNL d   1       1.354   0.636  -0.647  0.00  0.00    -0.004 A 
ATOM      4  C2  UNL d   1       0.214   1.406  -0.722  0.00  0.00    -0.047 A 
ATOM      5  C3  UNL d   1      -0.820   0.695  -0.067  0.00  0.00    -0.047 A 
ATOM      6  C4  UNL d   1      -0.281  -0.489   0.388  0.00  0.00    -0.004 A 
ENDROOT
TORSDOF 0
ENDMDL
