MODEL 1
REMARK minimizedAffinity -3.78601956
REMARK minimizedRMSD -1
REMARK  0 active torsions:
REMARK  status: ('A' for Active; 'I' for Inactive)
ROOT
ATOM      1  C   UNL d   1      -0.707   0.957  -0.083  0.00  0.00     0.172 C 
ATOM      2  N   UNL d   1       0.033  -0.280   0.009  0.00  0.00    -0.070 N 
ATOM      3  C1  UNL d   1      -0.474  -1.484   0.417  0.00  0.00    -0.004 A 
ATOM      4  C2  UNL d   1       0.546  -2.410   0.365  0.00  0.00    -0.047 A 
ATOM      5  C3  UNL d   1       1.705  -1.739  -0.089  0.00  0.00    -0.047 A 
ATOM      6  C4  UNL d   1       1.360  -0.421  -0.302  0.00  0.00    -0.004 A 
ENDROOT
TORSDOF 0
ENDMDL
