MODEL 1
REMARK minimizedAffinity -3.30158854
REMARK minimizedRMSD -1
REMARK  0 active torsions:
REMARK  status: ('A' for Active; 'I' for Inactive)
ROOT
ATOM      1  C   UNL d   1      -0.363   1.275   0.367  0.00  0.00     0.172 C 
ATOM      2  N   UNL d   1       0.414   0.064   0.488  0.00  0.00    -0.070 N 
ATOM      3  C1  UNL d   1      -0.017  -1.108   1.050  0.00  0.00    -0.004 A 
ATOM      4  C2  UNL d   1       1.015  -2.018   0.971  0.00  0.00    -0.047 A 
ATOM      5  C3  UNL d   1       2.104  -1.371   0.341  0.00  0.00    -0.047 A 
ATOM      6  C4  UNL d   1       1.704  -0.083   0.052  0.00  0.00    -0.004 A 
ENDROOT
TORSDOF 0
ENDMDL
