MODEL 1
REMARK minimizedAffinity -3.68169594
REMARK minimizedRMSD -1
REMARK  0 active torsions:
REMARK  status: ('A' for Active; 'I' for Inactive)
ROOT
ATOM      1  C   UNL d   1       0.290   0.406  -0.126  0.00  0.00     0.172 C 
ATOM      2  N   UNL d   1       0.614  -0.906   0.383  0.00  0.00    -0.070 N 
ATOM      3  C1  UNL d   1      -0.066  -1.570   1.370  0.00  0.00    -0.004 A 
ATOM      4  C2  UNL d   1       0.553  -2.786   1.564  0.00  0.00    -0.047 A 
ATOM      5  C3  UNL d   1       1.642  -2.855   0.663  0.00  0.00    -0.047 A 
ATOM      6  C4  UNL d   1       1.657  -1.679  -0.056  0.00  0.00    -0.004 A 
ENDROOT
TORSDOF 0
ENDMDL
