MODEL 1
REMARK minimizedAffinity -2.12059116
REMARK minimizedRMSD -1
REMARK  0 active torsions:
REMARK  status: ('A' for Active; 'I' for Inactive)
ROOT
ATOM      1  C   UNL d   1      -0.868   1.038  -0.121  0.00  0.00     0.172 C 
ATOM      2  N   UNL d   1       0.281   0.167  -0.204  0.00  0.00    -0.070 N 
ATOM      3  C1  UNL d   1       0.371  -1.090   0.333  0.00  0.00    -0.004 A 
ATOM      4  C2  UNL d   1       1.621  -1.588   0.035  0.00  0.00    -0.047 A 
ATOM      5  C3  UNL d   1       2.307  -0.596  -0.705  0.00  0.00    -0.047 A 
ATOM      6  C4  UNL d   1       1.454   0.480  -0.839  0.00  0.00    -0.004 A 
ENDROOT
TORSDOF 0
ENDMDL
