MODEL 1
REMARK minimizedAffinity -3.67118144
REMARK minimizedRMSD -1
REMARK  0 active torsions:
REMARK  status: ('A' for Active; 'I' for Inactive)
ROOT
ATOM      1  C   UNL d   1      -0.523   0.526  -0.742  0.00  0.00     0.172 C 
ATOM      2  N   UNL d   1       0.435  -0.387  -0.164  0.00  0.00    -0.070 N 
ATOM      3  C1  UNL d   1       0.138  -1.585   0.429  0.00  0.00    -0.004 A 
ATOM      4  C2  UNL d   1       1.322  -2.152   0.850  0.00  0.00    -0.047 A 
ATOM      5  C3  UNL d   1       2.366  -1.263   0.499  0.00  0.00    -0.047 A 
ATOM      6  C4  UNL d   1       1.788  -0.179  -0.127  0.00  0.00    -0.004 A 
ENDROOT
TORSDOF 0
ENDMDL
