MODEL 1
REMARK minimizedAffinity -2.24562836
REMARK minimizedRMSD -1
REMARK  0 active torsions:
REMARK  status: ('A' for Active; 'I' for Inactive)
ROOT
ATOM      1  C   UNL d   1      -0.964   1.358  -0.004  0.00  0.00     0.172 C 
ATOM      2  N   UNL d   1      -1.487   1.668  -1.314  0.00  0.00    -0.070 N 
ATOM      3  C1  UNL d   1      -2.795   1.547  -1.700  0.00  0.00    -0.004 A 
ATOM      4  C2  UNL d   1      -2.884   1.940  -3.018  0.00  0.00    -0.047 A 
ATOM      5  C3  UNL d   1      -1.584   2.310  -3.439  0.00  0.00    -0.047 A 
ATOM      6  C4  UNL d   1      -0.739   2.131  -2.364  0.00  0.00    -0.004 A 
ENDROOT
TORSDOF 0
ENDMDL
