MODEL 1
REMARK minimizedAffinity -2.27207232
REMARK minimizedRMSD -1
REMARK  0 active torsions:
REMARK  status: ('A' for Active; 'I' for Inactive)
ROOT
ATOM      1  C   UNL d   1      -1.263  -0.138   1.227  0.00  0.00     0.172 C 
ATOM      2  N   UNL d   1      -0.238  -1.018   0.716  0.00  0.00    -0.070 N 
ATOM      3  C1  UNL d   1      -0.402  -2.344   0.416  0.00  0.00    -0.004 A 
ATOM      4  C2  UNL d   1       0.806  -2.825  -0.042  0.00  0.00    -0.047 A 
ATOM      5  C3  UNL d   1       1.727  -1.751  -0.015  0.00  0.00    -0.047 A 
ATOM      6  C4  UNL d   1       1.054  -0.645   0.458  0.00  0.00    -0.004 A 
ENDROOT
TORSDOF 0
ENDMDL
