MODEL 1
REMARK minimizedAffinity -1.95421195
REMARK minimizedRMSD -1
REMARK  0 active torsions:
REMARK  status: ('A' for Active; 'I' for Inactive)
ROOT
ATOM      1  C   UNL d   1      -1.095   0.958   0.373  0.00  0.00     0.172 C 
ATOM      2  N   UNL d   1      -0.178  -0.146   0.213  0.00  0.00    -0.070 N 
ATOM      3  C1  UNL d   1      -0.519  -1.472   0.206  0.00  0.00    -0.004 A 
ATOM      4  C2  UNL d   1       0.636  -2.204   0.029  0.00  0.00    -0.047 A 
ATOM      5  C3  UNL d   1       1.708  -1.285  -0.074  0.00  0.00    -0.047 A 
ATOM      6  C4  UNL d   1       1.175  -0.019   0.043  0.00  0.00    -0.004 A 
ENDROOT
TORSDOF 0
ENDMDL
