MODEL 1
REMARK minimizedAffinity -3.5236516
REMARK minimizedRMSD -1
REMARK  0 active torsions:
REMARK  status: ('A' for Active; 'I' for Inactive)
ROOT
ATOM      1  C   UNL d   1      -1.179   0.036   0.735  0.00  0.00     0.172 C 
ATOM      2  N   UNL d   1      -0.190  -1.014   0.802  0.00  0.00    -0.070 N 
ATOM      3  C1  UNL d   1      -0.384  -2.262   1.331  0.00  0.00    -0.004 A 
ATOM      4  C2  UNL d   1       0.796  -2.962   1.205  0.00  0.00    -0.047 A 
ATOM      5  C3  UNL d   1       1.732  -2.105   0.580  0.00  0.00    -0.047 A 
ATOM      6  C4  UNL d   1       1.096  -0.906   0.341  0.00  0.00    -0.004 A 
ENDROOT
TORSDOF 0
ENDMDL
