MODEL 1
REMARK minimizedAffinity -3.42363167
REMARK minimizedRMSD -1
REMARK  0 active torsions:
REMARK  status: ('A' for Active; 'I' for Inactive)
ROOT
ATOM      1  C   UNL d   1      -0.817   0.645  -0.001  0.00  0.00     0.172 C 
ATOM      2  N   UNL d   1       0.185  -0.381   0.170  0.00  0.00    -0.070 N 
ATOM      3  C1  UNL d   1       1.536  -0.210   0.029  0.00  0.00    -0.004 A 
ATOM      4  C2  UNL d   1       2.143  -1.422   0.274  0.00  0.00    -0.047 A 
ATOM      5  C3  UNL d   1       1.122  -2.355   0.573  0.00  0.00    -0.047 A 
ATOM      6  C4  UNL d   1      -0.081  -1.684   0.501  0.00  0.00    -0.004 A 
ENDROOT
TORSDOF 0
ENDMDL
