MODEL 1
REMARK minimizedAffinity -4.12020302
REMARK minimizedRMSD -1
REMARK  0 active torsions:
REMARK  status: ('A' for Active; 'I' for Inactive)
ROOT
ATOM      1  C   UNL d   1       1.037  -2.677   0.563  0.00  0.00     0.172 C 
ATOM      2  N   UNL d   1       0.495  -1.348   0.409  0.00  0.00    -0.070 N 
ATOM      3  C1  UNL d   1       1.066  -0.330  -0.307  0.00  0.00    -0.004 A 
ATOM      4  C2  UNL d   1       0.243   0.770  -0.208  0.00  0.00    -0.047 A 
ATOM      5  C3  UNL d   1      -0.862   0.401   0.597  0.00  0.00    -0.047 A 
ATOM      6  C4  UNL d   1      -0.680  -0.915   0.965  0.00  0.00    -0.004 A 
ENDROOT
TORSDOF 0
ENDMDL
