MODEL 1
REMARK minimizedAffinity -3.00803566
REMARK minimizedRMSD -1
REMARK  0 active torsions:
REMARK  status: ('A' for Active; 'I' for Inactive)
ROOT
ATOM      1  C   UNL d   1       1.208  -3.105   0.390  0.00  0.00     0.172 C 
ATOM      2  N   UNL d   1       1.008  -1.700   0.123  0.00  0.00    -0.070 N 
ATOM      3  C1  UNL d   1      -0.200  -1.056   0.097  0.00  0.00    -0.004 A 
ATOM      4  C2  UNL d   1       0.034   0.271  -0.190  0.00  0.00    -0.047 A 
ATOM      5  C3  UNL d   1       1.432   0.430  -0.344  0.00  0.00    -0.047 A 
ATOM      6  C4  UNL d   1       2.011  -0.805  -0.145  0.00  0.00    -0.004 A 
ENDROOT
TORSDOF 0
ENDMDL
