MODEL 1
REMARK minimizedAffinity 3.70026946
REMARK minimizedRMSD -1
REMARK  0 active torsions:
REMARK  status: ('A' for Active; 'I' for Inactive)
ROOT
ATOM      1  C   UNL d   1       2.553  -2.272   1.533  0.00  0.00     0.077 C 
ATOM      2  C1  UNL d   1       1.236  -2.117   0.832  0.00  0.00    -0.074 A 
ATOM      3  C2  UNL d   1       0.044  -2.017   1.556  0.00  0.00    -0.005 A 
ATOM      4  C3  UNL d   1      -1.172  -1.863   0.891  0.00  0.00     0.006 A 
ATOM      5  C4  UNL d   1      -1.209  -1.808  -0.503  0.00  0.00    -0.005 A 
ATOM      6  C5  UNL d   1      -0.027  -1.905  -1.244  0.00  0.00    -0.074 A 
ATOM      7  C6  UNL d   1      -0.047  -1.837  -2.742  0.00  0.00     0.077 C 
ATOM      8  C7  UNL d   1       1.192  -2.052  -0.568  0.00  0.00    -0.001 A 
ENDROOT
TORSDOF 0
ENDMDL
