MODEL 1
REMARK minimizedAffinity -2.09842753
REMARK minimizedRMSD -1
REMARK  0 active torsions:
REMARK  status: ('A' for Active; 'I' for Inactive)
ROOT
ATOM      1  C   UNL d   1       2.776  -2.623   1.709  0.00  0.00     0.077 C 
ATOM      2  C1  UNL d   1       1.455  -2.503   1.010  0.00  0.00    -0.074 A 
ATOM      3  C2  UNL d   1       0.271  -2.329   1.734  0.00  0.00    -0.005 A 
ATOM      4  C3  UNL d   1      -0.949  -2.210   1.069  0.00  0.00     0.006 A 
ATOM      5  C4  UNL d   1      -0.998  -2.264  -0.324  0.00  0.00    -0.005 A 
ATOM      6  C5  UNL d   1       0.175  -2.437  -1.065  0.00  0.00    -0.074 A 
ATOM      7  C6  UNL d   1       0.141  -2.487  -2.564  0.00  0.00     0.077 C 
ATOM      8  C7  UNL d   1       1.398  -2.549  -0.390  0.00  0.00    -0.001 A 
ENDROOT
TORSDOF 0
ENDMDL
