MODEL 1
REMARK minimizedAffinity 1.10818744
REMARK minimizedRMSD -1
REMARK  0 active torsions:
REMARK  status: ('A' for Active; 'I' for Inactive)
ROOT
ATOM      1  C   UNL d   1       2.308  -2.196   1.954  0.00  0.00     0.077 C 
ATOM      2  C1  UNL d   1       1.218  -2.238   0.925  0.00  0.00    -0.074 A 
ATOM      3  C2  UNL d   1      -0.128  -2.170   1.300  0.00  0.00    -0.005 A 
ATOM      4  C3  UNL d   1      -1.131  -2.200   0.331  0.00  0.00     0.006 A 
ATOM      5  C4  UNL d   1      -0.799  -2.299  -1.021  0.00  0.00    -0.005 A 
ATOM      6  C5  UNL d   1       0.541  -2.367  -1.415  0.00  0.00    -0.074 A 
ATOM      7  C6  UNL d   1       0.915  -2.463  -2.864  0.00  0.00     0.077 C 
ATOM      8  C7  UNL d   1       1.543  -2.329  -0.436  0.00  0.00    -0.001 A 
ENDROOT
TORSDOF 0
ENDMDL
