MODEL 1
REMARK minimizedAffinity 0.903620005
REMARK minimizedRMSD -1
REMARK  0 active torsions:
REMARK  status: ('A' for Active; 'I' for Inactive)
ROOT
ATOM      1  C   UNL d   1      -2.653   0.447   0.875  0.00  0.00     0.077 C 
ATOM      2  C1  UNL d   1      -1.384  -0.344   0.991  0.00  0.00    -0.074 A 
ATOM      3  C2  UNL d   1      -1.399  -1.741   0.933  0.00  0.00    -0.005 A 
ATOM      4  C3  UNL d   1      -0.210  -2.462   1.033  0.00  0.00     0.006 A 
ATOM      5  C4  UNL d   1       1.005  -1.795   1.193  0.00  0.00    -0.005 A 
ATOM      6  C5  UNL d   1       1.041  -0.399   1.253  0.00  0.00    -0.074 A 
ATOM      7  C6  UNL d   1       2.339   0.334   1.414  0.00  0.00     0.077 C 
ATOM      8  C7  UNL d   1      -0.158   0.320   1.144  0.00  0.00    -0.001 A 
ENDROOT
TORSDOF 0
ENDMDL
