MODEL 1
REMARK minimizedAffinity 12.4273901
REMARK minimizedRMSD -1
REMARK  0 active torsions:
REMARK  status: ('A' for Active; 'I' for Inactive)
ROOT
ATOM      1  C   UNL d   1       1.635  -2.795  -3.006  0.00  0.00     0.077 C 
ATOM      2  C1  UNL d   1       0.647  -2.679  -1.882  0.00  0.00    -0.074 A 
ATOM      3  C2  UNL d   1      -0.544  -3.412  -1.895  0.00  0.00    -0.005 A 
ATOM      4  C3  UNL d   1      -1.448  -3.302  -0.838  0.00  0.00     0.006 A 
ATOM      5  C4  UNL d   1      -1.171  -2.460   0.239  0.00  0.00    -0.005 A 
ATOM      6  C5  UNL d   1       0.016  -1.720   0.269  0.00  0.00    -0.074 A 
ATOM      7  C6  UNL d   1       0.334  -0.818   1.424  0.00  0.00     0.077 C 
ATOM      8  C7  UNL d   1       0.923  -1.842  -0.793  0.00  0.00    -0.001 A 
ENDROOT
TORSDOF 0
ENDMDL
