MODEL 1
REMARK minimizedAffinity 6.94078112
REMARK minimizedRMSD -1
REMARK  0 active torsions:
REMARK  status: ('A' for Active; 'I' for Inactive)
ROOT
ATOM      1  C   UNL d   1       1.870  -2.082   1.854  0.00  0.00     0.077 C 
ATOM      2  C1  UNL d   1       2.418  -0.849   1.199  0.00  0.00    -0.074 A 
ATOM      3  C2  UNL d   1       2.214   0.415   1.762  0.00  0.00    -0.005 A 
ATOM      4  C3  UNL d   1       2.738   1.552   1.146  0.00  0.00     0.006 A 
ATOM      5  C4  UNL d   1       3.469   1.436  -0.037  0.00  0.00    -0.005 A 
ATOM      6  C5  UNL d   1       3.684   0.180  -0.614  0.00  0.00    -0.074 A 
ATOM      7  C6  UNL d   1       4.476   0.037  -1.879  0.00  0.00     0.077 C 
ATOM      8  C7  UNL d   1       3.160  -0.958   0.015  0.00  0.00    -0.001 A 
ENDROOT
TORSDOF 0
ENDMDL
