MODEL 1
REMARK minimizedAffinity 2.13117886
REMARK minimizedRMSD -1
REMARK  0 active torsions:
REMARK  status: ('A' for Active; 'I' for Inactive)
ROOT
ATOM      1  C   UNL d   1      -0.887  -1.624   1.518  0.00  0.00     0.077 C 
ATOM      2  C1  UNL d   1       0.322  -0.737   1.507  0.00  0.00    -0.074 A 
ATOM      3  C2  UNL d   1       0.225   0.615   1.851  0.00  0.00    -0.005 A 
ATOM      4  C3  UNL d   1       1.360   1.425   1.846  0.00  0.00     0.006 A 
ATOM      5  C4  UNL d   1       2.602   0.893   1.496  0.00  0.00    -0.005 A 
ATOM      6  C5  UNL d   1       2.719  -0.457   1.150  0.00  0.00    -0.074 A 
ATOM      7  C6  UNL d   1       4.047  -1.047   0.781  0.00  0.00     0.077 C 
ATOM      8  C7  UNL d   1       1.575  -1.266   1.164  0.00  0.00    -0.001 A 
ENDROOT
TORSDOF 0
ENDMDL
