MODEL 1
REMARK minimizedAffinity -3.80280566
REMARK minimizedRMSD -1
REMARK  0 active torsions:
REMARK  status: ('A' for Active; 'I' for Inactive)
ROOT
ATOM      1  C   UNL d   1      -1.212  -0.417  -0.623  0.00  0.00     0.077 C 
ATOM      2  C1  UNL d   1       0.133  -0.223   0.011  0.00  0.00    -0.074 A 
ATOM      3  C2  UNL d   1       0.687   1.055   0.144  0.00  0.00    -0.005 A 
ATOM      4  C3  UNL d   1       1.935   1.221   0.744  0.00  0.00     0.006 A 
ATOM      5  C4  UNL d   1       2.641   0.114   1.217  0.00  0.00    -0.005 A 
ATOM      6  C5  UNL d   1       2.102  -1.171   1.095  0.00  0.00    -0.074 A 
ATOM      7  C6  UNL d   1       2.843  -2.370   1.607  0.00  0.00     0.077 C 
ATOM      8  C7  UNL d   1       0.845  -1.329   0.496  0.00  0.00    -0.001 A 
ENDROOT
TORSDOF 0
ENDMDL
