MODEL 1
REMARK minimizedAffinity -1.76686001
REMARK minimizedRMSD -1
REMARK  0 active torsions:
REMARK  status: ('A' for Active; 'I' for Inactive)
ROOT
ATOM      1  C   UNL d   1      -1.909   1.547  -1.106  0.00  0.00     0.077 C 
ATOM      2  C1  UNL d   1      -2.730   1.808  -2.334  0.00  0.00    -0.074 A 
ATOM      3  C2  UNL d   1      -2.436   2.883  -3.179  0.00  0.00    -0.005 A 
ATOM      4  C3  UNL d   1      -3.202   3.108  -4.323  0.00  0.00     0.006 A 
ATOM      5  C4  UNL d   1      -4.268   2.263  -4.632  0.00  0.00    -0.005 A 
ATOM      6  C5  UNL d   1      -4.576   1.182  -3.799  0.00  0.00    -0.074 A 
ATOM      7  C6  UNL d   1      -5.712   0.258  -4.122  0.00  0.00     0.077 C 
ATOM      8  C7  UNL d   1      -3.797   0.959  -2.656  0.00  0.00    -0.001 A 
ENDROOT
TORSDOF 0
ENDMDL
