MODEL 1
REMARK minimizedAffinity -1.40281904
REMARK minimizedRMSD -1
REMARK  0 active torsions:
REMARK  status: ('A' for Active; 'I' for Inactive)
ROOT
ATOM      1  C   UNL d   1      -2.078  -0.637   0.575  0.00  0.00     0.172 C 
ATOM      2  N   UNL d   1      -0.673  -0.306   0.614  0.00  0.00    -0.070 N 
ATOM      3  C1  UNL d   1      -0.026   0.531  -0.255  0.00  0.00    -0.004 A 
ATOM      4  C2  UNL d   1       1.300   0.585   0.118  0.00  0.00    -0.047 A 
ATOM      5  C3  UNL d   1       1.455  -0.250   1.250  0.00  0.00    -0.047 A 
ATOM      6  C4  UNL d   1       0.218  -0.788   1.536  0.00  0.00    -0.004 A 
ENDROOT
TORSDOF 0
ENDMDL
