MODEL 1
REMARK minimizedAffinity -1.85641694
REMARK minimizedRMSD -1
REMARK  0 active torsions:
REMARK  status: ('A' for Active; 'I' for Inactive)
ROOT
ATOM      1  C   UNL d   1      -0.887   0.039   0.133  0.00  0.00     0.172 C 
ATOM      2  N   UNL d   1       0.271   0.899   0.209  0.00  0.00    -0.070 N 
ATOM      3  C1  UNL d   1       1.576   0.488   0.143  0.00  0.00    -0.004 A 
ATOM      4  C2  UNL d   1       2.375   1.606   0.252  0.00  0.00    -0.047 A 
ATOM      5  C3  UNL d   1       1.522   2.726   0.390  0.00  0.00    -0.047 A 
ATOM      6  C4  UNL d   1       0.224   2.259   0.361  0.00  0.00    -0.004 A 
ENDROOT
TORSDOF 0
ENDMDL
