MODEL 1
REMARK minimizedAffinity -2.71113157
REMARK minimizedRMSD -1
REMARK  0 active torsions:
REMARK  status: ('A' for Active; 'I' for Inactive)
ROOT
ATOM      1  C   UNL d   1       0.786   0.132   0.002  0.00  0.00     0.172 C 
ATOM      2  N   UNL d   1      -0.507  -0.394  -0.367  0.00  0.00    -0.070 N 
ATOM      3  C1  UNL d   1      -1.029  -0.416  -1.633  0.00  0.00    -0.004 A 
ATOM      4  C2  UNL d   1      -2.277  -0.996  -1.566  0.00  0.00    -0.047 A 
ATOM      5  C3  UNL d   1      -2.514  -1.334  -0.212  0.00  0.00    -0.047 A 
ATOM      6  C4  UNL d   1      -1.402  -0.950   0.508  0.00  0.00    -0.004 A 
ENDROOT
TORSDOF 0
ENDMDL
