MODEL 1
REMARK minimizedAffinity -3.76723433
REMARK minimizedRMSD -1
REMARK  0 active torsions:
REMARK  status: ('A' for Active; 'I' for Inactive)
ROOT
ATOM      1  C   UNL d   1       0.567  -0.321  -0.010  0.00  0.00     0.172 C 
ATOM      2  N   UNL d   1      -0.687  -0.506  -0.702  0.00  0.00    -0.070 N 
ATOM      3  C1  UNL d   1      -1.916  -0.619  -0.110  0.00  0.00    -0.004 A 
ATOM      4  C2  UNL d   1      -2.852  -0.782  -1.108  0.00  0.00    -0.047 A 
ATOM      5  C3  UNL d   1      -2.161  -0.767  -2.343  0.00  0.00    -0.047 A 
ATOM      6  C4  UNL d   1      -0.822  -0.594  -2.062  0.00  0.00    -0.004 A 
ENDROOT
TORSDOF 0
ENDMDL
