MODEL 1
REMARK minimizedAffinity -1.79511893
REMARK minimizedRMSD -1
REMARK  0 active torsions:
REMARK  status: ('A' for Active; 'I' for Inactive)
ROOT
ATOM      1  C   UNL d   1      -2.114  -0.809   1.388  0.00  0.00     0.172 C 
ATOM      2  N   UNL d   1      -0.763  -0.598   0.923  0.00  0.00    -0.070 N 
ATOM      3  C1  UNL d   1      -0.387   0.256  -0.079  0.00  0.00    -0.004 A 
ATOM      4  C2  UNL d   1       0.981   0.168  -0.218  0.00  0.00    -0.047 A 
ATOM      5  C3  UNL d   1       1.444  -0.773   0.732  0.00  0.00    -0.047 A 
ATOM      6  C4  UNL d   1       0.343  -1.232   1.425  0.00  0.00    -0.004 A 
ENDROOT
TORSDOF 0
ENDMDL
