MODEL 1
REMARK minimizedAffinity -2.79378986
REMARK minimizedRMSD -1
REMARK  0 active torsions:
REMARK  status: ('A' for Active; 'I' for Inactive)
ROOT
ATOM      1  C   UNL d   1      -2.177  -0.993  -2.389  0.00  0.00     0.172 C 
ATOM      2  N   UNL d   1      -1.722  -0.779  -1.035  0.00  0.00    -0.070 N 
ATOM      3  C1  UNL d   1      -2.273  -1.335   0.089  0.00  0.00    -0.004 A 
ATOM      4  C2  UNL d   1      -1.555  -0.886   1.177  0.00  0.00    -0.047 A 
ATOM      5  C3  UNL d   1      -0.539  -0.030   0.690  0.00  0.00    -0.047 A 
ATOM      6  C4  UNL d   1      -0.666   0.018  -0.682  0.00  0.00    -0.004 A 
ENDROOT
TORSDOF 0
ENDMDL
