MODEL 1
REMARK minimizedAffinity -4.14230061
REMARK minimizedRMSD -1
REMARK  0 active torsions:
REMARK  status: ('A' for Active; 'I' for Inactive)
ROOT
ATOM      1  C   UNL d   1       0.847   0.055  -0.117  0.00  0.00     0.172 C 
ATOM      2  N   UNL d   1      -0.544  -0.242  -0.368  0.00  0.00    -0.070 N 
ATOM      3  C1  UNL d   1      -1.421  -0.779   0.536  0.00  0.00    -0.004 A 
ATOM      4  C2  UNL d   1      -2.644  -0.907  -0.087  0.00  0.00    -0.047 A 
ATOM      5  C3  UNL d   1      -2.496  -0.430  -1.411  0.00  0.00    -0.047 A 
ATOM      6  C4  UNL d   1      -1.186  -0.024  -1.558  0.00  0.00    -0.004 A 
ENDROOT
TORSDOF 0
ENDMDL
