MODEL 1
REMARK minimizedAffinity -3.85922694
REMARK minimizedRMSD -1
REMARK  0 active torsions:
REMARK  status: ('A' for Active; 'I' for Inactive)
ROOT
ATOM      1  C   UNL d   1       0.434  -0.010   0.158  0.00  0.00     0.172 C 
ATOM      2  N   UNL d   1      -0.940  -0.159  -0.261  0.00  0.00    -0.070 N 
ATOM      3  C1  UNL d   1      -1.511   0.441  -1.351  0.00  0.00    -0.004 A 
ATOM      4  C2  UNL d   1      -2.831   0.047  -1.406  0.00  0.00    -0.047 A 
ATOM      5  C3  UNL d   1      -3.060  -0.819  -0.311  0.00  0.00    -0.047 A 
ATOM      6  C4  UNL d   1      -1.873  -0.929   0.382  0.00  0.00    -0.004 A 
ENDROOT
TORSDOF 0
ENDMDL
