MODEL 1
REMARK minimizedAffinity -3.24734282
REMARK minimizedRMSD -1
REMARK  0 active torsions:
REMARK  status: ('A' for Active; 'I' for Inactive)
ROOT
ATOM      1  C   UNL d   1       2.121   1.377  -0.227  0.00  0.00     0.172 C 
ATOM      2  N   UNL d   1       0.852   0.755   0.068  0.00  0.00    -0.070 N 
ATOM      3  C1  UNL d   1      -0.375   1.223  -0.321  0.00  0.00    -0.004 A 
ATOM      4  C2  UNL d   1      -1.330   0.350   0.156  0.00  0.00    -0.047 A 
ATOM      5  C3  UNL d   1      -0.653  -0.677   0.856  0.00  0.00    -0.047 A 
ATOM      6  C4  UNL d   1       0.697  -0.401   0.786  0.00  0.00    -0.004 A 
ENDROOT
TORSDOF 0
ENDMDL
