MODEL 1
REMARK minimizedAffinity -3.37820506
REMARK minimizedRMSD -1
REMARK  0 active torsions:
REMARK  status: ('A' for Active; 'I' for Inactive)
ROOT
ATOM      1  C   UNL d   1      -2.423  -0.610  -1.032  0.00  0.00     0.172 C 
ATOM      2  N   UNL d   1      -1.084  -0.340  -0.561  0.00  0.00    -0.070 N 
ATOM      3  C1  UNL d   1      -0.107   0.314  -1.263  0.00  0.00    -0.004 A 
ATOM      4  C2  UNL d   1       1.018   0.368  -0.470  0.00  0.00    -0.047 A 
ATOM      5  C3  UNL d   1       0.707  -0.277   0.751  0.00  0.00    -0.047 A 
ATOM      6  C4  UNL d   1      -0.601  -0.706   0.667  0.00  0.00    -0.004 A 
ENDROOT
TORSDOF 0
ENDMDL
