MODEL 1
REMARK minimizedAffinity -0.677350521
REMARK minimizedRMSD -1
REMARK  0 active torsions:
REMARK  status: ('A' for Active; 'I' for Inactive)
ROOT
ATOM      1  C   UNL d   1       1.525   0.346   0.280  0.00  0.00     0.172 C 
ATOM      2  N   UNL d   1       2.095   1.620   0.653  0.00  0.00    -0.070 N 
ATOM      3  C1  UNL d   1       2.157   2.126   1.924  0.00  0.00    -0.004 A 
ATOM      4  C2  UNL d   1       2.771   3.358   1.858  0.00  0.00    -0.047 A 
ATOM      5  C3  UNL d   1       3.088   3.601   0.501  0.00  0.00    -0.047 A 
ATOM      6  C4  UNL d   1       2.659   2.509  -0.224  0.00  0.00    -0.004 A 
ENDROOT
TORSDOF 0
ENDMDL
