MODEL 1
REMARK minimizedAffinity -3.88529134
REMARK minimizedRMSD -1
REMARK  0 active torsions:
REMARK  status: ('A' for Active; 'I' for Inactive)
ROOT
ATOM      1  C   UNL d   1       0.604   0.327  -0.303  0.00  0.00     0.172 C 
ATOM      2  N   UNL d   1      -0.800   0.001  -0.388  0.00  0.00    -0.070 N 
ATOM      3  C1  UNL d   1      -1.694   0.546  -1.271  0.00  0.00    -0.004 A 
ATOM      4  C2  UNL d   1      -2.925  -0.026  -1.032  0.00  0.00    -0.047 A 
ATOM      5  C3  UNL d   1      -2.766  -0.945   0.033  0.00  0.00    -0.047 A 
ATOM      6  C4  UNL d   1      -1.441  -0.908   0.412  0.00  0.00    -0.004 A 
ENDROOT
TORSDOF 0
ENDMDL
