MODEL 1
REMARK minimizedAffinity -3.40837979
REMARK minimizedRMSD -1
REMARK  0 active torsions:
REMARK  status: ('A' for Active; 'I' for Inactive)
ROOT
ATOM      1  C   UNL d   1       1.051   0.576   0.516  0.00  0.00     0.172 C 
ATOM      2  N   UNL d   1      -0.239   0.206  -0.016  0.00  0.00    -0.070 N 
ATOM      3  C1  UNL d   1      -0.663   0.416  -1.301  0.00  0.00    -0.004 A 
ATOM      4  C2  UNL d   1      -1.945  -0.078  -1.409  0.00  0.00    -0.047 A 
ATOM      5  C3  UNL d   1      -2.305  -0.602  -0.144  0.00  0.00    -0.047 A 
ATOM      6  C4  UNL d   1      -1.230  -0.413   0.699  0.00  0.00    -0.004 A 
ENDROOT
TORSDOF 0
ENDMDL
