MODEL 1
REMARK minimizedAffinity -2.06482005
REMARK minimizedRMSD -1
REMARK  0 active torsions:
REMARK  status: ('A' for Active; 'I' for Inactive)
ROOT
ATOM      1  C   UNL d   1       0.263   0.209  -1.543  0.00  0.00     0.172 C 
ATOM      2  N   UNL d   1      -0.847  -0.168  -0.700  0.00  0.00    -0.070 N 
ATOM      3  C1  UNL d   1      -0.804  -0.305   0.662  0.00  0.00    -0.004 A 
ATOM      4  C2  UNL d   1      -2.062  -0.674   1.089  0.00  0.00    -0.047 A 
ATOM      5  C3  UNL d   1      -2.889  -0.761  -0.056  0.00  0.00    -0.047 A 
ATOM      6  C4  UNL d   1      -2.111  -0.443  -1.150  0.00  0.00    -0.004 A 
ENDROOT
TORSDOF 0
ENDMDL
