MODEL 1
REMARK minimizedAffinity -1.87089407
REMARK minimizedRMSD -1
REMARK  0 active torsions:
REMARK  status: ('A' for Active; 'I' for Inactive)
ROOT
ATOM      1  C   UNL d   1       1.463   0.043   0.444  0.00  0.00     0.172 C 
ATOM      2  N   UNL d   1       1.910   1.374   0.781  0.00  0.00    -0.070 N 
ATOM      3  C1  UNL d   1       2.316   1.790   2.020  0.00  0.00    -0.004 A 
ATOM      4  C2  UNL d   1       2.663   3.121   1.926  0.00  0.00    -0.047 A 
ATOM      5  C3  UNL d   1       2.457   3.519   0.584  0.00  0.00    -0.047 A 
ATOM      6  C4  UNL d   1       1.990   2.418  -0.103  0.00  0.00    -0.004 A 
ENDROOT
TORSDOF 0
ENDMDL
