MODEL 1
REMARK minimizedAffinity -3.53399634
REMARK minimizedRMSD -1
REMARK  0 active torsions:
REMARK  status: ('A' for Active; 'I' for Inactive)
ROOT
ATOM      1  C   UNL d   1       0.974   0.074   0.015  0.00  0.00     0.172 C 
ATOM      2  N   UNL d   1      -0.447  -0.073  -0.189  0.00  0.00    -0.070 N 
ATOM      3  C1  UNL d   1      -1.124   0.228  -1.341  0.00  0.00    -0.004 A 
ATOM      4  C2  UNL d   1      -2.457  -0.052  -1.133  0.00  0.00    -0.047 A 
ATOM      5  C3  UNL d   1      -2.587  -0.536   0.190  0.00  0.00    -0.047 A 
ATOM      6  C4  UNL d   1      -1.327  -0.539   0.752  0.00  0.00    -0.004 A 
ENDROOT
TORSDOF 0
ENDMDL
