MODEL 1
REMARK minimizedAffinity -4.86792421
REMARK minimizedRMSD -1
REMARK  0 active torsions:
REMARK  status: ('A' for Active; 'I' for Inactive)
ROOT
ATOM      1  C   UNL d   1      -0.754   1.692   2.663  0.00  0.00     0.078 C 
ATOM      2  C1  UNL d   1      -0.351   0.742   1.575  0.00  0.00    -0.077 A 
ATOM      3  C2  UNL d   1       0.951   0.229   1.512  0.00  0.00    -0.001 A 
ATOM      4  C3  UNL d   1       1.315  -0.647   0.488  0.00  0.00     0.003 A 
ATOM      5  C4  UNL d   1       0.385  -1.016  -0.481  0.00  0.00    -0.005 A 
ATOM      6  C5  UNL d   1      -0.912  -0.508  -0.428  0.00  0.00     0.003 A 
ATOM      7  C6  UNL d   1      -1.278   0.367   0.595  0.00  0.00    -0.001 A 
ENDROOT
TORSDOF 0
ENDMDL
