MODEL 1
REMARK minimizedAffinity 5.81467676
REMARK minimizedRMSD -1
REMARK  0 active torsions:
REMARK  status: ('A' for Active; 'I' for Inactive)
ROOT
ATOM      1  C   UNL d   1      -3.572  -1.279   3.875  0.00  0.00     0.078 C 
ATOM      2  C1  UNL d   1      -2.562  -0.597   3.000  0.00  0.00    -0.077 A 
ATOM      3  C2  UNL d   1      -2.628  -0.702   1.605  0.00  0.00    -0.001 A 
ATOM      4  C3  UNL d   1      -1.676  -0.070   0.804  0.00  0.00     0.003 A 
ATOM      5  C4  UNL d   1      -0.651   0.671   1.388  0.00  0.00    -0.005 A 
ATOM      6  C5  UNL d   1      -0.576   0.779   2.775  0.00  0.00     0.003 A 
ATOM      7  C6  UNL d   1      -1.527   0.148   3.578  0.00  0.00    -0.001 A 
ENDROOT
TORSDOF 0
ENDMDL
