MODEL 1
REMARK minimizedAffinity 6.52693796
REMARK minimizedRMSD -1
REMARK  0 active torsions:
REMARK  status: ('A' for Active; 'I' for Inactive)
ROOT
ATOM      1  C   UNL d   1      -3.052   0.376   1.497  0.00  0.00     0.078 C 
ATOM      2  C1  UNL d   1      -1.808   0.576   2.311  0.00  0.00    -0.077 A 
ATOM      3  C2  UNL d   1      -1.181   1.826   2.374  0.00  0.00    -0.001 A 
ATOM      4  C3  UNL d   1      -0.019   1.995   3.127  0.00  0.00     0.003 A 
ATOM      5  C4  UNL d   1       0.528   0.918   3.822  0.00  0.00    -0.005 A 
ATOM      6  C5  UNL d   1      -0.088  -0.331   3.763  0.00  0.00     0.003 A 
ATOM      7  C6  UNL d   1      -1.250  -0.502   3.010  0.00  0.00    -0.001 A 
ENDROOT
TORSDOF 0
ENDMDL
