MODEL 1
REMARK minimizedAffinity 1.78812528
REMARK minimizedRMSD -1
REMARK  0 active torsions:
REMARK  status: ('A' for Active; 'I' for Inactive)
ROOT
ATOM      1  C   UNL d   1       1.493   0.783  -5.205  0.00  0.00     0.078 C 
ATOM      2  C1  UNL d   1       2.235   0.489  -3.935  0.00  0.00    -0.077 A 
ATOM      3  C2  UNL d   1       1.617   0.641  -2.688  0.00  0.00    -0.001 A 
ATOM      4  C3  UNL d   1       2.323   0.373  -1.514  0.00  0.00     0.003 A 
ATOM      5  C4  UNL d   1       3.650  -0.048  -1.575  0.00  0.00    -0.005 A 
ATOM      6  C5  UNL d   1       4.274  -0.199  -2.812  0.00  0.00     0.003 A 
ATOM      7  C6  UNL d   1       3.570   0.068  -3.987  0.00  0.00    -0.001 A 
ENDROOT
TORSDOF 0
ENDMDL
