MODEL 1
REMARK minimizedAffinity -0.87778765
REMARK minimizedRMSD -1
REMARK  0 active torsions:
REMARK  status: ('A' for Active; 'I' for Inactive)
ROOT
ATOM      1  C   UNL d   1       1.589  -1.931  -0.929  0.00  0.00     0.078 C 
ATOM      2  C1  UNL d   1       2.059  -1.088  -2.076  0.00  0.00    -0.077 A 
ATOM      3  C2  UNL d   1       3.423  -0.960  -2.366  0.00  0.00    -0.001 A 
ATOM      4  C3  UNL d   1       3.847  -0.163  -3.430  0.00  0.00     0.003 A 
ATOM      5  C4  UNL d   1       2.914   0.513  -4.214  0.00  0.00    -0.005 A 
ATOM      6  C5  UNL d   1       1.555   0.393  -3.932  0.00  0.00     0.003 A 
ATOM      7  C6  UNL d   1       1.129  -0.403  -2.868  0.00  0.00    -0.001 A 
ENDROOT
TORSDOF 0
ENDMDL
