MODEL 1
REMARK minimizedAffinity 6.43542719
REMARK minimizedRMSD -1
REMARK  0 active torsions:
REMARK  status: ('A' for Active; 'I' for Inactive)
ROOT
ATOM      1  C   UNL d   1       0.139  -0.483  -4.828  0.00  0.00     0.078 C 
ATOM      2  C1  UNL d   1       1.357  -0.018  -4.088  0.00  0.00    -0.077 A 
ATOM      3  C2  UNL d   1       1.254   0.890  -3.028  0.00  0.00    -0.001 A 
ATOM      4  C3  UNL d   1       2.398   1.322  -2.354  0.00  0.00     0.003 A 
ATOM      5  C4  UNL d   1       3.653   0.852  -2.735  0.00  0.00    -0.005 A 
ATOM      6  C5  UNL d   1       3.766  -0.050  -3.791  0.00  0.00     0.003 A 
ATOM      7  C6  UNL d   1       2.624  -0.483  -4.466  0.00  0.00    -0.001 A 
ENDROOT
TORSDOF 0
ENDMDL
