MODEL 1
REMARK minimizedAffinity 1.51110101
REMARK minimizedRMSD -1
REMARK  0 active torsions:
REMARK  status: ('A' for Active; 'I' for Inactive)
ROOT
ATOM      1  C   UNL d   1       1.956   1.390  -2.362  0.00  0.00     0.078 C 
ATOM      2  C1  UNL d   1       1.903   0.804  -0.983  0.00  0.00    -0.077 A 
ATOM      3  C2  UNL d   1       2.146   1.594   0.146  0.00  0.00    -0.001 A 
ATOM      4  C3  UNL d   1       2.103   1.033   1.424  0.00  0.00     0.003 A 
ATOM      5  C4  UNL d   1       1.818  -0.322   1.583  0.00  0.00    -0.005 A 
ATOM      6  C5  UNL d   1       1.576  -1.117   0.465  0.00  0.00     0.003 A 
ATOM      7  C6  UNL d   1       1.619  -0.557  -0.813  0.00  0.00    -0.001 A 
ENDROOT
TORSDOF 0
ENDMDL
