MODEL 1
REMARK minimizedAffinity 2.17685866
REMARK minimizedRMSD -1
REMARK  0 active torsions:
REMARK  status: ('A' for Active; 'I' for Inactive)
ROOT
ATOM      1  C   UNL d   1       2.061  -0.406   1.276  0.00  0.00     0.078 C 
ATOM      2  C1  UNL d   1       0.705   0.059   1.713  0.00  0.00    -0.077 A 
ATOM      3  C2  UNL d   1       0.563   1.090   2.650  0.00  0.00    -0.001 A 
ATOM      4  C3  UNL d   1      -0.706   1.506   3.055  0.00  0.00     0.003 A 
ATOM      5  C4  UNL d   1      -1.843   0.896   2.530  0.00  0.00    -0.005 A 
ATOM      6  C5  UNL d   1      -1.713  -0.132   1.598  0.00  0.00     0.003 A 
ATOM      7  C6  UNL d   1      -0.444  -0.549   1.192  0.00  0.00    -0.001 A 
ENDROOT
TORSDOF 0
ENDMDL
