MODEL 1
REMARK minimizedAffinity 0.168144658
REMARK minimizedRMSD -1
REMARK  0 active torsions:
REMARK  status: ('A' for Active; 'I' for Inactive)
ROOT
ATOM      1  C   UNL d   1       1.589  -0.932  -0.499  0.00  0.00     0.078 C 
ATOM      2  C1  UNL d   1       1.858  -0.397  -1.874  0.00  0.00    -0.077 A 
ATOM      3  C2  UNL d   1       0.808  -0.115  -2.757  0.00  0.00    -0.001 A 
ATOM      4  C3  UNL d   1       1.074   0.373  -4.037  0.00  0.00     0.003 A 
ATOM      5  C4  UNL d   1       2.390   0.583  -4.447  0.00  0.00    -0.005 A 
ATOM      6  C5  UNL d   1       3.441   0.303  -3.576  0.00  0.00     0.003 A 
ATOM      7  C6  UNL d   1       3.177  -0.185  -2.295  0.00  0.00    -0.001 A 
ENDROOT
TORSDOF 0
ENDMDL
