MODEL 1
REMARK minimizedAffinity 3.69132495
REMARK minimizedRMSD -1
REMARK  0 active torsions:
REMARK  status: ('A' for Active; 'I' for Inactive)
ROOT
ATOM      1  C   UNL d   1       4.515  -1.568  -3.926  0.00  0.00     0.078 C 
ATOM      2  C1  UNL d   1       3.645  -0.364  -3.724  0.00  0.00    -0.077 A 
ATOM      3  C2  UNL d   1       4.198   0.879  -3.392  0.00  0.00    -0.001 A 
ATOM      4  C3  UNL d   1       3.375   1.989  -3.197  0.00  0.00     0.003 A 
ATOM      5  C4  UNL d   1       1.993   1.867  -3.331  0.00  0.00    -0.005 A 
ATOM      6  C5  UNL d   1       1.433   0.634  -3.659  0.00  0.00     0.003 A 
ATOM      7  C6  UNL d   1       2.255  -0.477  -3.854  0.00  0.00    -0.001 A 
ENDROOT
TORSDOF 0
ENDMDL
