MODEL 1
REMARK minimizedAffinity -3.46731424
REMARK minimizedRMSD -1
REMARK  0 active torsions:
REMARK  status: ('A' for Active; 'I' for Inactive)
ROOT
ATOM      1  C1  DEN d   1      -2.343  -0.132  -2.601  0.00  0.00     0.130 A 
ATOM      2  C2  DEN d   1      -2.674  -1.553  -2.653  0.00  0.00    -0.031 A 
ATOM      3  C3  DEN d   1      -1.665  -2.286  -1.863  0.00  0.00     0.027 A 
ATOM      4  C4  DEN d   1       0.365  -1.363  -0.566  0.00  0.00     0.027 A 
ATOM      5  C5  DEN d   1       1.063  -0.221  -0.239  0.00  0.00    -0.003 A 
ATOM      6  C6  DEN d   1       0.697   1.016  -0.700  0.00  0.00     0.001 A 
ATOM      7  C7  DEN d   1      -0.423   1.146  -1.478  0.00  0.00     0.017 A 
ATOM      8  C8  DEN d   1      -1.128  -0.001  -1.818  0.00  0.00    -0.094 A 
ATOM      9  C9  DEN d   1      -0.749  -1.241  -1.332  0.00  0.00    -0.072 A 
ENDROOT
TORSDOF 0
ENDMDL
