MODEL 1
REMARK minimizedAffinity 8.68486404
REMARK minimizedRMSD -1
REMARK  0 active torsions:
REMARK  status: ('A' for Active; 'I' for Inactive)
ROOT
ATOM      1  C1  DEN d   1       3.251   2.894  -3.749  0.00  0.00     0.130 A 
ATOM      2  C2  DEN d   1       4.664   3.004  -4.099  0.00  0.00    -0.031 A 
ATOM      3  C3  DEN d   1       4.813   4.128  -5.045  0.00  0.00     0.027 A 
ATOM      4  C4  DEN d   1       3.003   5.701  -5.994  0.00  0.00     0.027 A 
ATOM      5  C5  DEN d   1       1.656   5.990  -5.998  0.00  0.00    -0.003 A 
ATOM      6  C6  DEN d   1       0.750   5.252  -5.284  0.00  0.00     0.001 A 
ATOM      7  C7  DEN d   1       1.184   4.215  -4.501  0.00  0.00     0.017 A 
ATOM      8  C8  DEN d   1       2.540   3.913  -4.498  0.00  0.00    -0.094 A 
ATOM      9  C9  DEN d   1       3.442   4.679  -5.217  0.00  0.00    -0.072 A 
ENDROOT
TORSDOF 0
ENDMDL
