MODEL 1
REMARK minimizedAffinity 9.16921234
REMARK minimizedRMSD -1
REMARK  0 active torsions:
REMARK  status: ('A' for Active; 'I' for Inactive)
ROOT
ATOM      1  C1  DEN d   1       0.487  -0.546   2.058  0.00  0.00     0.130 A 
ATOM      2  C2  DEN d   1      -0.398  -1.553   1.479  0.00  0.00    -0.031 A 
ATOM      3  C3  DEN d   1      -0.428  -1.347   0.017  0.00  0.00     0.027 A 
ATOM      4  C4  DEN d   1       0.806   0.420  -1.399  0.00  0.00     0.027 A 
ATOM      5  C5  DEN d   1       1.662   1.498  -1.352  0.00  0.00    -0.003 A 
ATOM      6  C6  DEN d   1       2.156   1.988  -0.171  0.00  0.00     0.001 A 
ATOM      7  C7  DEN d   1       1.832   1.370   1.008  0.00  0.00     0.017 A 
ATOM      8  C8  DEN d   1       0.964   0.287   0.969  0.00  0.00    -0.094 A 
ATOM      9  C9  DEN d   1       0.485  -0.200  -0.236  0.00  0.00    -0.072 A 
ENDROOT
TORSDOF 0
ENDMDL
