MODEL 1
REMARK minimizedAffinity -0.526201606
REMARK minimizedRMSD -1
REMARK  0 active torsions:
REMARK  status: ('A' for Active; 'I' for Inactive)
ROOT
ATOM      1  C1  DEN d   1       0.150   5.892  -2.480  0.00  0.00     0.130 A 
ATOM      2  C2  DEN d   1      -1.207   6.000  -3.008  0.00  0.00    -0.031 A 
ATOM      3  C3  DEN d   1      -1.125   5.988  -4.483  0.00  0.00     0.027 A 
ATOM      4  C4  DEN d   1       0.960   5.810  -5.990  0.00  0.00     0.027 A 
ATOM      5  C5  DEN d   1       2.334   5.710  -5.999  0.00  0.00    -0.003 A 
ATOM      6  C6  DEN d   1       3.073   5.699  -4.846  0.00  0.00     0.001 A 
ATOM      7  C7  DEN d   1       2.438   5.743  -3.633  0.00  0.00     0.017 A 
ATOM      8  C8  DEN d   1       1.053   5.851  -3.616  0.00  0.00    -0.094 A 
ATOM      9  C9  DEN d   1       0.324   5.849  -4.793  0.00  0.00    -0.072 A 
ENDROOT
TORSDOF 0
ENDMDL
