MODEL 1
REMARK minimizedAffinity -0.174380004
REMARK minimizedRMSD -1
REMARK  0 active torsions:
REMARK  status: ('A' for Active; 'I' for Inactive)
ROOT
ATOM      1  C1  DEN d   1      -0.536   5.956  -4.145  0.00  0.00     0.130 A 
ATOM      2  C2  DEN d   1       0.565   5.981  -3.185  0.00  0.00    -0.031 A 
ATOM      3  C3  DEN d   1      -0.014   6.000  -1.827  0.00  0.00     0.027 A 
ATOM      4  C4  DEN d   1      -2.495   5.988  -1.121  0.00  0.00     0.027 A 
ATOM      5  C5  DEN d   1      -3.793   5.982  -1.581  0.00  0.00    -0.003 A 
ATOM      6  C6  DEN d   1      -4.094   6.000  -2.917  0.00  0.00     0.001 A 
ATOM      7  C7  DEN d   1      -3.083   5.980  -3.841  0.00  0.00     0.017 A 
ATOM      8  C8  DEN d   1      -1.772   5.995  -3.385  0.00  0.00    -0.094 A 
ATOM      9  C9  DEN d   1      -1.488   5.964  -2.030  0.00  0.00    -0.072 A 
ENDROOT
TORSDOF 0
ENDMDL
