MODEL 1
REMARK minimizedAffinity 1.58087277
REMARK minimizedRMSD -1
REMARK  0 active torsions:
REMARK  status: ('A' for Active; 'I' for Inactive)
ROOT
ATOM      1  C1  DEN d   1      -2.129  -0.839   1.972  0.00  0.00     0.130 A 
ATOM      2  C2  DEN d   1      -2.283  -0.483   3.380  0.00  0.00    -0.031 A 
ATOM      3  C3  DEN d   1      -1.205   0.462   3.732  0.00  0.00     0.027 A 
ATOM      4  C4  DEN d   1       0.674   1.409   2.241  0.00  0.00     0.027 A 
ATOM      5  C5  DEN d   1       1.222   1.389   0.977  0.00  0.00    -0.003 A 
ATOM      6  C6  DEN d   1       0.716   0.606  -0.026  0.00  0.00     0.001 A 
ATOM      7  C7  DEN d   1      -0.399  -0.156   0.205  0.00  0.00     0.017 A 
ATOM      8  C8  DEN d   1      -0.952  -0.148   1.479  0.00  0.00    -0.094 A 
ATOM      9  C9  DEN d   1      -0.433   0.660   2.476  0.00  0.00    -0.072 A 
ENDROOT
TORSDOF 0
ENDMDL
