MODEL 1
REMARK minimizedAffinity -3.2307384
REMARK minimizedRMSD -1
REMARK  0 active torsions:
REMARK  status: ('A' for Active; 'I' for Inactive)
ROOT
ATOM      1  C1  DEN d   1      -2.368   5.989  -4.469  0.00  0.00     0.130 A 
ATOM      2  C2  DEN d   1      -2.530   5.967  -3.018  0.00  0.00    -0.031 A 
ATOM      3  C3  DEN d   1      -1.186   5.960  -2.408  0.00  0.00     0.027 A 
ATOM      4  C4  DEN d   1       1.120   5.984  -3.563  0.00  0.00     0.027 A 
ATOM      5  C5  DEN d   1       1.766   5.992  -4.779  0.00  0.00    -0.003 A 
ATOM      6  C6  DEN d   1       1.086   5.965  -5.968  0.00  0.00     0.001 A 
ATOM      7  C7  DEN d   1      -0.284   5.974  -5.966  0.00  0.00     0.017 A 
ATOM      8  C8  DEN d   1      -0.942   5.959  -4.743  0.00  0.00    -0.094 A 
ATOM      9  C9  DEN d   1      -0.237   5.999  -3.553  0.00  0.00    -0.072 A 
ENDROOT
TORSDOF 0
ENDMDL
