MODEL 1
REMARK minimizedAffinity -3.64986205
REMARK minimizedRMSD -1
REMARK  0 active torsions:
REMARK  status: ('A' for Active; 'I' for Inactive)
ROOT
ATOM      1  C1  DEN d   1      -3.269   5.971  -4.113  0.00  0.00     0.130 A 
ATOM      2  C2  DEN d   1      -3.717   5.999  -2.724  0.00  0.00    -0.031 A 
ATOM      3  C3  DEN d   1      -2.521   6.000  -1.858  0.00  0.00     0.027 A 
ATOM      4  C4  DEN d   1      -0.031   5.966  -2.531  0.00  0.00     0.027 A 
ATOM      5  C5  DEN d   1       0.844   5.928  -3.594  0.00  0.00    -0.003 A 
ATOM      6  C6  DEN d   1       0.413   5.868  -4.893  0.00  0.00     0.001 A 
ATOM      7  C7  DEN d   1      -0.930   5.890  -5.164  0.00  0.00     0.017 A 
ATOM      8  C8  DEN d   1      -1.818   5.921  -4.097  0.00  0.00    -0.094 A 
ATOM      9  C9  DEN d   1      -1.363   5.994  -2.792  0.00  0.00    -0.072 A 
ENDROOT
TORSDOF 0
ENDMDL
