MODEL 1
REMARK minimizedAffinity -4.5853076
REMARK minimizedRMSD -1
REMARK  0 active torsions:
REMARK  status: ('A' for Active; 'I' for Inactive)
ROOT
ATOM      1  C1  DEN d   1      -3.138   5.744  -4.861  0.00  0.00     0.130 A 
ATOM      2  C2  DEN d   1      -3.752   5.998  -3.560  0.00  0.00    -0.031 A 
ATOM      3  C3  DEN d   1      -2.682   6.000  -2.543  0.00  0.00     0.027 A 
ATOM      4  C4  DEN d   1      -0.146   5.642  -2.855  0.00  0.00     0.027 A 
ATOM      5  C5  DEN d   1       0.846   5.381  -3.774  0.00  0.00    -0.003 A 
ATOM      6  C6  DEN d   1       0.578   5.191  -5.104  0.00  0.00     0.001 A 
ATOM      7  C7  DEN d   1      -0.709   5.303  -5.559  0.00  0.00     0.017 A 
ATOM      8  C8  DEN d   1      -1.716   5.559  -4.638  0.00  0.00    -0.094 A 
ATOM      9  C9  DEN d   1      -1.423   5.760  -3.300  0.00  0.00    -0.072 A 
ENDROOT
TORSDOF 0
ENDMDL
