MODEL 1
REMARK minimizedAffinity 3.53908491
REMARK minimizedRMSD -1
REMARK  0 active torsions:
REMARK  status: ('A' for Active; 'I' for Inactive)
ROOT
ATOM      1  C1  DEN d   1       1.710   1.023  -2.293  0.00  0.00     0.130 A 
ATOM      2  C2  DEN d   1       1.403  -0.379  -2.563  0.00  0.00    -0.031 A 
ATOM      3  C3  DEN d   1       1.062  -1.027  -1.280  0.00  0.00     0.027 A 
ATOM      4  C4  DEN d   1       0.974   0.002   1.083  0.00  0.00     0.027 A 
ATOM      5  C5  DEN d   1       1.164   1.153   1.814  0.00  0.00    -0.003 A 
ATOM      6  C6  DEN d   1       1.580   2.324   1.237  0.00  0.00     0.001 A 
ATOM      7  C7  DEN d   1       1.774   2.381  -0.118  0.00  0.00     0.017 A 
ATOM      8  C8  DEN d   1       1.591   1.222  -0.860  0.00  0.00    -0.094 A 
ATOM      9  C9  DEN d   1       1.159   0.052  -0.260  0.00  0.00    -0.072 A 
ENDROOT
TORSDOF 0
ENDMDL
