MODEL 1
REMARK minimizedAffinity 1.04983485
REMARK minimizedRMSD -1
REMARK  0 active torsions:
REMARK  status: ('A' for Active; 'I' for Inactive)
ROOT
ATOM      1  C1  DEN d   1      -1.485   5.899  -2.260  0.00  0.00     0.130 A 
ATOM      2  C2  DEN d   1      -1.064   5.838  -3.657  0.00  0.00    -0.031 A 
ATOM      3  C3  DEN d   1      -2.276   5.845  -4.500  0.00  0.00     0.027 A 
ATOM      4  C4  DEN d   1      -4.751   5.948  -3.781  0.00  0.00     0.027 A 
ATOM      5  C5  DEN d   1      -5.606   6.000  -2.702  0.00  0.00    -0.003 A 
ATOM      6  C6  DEN d   1      -5.152   5.988  -1.410  0.00  0.00     0.001 A 
ATOM      7  C7  DEN d   1      -3.804   5.967  -1.164  0.00  0.00     0.017 A 
ATOM      8  C8  DEN d   1      -2.936   5.907  -2.247  0.00  0.00    -0.094 A 
ATOM      9  C9  DEN d   1      -3.415   5.933  -3.546  0.00  0.00    -0.072 A 
ENDROOT
TORSDOF 0
ENDMDL
