MODEL 1
REMARK minimizedAffinity -4.87003708
REMARK minimizedRMSD -1
REMARK  0 active torsions:
REMARK  status: ('A' for Active; 'I' for Inactive)
ROOT
ATOM      1  C2' OXE d   1      -1.654   0.166   1.614  0.00  0.00     0.078 C 
ATOM      2  C1' OXE d   1       0.411   1.093  -0.047  0.00  0.00     0.078 C 
ATOM      3  C1  OXE d   1       0.146  -0.392  -0.015  0.00  0.00    -0.078 A 
ATOM      4  C2  OXE d   1      -0.835  -0.841   0.836  0.00  0.00    -0.078 A 
ATOM      5  C3  OXE d   1      -1.156  -2.195   0.863  0.00  0.00     0.003 A 
ATOM      6  C4  OXE d   1      -0.387  -3.121   0.148  0.00  0.00    -0.002 A 
ATOM      7  C5  OXE d   1       0.642  -2.688  -0.694  0.00  0.00    -0.002 A 
ATOM      8  C6  OXE d   1       0.894  -1.327  -0.820  0.00  0.00     0.003 A 
ENDROOT
TORSDOF 0
ENDMDL
