MODEL 1
REMARK minimizedAffinity -4.15278959
REMARK minimizedRMSD -1
REMARK  0 active torsions:
REMARK  status: ('A' for Active; 'I' for Inactive)
ROOT
ATOM      1  C2' OXE d   1       0.588   1.153  -0.002  0.00  0.00     0.078 C 
ATOM      2  C1' OXE d   1      -2.025   0.462   0.755  0.00  0.00     0.078 C 
ATOM      3  C1  OXE d   1      -1.024  -0.653   0.583  0.00  0.00    -0.078 A 
ATOM      4  C2  OXE d   1       0.240  -0.310   0.167  0.00  0.00    -0.078 A 
ATOM      5  C3  OXE d   1       1.217  -1.294   0.046  0.00  0.00     0.003 A 
ATOM      6  C4  OXE d   1       0.884  -2.645   0.195  0.00  0.00    -0.002 A 
ATOM      7  C5  OXE d   1      -0.408  -3.020   0.579  0.00  0.00    -0.002 A 
ATOM      8  C6  OXE d   1      -1.360  -2.035   0.819  0.00  0.00     0.003 A 
ENDROOT
TORSDOF 0
ENDMDL
