MODEL 1
REMARK minimizedAffinity -4.13075924
REMARK minimizedRMSD -1
REMARK  0 active torsions:
REMARK  status: ('A' for Active; 'I' for Inactive)
ROOT
ATOM      1  C2' OXE d   1       2.202  -1.082  -1.251  0.00  0.00     0.078 C 
ATOM      2  C1' OXE d   1       0.143   0.777  -0.825  0.00  0.00     0.078 C 
ATOM      3  C1  OXE d   1       0.065  -0.539  -0.092  0.00  0.00    -0.078 A 
ATOM      4  C2  OXE d   1       1.052  -1.461  -0.342  0.00  0.00    -0.078 A 
ATOM      5  C3  OXE d   1       1.057  -2.670   0.348  0.00  0.00     0.003 A 
ATOM      6  C4  OXE d   1      -0.015  -3.016   1.179  0.00  0.00    -0.002 A 
ATOM      7  C5  OXE d   1      -1.051  -2.107   1.416  0.00  0.00    -0.002 A 
ATOM      8  C6  OXE d   1      -1.005  -0.851   0.823  0.00  0.00     0.003 A 
ENDROOT
TORSDOF 0
ENDMDL
