MODEL 1
REMARK minimizedAffinity -2.76004004
REMARK minimizedRMSD -1
REMARK  0 active torsions:
REMARK  status: ('A' for Active; 'I' for Inactive)
ROOT
ATOM      1  C2' OXE d   1      -1.899  -2.315   0.913  0.00  0.00     0.078 C 
ATOM      2  C1' OXE d   1       0.708  -3.122   0.255  0.00  0.00     0.078 C 
ATOM      3  C1  OXE d   1       0.409  -1.644   0.258  0.00  0.00    -0.078 A 
ATOM      4  C2  OXE d   1      -0.881  -1.261   0.536  0.00  0.00    -0.078 A 
ATOM      5  C3  OXE d   1      -1.198   0.093   0.606  0.00  0.00     0.003 A 
ATOM      6  C4  OXE d   1      -0.253   1.062   0.247  0.00  0.00    -0.002 A 
ATOM      7  C5  OXE d   1       1.056   0.690  -0.078  0.00  0.00    -0.002 A 
ATOM      8  C6  OXE d   1       1.414  -0.652  -0.036  0.00  0.00     0.003 A 
ENDROOT
TORSDOF 0
ENDMDL
