MODEL 1
REMARK minimizedAffinity -2.9702425
REMARK minimizedRMSD -1
REMARK  0 active torsions:
REMARK  status: ('A' for Active; 'I' for Inactive)
ROOT
ATOM      1  C2' OXE d   1       0.386   1.427   0.051  0.00  0.00     0.078 C 
ATOM      2  C1' OXE d   1      -2.193   0.536   0.708  0.00  0.00     0.078 C 
ATOM      3  C1  OXE d   1      -1.100  -0.497   0.593  0.00  0.00    -0.078 A 
ATOM      4  C2  OXE d   1       0.149  -0.057   0.225  0.00  0.00    -0.078 A 
ATOM      5  C3  OXE d   1       1.205  -0.961   0.158  0.00  0.00     0.003 A 
ATOM      6  C4  OXE d   1       0.975  -2.334   0.311  0.00  0.00    -0.002 A 
ATOM      7  C5  OXE d   1      -0.298  -2.807   0.647  0.00  0.00    -0.002 A 
ATOM      8  C6  OXE d   1      -1.335  -1.899   0.833  0.00  0.00     0.003 A 
ENDROOT
TORSDOF 0
ENDMDL
