MODEL 1
REMARK minimizedAffinity -2.95845842
REMARK minimizedRMSD -1
REMARK  0 active torsions:
REMARK  status: ('A' for Active; 'I' for Inactive)
ROOT
ATOM      1  C2' OXE d   1      -1.660   0.298   1.451  0.00  0.00     0.078 C 
ATOM      2  C1' OXE d   1      -0.098   1.303  -0.654  0.00  0.00     0.078 C 
ATOM      3  C1  OXE d   1      -0.019  -0.175  -0.363  0.00  0.00    -0.078 A 
ATOM      4  C2  OXE d   1      -0.751  -0.650   0.698  0.00  0.00    -0.078 A 
ATOM      5  C3  OXE d   1      -0.757  -2.014   0.976  0.00  0.00     0.003 A 
ATOM      6  C4  OXE d   1       0.094  -2.882   0.282  0.00  0.00    -0.002 A 
ATOM      7  C5  OXE d   1       0.878  -2.412  -0.777  0.00  0.00    -0.002 A 
ATOM      8  C6  OXE d   1       0.801  -1.072  -1.139  0.00  0.00     0.003 A 
ENDROOT
TORSDOF 0
ENDMDL
