MODEL 1
REMARK minimizedAffinity -5.71803808
REMARK minimizedRMSD -1
REMARK  0 active torsions:
REMARK  status: ('A' for Active; 'I' for Inactive)
ROOT
ATOM      1  C2' OXE d   1       0.206  -3.093   0.485  0.00  0.00     0.078 C 
ATOM      2  C1' OXE d   1       1.277  -1.863  -1.800  0.00  0.00     0.078 C 
ATOM      3  C1  OXE d   1       0.576  -0.987  -0.792  0.00  0.00    -0.078 A 
ATOM      4  C2  OXE d   1       0.014  -1.603   0.300  0.00  0.00    -0.078 A 
ATOM      5  C3  OXE d   1      -0.596  -0.835   1.287  0.00  0.00     0.003 A 
ATOM      6  C4  OXE d   1      -0.777   0.541   1.103  0.00  0.00    -0.002 A 
ATOM      7  C5  OXE d   1      -0.248   1.183  -0.021  0.00  0.00    -0.002 A 
ATOM      8  C6  OXE d   1       0.467   0.442  -0.955  0.00  0.00     0.003 A 
ENDROOT
TORSDOF 0
ENDMDL
