MODEL 1
REMARK minimizedAffinity -5.71869087
REMARK minimizedRMSD -1
REMARK  0 active torsions:
REMARK  status: ('A' for Active; 'I' for Inactive)
ROOT
ATOM      1  C2' OXE d   1       1.167  -1.881  -2.752  0.00  0.00     0.078 C 
ATOM      2  C1' OXE d   1       0.341  -3.632  -0.719  0.00  0.00     0.078 C 
ATOM      3  C1  OXE d   1       0.014  -2.168  -0.562  0.00  0.00    -0.078 A 
ATOM      4  C2  OXE d   1       0.463  -1.312  -1.539  0.00  0.00    -0.078 A 
ATOM      5  C3  OXE d   1       0.142   0.041  -1.471  0.00  0.00     0.003 A 
ATOM      6  C4  OXE d   1      -0.500   0.561  -0.341  0.00  0.00    -0.002 A 
ATOM      7  C5  OXE d   1      -0.931  -0.288   0.684  0.00  0.00    -0.002 A 
ATOM      8  C6  OXE d   1      -0.720  -1.657   0.569  0.00  0.00     0.003 A 
ENDROOT
TORSDOF 0
ENDMDL
