MODEL 1
REMARK minimizedAffinity -2.9680953
REMARK minimizedRMSD -1
REMARK  0 active torsions:
REMARK  status: ('A' for Active; 'I' for Inactive)
ROOT
ATOM      1  C2' OXE d   1       0.397  -2.826   0.259  0.00  0.00     0.078 C 
ATOM      2  C1' OXE d   1       1.451  -1.779  -2.123  0.00  0.00     0.078 C 
ATOM      3  C1  OXE d   1       0.683  -0.844  -1.223  0.00  0.00    -0.078 A 
ATOM      4  C2  OXE d   1       0.131  -1.375  -0.082  0.00  0.00    -0.078 A 
ATOM      5  C3  OXE d   1      -0.542  -0.545   0.810  0.00  0.00     0.003 A 
ATOM      6  C4  OXE d   1      -0.792   0.793   0.482  0.00  0.00    -0.002 A 
ATOM      7  C5  OXE d   1      -0.272   1.345  -0.694  0.00  0.00    -0.002 A 
ATOM      8  C6  OXE d   1       0.502   0.553  -1.535  0.00  0.00     0.003 A 
ENDROOT
TORSDOF 0
ENDMDL
