MODEL 1
REMARK minimizedAffinity -4.23971367
REMARK minimizedRMSD -1
REMARK  0 active torsions:
REMARK  status: ('A' for Active; 'I' for Inactive)
ROOT
ATOM      1  C2' OXE d   1      -0.268  -1.631  -2.533  0.00  0.00     0.078 C 
ATOM      2  C1' OXE d   1      -0.657  -2.610   0.069  0.00  0.00     0.078 C 
ATOM      3  C1  OXE d   1      -0.465  -1.124  -0.102  0.00  0.00    -0.078 A 
ATOM      4  C2  OXE d   1      -0.229  -0.659  -1.373  0.00  0.00    -0.078 A 
ATOM      5  C3  OXE d   1      -0.099   0.709  -1.594  0.00  0.00     0.003 A 
ATOM      6  C4  OXE d   1      -0.054   1.600  -0.515  0.00  0.00    -0.002 A 
ATOM      7  C5  OXE d   1      -0.253   1.143   0.792  0.00  0.00    -0.002 A 
ATOM      8  C6  OXE d   1      -0.502  -0.208   1.011  0.00  0.00     0.003 A 
ENDROOT
TORSDOF 0
ENDMDL
