MODEL 1
REMARK minimizedAffinity -3.39162707
REMARK minimizedRMSD -1
REMARK  0 active torsions:
REMARK  status: ('A' for Active; 'I' for Inactive)
ROOT
ATOM      1  C2' OXE d   1      -0.062  -3.519   0.847  0.00  0.00     0.078 C 
ATOM      2  C1' OXE d   1      -1.013  -1.317   2.305  0.00  0.00     0.078 C 
ATOM      3  C1  OXE d   1      -0.397  -1.053   0.954  0.00  0.00    -0.078 A 
ATOM      4  C2  OXE d   1       0.108  -2.131   0.268  0.00  0.00    -0.078 A 
ATOM      5  C3  OXE d   1       0.638  -1.951  -1.007  0.00  0.00     0.003 A 
ATOM      6  C4  OXE d   1       0.800  -0.663  -1.531  0.00  0.00    -0.002 A 
ATOM      7  C5  OXE d   1       0.329   0.453  -0.831  0.00  0.00    -0.002 A 
ATOM      8  C6  OXE d   1      -0.309   0.272   0.391  0.00  0.00     0.003 A 
ENDROOT
TORSDOF 0
ENDMDL
