MODEL 1
REMARK minimizedAffinity -4.30343056
REMARK minimizedRMSD -1
REMARK  0 active torsions:
REMARK  status: ('A' for Active; 'I' for Inactive)
ROOT
ATOM      1  C2' OXE d   1      -1.928   0.130   0.350  0.00  0.00     0.078 C 
ATOM      2  C1' OXE d   1       0.702   1.112   0.305  0.00  0.00     0.078 C 
ATOM      3  C1  OXE d   1       0.510  -0.383   0.371  0.00  0.00    -0.078 A 
ATOM      4  C2  OXE d   1      -0.780  -0.852   0.440  0.00  0.00    -0.078 A 
ATOM      5  C3  OXE d   1      -1.015  -2.224   0.447  0.00  0.00     0.003 A 
ATOM      6  C4  OXE d   1       0.053  -3.126   0.541  0.00  0.00    -0.002 A 
ATOM      7  C5  OXE d   1       1.374  -2.667   0.512  0.00  0.00    -0.002 A 
ATOM      8  C6  OXE d   1       1.619  -1.304   0.385  0.00  0.00     0.003 A 
ENDROOT
TORSDOF 0
ENDMDL
