MODEL 1
REMARK minimizedAffinity -4.35559654
REMARK minimizedRMSD -1
REMARK  0 active torsions:
REMARK  status: ('A' for Active; 'I' for Inactive)
ROOT
ATOM      1  C2' OXE d   1       0.470  -0.043  -2.297  0.00  0.00     0.078 C 
ATOM      2  C1' OXE d   1      -0.024   1.189   0.177  0.00  0.00     0.078 C 
ATOM      3  C1  OXE d   1      -0.090  -0.316   0.115  0.00  0.00    -0.078 A 
ATOM      4  C2  OXE d   1       0.107  -0.908  -1.109  0.00  0.00    -0.078 A 
ATOM      5  C3  OXE d   1       0.111  -2.297  -1.211  0.00  0.00     0.003 A 
ATOM      6  C4  OXE d   1      -0.236  -3.089  -0.110  0.00  0.00    -0.002 A 
ATOM      7  C5  OXE d   1      -0.479  -2.504   1.137  0.00  0.00    -0.002 A 
ATOM      8  C6  OXE d   1      -0.369  -1.125   1.276  0.00  0.00     0.003 A 
ENDROOT
TORSDOF 0
ENDMDL
