MODEL 1
REMARK minimizedAffinity -3.74031329
REMARK minimizedRMSD -1
REMARK  0 active torsions:
REMARK  status: ('A' for Active; 'I' for Inactive)
ROOT
ATOM      1  C2' OXE d   1       0.730   1.132   0.335  0.00  0.00     0.078 C 
ATOM      2  C1' OXE d   1      -1.869   0.371   1.073  0.00  0.00     0.078 C 
ATOM      3  C1  OXE d   1      -0.899  -0.719   0.689  0.00  0.00    -0.078 A 
ATOM      4  C2  OXE d   1       0.356  -0.334   0.284  0.00  0.00    -0.078 A 
ATOM      5  C3  OXE d   1       1.306  -1.302  -0.028  0.00  0.00     0.003 A 
ATOM      6  C4  OXE d   1       0.949  -2.655  -0.082  0.00  0.00    -0.002 A 
ATOM      7  C5  OXE d   1      -0.336  -3.065   0.288  0.00  0.00    -0.002 A 
ATOM      8  C6  OXE d   1      -1.258  -2.115   0.716  0.00  0.00     0.003 A 
ENDROOT
TORSDOF 0
ENDMDL
