MODEL 1
REMARK minimizedAffinity -2.89936137
REMARK minimizedRMSD -1
REMARK  0 active torsions:
REMARK  status: ('A' for Active; 'I' for Inactive)
ROOT
ATOM      1  C2' OXE d   1       0.302  -3.162   0.386  0.00  0.00     0.078 C 
ATOM      2  C1' OXE d   1      -1.670  -1.926   1.954  0.00  0.00     0.078 C 
ATOM      3  C1  OXE d   1      -0.941  -1.076   0.943  0.00  0.00    -0.078 A 
ATOM      4  C2  OXE d   1       0.055  -1.679   0.213  0.00  0.00    -0.078 A 
ATOM      5  C3  OXE d   1       0.721  -0.955  -0.772  0.00  0.00     0.003 A 
ATOM      6  C4  OXE d   1       0.493   0.419  -0.919  0.00  0.00    -0.002 A 
ATOM      7  C5  OXE d   1      -0.489   1.061  -0.157  0.00  0.00    -0.002 A 
ATOM      8  C6  OXE d   1      -1.243   0.320   0.746  0.00  0.00     0.003 A 
ENDROOT
TORSDOF 0
ENDMDL
