MODEL 1
REMARK minimizedAffinity -3.96951365
REMARK minimizedRMSD -1
REMARK  0 active torsions:
REMARK  status: ('A' for Active; 'I' for Inactive)
ROOT
ATOM      1  C2' OXE d   1      -1.192  -0.903   1.728  0.00  0.00     0.078 C 
ATOM      2  C1' OXE d   1       0.383  -2.878   0.504  0.00  0.00     0.078 C 
ATOM      3  C1  OXE d   1       0.318  -1.522  -0.154  0.00  0.00    -0.078 A 
ATOM      4  C2  OXE d   1      -0.492  -0.576   0.427  0.00  0.00    -0.078 A 
ATOM      5  C3  OXE d   1      -0.546   0.708  -0.109  0.00  0.00     0.003 A 
ATOM      6  C4  OXE d   1       0.097   0.999  -1.318  0.00  0.00    -0.002 A 
ATOM      7  C5  OXE d   1       0.895   0.037  -1.947  0.00  0.00    -0.002 A 
ATOM      8  C6  OXE d   1       1.050  -1.212  -1.357  0.00  0.00     0.003 A 
ENDROOT
TORSDOF 0
ENDMDL
