MODEL 1
REMARK minimizedAffinity -2.09743547
REMARK minimizedRMSD -1
REMARK  0 active torsions:
REMARK  status: ('A' for Active; 'I' for Inactive)
ROOT
ATOM      1  C2' OXE d   1       0.089   1.273  -0.927  0.00  0.00     0.078 C 
ATOM      2  C1' OXE d   1       0.869  -0.809  -2.641  0.00  0.00     0.078 C 
ATOM      3  C1  OXE d   1       0.513  -1.164  -1.219  0.00  0.00    -0.078 A 
ATOM      4  C2  OXE d   1       0.178  -0.133  -0.375  0.00  0.00    -0.078 A 
ATOM      5  C3  OXE d   1      -0.211  -0.411   0.933  0.00  0.00     0.003 A 
ATOM      6  C4  OXE d   1      -0.117  -1.713   1.439  0.00  0.00    -0.002 A 
ATOM      7  C5  OXE d   1       0.260  -2.772   0.607  0.00  0.00    -0.002 A 
ATOM      8  C6  OXE d   1       0.537  -2.522  -0.733  0.00  0.00     0.003 A 
ENDROOT
TORSDOF 0
ENDMDL
