MODEL 1
REMARK minimizedAffinity -1.84658694
REMARK minimizedRMSD -1
REMARK  0 active torsions:
REMARK  status: ('A' for Active; 'I' for Inactive)
ROOT
ATOM      1  C2' OXE d   1      -1.919   0.268   1.236  0.00  0.00     0.078 C 
ATOM      2  C1' OXE d   1       0.252   1.266  -0.237  0.00  0.00     0.078 C 
ATOM      3  C1  OXE d   1       0.198  -0.219   0.017  0.00  0.00    -0.078 A 
ATOM      4  C2  OXE d   1      -0.843  -0.693   0.778  0.00  0.00    -0.078 A 
ATOM      5  C3  OXE d   1      -0.970  -2.062   0.997  0.00  0.00     0.003 A 
ATOM      6  C4  OXE d   1       0.035  -2.943   0.579  0.00  0.00    -0.002 A 
ATOM      7  C5  OXE d   1       1.125  -2.476  -0.163  0.00  0.00    -0.002 A 
ATOM      8  C6  OXE d   1       1.199  -1.126  -0.489  0.00  0.00     0.003 A 
ENDROOT
TORSDOF 0
ENDMDL
