MODEL 1
REMARK minimizedAffinity -3.95420337
REMARK minimizedRMSD -1
REMARK  0 active torsions:
REMARK  status: ('A' for Active; 'I' for Inactive)
ROOT
ATOM      1  C2' OXE d   1      -2.006   0.466   2.125  0.00  0.00     0.078 C 
ATOM      2  C1' OXE d   1      -0.558   1.643   0.027  0.00  0.00     0.078 C 
ATOM      3  C1  OXE d   1      -0.365   0.167   0.274  0.00  0.00    -0.078 A 
ATOM      4  C2  OXE d   1      -1.041  -0.390   1.332  0.00  0.00    -0.078 A 
ATOM      5  C3  OXE d   1      -0.941  -1.758   1.570  0.00  0.00     0.003 A 
ATOM      6  C4  OXE d   1      -0.040  -2.541   0.839  0.00  0.00    -0.002 A 
ATOM      7  C5  OXE d   1       0.689  -1.984  -0.217  0.00  0.00    -0.002 A 
ATOM      8  C6  OXE d   1       0.507  -0.644  -0.539  0.00  0.00     0.003 A 
ENDROOT
TORSDOF 0
ENDMDL
