MODEL 1
REMARK minimizedAffinity 2.97126031
REMARK minimizedRMSD -1
REMARK  0 active torsions:
REMARK  status: ('A' for Active; 'I' for Inactive)
ROOT
ATOM      1  C4' PXY d   1       2.055   1.157  -3.298  0.00  0.00     0.077 C 
ATOM      2  C1' PXY d   1       2.264  -2.034   1.517  0.00  0.00     0.077 C 
ATOM      3  C1  PXY d   1       2.209  -1.187   0.261  0.00  0.00    -0.082 A 
ATOM      4  C2  PXY d   1       1.747  -1.711  -0.862  0.00  0.00     0.003 A 
ATOM      5  C3  PXY d   1       1.720  -0.968  -2.015  0.00  0.00     0.003 A 
ATOM      6  C4  PXY d   1       2.120   0.341  -2.004  0.00  0.00    -0.082 A 
ATOM      7  C5  PXY d   1       2.583   0.887  -0.859  0.00  0.00     0.003 A 
ATOM      8  C6  PXY d   1       2.640   0.103   0.290  0.00  0.00     0.003 A 
ENDROOT
TORSDOF 0
ENDMDL
