MODEL 1
REMARK minimizedAffinity 3.2363255
REMARK minimizedRMSD -1
REMARK  0 active torsions:
REMARK  status: ('A' for Active; 'I' for Inactive)
ROOT
ATOM      1  C4' PXY d   1      -0.160  -0.357   3.403  0.00  0.00     0.077 C 
ATOM      2  C1' PXY d   1       3.507  -3.276   0.019  0.00  0.00     0.077 C 
ATOM      3  C1  PXY d   1       2.547  -2.519   0.916  0.00  0.00    -0.082 A 
ATOM      4  C2  PXY d   1       1.623  -1.742   0.377  0.00  0.00     0.003 A 
ATOM      5  C3  PXY d   1       0.767  -1.025   1.174  0.00  0.00     0.003 A 
ATOM      6  C4  PXY d   1       0.824  -1.147   2.536  0.00  0.00    -0.082 A 
ATOM      7  C5  PXY d   1       1.758  -1.947   3.094  0.00  0.00     0.003 A 
ATOM      8  C6  PXY d   1       2.643  -2.633   2.269  0.00  0.00     0.003 A 
ENDROOT
TORSDOF 0
ENDMDL
