MODEL 1
REMARK minimizedAffinity 11.6612062
REMARK minimizedRMSD -1
REMARK  0 active torsions:
REMARK  status: ('A' for Active; 'I' for Inactive)
ROOT
ATOM      1  C4' PXY d   1       3.638  -2.647  -0.096  0.00  0.00     0.077 C 
ATOM      2  C1' PXY d   1       0.019  -0.653   3.946  0.00  0.00     0.077 C 
ATOM      3  C1  PXY d   1       0.959  -1.173   2.876  0.00  0.00    -0.082 A 
ATOM      4  C2  PXY d   1       1.884  -2.064   3.196  0.00  0.00     0.003 A 
ATOM      5  C3  PXY d   1       2.763  -2.521   2.248  0.00  0.00     0.003 A 
ATOM      6  C4  PXY d   1       2.661  -2.101   0.949  0.00  0.00    -0.082 A 
ATOM      7  C5  PXY d   1       1.714  -1.201   0.613  0.00  0.00     0.003 A 
ATOM      8  C6  PXY d   1       0.857  -0.718   1.598  0.00  0.00     0.003 A 
ENDROOT
TORSDOF 0
ENDMDL
