MODEL 1
REMARK minimizedAffinity 4.05419445
REMARK minimizedRMSD -1
REMARK  0 active torsions:
REMARK  status: ('A' for Active; 'I' for Inactive)
ROOT
ATOM      1  C4' PXY d   1       2.500   2.265  -3.505  0.00  0.00     0.077 C 
ATOM      2  C1' PXY d   1       2.382  -1.739   0.662  0.00  0.00     0.077 C 
ATOM      3  C1  PXY d   1       2.412  -0.679  -0.422  0.00  0.00    -0.082 A 
ATOM      4  C2  PXY d   1       2.061  -0.998  -1.657  0.00  0.00     0.003 A 
ATOM      5  C3  PXY d   1       2.112  -0.060  -2.656  0.00  0.00     0.003 A 
ATOM      6  C4  PXY d   1       2.476   1.230  -2.377  0.00  0.00    -0.082 A 
ATOM      7  C5  PXY d   1       2.826   1.565  -1.117  0.00  0.00     0.003 A 
ATOM      8  C6  PXY d   1       2.806   0.589  -0.126  0.00  0.00     0.003 A 
ENDROOT
TORSDOF 0
ENDMDL
