MODEL 1
REMARK minimizedAffinity 0.516094267
REMARK minimizedRMSD -1
REMARK  0 active torsions:
REMARK  status: ('A' for Active; 'I' for Inactive)
ROOT
ATOM      1  C4' PXY d   1      -1.050  -0.250   3.010  0.00  0.00     0.077 C 
ATOM      2  C1' PXY d   1       3.376  -2.332  -0.071  0.00  0.00     0.077 C 
ATOM      3  C1  PXY d   1       2.219  -1.794   0.747  0.00  0.00    -0.082 A 
ATOM      4  C2  PXY d   1       1.174  -1.262   0.132  0.00  0.00     0.003 A 
ATOM      5  C3  PXY d   1       0.133  -0.742   0.857  0.00  0.00     0.003 A 
ATOM      6  C4  PXY d   1       0.137  -0.814   2.224  0.00  0.00    -0.082 A 
ATOM      7  C5  PXY d   1       1.194  -1.364   2.859  0.00  0.00     0.003 A 
ATOM      8  C6  PXY d   1       2.259  -1.850   2.106  0.00  0.00     0.003 A 
ENDROOT
TORSDOF 0
ENDMDL
