MODEL 1
REMARK minimizedAffinity 0.699024677
REMARK minimizedRMSD -1
REMARK  0 active torsions:
REMARK  status: ('A' for Active; 'I' for Inactive)
ROOT
ATOM      1  C4' PXY d   1       2.454  -2.041   0.707  0.00  0.00     0.077 C 
ATOM      2  C1' PXY d   1      -1.987   0.570   3.329  0.00  0.00     0.077 C 
ATOM      3  C1  PXY d   1      -0.831  -0.123   2.635  0.00  0.00    -0.082 A 
ATOM      4  C2  PXY d   1       0.375  -0.087   3.179  0.00  0.00     0.003 A 
ATOM      5  C3  PXY d   1       1.438  -0.681   2.549  0.00  0.00     0.003 A 
ATOM      6  C4  PXY d   1       1.255  -1.364   1.377  0.00  0.00    -0.082 A 
ATOM      7  C5  PXY d   1       0.026  -1.414   0.821  0.00  0.00     0.003 A 
ATOM      8  C6  PXY d   1      -1.032  -0.770   1.455  0.00  0.00     0.003 A 
ENDROOT
TORSDOF 0
ENDMDL
