MODEL 1
REMARK minimizedAffinity 6.43072653
REMARK minimizedRMSD -1
REMARK  0 active torsions:
REMARK  status: ('A' for Active; 'I' for Inactive)
ROOT
ATOM      1  C4' PXY d   1       2.213   1.680  -3.439  0.00  0.00     0.077 C 
ATOM      2  C1' PXY d   1       0.778  -1.251   1.332  0.00  0.00     0.077 C 
ATOM      3  C1  PXY d   1       1.156  -0.471   0.088  0.00  0.00    -0.082 A 
ATOM      4  C2  PXY d   1       0.734  -0.884  -1.096  0.00  0.00     0.003 A 
ATOM      5  C3  PXY d   1       1.093  -0.209  -2.234  0.00  0.00     0.003 A 
ATOM      6  C4  PXY d   1       1.848   0.930  -2.155  0.00  0.00    -0.082 A 
ATOM      7  C5  PXY d   1       2.274   1.364  -0.950  0.00  0.00     0.003 A 
ATOM      8  C6  PXY d   1       1.933   0.641   0.190  0.00  0.00     0.003 A 
ENDROOT
TORSDOF 0
ENDMDL
