MODEL 1
REMARK minimizedAffinity -1.89180434
REMARK minimizedRMSD -1
REMARK  0 active torsions:
REMARK  status: ('A' for Active; 'I' for Inactive)
ROOT
ATOM      1  C4' PXY d   1       2.594   2.427   2.614  0.00  0.00     0.077 C 
ATOM      2  C1' PXY d   1       2.758  -3.160   1.139  0.00  0.00     0.077 C 
ATOM      3  C1  PXY d   1       2.705  -1.697   1.534  0.00  0.00    -0.082 A 
ATOM      4  C2  PXY d   1       3.159  -0.777   0.698  0.00  0.00     0.003 A 
ATOM      5  C3  PXY d   1       3.148   0.547   1.053  0.00  0.00     0.003 A 
ATOM      6  C4  PXY d   1       2.619   0.939   2.253  0.00  0.00    -0.082 A 
ATOM      7  C5  PXY d   1       2.144   0.007   3.107  0.00  0.00     0.003 A 
ATOM      8  C6  PXY d   1       2.202  -1.336   2.745  0.00  0.00     0.003 A 
ENDROOT
TORSDOF 0
ENDMDL
