MODEL 1
REMARK minimizedAffinity 5.90317106
REMARK minimizedRMSD -1
REMARK  0 active torsions:
REMARK  status: ('A' for Active; 'I' for Inactive)
ROOT
ATOM      1  C4' PXY d   1      -2.247  -0.234   3.237  0.00  0.00     0.077 C 
ATOM      2  C1' PXY d   1       3.136  -2.101   2.265  0.00  0.00     0.077 C 
ATOM      3  C1  PXY d   1       1.720  -1.620   2.511  0.00  0.00    -0.082 A 
ATOM      4  C2  PXY d   1       1.514  -0.391   2.957  0.00  0.00     0.003 A 
ATOM      5  C3  PXY d   1       0.242   0.049   3.215  0.00  0.00     0.003 A 
ATOM      6  C4  PXY d   1      -0.835  -0.758   2.965  0.00  0.00    -0.082 A 
ATOM      7  C5  PXY d   1      -0.634  -2.010   2.501  0.00  0.00     0.003 A 
ATOM      8  C6  PXY d   1       0.668  -2.452   2.284  0.00  0.00     0.003 A 
ENDROOT
TORSDOF 0
ENDMDL
