MODEL 1
REMARK minimizedAffinity 5.74590302
REMARK minimizedRMSD -1
REMARK  0 active torsions:
REMARK  status: ('A' for Active; 'I' for Inactive)
ROOT
ATOM      1  C4' PXY d   1       1.669   2.046  -0.213  0.00  0.00     0.077 C 
ATOM      2  C1' PXY d   1       2.597  -3.557   0.865  0.00  0.00     0.077 C 
ATOM      3  C1  PXY d   1       2.355  -2.090   0.569  0.00  0.00    -0.082 A 
ATOM      4  C2  PXY d   1       2.580  -1.188   1.510  0.00  0.00     0.003 A 
ATOM      5  C3  PXY d   1       2.337   0.140   1.270  0.00  0.00     0.003 A 
ATOM      6  C4  PXY d   1       1.908   0.554   0.038  0.00  0.00    -0.082 A 
ATOM      7  C5  PXY d   1       1.687  -0.359  -0.931  0.00  0.00     0.003 A 
ATOM      8  C6  PXY d   1       1.901  -1.706  -0.655  0.00  0.00     0.003 A 
ENDROOT
TORSDOF 0
ENDMDL
