MODEL 1
REMARK minimizedAffinity 3.47121
REMARK minimizedRMSD -1
REMARK  0 active torsions:
REMARK  status: ('A' for Active; 'I' for Inactive)
ROOT
ATOM      1  C4' PXY d   1      -0.262  -0.658   3.322  0.00  0.00     0.077 C 
ATOM      2  C1' PXY d   1       3.958  -2.651  -0.088  0.00  0.00     0.077 C 
ATOM      3  C1  PXY d   1       2.855  -2.137   0.816  0.00  0.00    -0.082 A 
ATOM      4  C2  PXY d   1       1.800  -1.540   0.285  0.00  0.00     0.003 A 
ATOM      5  C3  PXY d   1       0.808  -1.040   1.090  0.00  0.00     0.003 A 
ATOM      6  C4  PXY d   1       0.871  -1.201   2.448  0.00  0.00    -0.082 A 
ATOM      7  C5  PXY d   1       1.939  -1.819   2.996  0.00  0.00     0.003 A 
ATOM      8  C6  PXY d   1       2.955  -2.282   2.165  0.00  0.00     0.003 A 
ENDROOT
TORSDOF 0
ENDMDL
