MODEL 1
REMARK minimizedAffinity -0.519931018
REMARK minimizedRMSD -1
REMARK  0 active torsions:
REMARK  status: ('A' for Active; 'I' for Inactive)
ROOT
ATOM      1  C   UNL d   1       1.057  -0.812  -0.223  0.00  0.00     0.078 C 
ATOM      2  C1  UNL d   1      -0.092  -0.835   0.740  0.00  0.00    -0.077 A 
ATOM      3  C2  UNL d   1      -0.032  -1.591   1.917  0.00  0.00    -0.001 A 
ATOM      4  C3  UNL d   1      -1.113  -1.611   2.800  0.00  0.00     0.003 A 
ATOM      5  C4  UNL d   1      -2.263  -0.878   2.514  0.00  0.00    -0.005 A 
ATOM      6  C5  UNL d   1      -2.333  -0.124   1.345  0.00  0.00     0.003 A 
ATOM      7  C6  UNL d   1      -1.253  -0.103   0.461  0.00  0.00    -0.001 A 
ENDROOT
TORSDOF 0
ENDMDL
