MODEL 1
REMARK minimizedAffinity 3.66687727
REMARK minimizedRMSD -1
REMARK  0 active torsions:
REMARK  status: ('A' for Active; 'I' for Inactive)
ROOT
ATOM      1  C   UNL d   1       2.099  -1.681  -0.501  0.00  0.00     0.078 C 
ATOM      2  C1  UNL d   1       2.634  -2.970   0.046  0.00  0.00    -0.077 A 
ATOM      3  C2  UNL d   1       1.940  -3.677   1.036  0.00  0.00    -0.001 A 
ATOM      4  C3  UNL d   1       2.455  -4.871   1.543  0.00  0.00     0.003 A 
ATOM      5  C4  UNL d   1       3.666  -5.369   1.068  0.00  0.00    -0.005 A 
ATOM      6  C5  UNL d   1       4.365  -4.672   0.084  0.00  0.00     0.003 A 
ATOM      7  C6  UNL d   1       3.852  -3.477  -0.424  0.00  0.00    -0.001 A 
ENDROOT
TORSDOF 0
ENDMDL
