MODEL 1
REMARK minimizedAffinity 0.760880351
REMARK minimizedRMSD -1
REMARK  0 active torsions:
REMARK  status: ('A' for Active; 'I' for Inactive)
ROOT
ATOM      1  C   UNL d   1      -1.880   0.598  -0.254  0.00  0.00     0.078 C 
ATOM      2  C1  UNL d   1      -1.591  -0.327   0.890  0.00  0.00    -0.077 A 
ATOM      3  C2  UNL d   1      -0.650   0.011   1.871  0.00  0.00    -0.001 A 
ATOM      4  C3  UNL d   1      -0.383  -0.864   2.925  0.00  0.00     0.003 A 
ATOM      5  C4  UNL d   1      -1.052  -2.083   3.008  0.00  0.00    -0.005 A 
ATOM      6  C5  UNL d   1      -1.988  -2.430   2.036  0.00  0.00     0.003 A 
ATOM      7  C6  UNL d   1      -2.256  -1.556   0.981  0.00  0.00    -0.001 A 
ENDROOT
TORSDOF 0
ENDMDL
