MODEL 1
REMARK minimizedAffinity -3.47404528
REMARK minimizedRMSD -1
REMARK  0 active torsions:
REMARK  status: ('A' for Active; 'I' for Inactive)
ROOT
ATOM      1  C   UNL d   1       0.401  -1.672   2.718  0.00  0.00     0.078 C 
ATOM      2  C1  UNL d   1      -0.052  -1.161   1.383  0.00  0.00    -0.077 A 
ATOM      3  C2  UNL d   1      -1.331  -0.616   1.215  0.00  0.00    -0.001 A 
ATOM      4  C3  UNL d   1      -1.742  -0.153  -0.036  0.00  0.00     0.003 A 
ATOM      5  C4  UNL d   1      -0.881  -0.231  -1.129  0.00  0.00    -0.005 A 
ATOM      6  C5  UNL d   1       0.393  -0.773  -0.972  0.00  0.00     0.003 A 
ATOM      7  C6  UNL d   1       0.806  -1.237   0.278  0.00  0.00    -0.001 A 
ENDROOT
TORSDOF 0
ENDMDL
