MODEL 1
REMARK minimizedAffinity 0.121010698
REMARK minimizedRMSD -1
REMARK  0 active torsions:
REMARK  status: ('A' for Active; 'I' for Inactive)
ROOT
ATOM      1  C   UNL d   1       0.487  -4.838   2.396  0.00  0.00     0.078 C 
ATOM      2  C1  UNL d   1       1.707  -4.795   1.525  0.00  0.00    -0.077 A 
ATOM      3  C2  UNL d   1       2.030  -3.646   0.793  0.00  0.00    -0.001 A 
ATOM      4  C3  UNL d   1       3.163  -3.623  -0.021  0.00  0.00     0.003 A 
ATOM      5  C4  UNL d   1       3.983  -4.746  -0.111  0.00  0.00    -0.005 A 
ATOM      6  C5  UNL d   1       3.669  -5.895   0.612  0.00  0.00     0.003 A 
ATOM      7  C6  UNL d   1       2.536  -5.920   1.427  0.00  0.00    -0.001 A 
ENDROOT
TORSDOF 0
ENDMDL
