MODEL 1
REMARK minimizedAffinity 2.12178969
REMARK minimizedRMSD -1
REMARK  0 active torsions:
REMARK  status: ('A' for Active; 'I' for Inactive)
ROOT
ATOM      1  C   UNL d   1      -1.870  -3.521   3.817  0.00  0.00     0.078 C 
ATOM      2  C1  UNL d   1      -1.587  -2.298   2.996  0.00  0.00    -0.077 A 
ATOM      3  C2  UNL d   1      -2.408  -1.947   1.918  0.00  0.00    -0.001 A 
ATOM      4  C3  UNL d   1      -2.127  -0.812   1.157  0.00  0.00     0.003 A 
ATOM      5  C4  UNL d   1      -1.024  -0.018   1.465  0.00  0.00    -0.005 A 
ATOM      6  C5  UNL d   1      -0.199  -0.361   2.534  0.00  0.00     0.003 A 
ATOM      7  C6  UNL d   1      -0.479  -1.496   3.297  0.00  0.00    -0.001 A 
ENDROOT
TORSDOF 0
ENDMDL
