MODEL 1
REMARK minimizedAffinity 4.26569128
REMARK minimizedRMSD -1
REMARK  0 active torsions:
REMARK  status: ('A' for Active; 'I' for Inactive)
ROOT
ATOM      1  C   UNL d   1      -3.891  -0.144   1.184  0.00  0.00     0.078 C 
ATOM      2  C1  UNL d   1      -2.441  -0.403   0.900  0.00  0.00    -0.077 A 
ATOM      3  C2  UNL d   1      -1.558  -0.761   1.925  0.00  0.00    -0.001 A 
ATOM      4  C3  UNL d   1      -0.209  -0.989   1.648  0.00  0.00     0.003 A 
ATOM      5  C4  UNL d   1       0.269  -0.860   0.345  0.00  0.00    -0.005 A 
ATOM      6  C5  UNL d   1      -0.603  -0.502  -0.682  0.00  0.00     0.003 A 
ATOM      7  C6  UNL d   1      -1.952  -0.273  -0.406  0.00  0.00    -0.001 A 
ENDROOT
TORSDOF 0
ENDMDL
