MODEL 1
REMARK minimizedAffinity 3.04612732
REMARK minimizedRMSD -1
REMARK  0 active torsions:
REMARK  status: ('A' for Active; 'I' for Inactive)
ROOT
ATOM      1  C   UNL d   1       0.478  -0.927   0.279  0.00  0.00     0.078 C 
ATOM      2  C1  UNL d   1      -0.877  -0.562   0.807  0.00  0.00    -0.077 A 
ATOM      3  C2  UNL d   1      -2.031  -0.777   0.043  0.00  0.00    -0.001 A 
ATOM      4  C3  UNL d   1      -3.285  -0.423   0.544  0.00  0.00     0.003 A 
ATOM      5  C4  UNL d   1      -3.397   0.148   1.810  0.00  0.00    -0.005 A 
ATOM      6  C5  UNL d   1      -2.254   0.367   2.577  0.00  0.00     0.003 A 
ATOM      7  C6  UNL d   1      -0.999   0.014   2.078  0.00  0.00    -0.001 A 
ENDROOT
TORSDOF 0
ENDMDL
