MODEL 1
REMARK minimizedAffinity 12.5670204
REMARK minimizedRMSD -1
REMARK  1 active torsions:
REMARK  status: ('A' for Active; 'I' for Inactive)
REMARK    1  A    between atoms: N_2  and  C1_3 
ROOT
ATOM      1  C1  UNL d   1       5.425   2.634  -2.030  0.00  0.00     0.143 A 
ATOM      2  C2  UNL d   1       5.899   2.596  -0.714  0.00  0.00    -0.057 A 
ATOM      3  C3  UNL d   1       5.221   1.881   0.281  0.00  0.00     0.033 A 
ATOM      4  C4  UNL d   1       4.038   1.214  -0.017  0.00  0.00    -0.042 A 
ATOM      5  C5  UNL d   1       3.535   1.259  -1.312  0.00  0.00     0.033 A 
ATOM      6  C6  UNL d   1       4.220   1.969  -2.303  0.00  0.00    -0.057 A 
ENDROOT
BRANCH   1   7
ATOM      7  N   UNL d   1       6.000   3.408  -3.041  0.00  0.00    -0.732 N 
ATOM      8  C   UNL d   1       5.874   4.849  -3.028  0.00  0.00     0.284 C 
ATOM      9  H3  UNL d   1       6.922   3.073  -3.309  0.00  0.00     0.395 HD
ENDBRANCH   1   7
TORSDOF 1
ENDMDL
