MODEL 1
REMARK minimizedAffinity 15.1071243
REMARK minimizedRMSD -1
REMARK  1 active torsions:
REMARK  status: ('A' for Active; 'I' for Inactive)
REMARK    1  A    between atoms: N_2  and  C1_3 
ROOT
ATOM      1  C1  UNL d   1       0.008   3.160   3.349  0.00  0.00     0.143 A 
ATOM      2  C2  UNL d   1       0.551   4.223   2.619  0.00  0.00    -0.057 A 
ATOM      3  C3  UNL d   1      -0.014   4.632   1.405  0.00  0.00     0.033 A 
ATOM      4  C4  UNL d   1      -1.117   3.964   0.884  0.00  0.00    -0.042 A 
ATOM      5  C5  UNL d   1      -1.658   2.889   1.580  0.00  0.00     0.033 A 
ATOM      6  C6  UNL d   1      -1.094   2.490   2.796  0.00  0.00    -0.057 A 
ENDROOT
BRANCH   1   7
ATOM      7  N   UNL d   1       0.583   2.643   4.513  0.00  0.00    -0.732 N 
ATOM      8  C   UNL d   1       1.733   1.768   4.441  0.00  0.00     0.284 C 
ATOM      9  H3  UNL d   1       0.630   3.330   5.262  0.00  0.00     0.395 HD
ENDBRANCH   1   7
TORSDOF 1
ENDMDL
