MODEL 1
REMARK minimizedAffinity 5.02537346
REMARK minimizedRMSD -1
REMARK  1 active torsions:
REMARK  status: ('A' for Active; 'I' for Inactive)
REMARK    1  A    between atoms: N_2  and  C1_3 
ROOT
ATOM      1  C1  UNL d   1       3.627   0.893  -0.983  0.00  0.00     0.143 A 
ATOM      2  C2  UNL d   1       2.473   0.103  -1.015  0.00  0.00    -0.057 A 
ATOM      3  C3  UNL d   1       1.811  -0.264   0.163  0.00  0.00     0.033 A 
ATOM      4  C4  UNL d   1       2.311   0.129   1.400  0.00  0.00    -0.042 A 
ATOM      5  C5  UNL d   1       3.471   0.894   1.457  0.00  0.00     0.033 A 
ATOM      6  C6  UNL d   1       4.123   1.263   0.277  0.00  0.00    -0.057 A 
ENDROOT
BRANCH   1   7
ATOM      7  N   UNL d   1       4.385   1.209  -2.113  0.00  0.00    -0.732 N 
ATOM      8  C   UNL d   1       5.629   1.937  -1.986  0.00  0.00     0.284 C 
ATOM      9  H3  UNL d   1       4.417   0.446  -2.785  0.00  0.00     0.395 HD
ENDBRANCH   1   7
TORSDOF 1
ENDMDL
