MODEL 1
REMARK minimizedAffinity 11.2504015
REMARK minimizedRMSD -1
REMARK  1 active torsions:
REMARK  status: ('A' for Active; 'I' for Inactive)
REMARK    1  A    between atoms: N_2  and  C1_3 
ROOT
ATOM      1  C1  UNL d   1       0.590   3.586   2.652  0.00  0.00     0.143 A 
ATOM      2  C2  UNL d   1      -0.015   3.076   3.805  0.00  0.00    -0.057 A 
ATOM      3  C3  UNL d   1       0.679   2.223   4.673  0.00  0.00     0.033 A 
ATOM      4  C4  UNL d   1       1.985   1.841   4.385  0.00  0.00    -0.042 A 
ATOM      5  C5  UNL d   1       2.598   2.316   3.231  0.00  0.00     0.033 A 
ATOM      6  C6  UNL d   1       1.902   3.173   2.372  0.00  0.00    -0.057 A 
ENDROOT
BRANCH   1   7
ATOM      7  N   UNL d   1      -0.079   4.359   1.699  0.00  0.00    -0.732 N 
ATOM      8  C   UNL d   1      -0.441   5.730   1.985  0.00  0.00     0.284 C 
ATOM      9  H3  UNL d   1       0.278   4.210   0.758  0.00  0.00     0.395 HD
ENDBRANCH   1   7
TORSDOF 1
ENDMDL
