MODEL 1
REMARK minimizedAffinity 9.48554611
REMARK minimizedRMSD -1
REMARK  0 active torsions:
REMARK  status: ('A' for Active; 'I' for Inactive)
ROOT
ATOM      1  C2' OXE d   1      -5.269   2.888  -5.326  0.00  0.00     0.078 C 
ATOM      2  C1' OXE d   1      -3.986   0.691  -4.140  0.00  0.00     0.078 C 
ATOM      3  C1  OXE d   1      -4.698   1.664  -3.233  0.00  0.00    -0.078 A 
ATOM      4  C2  OXE d   1      -5.284   2.761  -3.818  0.00  0.00    -0.078 A 
ATOM      5  C3  OXE d   1      -6.000   3.660  -3.034  0.00  0.00     0.003 A 
ATOM      6  C4  OXE d   1      -6.000   3.541  -1.639  0.00  0.00    -0.002 A 
ATOM      7  C5  OXE d   1      -5.376   2.453  -1.020  0.00  0.00    -0.002 A 
ATOM      8  C6  OXE d   1      -4.759   1.484  -1.804  0.00  0.00     0.003 A 
ENDROOT
TORSDOF 0
ENDMDL
