MODEL 1
REMARK minimizedAffinity 7.85484219
REMARK minimizedRMSD -1
REMARK  0 active torsions:
REMARK  status: ('A' for Active; 'I' for Inactive)
ROOT
ATOM      1  C2' OXE d   1       1.916  -4.179   2.098  0.00  0.00     0.078 C 
ATOM      2  C1' OXE d   1       1.729  -1.409   2.513  0.00  0.00     0.078 C 
ATOM      3  C1  OXE d   1       2.175  -2.265   3.672  0.00  0.00    -0.078 A 
ATOM      4  C2  OXE d   1       2.219  -3.624   3.473  0.00  0.00    -0.078 A 
ATOM      5  C3  OXE d   1       2.677  -4.455   4.492  0.00  0.00     0.003 A 
ATOM      6  C4  OXE d   1       2.945  -3.935   5.764  0.00  0.00    -0.002 A 
ATOM      7  C5  OXE d   1       2.869  -2.558   5.999  0.00  0.00    -0.002 A 
ATOM      8  C6  OXE d   1       2.527  -1.707   4.954  0.00  0.00     0.003 A 
ENDROOT
TORSDOF 0
ENDMDL
