MODEL 1
REMARK minimizedAffinity 4.24807453
REMARK minimizedRMSD -1
REMARK  0 active torsions:
REMARK  status: ('A' for Active; 'I' for Inactive)
ROOT
ATOM      1  C2' OXE d   1      -5.999   3.805  -0.845  0.00  0.00     0.078 C 
ATOM      2  C1' OXE d   1      -3.942   1.911  -0.600  0.00  0.00     0.078 C 
ATOM      3  C1  OXE d   1      -4.472   2.199  -1.982  0.00  0.00    -0.078 A 
ATOM      4  C2  OXE d   1      -5.510   3.093  -2.088  0.00  0.00    -0.078 A 
ATOM      5  C3  OXE d   1      -6.000   3.435  -3.345  0.00  0.00     0.003 A 
ATOM      6  C4  OXE d   1      -5.549   2.765  -4.488  0.00  0.00    -0.002 A 
ATOM      7  C5  OXE d   1      -4.519   1.822  -4.399  0.00  0.00    -0.002 A 
ATOM      8  C6  OXE d   1      -3.942   1.559  -3.161  0.00  0.00     0.003 A 
ENDROOT
TORSDOF 0
ENDMDL
