MODEL 1
REMARK minimizedAffinity 4.56325865
REMARK minimizedRMSD -1
REMARK  0 active torsions:
REMARK  status: ('A' for Active; 'I' for Inactive)
ROOT
ATOM      1  C2' OXE d   1       3.018   0.699   1.055  0.00  0.00     0.078 C 
ATOM      2  C1' OXE d   1       0.428  -0.204   1.653  0.00  0.00     0.078 C 
ATOM      3  C1  OXE d   1       1.587  -0.893   2.329  0.00  0.00    -0.078 A 
ATOM      4  C2  OXE d   1       2.853  -0.475   1.995  0.00  0.00    -0.078 A 
ATOM      5  C3  OXE d   1       3.955  -1.040   2.631  0.00  0.00     0.003 A 
ATOM      6  C4  OXE d   1       3.795  -2.132   3.491  0.00  0.00    -0.002 A 
ATOM      7  C5  OXE d   1       2.516  -2.599   3.815  0.00  0.00    -0.002 A 
ATOM      8  C6  OXE d   1       1.403  -1.965   3.276  0.00  0.00     0.003 A 
ENDROOT
TORSDOF 0
ENDMDL
