MODEL 1
REMARK minimizedAffinity 8.65348339
REMARK minimizedRMSD -1
REMARK  0 active torsions:
REMARK  status: ('A' for Active; 'I' for Inactive)
ROOT
ATOM      1  C2' OXE d   1       2.478   2.210   1.047  0.00  0.00     0.078 C 
ATOM      2  C1' OXE d   1       2.319   2.602   3.823  0.00  0.00     0.078 C 
ATOM      3  C1  OXE d   1       2.245   1.186   3.306  0.00  0.00    -0.078 A 
ATOM      4  C2  OXE d   1       2.276   1.008   1.944  0.00  0.00    -0.078 A 
ATOM      5  C3  OXE d   1       2.266  -0.281   1.417  0.00  0.00     0.003 A 
ATOM      6  C4  OXE d   1       2.070  -1.387   2.253  0.00  0.00    -0.002 A 
ATOM      7  C5  OXE d   1       1.995  -1.224   3.641  0.00  0.00    -0.002 A 
ATOM      8  C6  OXE d   1       2.123   0.049   4.185  0.00  0.00     0.003 A 
ENDROOT
TORSDOF 0
ENDMDL
