MODEL 1
REMARK minimizedAffinity 5.06005859
REMARK minimizedRMSD -1
REMARK  0 active torsions:
REMARK  status: ('A' for Active; 'I' for Inactive)
ROOT
ATOM      1  C2' OXE d   1      -3.369   2.523  -0.022  0.00  0.00     0.078 C 
ATOM      2  C1' OXE d   1      -6.000   3.481  -0.217  0.00  0.00     0.078 C 
ATOM      3  C1  OXE d   1      -5.329   3.004  -1.481  0.00  0.00    -0.078 A 
ATOM      4  C2  OXE d   1      -4.025   2.581  -1.384  0.00  0.00    -0.078 A 
ATOM      5  C3  OXE d   1      -3.378   2.080  -2.510  0.00  0.00     0.003 A 
ATOM      6  C4  OXE d   1      -3.989   2.147  -3.768  0.00  0.00    -0.002 A 
ATOM      7  C5  OXE d   1      -5.302   2.611  -3.895  0.00  0.00    -0.002 A 
ATOM      8  C6  OXE d   1      -6.000   3.003  -2.758  0.00  0.00     0.003 A 
ENDROOT
TORSDOF 0
ENDMDL
