MODEL 1
REMARK minimizedAffinity 8.80134869
REMARK minimizedRMSD -1
REMARK  0 active torsions:
REMARK  status: ('A' for Active; 'I' for Inactive)
ROOT
ATOM      1  C2' OXE d   1       0.280  -0.351   1.255  0.00  0.00     0.078 C 
ATOM      2  C1' OXE d   1       2.681   1.102   1.342  0.00  0.00     0.078 C 
ATOM      3  C1  OXE d   1       2.599  -0.171   2.147  0.00  0.00    -0.078 A 
ATOM      4  C2  OXE d   1       1.405  -0.851   2.135  0.00  0.00    -0.078 A 
ATOM      5  C3  OXE d   1       1.293  -2.060   2.817  0.00  0.00     0.003 A 
ATOM      6  C4  OXE d   1       2.335  -2.510   3.637  0.00  0.00    -0.002 A 
ATOM      7  C5  OXE d   1       3.546  -1.812   3.694  0.00  0.00    -0.002 A 
ATOM      8  C6  OXE d   1       3.709  -0.666   2.923  0.00  0.00     0.003 A 
ENDROOT
TORSDOF 0
ENDMDL
