MODEL 1
REMARK minimizedAffinity 6.00455618
REMARK minimizedRMSD -1
REMARK  0 active torsions:
REMARK  status: ('A' for Active; 'I' for Inactive)
ROOT
ATOM      1  C2' OXE d   1       3.155  -0.359   0.374  0.00  0.00     0.078 C 
ATOM      2  C1' OXE d   1       2.421   1.808   2.000  0.00  0.00     0.078 C 
ATOM      3  C1  OXE d   1       2.334   0.423   2.592  0.00  0.00    -0.078 A 
ATOM      4  C2  OXE d   1       2.651  -0.635   1.774  0.00  0.00    -0.078 A 
ATOM      5  C3  OXE d   1       2.640  -1.929   2.286  0.00  0.00     0.003 A 
ATOM      6  C4  OXE d   1       2.162  -2.176   3.579  0.00  0.00    -0.002 A 
ATOM      7  C5  OXE d   1       1.797  -1.116   4.415  0.00  0.00    -0.002 A 
ATOM      8  C6  OXE d   1       1.917   0.190   3.952  0.00  0.00     0.003 A 
ENDROOT
TORSDOF 0
ENDMDL
