MODEL 1
REMARK minimizedAffinity 10.1796455
REMARK minimizedRMSD -1
REMARK  0 active torsions:
REMARK  status: ('A' for Active; 'I' for Inactive)
ROOT
ATOM      1  C2' OXE d   1       3.169  -0.024  -0.058  0.00  0.00     0.078 C 
ATOM      2  C1' OXE d   1       2.290   2.318   1.214  0.00  0.00     0.078 C 
ATOM      3  C1  OXE d   1       2.488   1.088   2.064  0.00  0.00    -0.078 A 
ATOM      4  C2  OXE d   1       2.873  -0.066   1.425  0.00  0.00    -0.078 A 
ATOM      5  C3  OXE d   1       3.123  -1.215   2.170  0.00  0.00     0.003 A 
ATOM      6  C4  OXE d   1       2.837  -1.248   3.540  0.00  0.00    -0.002 A 
ATOM      7  C5  OXE d   1       2.405  -0.095   4.203  0.00  0.00    -0.002 A 
ATOM      8  C6  OXE d   1       2.267   1.090   3.489  0.00  0.00     0.003 A 
ENDROOT
TORSDOF 0
ENDMDL
