MODEL 1
REMARK minimizedAffinity 7.17191172
REMARK minimizedRMSD -1
REMARK  0 active torsions:
REMARK  status: ('A' for Active; 'I' for Inactive)
ROOT
ATOM      1  C2' OXE d   1       1.680  -0.634   2.254  0.00  0.00     0.078 C 
ATOM      2  C1' OXE d   1       3.727   0.115   0.485  0.00  0.00     0.078 C 
ATOM      3  C1  OXE d   1       2.635   1.118   0.762  0.00  0.00    -0.078 A 
ATOM      4  C2  OXE d   1       1.613   0.726   1.592  0.00  0.00    -0.078 A 
ATOM      5  C3  OXE d   1       0.608   1.630   1.923  0.00  0.00     0.003 A 
ATOM      6  C4  OXE d   1       0.547   2.882   1.299  0.00  0.00    -0.002 A 
ATOM      7  C5  OXE d   1       1.557   3.287   0.420  0.00  0.00    -0.002 A 
ATOM      8  C6  OXE d   1       2.628   2.435   0.174  0.00  0.00     0.003 A 
ENDROOT
TORSDOF 0
ENDMDL
