MODEL 1
REMARK minimizedAffinity 8.9921999
REMARK minimizedRMSD -1
REMARK  0 active torsions:
REMARK  status: ('A' for Active; 'I' for Inactive)
ROOT
ATOM      1  C   UNL d   1      -0.240   0.157   2.125  0.00  0.00     0.023 A 
ATOM      2  C1  UNL d   1      -0.826  -1.063   1.787  0.00  0.00     0.003 A 
ATOM      3  C2  UNL d   1      -0.083  -2.032   1.111  0.00  0.00     0.048 A 
ATOM      4  C3  UNL d   1       1.247  -1.776   0.778  0.00  0.00     0.023 A 
ATOM      5  C4  UNL d   1       1.838  -0.558   1.115  0.00  0.00     0.048 A 
ATOM      6  C5  UNL d   1       1.090   0.409   1.790  0.00  0.00     0.003 A 
ATOM      7  I   UNL d   1       2.356  -3.218  -0.228  0.00  0.00    -0.146 I 
ENDROOT
TORSDOF 0
ENDMDL
