MODEL 1
REMARK minimizedAffinity 1.24659836
REMARK minimizedRMSD -1
REMARK  0 active torsions:
REMARK  status: ('A' for Active; 'I' for Inactive)
ROOT
ATOM      1  C   UNL d   1       1.916  -2.790   0.711  0.00  0.00     0.023 A 
ATOM      2  C1  UNL d   1       1.665  -2.035  -0.435  0.00  0.00     0.003 A 
ATOM      3  C2  UNL d   1       0.535  -1.218  -0.501  0.00  0.00     0.048 A 
ATOM      4  C3  UNL d   1      -0.340  -1.160   0.584  0.00  0.00     0.023 A 
ATOM      5  C4  UNL d   1      -0.093  -1.913   1.732  0.00  0.00     0.048 A 
ATOM      6  C5  UNL d   1       1.038  -2.729   1.793  0.00  0.00     0.003 A 
ATOM      7  I   UNL d   1      -2.023   0.056   0.488  0.00  0.00    -0.146 I 
ENDROOT
TORSDOF 0
ENDMDL
