MODEL 1
REMARK minimizedAffinity 0.720650673
REMARK minimizedRMSD -1
REMARK  0 active torsions:
REMARK  status: ('A' for Active; 'I' for Inactive)
ROOT
ATOM      1  C   UNL d   1      -5.278   1.757   4.934  0.00  0.00     0.023 A 
ATOM      2  C1  UNL d   1      -3.984   2.020   4.485  0.00  0.00     0.003 A 
ATOM      3  C2  UNL d   1      -3.372   3.238   4.789  0.00  0.00     0.048 A 
ATOM      4  C3  UNL d   1      -4.059   4.187   5.544  0.00  0.00     0.023 A 
ATOM      5  C4  UNL d   1      -5.354   3.928   5.997  0.00  0.00     0.048 A 
ATOM      6  C5  UNL d   1      -5.962   2.709   5.689  0.00  0.00     0.003 A 
ATOM      7  I   UNL d   1      -3.150   6.000   5.999  0.00  0.00    -0.146 I 
ENDROOT
TORSDOF 0
ENDMDL
