MODEL 1
REMARK minimizedAffinity 2.45055842
REMARK minimizedRMSD -1
REMARK  0 active torsions:
REMARK  status: ('A' for Active; 'I' for Inactive)
ROOT
ATOM      1  C   UNL d   1       2.733  -3.421   0.211  0.00  0.00     0.023 A 
ATOM      2  C1  UNL d   1       2.388  -2.306  -0.554  0.00  0.00     0.003 A 
ATOM      3  C2  UNL d   1       1.359  -1.461  -0.133  0.00  0.00     0.048 A 
ATOM      4  C3  UNL d   1       0.681  -1.735   1.054  0.00  0.00     0.023 A 
ATOM      5  C4  UNL d   1       1.024  -2.849   1.823  0.00  0.00     0.048 A 
ATOM      6  C5  UNL d   1       2.052  -3.692   1.397  0.00  0.00     0.003 A 
ATOM      7  I   UNL d   1      -0.850  -0.478   1.683  0.00  0.00    -0.146 I 
ENDROOT
TORSDOF 0
ENDMDL
