MODEL 1
REMARK minimizedAffinity 4.15962076
REMARK minimizedRMSD -1
REMARK  0 active torsions:
REMARK  status: ('A' for Active; 'I' for Inactive)
ROOT
ATOM      1  C   UNL d   1      -4.446   4.085   5.769  0.00  0.00     0.023 A 
ATOM      2  C1  UNL d   1      -3.753   3.983   4.563  0.00  0.00     0.003 A 
ATOM      3  C2  UNL d   1      -4.180   3.082   3.586  0.00  0.00     0.048 A 
ATOM      4  C3  UNL d   1      -5.302   2.287   3.820  0.00  0.00     0.023 A 
ATOM      5  C4  UNL d   1      -5.999   2.387   5.025  0.00  0.00     0.048 A 
ATOM      6  C5  UNL d   1      -5.568   3.289   6.000  0.00  0.00     0.003 A 
ATOM      7  I   UNL d   1      -5.939   0.946   2.366  0.00  0.00    -0.146 I 
ENDROOT
TORSDOF 0
ENDMDL
