MODEL 1
REMARK minimizedAffinity 11.5859909
REMARK minimizedRMSD -1
REMARK  0 active torsions:
REMARK  status: ('A' for Active; 'I' for Inactive)
ROOT
ATOM      1  O1  BZF d   1       5.102  -1.527   2.211  0.00  0.00    -0.204 OA
ATOM      2  C2  BZF d   1       5.991  -2.279   2.956  0.00  0.00     0.174 A 
ATOM      3  C3  BZF d   1       5.406  -2.734   4.082  0.00  0.00    -0.012 A 
ATOM      4  C3A BZF d   1       4.042  -2.313   3.994  0.00  0.00    -0.107 A 
ATOM      5  C4  BZF d   1       2.955  -2.476   4.805  0.00  0.00     0.055 A 
ATOM      6  C5  BZF d   1       1.783  -1.878   4.466  0.00  0.00    -0.016 A 
ATOM      7  C6  BZF d   1       1.663  -1.106   3.329  0.00  0.00     0.022 A 
ATOM      8  C7  BZF d   1       2.712  -0.920   2.491  0.00  0.00     0.029 A 
ATOM      9  C7A BZF d   1       3.889  -1.550   2.813  0.00  0.00     0.058 A 
ENDROOT
TORSDOF 0
ENDMDL
