MODEL 1
REMARK minimizedAffinity 1.34328759
REMARK minimizedRMSD -1
REMARK  0 active torsions:
REMARK  status: ('A' for Active; 'I' for Inactive)
ROOT
ATOM      1  O1  BZF d   1       3.301  -1.402   2.673  0.00  0.00    -0.204 OA
ATOM      2  C2  BZF d   1       1.987  -1.453   3.096  0.00  0.00     0.174 A 
ATOM      3  C3  BZF d   1       1.908  -1.933   4.353  0.00  0.00    -0.012 A 
ATOM      4  C3A BZF d   1       3.263  -2.113   4.774  0.00  0.00    -0.107 A 
ATOM      5  C4  BZF d   1       3.836  -2.549   5.934  0.00  0.00     0.055 A 
ATOM      6  C5  BZF d   1       5.188  -2.677   5.996  0.00  0.00    -0.016 A 
ATOM      7  C6  BZF d   1       5.995  -2.382   4.917  0.00  0.00     0.022 A 
ATOM      8  C7  BZF d   1       5.473  -1.941   3.747  0.00  0.00     0.029 A 
ATOM      9  C7A BZF d   1       4.110  -1.780   3.692  0.00  0.00     0.058 A 
ENDROOT
TORSDOF 0
ENDMDL
