MODEL 1
REMARK minimizedAffinity 1.11473429
REMARK minimizedRMSD -1
REMARK  0 active torsions:
REMARK  status: ('A' for Active; 'I' for Inactive)
ROOT
ATOM      1  O1  BZF d   1       2.176  -1.015   4.668  0.00  0.00    -0.204 OA
ATOM      2  C2  BZF d   1       2.214  -0.336   3.465  0.00  0.00     0.174 A 
ATOM      3  C3  BZF d   1       3.461  -0.344   2.951  0.00  0.00    -0.012 A 
ATOM      4  C3A BZF d   1       4.232  -1.153   3.845  0.00  0.00    -0.107 A 
ATOM      5  C4  BZF d   1       5.539  -1.549   3.864  0.00  0.00     0.055 A 
ATOM      6  C5  BZF d   1       5.994  -2.277   4.917  0.00  0.00    -0.016 A 
ATOM      7  C6  BZF d   1       5.172  -2.622   5.970  0.00  0.00     0.022 A 
ATOM      8  C7  BZF d   1       3.867  -2.256   5.994  0.00  0.00     0.029 A 
ATOM      9  C7A BZF d   1       3.396  -1.548   4.916  0.00  0.00     0.058 A 
ENDROOT
TORSDOF 0
ENDMDL
