MODEL 1
REMARK minimizedAffinity 3.34651494
REMARK minimizedRMSD -1
REMARK  0 active torsions:
REMARK  status: ('A' for Active; 'I' for Inactive)
ROOT
ATOM      1  O1  BZF d   1       1.983  -1.942   4.525  0.00  0.00    -0.204 OA
ATOM      2  C2  BZF d   1       1.889  -1.396   3.260  0.00  0.00     0.174 A 
ATOM      3  C3  BZF d   1       3.113  -1.142   2.756  0.00  0.00    -0.012 A 
ATOM      4  C3A BZF d   1       4.033  -1.641   3.732  0.00  0.00    -0.107 A 
ATOM      5  C4  BZF d   1       5.396  -1.694   3.797  0.00  0.00     0.055 A 
ATOM      6  C5  BZF d   1       5.985  -2.178   4.921  0.00  0.00    -0.016 A 
ATOM      7  C6  BZF d   1       5.244  -2.613   6.000  0.00  0.00     0.022 A 
ATOM      8  C7  BZF d   1       3.889  -2.585   5.980  0.00  0.00     0.029 A 
ATOM      9  C7A BZF d   1       3.290  -2.126   4.832  0.00  0.00     0.058 A 
ENDROOT
TORSDOF 0
ENDMDL
