MODEL 1
REMARK minimizedAffinity 4.1491785
REMARK minimizedRMSD -1
REMARK  0 active torsions:
REMARK  status: ('A' for Active; 'I' for Inactive)
ROOT
ATOM      1  O1  BZF d   1       1.492  -1.131   2.366  0.00  0.00    -0.204 OA
ATOM      2  C2  BZF d   1       1.908  -1.588   3.602  0.00  0.00     0.174 A 
ATOM      3  C3  BZF d   1       2.746  -0.704   4.181  0.00  0.00    -0.012 A 
ATOM      4  C3A BZF d   1       2.788   0.415   3.290  0.00  0.00    -0.107 A 
ATOM      5  C4  BZF d   1       3.434   1.617   3.322  0.00  0.00     0.055 A 
ATOM      6  C5  BZF d   1       3.321   2.456   2.259  0.00  0.00    -0.016 A 
ATOM      7  C6  BZF d   1       2.576   2.123   1.147  0.00  0.00     0.022 A 
ATOM      8  C7  BZF d   1       1.912   0.944   1.071  0.00  0.00     0.029 A 
ATOM      9  C7A BZF d   1       1.998   0.108   2.158  0.00  0.00     0.058 A 
ENDROOT
TORSDOF 0
ENDMDL
