MODEL 1
REMARK minimizedAffinity 5.62011909
REMARK minimizedRMSD -1
REMARK  0 active torsions:
REMARK  status: ('A' for Active; 'I' for Inactive)
ROOT
ATOM      1  O1  BZF d   1       3.738  -2.383  -2.666  0.00  0.00    -0.204 OA
ATOM      2  C2  BZF d   1       3.084  -1.564  -1.766  0.00  0.00     0.174 A 
ATOM      3  C3  BZF d   1       2.443  -2.296  -0.831  0.00  0.00    -0.012 A 
ATOM      4  C3A BZF d   1       2.790  -3.655  -1.115  0.00  0.00    -0.107 A 
ATOM      5  C4  BZF d   1       2.475  -4.846  -0.526  0.00  0.00     0.055 A 
ATOM      6  C5  BZF d   1       2.917  -6.000  -1.092  0.00  0.00    -0.016 A 
ATOM      7  C6  BZF d   1       3.670  -5.999  -2.248  0.00  0.00     0.022 A 
ATOM      8  C7  BZF d   1       4.011  -4.842  -2.866  0.00  0.00     0.029 A 
ATOM      9  C7A BZF d   1       3.594  -3.673  -2.277  0.00  0.00     0.058 A 
ENDROOT
TORSDOF 0
ENDMDL
