MODEL 1
REMARK minimizedAffinity 5.10534143
REMARK minimizedRMSD -1
REMARK  0 active torsions:
REMARK  status: ('A' for Active; 'I' for Inactive)
ROOT
ATOM      1  O1  BZF d   1       1.065  -1.237   3.047  0.00  0.00    -0.204 OA
ATOM      2  C2  BZF d   1       1.551   0.002   2.675  0.00  0.00     0.174 A 
ATOM      3  C3  BZF d   1       2.873   0.092   2.928  0.00  0.00    -0.012 A 
ATOM      4  C3A BZF d   1       3.254  -1.201   3.408  0.00  0.00    -0.107 A 
ATOM      5  C4  BZF d   1       4.442  -1.740   3.811  0.00  0.00     0.055 A 
ATOM      6  C5  BZF d   1       4.461  -3.011   4.292  0.00  0.00    -0.016 A 
ATOM      7  C6  BZF d   1       3.311  -3.768   4.389  0.00  0.00     0.022 A 
ATOM      8  C7  BZF d   1       2.110  -3.278   3.996  0.00  0.00     0.029 A 
ATOM      9  C7A BZF d   1       2.093  -2.005   3.479  0.00  0.00     0.058 A 
ENDROOT
TORSDOF 0
ENDMDL
