MODEL 1
REMARK minimizedAffinity 15.9089527
REMARK minimizedRMSD -1
REMARK  0 active torsions:
REMARK  status: ('A' for Active; 'I' for Inactive)
ROOT
ATOM      1  O1  BZF d   1       2.211  -5.747   4.402  0.00  0.00    -0.204 OA
ATOM      2  C2  BZF d   1       1.157  -5.932   5.276  0.00  0.00     0.174 A 
ATOM      3  C3  BZF d   1       0.614  -4.749   5.629  0.00  0.00    -0.012 A 
ATOM      4  C3A BZF d   1       1.317  -3.768   4.860  0.00  0.00    -0.107 A 
ATOM      5  C4  BZF d   1       1.222  -2.410   4.759  0.00  0.00     0.055 A 
ATOM      6  C5  BZF d   1       2.106  -1.743   3.971  0.00  0.00    -0.016 A 
ATOM      7  C6  BZF d   1       3.099  -2.401   3.275  0.00  0.00     0.022 A 
ATOM      8  C7  BZF d   1       3.230  -3.748   3.341  0.00  0.00     0.029 A 
ATOM      9  C7A BZF d   1       2.318  -4.429   4.110  0.00  0.00     0.058 A 
ENDROOT
TORSDOF 0
ENDMDL
