MODEL 1
REMARK minimizedAffinity 4.24669981
REMARK minimizedRMSD -1
REMARK  0 active torsions:
REMARK  status: ('A' for Active; 'I' for Inactive)
ROOT
ATOM      1  O1  BZF d   1       1.558  -1.534   4.869  0.00  0.00    -0.204 OA
ATOM      2  C2  BZF d   1       2.882  -1.228   4.623  0.00  0.00     0.174 A 
ATOM      3  C3  BZF d   1       3.677  -2.280   4.902  0.00  0.00    -0.012 A 
ATOM      4  C3A BZF d   1       2.786  -3.340   5.264  0.00  0.00    -0.107 A 
ATOM      5  C4  BZF d   1       2.975  -4.641   5.632  0.00  0.00     0.055 A 
ATOM      6  C5  BZF d   1       1.898  -5.389   5.992  0.00  0.00    -0.016 A 
ATOM      7  C6  BZF d   1       0.622  -4.866   6.000  0.00  0.00     0.022 A 
ATOM      8  C7  BZF d   1       0.384  -3.582   5.638  0.00  0.00     0.029 A 
ATOM      9  C7A BZF d   1       1.466  -2.833   5.242  0.00  0.00     0.058 A 
ENDROOT
TORSDOF 0
ENDMDL
