MODEL 1
REMARK minimizedAffinity 2.09769106
REMARK minimizedRMSD -1
REMARK  0 active torsions:
REMARK  status: ('A' for Active; 'I' for Inactive)
ROOT
ATOM      1  O1  BZF d   1       4.718  -2.575   5.998  0.00  0.00    -0.204 OA
ATOM      2  C2  BZF d   1       5.973  -2.485   5.427  0.00  0.00     0.174 A 
ATOM      3  C3  BZF d   1       5.880  -2.299   4.095  0.00  0.00    -0.012 A 
ATOM      4  C3A BZF d   1       4.480  -2.179   3.828  0.00  0.00    -0.107 A 
ATOM      5  C4  BZF d   1       3.756  -1.966   2.690  0.00  0.00     0.055 A 
ATOM      6  C5  BZF d   1       2.398  -1.974   2.760  0.00  0.00    -0.016 A 
ATOM      7  C6  BZF d   1       1.734  -2.197   3.948  0.00  0.00     0.022 A 
ATOM      8  C7  BZF d   1       2.409  -2.407   5.104  0.00  0.00     0.029 A 
ATOM      9  C7A BZF d   1       3.781  -2.367   5.043  0.00  0.00     0.058 A 
ENDROOT
TORSDOF 0
ENDMDL
