MODEL 1
REMARK minimizedAffinity 11.2772913
REMARK minimizedRMSD -1
REMARK  0 active torsions:
REMARK  status: ('A' for Active; 'I' for Inactive)
ROOT
ATOM      1  O1  BZF d   1       1.928  -3.231  -0.352  0.00  0.00    -0.204 OA
ATOM      2  C2  BZF d   1       1.462  -2.210  -1.157  0.00  0.00     0.174 A 
ATOM      3  C3  BZF d   1       1.335  -1.066  -0.454  0.00  0.00    -0.012 A 
ATOM      4  C3A BZF d   1       1.837  -1.370   0.852  0.00  0.00    -0.107 A 
ATOM      5  C4  BZF d   1       1.988  -0.636   1.993  0.00  0.00     0.055 A 
ATOM      6  C5  BZF d   1       2.440  -1.250   3.118  0.00  0.00    -0.016 A 
ATOM      7  C6  BZF d   1       2.745  -2.595   3.139  0.00  0.00     0.022 A 
ATOM      8  C7  BZF d   1       2.615  -3.363   2.030  0.00  0.00     0.029 A 
ATOM      9  C7A BZF d   1       2.190  -2.739   0.883  0.00  0.00     0.058 A 
ENDROOT
TORSDOF 0
ENDMDL
