MODEL 1
REMARK minimizedAffinity -2.56751513
REMARK minimizedRMSD -1
REMARK  0 active torsions:
REMARK  status: ('A' for Active; 'I' for Inactive)
ROOT
ATOM      1  N1  IND d   1      -0.674   2.012   2.413  0.00  0.00    -0.196 N 
ATOM      2  C2  IND d   1       0.404   2.635   1.849  0.00  0.00     0.054 A 
ATOM      3  C3  IND d   1       0.865   1.919   0.799  0.00  0.00    -0.031 A 
ATOM      4  C4  IND d   1      -0.059  -0.251  -0.233  0.00  0.00     0.051 A 
ATOM      5  C5  IND d   1      -1.009  -1.215  -0.043  0.00  0.00    -0.031 A 
ATOM      6  C6  IND d   1      -1.915  -1.150   0.996  0.00  0.00     0.015 A 
ATOM      7  C7  IND d   1      -1.913  -0.108   1.879  0.00  0.00    -0.016 A 
ATOM      8  C8  IND d   1      -0.946   0.870   1.693  0.00  0.00    -0.047 A 
ATOM      9  C9  IND d   1       0.004   0.787   0.666  0.00  0.00    -0.096 A 
ATOM     10  HN1 IND d   1      -1.109   2.288   3.101  0.00  0.00     0.298 HD
ENDROOT
TORSDOF 0
ENDMDL
