MODEL 1
REMARK minimizedAffinity -2.5224793
REMARK minimizedRMSD -1
REMARK  0 active torsions:
REMARK  status: ('A' for Active; 'I' for Inactive)
ROOT
ATOM      1  N1  IND d   1       1.881   1.325  -2.877  0.00  0.00    -0.196 N 
ATOM      2  C2  IND d   1       1.451   0.814  -1.684  0.00  0.00     0.054 A 
ATOM      3  C3  IND d   1       0.390  -0.001  -1.876  0.00  0.00    -0.031 A 
ATOM      4  C4  IND d   1      -0.743  -0.720  -4.073  0.00  0.00     0.051 A 
ATOM      5  C5  IND d   1      -0.727  -0.488  -5.420  0.00  0.00    -0.031 A 
ATOM      6  C6  IND d   1       0.179   0.376  -6.000  0.00  0.00     0.015 A 
ATOM      7  C7  IND d   1       1.115   1.034  -5.253  0.00  0.00    -0.016 A 
ATOM      8  C8  IND d   1       1.097   0.806  -3.884  0.00  0.00    -0.047 A 
ATOM      9  C9  IND d   1       0.152  -0.037  -3.285  0.00  0.00    -0.096 A 
ATOM     10  HN1 IND d   1       2.532   1.877  -2.981  0.00  0.00     0.298 HD
ENDROOT
TORSDOF 0
ENDMDL
