MODEL 1
REMARK minimizedAffinity 2.82035375
REMARK minimizedRMSD -1
REMARK  0 active torsions:
REMARK  status: ('A' for Active; 'I' for Inactive)
ROOT
ATOM      1  N1  IND d   1      -2.330  -1.561   2.022  0.00  0.00    -0.196 N 
ATOM      2  C2  IND d   1      -2.738  -1.588   3.326  0.00  0.00     0.054 A 
ATOM      3  C3  IND d   1      -2.371  -0.450   3.957  0.00  0.00    -0.031 A 
ATOM      4  C4  IND d   1      -1.185   1.633   3.017  0.00  0.00     0.051 A 
ATOM      5  C5  IND d   1      -0.584   2.111   1.887  0.00  0.00    -0.031 A 
ATOM      6  C6  IND d   1      -0.535   1.377   0.720  0.00  0.00     0.015 A 
ATOM      7  C7  IND d   1      -1.098   0.135   0.636  0.00  0.00    -0.016 A 
ATOM      8  C8  IND d   1      -1.704  -0.357   1.783  0.00  0.00    -0.047 A 
ATOM      9  C9  IND d   1      -1.719   0.366   2.983  0.00  0.00    -0.096 A 
ATOM     10  HN1 IND d   1      -2.445  -2.190   1.447  0.00  0.00     0.298 HD
ENDROOT
TORSDOF 0
ENDMDL
