MODEL 1
REMARK minimizedAffinity -1.48207545
REMARK minimizedRMSD -1
REMARK  0 active torsions:
REMARK  status: ('A' for Active; 'I' for Inactive)
ROOT
ATOM      1  N1  IND d   1      -0.040  -0.551  -0.268  0.00  0.00    -0.196 N 
ATOM      2  C2  IND d   1       1.231  -0.083  -0.454  0.00  0.00     0.054 A 
ATOM      3  C3  IND d   1       1.560   0.787   0.528  0.00  0.00    -0.031 A 
ATOM      4  C4  IND d   1       0.205   1.510   2.594  0.00  0.00     0.051 A 
ATOM      5  C5  IND d   1      -1.025   1.379   3.175  0.00  0.00    -0.031 A 
ATOM      6  C6  IND d   1      -2.009   0.580   2.629  0.00  0.00     0.015 A 
ATOM      7  C7  IND d   1      -1.794  -0.130   1.482  0.00  0.00    -0.016 A 
ATOM      8  C8  IND d   1      -0.548   0.006   0.885  0.00  0.00    -0.047 A 
ATOM      9  C9  IND d   1       0.439   0.849   1.411  0.00  0.00    -0.096 A 
ATOM     10  HN1 IND d   1      -0.453  -1.100  -0.785  0.00  0.00     0.298 HD
ENDROOT
TORSDOF 0
ENDMDL
