MODEL 1
REMARK minimizedAffinity 2.17511868
REMARK minimizedRMSD -1
REMARK  0 active torsions:
REMARK  status: ('A' for Active; 'I' for Inactive)
ROOT
ATOM      1  N1  IND d   1      -0.370  -0.091  -6.000  0.00  0.00    -0.196 N 
ATOM      2  C2  IND d   1      -1.471  -0.726  -5.497  0.00  0.00     0.054 A 
ATOM      3  C3  IND d   1      -1.424  -0.751  -4.147  0.00  0.00    -0.031 A 
ATOM      4  C4  IND d   1       0.315   0.278  -2.551  0.00  0.00     0.051 A 
ATOM      5  C5  IND d   1       1.518   0.925  -2.542  0.00  0.00    -0.031 A 
ATOM      6  C6  IND d   1       2.166   1.276  -3.709  0.00  0.00     0.015 A 
ATOM      7  C7  IND d   1       1.626   1.002  -4.934  0.00  0.00    -0.016 A 
ATOM      8  C8  IND d   1       0.407   0.338  -4.947  0.00  0.00    -0.047 A 
ATOM      9  C9  IND d   1      -0.234  -0.058  -3.766  0.00  0.00    -0.096 A 
ATOM     10  HN1 IND d   1      -0.193   0.021  -6.834  0.00  0.00     0.298 HD
ENDROOT
TORSDOF 0
ENDMDL
