MODEL 1
REMARK minimizedAffinity -3.5187068
REMARK minimizedRMSD -1
REMARK  0 active torsions:
REMARK  status: ('A' for Active; 'I' for Inactive)
ROOT
ATOM      1  N1  IND d   1      -1.580   1.024   1.364  0.00  0.00    -0.196 N 
ATOM      2  C2  IND d   1      -1.235   1.607   2.551  0.00  0.00     0.054 A 
ATOM      3  C3  IND d   1       0.020   1.248   2.904  0.00  0.00    -0.031 A 
ATOM      4  C4  IND d   1       1.725  -0.203   1.632  0.00  0.00     0.051 A 
ATOM      5  C5  IND d   1       1.855  -0.986   0.520  0.00  0.00    -0.031 A 
ATOM      6  C6  IND d   1       0.828  -1.140  -0.388  0.00  0.00     0.015 A 
ATOM      7  C7  IND d   1      -0.371  -0.505  -0.222  0.00  0.00    -0.016 A 
ATOM      8  C8  IND d   1      -0.509   0.286   0.910  0.00  0.00    -0.047 A 
ATOM      9  C9  IND d   1       0.516   0.412   1.857  0.00  0.00    -0.096 A 
ATOM     10  HN1 IND d   1      -2.338   1.105   0.967  0.00  0.00     0.298 HD
ENDROOT
TORSDOF 0
ENDMDL
