MODEL 1
REMARK minimizedAffinity -2.97794962
REMARK minimizedRMSD -1
REMARK  0 active torsions:
REMARK  status: ('A' for Active; 'I' for Inactive)
ROOT
ATOM      1  N1  IND d   1       1.375   0.079  -2.305  0.00  0.00    -0.196 N 
ATOM      2  C2  IND d   1       0.669  -0.701  -1.432  0.00  0.00     0.054 A 
ATOM      3  C3  IND d   1      -0.400  -1.250  -2.051  0.00  0.00    -0.031 A 
ATOM      4  C4  IND d   1      -1.126  -1.087  -4.516  0.00  0.00     0.051 A 
ATOM      5  C5  IND d   1      -0.817  -0.460  -5.690  0.00  0.00    -0.031 A 
ATOM      6  C6  IND d   1       0.261   0.394  -5.799  0.00  0.00     0.015 A 
ATOM      7  C7  IND d   1       1.082   0.645  -4.736  0.00  0.00    -0.016 A 
ATOM      8  C8  IND d   1       0.767   0.015  -3.540  0.00  0.00    -0.047 A 
ATOM      9  C9  IND d   1      -0.351  -0.819  -3.412  0.00  0.00    -0.096 A 
ATOM     10  HN1 IND d   1       2.080   0.533  -2.115  0.00  0.00     0.298 HD
ENDROOT
TORSDOF 0
ENDMDL
