MODEL 1
REMARK minimizedAffinity -2.15461373
REMARK minimizedRMSD -1
REMARK  0 active torsions:
REMARK  status: ('A' for Active; 'I' for Inactive)
ROOT
ATOM      1  N1  IND d   1       1.447  -0.533  -2.507  0.00  0.00    -0.196 N 
ATOM      2  C2  IND d   1       0.763   0.371  -3.271  0.00  0.00     0.054 A 
ATOM      3  C3  IND d   1       0.037   1.198  -2.486  0.00  0.00    -0.031 A 
ATOM      4  C4  IND d   1      -0.097   1.314   0.083  0.00  0.00     0.051 A 
ATOM      5  C5  IND d   1       0.322   0.671   1.213  0.00  0.00    -0.031 A 
ATOM      6  C6  IND d   1       1.156  -0.427   1.161  0.00  0.00     0.015 A 
ATOM      7  C7  IND d   1       1.614  -0.918  -0.029  0.00  0.00    -0.016 A 
ATOM      8  C8  IND d   1       1.185  -0.271  -1.180  0.00  0.00    -0.047 A 
ATOM      9  C9  IND d   1       0.304   0.817  -1.135  0.00  0.00    -0.096 A 
ATOM     10  HN1 IND d   1       1.955  -1.159  -2.804  0.00  0.00     0.298 HD
ENDROOT
TORSDOF 0
ENDMDL
