MODEL 1
REMARK minimizedAffinity -1.25596225
REMARK minimizedRMSD -1
REMARK  0 active torsions:
REMARK  status: ('A' for Active; 'I' for Inactive)
ROOT
ATOM      1  N1  IND d   1       0.718   1.193   2.788  0.00  0.00    -0.196 N 
ATOM      2  C2  IND d   1      -0.493   1.821   2.701  0.00  0.00     0.054 A 
ATOM      3  C3  IND d   1      -1.090   1.531   1.523  0.00  0.00    -0.031 A 
ATOM      4  C4  IND d   1      -0.306  -0.034  -0.366  0.00  0.00     0.051 A 
ATOM      5  C5  IND d   1       0.754  -0.803  -0.757  0.00  0.00    -0.031 A 
ATOM      6  C6  IND d   1       1.877  -0.951   0.030  0.00  0.00     0.015 A 
ATOM      7  C7  IND d   1       1.978  -0.342   1.249  0.00  0.00    -0.016 A 
ATOM      8  C8  IND d   1       0.907   0.445   1.647  0.00  0.00    -0.047 A 
ATOM      9  C9  IND d   1      -0.217   0.634   0.833  0.00  0.00    -0.096 A 
ATOM     10  HN1 IND d   1       1.269   1.254   3.446  0.00  0.00     0.298 HD
ENDROOT
TORSDOF 0
ENDMDL
