MODEL 1
REMARK minimizedAffinity -0.349262446
REMARK minimizedRMSD -1
REMARK  0 active torsions:
REMARK  status: ('A' for Active; 'I' for Inactive)
ROOT
ATOM      1  N1  IND d   1       2.143   0.101   2.008  0.00  0.00    -0.196 N 
ATOM      2  C2  IND d   1       2.523  -0.552   0.869  0.00  0.00     0.054 A 
ATOM      3  C3  IND d   1       1.465  -0.712   0.043  0.00  0.00    -0.031 A 
ATOM      4  C4  IND d   1      -0.960   0.110   0.313  0.00  0.00     0.051 A 
ATOM      5  C5  IND d   1      -1.797   0.722   1.203  0.00  0.00    -0.031 A 
ATOM      6  C6  IND d   1      -1.354   1.170   2.431  0.00  0.00     0.015 A 
ATOM      7  C7  IND d   1      -0.049   1.032   2.811  0.00  0.00    -0.016 A 
ATOM      8  C8  IND d   1       0.802   0.405   1.913  0.00  0.00    -0.047 A 
ATOM      9  C9  IND d   1       0.349  -0.090   0.683  0.00  0.00    -0.096 A 
ATOM     10  HN1 IND d   1       2.654   0.290   2.673  0.00  0.00     0.298 HD
ENDROOT
TORSDOF 0
ENDMDL
