MODEL 1
REMARK minimizedAffinity 0.0806314498
REMARK minimizedRMSD -1
REMARK  0 active torsions:
REMARK  status: ('A' for Active; 'I' for Inactive)
ROOT
ATOM      1  N1  IND d   1       1.687   2.187  -3.874  0.00  0.00    -0.196 N 
ATOM      2  C2  IND d   1       0.597   1.495  -3.423  0.00  0.00     0.054 A 
ATOM      3  C3  IND d   1       0.918   0.200  -3.208  0.00  0.00    -0.031 A 
ATOM      4  C4  IND d   1       3.195  -0.980  -3.432  0.00  0.00     0.051 A 
ATOM      5  C5  IND d   1       4.481  -0.771  -3.846  0.00  0.00    -0.031 A 
ATOM      6  C6  IND d   1       4.910   0.460  -4.297  0.00  0.00     0.015 A 
ATOM      7  C7  IND d   1       4.069   1.536  -4.341  0.00  0.00    -0.016 A 
ATOM      8  C8  IND d   1       2.761   1.325  -3.927  0.00  0.00    -0.047 A 
ATOM      9  C9  IND d   1       2.308   0.068  -3.509  0.00  0.00    -0.096 A 
ATOM     10  HN1 IND d   1       1.700   3.019  -4.088  0.00  0.00     0.298 HD
ENDROOT
TORSDOF 0
ENDMDL
