MODEL 1
REMARK minimizedAffinity -1.34831059
REMARK minimizedRMSD -1
REMARK  0 active torsions:
REMARK  status: ('A' for Active; 'I' for Inactive)
ROOT
ATOM      1  C2' OXE d   1       0.422   1.958  -3.494  0.00  0.00     0.078 C 
ATOM      2  C1' OXE d   1      -0.104   4.241  -1.947  0.00  0.00     0.078 C 
ATOM      3  C1  OXE d   1      -0.284   2.893  -1.295  0.00  0.00    -0.078 A 
ATOM      4  C2  OXE d   1      -0.069   1.781  -2.073  0.00  0.00    -0.078 A 
ATOM      5  C3  OXE d   1      -0.168   0.514  -1.506  0.00  0.00     0.003 A 
ATOM      6  C4  OXE d   1      -0.633   0.358  -0.194  0.00  0.00    -0.002 A 
ATOM      7  C5  OXE d   1      -0.895   1.478   0.603  0.00  0.00    -0.002 A 
ATOM      8  C6  OXE d   1      -0.685   2.750   0.082  0.00  0.00     0.003 A 
ENDROOT
TORSDOF 0
ENDMDL
