MODEL 1
REMARK minimizedAffinity -4.06992626
REMARK minimizedRMSD -1
REMARK  0 active torsions:
REMARK  status: ('A' for Active; 'I' for Inactive)
ROOT
ATOM      1  C2' OXE d   1       0.077   0.888   0.132  0.00  0.00     0.078 C 
ATOM      2  C1' OXE d   1      -2.654   0.606   0.721  0.00  0.00     0.078 C 
ATOM      3  C1  OXE d   1      -1.798  -0.636   0.739  0.00  0.00    -0.078 A 
ATOM      4  C2  OXE d   1      -0.473  -0.496   0.404  0.00  0.00    -0.078 A 
ATOM      5  C3  OXE d   1       0.373  -1.601   0.459  0.00  0.00     0.003 A 
ATOM      6  C4  OXE d   1      -0.146  -2.879   0.701  0.00  0.00    -0.002 A 
ATOM      7  C5  OXE d   1      -1.500  -3.049   1.006  0.00  0.00    -0.002 A 
ATOM      8  C6  OXE d   1      -2.330  -1.935   1.071  0.00  0.00     0.003 A 
ENDROOT
TORSDOF 0
ENDMDL
