MODEL 1
REMARK minimizedAffinity 1.83731663
REMARK minimizedRMSD -1
REMARK  0 active torsions:
REMARK  status: ('A' for Active; 'I' for Inactive)
ROOT
ATOM      1  C2' OXE d   1       3.716   1.985   1.972  0.00  0.00     0.078 C 
ATOM      2  C1' OXE d   1       5.312  -0.320   2.107  0.00  0.00     0.078 C 
ATOM      3  C1  OXE d   1       3.918  -0.462   1.550  0.00  0.00    -0.078 A 
ATOM      4  C2  OXE d   1       3.128   0.662   1.531  0.00  0.00    -0.078 A 
ATOM      5  C3  OXE d   1       1.852   0.599   0.977  0.00  0.00     0.003 A 
ATOM      6  C4  OXE d   1       1.312  -0.630   0.581  0.00  0.00    -0.002 A 
ATOM      7  C5  OXE d   1       2.086  -1.794   0.629  0.00  0.00    -0.002 A 
ATOM      8  C6  OXE d   1       3.402  -1.720   1.070  0.00  0.00     0.003 A 
ENDROOT
TORSDOF 0
ENDMDL
