MODEL 1
REMARK minimizedAffinity -5.86892939
REMARK minimizedRMSD -1
REMARK  0 active torsions:
REMARK  status: ('A' for Active; 'I' for Inactive)
ROOT
ATOM      1  C2' OXE d   1      -1.896  -2.535   1.427  0.00  0.00     0.078 C 
ATOM      2  C1' OXE d   1      -2.432   0.200   1.090  0.00  0.00     0.078 C 
ATOM      3  C1  OXE d   1      -1.011  -0.267   0.899  0.00  0.00    -0.078 A 
ATOM      4  C2  OXE d   1      -0.749  -1.599   1.112  0.00  0.00    -0.078 A 
ATOM      5  C3  OXE d   1       0.535  -2.093   0.896  0.00  0.00     0.003 A 
ATOM      6  C4  OXE d   1       1.592  -1.219   0.614  0.00  0.00    -0.002 A 
ATOM      7  C5  OXE d   1       1.354   0.148   0.432  0.00  0.00    -0.002 A 
ATOM      8  C6  OXE d   1       0.054   0.632   0.529  0.00  0.00     0.003 A 
ENDROOT
TORSDOF 0
ENDMDL
