MODEL 1
REMARK minimizedAffinity -3.33620262
REMARK minimizedRMSD -1
REMARK  0 active torsions:
REMARK  status: ('A' for Active; 'I' for Inactive)
ROOT
ATOM      1  C2' OXE d   1       0.365   0.435  -1.536  0.00  0.00     0.078 C 
ATOM      2  C1' OXE d   1       1.607  -0.272   0.880  0.00  0.00     0.078 C 
ATOM      3  C1  OXE d   1       0.326  -0.979   0.514  0.00  0.00    -0.078 A 
ATOM      4  C2  OXE d   1      -0.299  -0.594  -0.647  0.00  0.00    -0.078 A 
ATOM      5  C3  OXE d   1      -1.454  -1.252  -1.059  0.00  0.00     0.003 A 
ATOM      6  C4  OXE d   1      -2.068  -2.196  -0.226  0.00  0.00    -0.002 A 
ATOM      7  C5  OXE d   1      -1.468  -2.574   0.980  0.00  0.00    -0.002 A 
ATOM      8  C6  OXE d   1      -0.252  -2.008   1.343  0.00  0.00     0.003 A 
ENDROOT
TORSDOF 0
ENDMDL
