MODEL 1
REMARK minimizedAffinity -3.49803853
REMARK minimizedRMSD -1
REMARK  0 active torsions:
REMARK  status: ('A' for Active; 'I' for Inactive)
ROOT
ATOM      1  C2' OXE d   1      -1.432   1.429   0.914  0.00  0.00     0.078 C 
ATOM      2  C1' OXE d   1       0.767   0.925  -0.757  0.00  0.00     0.078 C 
ATOM      3  C1  OXE d   1       0.205  -0.230   0.033  0.00  0.00    -0.078 A 
ATOM      4  C2  OXE d   1      -0.842   0.035   0.883  0.00  0.00    -0.078 A 
ATOM      5  C3  OXE d   1      -1.434  -1.005   1.593  0.00  0.00     0.003 A 
ATOM      6  C4  OXE d   1      -0.875  -2.289   1.567  0.00  0.00    -0.002 A 
ATOM      7  C5  OXE d   1       0.216  -2.572   0.738  0.00  0.00    -0.002 A 
ATOM      8  C6  OXE d   1       0.740  -1.566  -0.066  0.00  0.00     0.003 A 
ENDROOT
TORSDOF 0
ENDMDL
