MODEL 1
REMARK minimizedAffinity -4.65809774
REMARK minimizedRMSD -1
REMARK  0 active torsions:
REMARK  status: ('A' for Active; 'I' for Inactive)
ROOT
ATOM      1  C2' OXE d   1      -2.223  -2.607   0.974  0.00  0.00     0.078 C 
ATOM      2  C1' OXE d   1      -2.255   0.200   0.928  0.00  0.00     0.078 C 
ATOM      3  C1  OXE d   1      -0.932  -0.492   0.717  0.00  0.00    -0.078 A 
ATOM      4  C2  OXE d   1      -0.918  -1.864   0.787  0.00  0.00    -0.078 A 
ATOM      5  C3  OXE d   1       0.266  -2.555   0.545  0.00  0.00     0.003 A 
ATOM      6  C4  OXE d   1       1.471  -1.860   0.382  0.00  0.00    -0.002 A 
ATOM      7  C5  OXE d   1       1.486  -0.462   0.347  0.00  0.00    -0.002 A 
ATOM      8  C6  OXE d   1       0.289   0.235   0.469  0.00  0.00     0.003 A 
ENDROOT
TORSDOF 0
ENDMDL
