MODEL 1
REMARK minimizedAffinity -5.1312089
REMARK minimizedRMSD -1
REMARK  0 active torsions:
REMARK  status: ('A' for Active; 'I' for Inactive)
ROOT
ATOM      1  C2' OXE d   1       1.865  -1.144   0.700  0.00  0.00     0.078 C 
ATOM      2  C1' OXE d   1       0.171   0.890  -0.235  0.00  0.00     0.078 C 
ATOM      3  C1  OXE d   1      -0.468  -0.371   0.291  0.00  0.00    -0.078 A 
ATOM      4  C2  OXE d   1       0.370  -1.379   0.703  0.00  0.00    -0.078 A 
ATOM      5  C3  OXE d   1      -0.167  -2.542   1.248  0.00  0.00     0.003 A 
ATOM      6  C4  OXE d   1      -1.551  -2.756   1.238  0.00  0.00    -0.002 A 
ATOM      7  C5  OXE d   1      -2.420  -1.758   0.786  0.00  0.00    -0.002 A 
ATOM      8  C6  OXE d   1      -1.898  -0.545   0.350  0.00  0.00     0.003 A 
ENDROOT
TORSDOF 0
ENDMDL
