MODEL 1
REMARK minimizedAffinity -1.32174909
REMARK minimizedRMSD -1
REMARK  0 active torsions:
REMARK  status: ('A' for Active; 'I' for Inactive)
ROOT
ATOM      1  C2' OXE d   1      -1.937   1.004  -0.172  0.00  0.00     0.078 C 
ATOM      2  C1' OXE d   1      -0.246  -1.072  -1.019  0.00  0.00     0.078 C 
ATOM      3  C1  OXE d   1      -0.815  -1.152   0.375  0.00  0.00    -0.078 A 
ATOM      4  C2  OXE d   1      -1.603  -0.109   0.798  0.00  0.00    -0.078 A 
ATOM      5  C3  OXE d   1      -2.197  -0.160   2.056  0.00  0.00     0.003 A 
ATOM      6  C4  OXE d   1      -1.876  -1.187   2.951  0.00  0.00    -0.002 A 
ATOM      7  C5  OXE d   1      -1.043  -2.239   2.555  0.00  0.00    -0.002 A 
ATOM      8  C6  OXE d   1      -0.539  -2.258   1.259  0.00  0.00     0.003 A 
ENDROOT
TORSDOF 0
ENDMDL
