MODEL 1
REMARK minimizedAffinity -2.47597098
REMARK minimizedRMSD -1
REMARK  0 active torsions:
REMARK  status: ('A' for Active; 'I' for Inactive)
ROOT
ATOM      1  C2' OXE d   1       2.057  -1.867   0.717  0.00  0.00     0.078 C 
ATOM      2  C1' OXE d   1       0.195   0.233   0.781  0.00  0.00     0.078 C 
ATOM      3  C1  OXE d   1      -0.033  -0.937   1.705  0.00  0.00    -0.078 A 
ATOM      4  C2  OXE d   1       0.858  -1.981   1.634  0.00  0.00    -0.078 A 
ATOM      5  C3  OXE d   1       0.725  -3.060   2.503  0.00  0.00     0.003 A 
ATOM      6  C4  OXE d   1      -0.392  -3.163   3.340  0.00  0.00    -0.002 A 
ATOM      7  C5  OXE d   1      -1.332  -2.129   3.400  0.00  0.00    -0.002 A 
ATOM      8  C6  OXE d   1      -1.145  -0.992   2.621  0.00  0.00     0.003 A 
ENDROOT
TORSDOF 0
ENDMDL
