MODEL 1
REMARK minimizedAffinity 3.68556738
REMARK minimizedRMSD -1
REMARK  0 active torsions:
REMARK  status: ('A' for Active; 'I' for Inactive)
ROOT
ATOM      1  C2' OXE d   1      -2.775   1.564  -2.021  0.00  0.00     0.078 C 
ATOM      2  C1' OXE d   1       0.006   1.615  -2.400  0.00  0.00     0.078 C 
ATOM      3  C1  OXE d   1      -0.798   2.775  -2.933  0.00  0.00    -0.078 A 
ATOM      4  C2  OXE d   1      -2.163   2.719  -2.784  0.00  0.00    -0.078 A 
ATOM      5  C3  OXE d   1      -2.947   3.788  -3.208  0.00  0.00     0.003 A 
ATOM      6  C4  OXE d   1      -2.374   4.848  -3.921  0.00  0.00    -0.002 A 
ATOM      7  C5  OXE d   1      -0.990   4.905  -4.119  0.00  0.00    -0.002 A 
ATOM      8  C6  OXE d   1      -0.185   3.899  -3.595  0.00  0.00     0.003 A 
ENDROOT
TORSDOF 0
ENDMDL
