MODEL 1
REMARK minimizedAffinity -3.93355608
REMARK minimizedRMSD -1
REMARK  0 active torsions:
REMARK  status: ('A' for Active; 'I' for Inactive)
ROOT
ATOM      1  C2' OXE d   1      -0.075   0.305   0.705  0.00  0.00     0.078 C 
ATOM      2  C1' OXE d   1       1.350  -2.053   0.165  0.00  0.00     0.078 C 
ATOM      3  C1  OXE d   1       0.438  -2.042   1.366  0.00  0.00    -0.078 A 
ATOM      4  C2  OXE d   1      -0.220  -0.869   1.650  0.00  0.00    -0.078 A 
ATOM      5  C3  OXE d   1      -1.115  -0.821   2.714  0.00  0.00     0.003 A 
ATOM      6  C4  OXE d   1      -1.235  -1.907   3.589  0.00  0.00    -0.002 A 
ATOM      7  C5  OXE d   1      -0.544  -3.098   3.341  0.00  0.00    -0.002 A 
ATOM      8  C6  OXE d   1       0.262  -3.196   2.212  0.00  0.00     0.003 A 
ENDROOT
TORSDOF 0
ENDMDL
