MODEL 1
REMARK minimizedAffinity -0.636215985
REMARK minimizedRMSD -1
REMARK  0 active torsions:
REMARK  status: ('A' for Active; 'I' for Inactive)
ROOT
ATOM      1  C2' OXE d   1       0.226  -2.288   1.743  0.00  0.00     0.078 C 
ATOM      2  C1' OXE d   1       1.905  -0.652   0.200  0.00  0.00     0.078 C 
ATOM      3  C1  OXE d   1       0.419  -0.555  -0.035  0.00  0.00    -0.078 A 
ATOM      4  C2  OXE d   1      -0.393  -1.393   0.692  0.00  0.00    -0.078 A 
ATOM      5  C3  OXE d   1      -1.775  -1.305   0.553  0.00  0.00     0.003 A 
ATOM      6  C4  OXE d   1      -2.338  -0.481  -0.429  0.00  0.00    -0.002 A 
ATOM      7  C5  OXE d   1      -1.527   0.351  -1.208  0.00  0.00    -0.002 A 
ATOM      8  C6  OXE d   1      -0.153   0.358  -0.994  0.00  0.00     0.003 A 
ENDROOT
TORSDOF 0
ENDMDL
