MODEL 1
REMARK minimizedAffinity -2.05686307
REMARK minimizedRMSD -1
REMARK  0 active torsions:
REMARK  status: ('A' for Active; 'I' for Inactive)
ROOT
ATOM      1  C2' OXE d   1       0.904  -1.654   0.064  0.00  0.00     0.078 C 
ATOM      2  C1' OXE d   1       0.115   0.731   1.316  0.00  0.00     0.078 C 
ATOM      3  C1  OXE d   1      -0.335  -0.570   1.933  0.00  0.00    -0.078 A 
ATOM      4  C2  OXE d   1       0.017  -1.730   1.287  0.00  0.00    -0.078 A 
ATOM      5  C3  OXE d   1      -0.326  -2.960   1.843  0.00  0.00     0.003 A 
ATOM      6  C4  OXE d   1      -1.155  -3.021   2.970  0.00  0.00    -0.002 A 
ATOM      7  C5  OXE d   1      -1.558  -1.850   3.620  0.00  0.00    -0.002 A 
ATOM      8  C6  OXE d   1      -1.122  -0.620   3.140  0.00  0.00     0.003 A 
ENDROOT
TORSDOF 0
ENDMDL
