MODEL 1
REMARK minimizedAffinity 5.99610519
REMARK minimizedRMSD -1
REMARK  0 active torsions:
REMARK  status: ('A' for Active; 'I' for Inactive)
ROOT
ATOM      1  C2' OXE d   1      -0.586   0.093   0.765  0.00  0.00     0.078 C 
ATOM      2  C1' OXE d   1       1.257  -1.768  -0.245  0.00  0.00     0.078 C 
ATOM      3  C1  OXE d   1       0.709  -2.002   1.140  0.00  0.00    -0.078 A 
ATOM      4  C2  OXE d   1      -0.156  -1.061   1.645  0.00  0.00    -0.078 A 
ATOM      5  C3  OXE d   1      -0.733  -1.257   2.897  0.00  0.00     0.003 A 
ATOM      6  C4  OXE d   1      -0.323  -2.322   3.708  0.00  0.00    -0.002 A 
ATOM      7  C5  OXE d   1       0.588  -3.269   3.229  0.00  0.00    -0.002 A 
ATOM      8  C6  OXE d   1       1.080  -3.148   1.934  0.00  0.00     0.003 A 
ENDROOT
TORSDOF 0
ENDMDL
