MODEL 1
REMARK minimizedAffinity 6.45959663
REMARK minimizedRMSD -1
REMARK  0 active torsions:
REMARK  status: ('A' for Active; 'I' for Inactive)
ROOT
ATOM      1  C2' OXE d   1      -0.167  -1.693   1.895  0.00  0.00     0.078 C 
ATOM      2  C1' OXE d   1      -1.898  -2.501   3.952  0.00  0.00     0.078 C 
ATOM      3  C1  OXE d   1      -0.472  -2.991   4.000  0.00  0.00    -0.078 A 
ATOM      4  C2  OXE d   1       0.355  -2.628   2.964  0.00  0.00    -0.078 A 
ATOM      5  C3  OXE d   1       1.695  -3.007   2.987  0.00  0.00     0.003 A 
ATOM      6  C4  OXE d   1       2.168  -3.880   3.974  0.00  0.00    -0.002 A 
ATOM      7  C5  OXE d   1       1.331  -4.293   5.017  0.00  0.00    -0.002 A 
ATOM      8  C6  OXE d   1       0.023  -3.824   5.067  0.00  0.00     0.003 A 
ENDROOT
TORSDOF 0
ENDMDL
