MODEL 1
REMARK minimizedAffinity 6.40459919
REMARK minimizedRMSD -1
REMARK  0 active torsions:
REMARK  status: ('A' for Active; 'I' for Inactive)
ROOT
ATOM      1  C2' OXE d   1       0.952  -3.584   3.229  0.00  0.00     0.078 C 
ATOM      2  C1' OXE d   1      -1.146  -2.073   4.322  0.00  0.00     0.078 C 
ATOM      3  C1  OXE d   1      -0.648  -1.695   2.949  0.00  0.00    -0.078 A 
ATOM      4  C2  OXE d   1       0.410  -2.411   2.441  0.00  0.00    -0.078 A 
ATOM      5  C3  OXE d   1       0.872  -2.139   1.157  0.00  0.00     0.003 A 
ATOM      6  C4  OXE d   1       0.372  -1.046   0.440  0.00  0.00    -0.002 A 
ATOM      7  C5  OXE d   1      -0.678  -0.279   0.955  0.00  0.00    -0.002 A 
ATOM      8  C6  OXE d   1      -1.227  -0.617   2.187  0.00  0.00     0.003 A 
ENDROOT
TORSDOF 0
ENDMDL
