MODEL 1
REMARK minimizedAffinity 4.0371871
REMARK minimizedRMSD -1
REMARK  0 active torsions:
REMARK  status: ('A' for Active; 'I' for Inactive)
ROOT
ATOM      1  C2' OXE d   1       0.735  -1.825  -0.753  0.00  0.00     0.078 C 
ATOM      2  C1' OXE d   1      -1.110  -0.159   0.551  0.00  0.00     0.078 C 
ATOM      3  C1  OXE d   1      -0.404  -1.207   1.374  0.00  0.00    -0.078 A 
ATOM      4  C2  OXE d   1       0.463  -2.048   0.718  0.00  0.00    -0.078 A 
ATOM      5  C3  OXE d   1       1.182  -2.997   1.440  0.00  0.00     0.003 A 
ATOM      6  C4  OXE d   1       0.917  -3.203   2.800  0.00  0.00    -0.002 A 
ATOM      7  C5  OXE d   1       0.008  -2.384   3.478  0.00  0.00    -0.002 A 
ATOM      8  C6  OXE d   1      -0.627  -1.356   2.791  0.00  0.00     0.003 A 
ENDROOT
TORSDOF 0
ENDMDL
