MODEL 1
REMARK minimizedAffinity -3.46459842
REMARK minimizedRMSD -1
REMARK  0 active torsions:
REMARK  status: ('A' for Active; 'I' for Inactive)
ROOT
ATOM      1  C2' OXE d   1      -5.239  -5.786  -5.983  0.00  0.00     0.078 C 
ATOM      2  C1' OXE d   1      -2.459  -5.999  -5.661  0.00  0.00     0.078 C 
ATOM      3  C1  OXE d   1      -3.052  -4.616  -5.754  0.00  0.00    -0.078 A 
ATOM      4  C2  OXE d   1      -4.408  -4.521  -5.958  0.00  0.00    -0.078 A 
ATOM      5  C3  OXE d   1      -5.013  -3.269  -5.997  0.00  0.00     0.003 A 
ATOM      6  C4  OXE d   1      -4.236  -2.105  -5.983  0.00  0.00    -0.002 A 
ATOM      7  C5  OXE d   1      -2.849  -2.179  -5.815  0.00  0.00    -0.002 A 
ATOM      8  C6  OXE d   1      -2.248  -3.423  -5.657  0.00  0.00     0.003 A 
ENDROOT
TORSDOF 0
ENDMDL
