MODEL 1
REMARK minimizedAffinity 1.99266577
REMARK minimizedRMSD -1
REMARK  0 active torsions:
REMARK  status: ('A' for Active; 'I' for Inactive)
ROOT
ATOM      1  C2' OXE d   1      -0.844  -0.360   1.217  0.00  0.00     0.078 C 
ATOM      2  C1' OXE d   1       1.308  -1.964   0.395  0.00  0.00     0.078 C 
ATOM      3  C1  OXE d   1       0.742  -2.199   1.773  0.00  0.00    -0.078 A 
ATOM      4  C2  OXE d   1      -0.281  -1.378   2.185  0.00  0.00    -0.078 A 
ATOM      5  C3  OXE d   1      -0.876  -1.588   3.426  0.00  0.00     0.003 A 
ATOM      6  C4  OXE d   1      -0.342  -2.525   4.319  0.00  0.00    -0.002 A 
ATOM      7  C5  OXE d   1       0.725  -3.344   3.934  0.00  0.00    -0.002 A 
ATOM      8  C6  OXE d   1       1.249  -3.223   2.652  0.00  0.00     0.003 A 
ENDROOT
TORSDOF 0
ENDMDL
