MODEL 1
REMARK minimizedAffinity -3.70052099
REMARK minimizedRMSD -1
REMARK  0 active torsions:
REMARK  status: ('A' for Active; 'I' for Inactive)
ROOT
ATOM      1  C   UNL d   1       1.022  -3.148  -2.959  0.00  0.00     0.078 C 
ATOM      2  C1  UNL d   1       1.008  -2.153  -1.838  0.00  0.00    -0.077 A 
ATOM      3  C2  UNL d   1       0.024  -2.200  -0.843  0.00  0.00    -0.001 A 
ATOM      4  C3  UNL d   1       0.018  -1.262   0.189  0.00  0.00     0.003 A 
ATOM      5  C4  UNL d   1       0.993  -0.268   0.237  0.00  0.00    -0.005 A 
ATOM      6  C5  UNL d   1       1.976  -0.212  -0.749  0.00  0.00     0.003 A 
ATOM      7  C6  UNL d   1       1.984  -1.149  -1.783  0.00  0.00    -0.001 A 
ENDROOT
TORSDOF 0
ENDMDL
