MODEL 1
REMARK minimizedAffinity -2.38861895
REMARK minimizedRMSD -1
REMARK  0 active torsions:
REMARK  status: ('A' for Active; 'I' for Inactive)
ROOT
ATOM      1  C   UNL d   1      -1.181   0.003   0.366  0.00  0.00     0.078 C 
ATOM      2  C1  UNL d   1       0.151   0.007  -0.321  0.00  0.00    -0.077 A 
ATOM      3  C2  UNL d   1       0.854  -1.184  -0.540  0.00  0.00    -0.001 A 
ATOM      4  C3  UNL d   1       2.098  -1.164  -1.173  0.00  0.00     0.003 A 
ATOM      5  C4  UNL d   1       2.651   0.044  -1.591  0.00  0.00    -0.005 A 
ATOM      6  C5  UNL d   1       1.960   1.235  -1.376  0.00  0.00     0.003 A 
ATOM      7  C6  UNL d   1       0.716   1.217  -0.744  0.00  0.00    -0.001 A 
ENDROOT
TORSDOF 0
ENDMDL
