MODEL 1
REMARK minimizedAffinity -4.47169638
REMARK minimizedRMSD -1
REMARK  0 active torsions:
REMARK  status: ('A' for Active; 'I' for Inactive)
ROOT
ATOM      1  C   UNL d   1      -1.288   0.465   0.406  0.00  0.00     0.078 C 
ATOM      2  C1  UNL d   1       0.027  -0.039  -0.108  0.00  0.00    -0.077 A 
ATOM      3  C2  UNL d   1       1.038   0.849  -0.496  0.00  0.00    -0.001 A 
ATOM      4  C3  UNL d   1       2.254   0.366  -0.981  0.00  0.00     0.003 A 
ATOM      5  C4  UNL d   1       2.470  -1.007  -1.085  0.00  0.00    -0.005 A 
ATOM      6  C5  UNL d   1       1.469  -1.898  -0.704  0.00  0.00     0.003 A 
ATOM      7  C6  UNL d   1       0.253  -1.417  -0.218  0.00  0.00    -0.001 A 
ENDROOT
TORSDOF 0
ENDMDL
