MODEL 1
REMARK minimizedAffinity -4.0888319
REMARK minimizedRMSD -1
REMARK  0 active torsions:
REMARK  status: ('A' for Active; 'I' for Inactive)
ROOT
ATOM      1  C   UNL d   1       3.110  -0.947  -1.484  0.00  0.00     0.078 C 
ATOM      2  C1  UNL d   1       1.781  -0.506  -0.948  0.00  0.00    -0.077 A 
ATOM      3  C2  UNL d   1       0.909  -1.418  -0.340  0.00  0.00    -0.001 A 
ATOM      4  C3  UNL d   1      -0.329  -0.995   0.146  0.00  0.00     0.003 A 
ATOM      5  C4  UNL d   1      -0.707   0.341   0.028  0.00  0.00    -0.005 A 
ATOM      6  C5  UNL d   1       0.152   1.255  -0.577  0.00  0.00     0.003 A 
ATOM      7  C6  UNL d   1       1.391   0.834  -1.064  0.00  0.00    -0.001 A 
ENDROOT
TORSDOF 0
ENDMDL
