MODEL 1
REMARK minimizedAffinity -4.21251583
REMARK minimizedRMSD -1
REMARK  0 active torsions:
REMARK  status: ('A' for Active; 'I' for Inactive)
ROOT
ATOM      1  C   UNL d   1      -1.163   0.265   0.808  0.00  0.00     0.078 C 
ATOM      2  C1  UNL d   1       0.132  -0.143   0.172  0.00  0.00    -0.077 A 
ATOM      3  C2  UNL d   1       0.476  -1.494   0.038  0.00  0.00    -0.001 A 
ATOM      4  C3  UNL d   1       1.689  -1.859  -0.547  0.00  0.00     0.003 A 
ATOM      5  C4  UNL d   1       2.569  -0.880  -1.003  0.00  0.00    -0.005 A 
ATOM      6  C5  UNL d   1       2.237   0.467  -0.872  0.00  0.00     0.003 A 
ATOM      7  C6  UNL d   1       1.024   0.835  -0.287  0.00  0.00    -0.001 A 
ENDROOT
TORSDOF 0
ENDMDL
