MODEL 1
REMARK minimizedAffinity -2.82170844
REMARK minimizedRMSD -1
REMARK  0 active torsions:
REMARK  status: ('A' for Active; 'I' for Inactive)
ROOT
ATOM      1  C   UNL d   1       2.305  -1.376  -1.158  0.00  0.00     0.078 C 
ATOM      2  C1  UNL d   1       1.047  -0.818  -0.562  0.00  0.00    -0.077 A 
ATOM      3  C2  UNL d   1       0.038  -1.664  -0.085  0.00  0.00    -0.001 A 
ATOM      4  C3  UNL d   1      -1.132  -1.131   0.458  0.00  0.00     0.003 A 
ATOM      5  C4  UNL d   1      -1.305   0.250   0.528  0.00  0.00    -0.005 A 
ATOM      6  C5  UNL d   1      -0.307   1.100   0.054  0.00  0.00     0.003 A 
ATOM      7  C6  UNL d   1       0.863   0.568  -0.490  0.00  0.00    -0.001 A 
ENDROOT
TORSDOF 0
ENDMDL
