MODEL 1
REMARK minimizedAffinity -3.44859457
REMARK minimizedRMSD -1
REMARK  0 active torsions:
REMARK  status: ('A' for Active; 'I' for Inactive)
ROOT
ATOM      1  C   UNL d   1      -1.258   0.440   0.844  0.00  0.00     0.078 C 
ATOM      2  C1  UNL d   1       0.013   0.408   0.048  0.00  0.00    -0.077 A 
ATOM      3  C2  UNL d   1       0.843  -0.720   0.060  0.00  0.00    -0.001 A 
ATOM      4  C3  UNL d   1       2.027  -0.733  -0.678  0.00  0.00     0.003 A 
ATOM      5  C4  UNL d   1       2.393   0.380  -1.433  0.00  0.00    -0.005 A 
ATOM      6  C5  UNL d   1       1.574   1.507  -1.450  0.00  0.00     0.003 A 
ATOM      7  C6  UNL d   1       0.390   1.522  -0.712  0.00  0.00    -0.001 A 
ENDROOT
TORSDOF 0
ENDMDL
