MODEL 1
REMARK minimizedAffinity -3.21800542
REMARK minimizedRMSD -1
REMARK  0 active torsions:
REMARK  status: ('A' for Active; 'I' for Inactive)
ROOT
ATOM      1  C   UNL d   1       2.744   0.351  -1.319  0.00  0.00     0.078 C 
ATOM      2  C1  UNL d   1       1.306   0.518  -0.930  0.00  0.00    -0.077 A 
ATOM      3  C2  UNL d   1       0.630  -0.480  -0.218  0.00  0.00    -0.001 A 
ATOM      4  C3  UNL d   1      -0.712  -0.315   0.129  0.00  0.00     0.003 A 
ATOM      5  C4  UNL d   1      -1.390   0.847  -0.234  0.00  0.00    -0.005 A 
ATOM      6  C5  UNL d   1      -0.727   1.845  -0.945  0.00  0.00     0.003 A 
ATOM      7  C6  UNL d   1       0.615   1.681  -1.293  0.00  0.00    -0.001 A 
ENDROOT
TORSDOF 0
ENDMDL
