MODEL 1
REMARK minimizedAffinity -4.9969697
REMARK minimizedRMSD -1
REMARK  0 active torsions:
REMARK  status: ('A' for Active; 'I' for Inactive)
ROOT
ATOM      1  C   UNL d   1       0.078  -2.336   0.122  0.00  0.00     0.078 C 
ATOM      2  C1  UNL d   1       0.498  -0.960  -0.302  0.00  0.00    -0.077 A 
ATOM      3  C2  UNL d   1       1.851  -0.637  -0.464  0.00  0.00    -0.001 A 
ATOM      4  C3  UNL d   1       2.228   0.650  -0.850  0.00  0.00     0.003 A 
ATOM      5  C4  UNL d   1       1.259   1.625  -1.077  0.00  0.00    -0.005 A 
ATOM      6  C5  UNL d   1      -0.090   1.313  -0.916  0.00  0.00     0.003 A 
ATOM      7  C6  UNL d   1      -0.469   0.027  -0.530  0.00  0.00    -0.001 A 
ENDROOT
TORSDOF 0
ENDMDL
