MODEL 1
REMARK minimizedAffinity -5.36514759
REMARK minimizedRMSD -1
REMARK  0 active torsions:
REMARK  status: ('A' for Active; 'I' for Inactive)
ROOT
ATOM      1  C   UNL d   1      -1.212   0.275   0.653  0.00  0.00     0.078 C 
ATOM      2  C1  UNL d   1       0.090  -0.105   0.014  0.00  0.00    -0.077 A 
ATOM      3  C2  UNL d   1       0.467  -1.448  -0.111  0.00  0.00    -0.001 A 
ATOM      4  C3  UNL d   1       1.687  -1.787  -0.698  0.00  0.00     0.003 A 
ATOM      5  C4  UNL d   1       2.541  -0.789  -1.165  0.00  0.00    -0.005 A 
ATOM      6  C5  UNL d   1       2.175   0.550  -1.043  0.00  0.00     0.003 A 
ATOM      7  C6  UNL d   1       0.956   0.891  -0.455  0.00  0.00    -0.001 A 
ENDROOT
TORSDOF 0
ENDMDL
