MODEL 1
REMARK minimizedAffinity -5.86392403
REMARK minimizedRMSD -1
REMARK  0 active torsions:
REMARK  status: ('A' for Active; 'I' for Inactive)
ROOT
ATOM      1  C   UNL d   1       3.153  -0.090  -1.378  0.00  0.00     0.078 C 
ATOM      2  C1  UNL d   1       1.745  -0.091  -0.861  0.00  0.00    -0.077 A 
ATOM      3  C2  UNL d   1       0.973   1.078  -0.871  0.00  0.00    -0.001 A 
ATOM      4  C3  UNL d   1      -0.333   1.065  -0.378  0.00  0.00     0.003 A 
ATOM      5  C4  UNL d   1      -0.878  -0.113   0.129  0.00  0.00    -0.005 A 
ATOM      6  C5  UNL d   1      -0.117  -1.280   0.145  0.00  0.00     0.003 A 
ATOM      7  C6  UNL d   1       1.189  -1.269  -0.347  0.00  0.00    -0.001 A 
ENDROOT
TORSDOF 0
ENDMDL
