MODEL 1
REMARK minimizedAffinity -3.33368468
REMARK minimizedRMSD -1
REMARK  0 active torsions:
REMARK  status: ('A' for Active; 'I' for Inactive)
ROOT
ATOM      1  C   UNL d   1      -1.355   0.506   0.877  0.00  0.00     0.078 C 
ATOM      2  C1  UNL d   1      -0.284  -0.204   0.104  0.00  0.00    -0.077 A 
ATOM      3  C2  UNL d   1      -0.193  -1.602   0.114  0.00  0.00    -0.001 A 
ATOM      4  C3  UNL d   1       0.815  -2.249  -0.603  0.00  0.00     0.003 A 
ATOM      5  C4  UNL d   1       1.740  -1.507  -1.333  0.00  0.00    -0.005 A 
ATOM      6  C5  UNL d   1       1.660  -0.116  -1.347  0.00  0.00     0.003 A 
ATOM      7  C6  UNL d   1       0.652   0.533  -0.631  0.00  0.00    -0.001 A 
ENDROOT
TORSDOF 0
ENDMDL
