MODEL 1
REMARK minimizedAffinity -5.0790329
REMARK minimizedRMSD -1
REMARK  0 active torsions:
REMARK  status: ('A' for Active; 'I' for Inactive)
ROOT
ATOM      1  C   UNL d   1       2.889  -0.955  -1.179  0.00  0.00     0.078 C 
ATOM      2  C1  UNL d   1       1.513  -0.527  -0.766  0.00  0.00    -0.077 A 
ATOM      3  C2  UNL d   1       1.078   0.790  -0.958  0.00  0.00    -0.001 A 
ATOM      4  C3  UNL d   1      -0.203   1.176  -0.559  0.00  0.00     0.003 A 
ATOM      5  C4  UNL d   1      -1.059   0.251   0.035  0.00  0.00    -0.005 A 
ATOM      6  C5  UNL d   1      -0.635  -1.061   0.233  0.00  0.00     0.003 A 
ATOM      7  C6  UNL d   1       0.646  -1.449  -0.165  0.00  0.00    -0.001 A 
ENDROOT
TORSDOF 0
ENDMDL
