MODEL 1
REMARK minimizedAffinity -4.07667971
REMARK minimizedRMSD -1
REMARK  0 active torsions:
REMARK  status: ('A' for Active; 'I' for Inactive)
ROOT
ATOM      1  C   UNL d   1      -1.557   1.721  -1.087  0.00  0.00     0.078 C 
ATOM      2  C1  UNL d   1      -0.250   1.035  -0.822  0.00  0.00    -0.077 A 
ATOM      3  C2  UNL d   1      -0.098   0.170   0.268  0.00  0.00    -0.001 A 
ATOM      4  C3  UNL d   1       1.126  -0.455   0.508  0.00  0.00     0.003 A 
ATOM      5  C4  UNL d   1       2.209  -0.221  -0.337  0.00  0.00    -0.005 A 
ATOM      6  C5  UNL d   1       2.068   0.640  -1.423  0.00  0.00     0.003 A 
ATOM      7  C6  UNL d   1       0.844   1.266  -1.665  0.00  0.00    -0.001 A 
ENDROOT
TORSDOF 0
ENDMDL
