MODEL 1
REMARK minimizedAffinity 21.5457592
REMARK minimizedRMSD -1
REMARK  1 active torsions:
REMARK  status: ('A' for Active; 'I' for Inactive)
REMARK    1  A    between atoms: C1_2  and  C2_3 
ROOT
ATOM      1  C2  UNL d   1       4.504   2.906   3.854  0.00  0.00    -0.073 A 
ATOM      2  C3  UNL d   1       3.240   2.759   4.436  0.00  0.00    -0.002 A 
ATOM      3  C4  UNL d   1       2.856   3.572   5.503  0.00  0.00     0.004 A 
ATOM      4  C5  UNL d   1       3.727   4.544   5.994  0.00  0.00    -0.004 A 
ATOM      5  C6  UNL d   1       4.990   4.715   5.418  0.00  0.00    -0.075 A 
ATOM      6  C7  UNL d   1       5.940   5.754   5.936  0.00  0.00     0.076 C 
ATOM      7  C8  UNL d   1       5.370   3.892   4.349  0.00  0.00     0.001 A 
ENDROOT
BRANCH   1   8
ATOM      8  C1  UNL d   1       4.921   2.035   2.698  0.00  0.00     0.053 C 
ATOM      9  C   UNL d   1       4.136   2.350   1.435  0.00  0.00     0.018 C 
ENDBRANCH   1   8
TORSDOF 1
ENDMDL
