MODEL 1
REMARK minimizedAffinity 1.33252382
REMARK minimizedRMSD -1
REMARK  1 active torsions:
REMARK  status: ('A' for Active; 'I' for Inactive)
REMARK    1  A    between atoms: C1_2  and  C2_3 
ROOT
ATOM      1  C2  UNL d   1      -1.588  -3.137   2.261  0.00  0.00    -0.073 A 
ATOM      2  C3  UNL d   1      -1.011  -4.410   2.197  0.00  0.00    -0.002 A 
ATOM      3  C4  UNL d   1      -0.438  -4.865   1.009  0.00  0.00     0.004 A 
ATOM      4  C5  UNL d   1      -0.430  -4.051  -0.124  0.00  0.00    -0.004 A 
ATOM      5  C6  UNL d   1      -0.990  -2.771  -0.076  0.00  0.00    -0.075 A 
ATOM      6  C7  UNL d   1      -0.991  -1.883  -1.286  0.00  0.00     0.076 C 
ATOM      7  C8  UNL d   1      -1.566  -2.322   1.120  0.00  0.00     0.001 A 
ENDROOT
BRANCH   1   8
ATOM      8  C1  UNL d   1      -2.202  -2.638   3.544  0.00  0.00     0.053 C 
ATOM      9  C   UNL d   1      -1.192  -2.590   4.678  0.00  0.00     0.018 C 
ENDBRANCH   1   8
TORSDOF 1
ENDMDL
