MODEL 1
REMARK minimizedAffinity 13.1649122
REMARK minimizedRMSD -1
REMARK  1 active torsions:
REMARK  status: ('A' for Active; 'I' for Inactive)
REMARK    1  A    between atoms: C1_2  and  C2_3 
ROOT
ATOM      1  C2  UNL d   1      -1.274  -4.173   0.351  0.00  0.00    -0.073 A 
ATOM      2  C3  UNL d   1      -1.718  -3.508   1.500  0.00  0.00    -0.002 A 
ATOM      3  C4  UNL d   1      -2.174  -2.191   1.420  0.00  0.00     0.004 A 
ATOM      4  C5  UNL d   1      -2.199  -1.530   0.192  0.00  0.00    -0.004 A 
ATOM      5  C6  UNL d   1      -1.771  -2.182  -0.969  0.00  0.00    -0.075 A 
ATOM      6  C7  UNL d   1      -1.789  -1.484  -2.297  0.00  0.00     0.076 C 
ATOM      7  C8  UNL d   1      -1.311  -3.503  -0.880  0.00  0.00     0.001 A 
ENDROOT
BRANCH   1   8
ATOM      8  C1  UNL d   1      -0.786  -5.596   0.431  0.00  0.00     0.053 C 
ATOM      9  C   UNL d   1      -0.433  -5.999   1.854  0.00  0.00     0.018 C 
ENDBRANCH   1   8
TORSDOF 1
ENDMDL
