MODEL 1
REMARK minimizedAffinity 7.26714087
REMARK minimizedRMSD -1
REMARK  1 active torsions:
REMARK  status: ('A' for Active; 'I' for Inactive)
REMARK    1  A    between atoms: C1_2  and  C2_3 
ROOT
ATOM      1  C2  UNL d   1       2.757   1.727  -0.545  0.00  0.00    -0.073 A 
ATOM      2  C3  UNL d   1       2.579   1.343   0.789  0.00  0.00    -0.002 A 
ATOM      3  C4  UNL d   1       3.305   1.966   1.805  0.00  0.00     0.004 A 
ATOM      4  C5  UNL d   1       4.210   2.982   1.499  0.00  0.00    -0.004 A 
ATOM      5  C6  UNL d   1       4.393   3.388   0.173  0.00  0.00    -0.075 A 
ATOM      6  C7  UNL d   1       5.365   4.478  -0.172  0.00  0.00     0.076 C 
ATOM      7  C8  UNL d   1       3.663   2.756  -0.842  0.00  0.00     0.001 A 
ENDROOT
BRANCH   1   8
ATOM      8  C1  UNL d   1       1.971   1.061  -1.645  0.00  0.00     0.053 C 
ATOM      9  C   UNL d   1       2.868   0.293  -2.602  0.00  0.00     0.018 C 
ENDBRANCH   1   8
TORSDOF 1
ENDMDL
