MODEL 1
REMARK minimizedAffinity 9.8293705
REMARK minimizedRMSD -1
REMARK  1 active torsions:
REMARK  status: ('A' for Active; 'I' for Inactive)
REMARK    1  A    between atoms: C1_2  and  C2_3 
ROOT
ATOM      1  C2  UNL d   1      -0.844  -3.947   1.556  0.00  0.00    -0.073 A 
ATOM      2  C3  UNL d   1      -0.848  -3.317   0.306  0.00  0.00    -0.002 A 
ATOM      3  C4  UNL d   1      -1.486  -2.087   0.139  0.00  0.00     0.004 A 
ATOM      4  C5  UNL d   1      -2.119  -1.472   1.218  0.00  0.00    -0.004 A 
ATOM      5  C6  UNL d   1      -2.116  -2.079   2.478  0.00  0.00    -0.075 A 
ATOM      6  C7  UNL d   1      -2.795  -1.432   3.649  0.00  0.00     0.076 C 
ATOM      7  C8  UNL d   1      -1.476  -3.316   2.638  0.00  0.00     0.001 A 
ENDROOT
BRANCH   1   8
ATOM      8  C1  UNL d   1      -0.151  -5.271   1.744  0.00  0.00     0.053 C 
ATOM      9  C   UNL d   1      -0.635  -5.996   2.990  0.00  0.00     0.018 C 
ENDBRANCH   1   8
TORSDOF 1
ENDMDL
