MODEL 1
REMARK minimizedAffinity 7.31792784
REMARK minimizedRMSD -1
REMARK  1 active torsions:
REMARK  status: ('A' for Active; 'I' for Inactive)
REMARK    1  A    between atoms: C1_2  and  C2_3 
ROOT
ATOM      1  C2  UNL d   1      -4.345   4.288  -5.203  0.00  0.00    -0.073 A 
ATOM      2  C3  UNL d   1      -5.081   3.359  -5.949  0.00  0.00    -0.002 A 
ATOM      3  C4  UNL d   1      -4.683   2.023  -6.000  0.00  0.00     0.004 A 
ATOM      4  C5  UNL d   1      -3.552   1.600  -5.302  0.00  0.00    -0.004 A 
ATOM      5  C6  UNL d   1      -2.810   2.510  -4.542  0.00  0.00    -0.075 A 
ATOM      6  C7  UNL d   1      -1.590   2.071  -3.788  0.00  0.00     0.076 C 
ATOM      7  C8  UNL d   1      -3.215   3.851  -4.498  0.00  0.00     0.001 A 
ENDROOT
BRANCH   1   8
ATOM      8  C1  UNL d   1      -4.775   5.731  -5.140  0.00  0.00     0.053 C 
ATOM      9  C   UNL d   1      -5.999   5.999  -6.000  0.00  0.00     0.018 C 
ENDBRANCH   1   8
TORSDOF 1
ENDMDL
