MODEL 1
REMARK minimizedAffinity 8.30481434
REMARK minimizedRMSD -1
REMARK  1 active torsions:
REMARK  status: ('A' for Active; 'I' for Inactive)
REMARK    1  A    between atoms: C1_2  and  C2_3 
ROOT
ATOM      1  C2  UNL d   1      -3.459   3.384  -4.462  0.00  0.00    -0.073 A 
ATOM      2  C3  UNL d   1      -2.937   4.172  -3.430  0.00  0.00    -0.002 A 
ATOM      3  C4  UNL d   1      -3.399   5.474  -3.236  0.00  0.00     0.004 A 
ATOM      4  C5  UNL d   1      -4.390   5.999  -4.065  0.00  0.00    -0.004 A 
ATOM      5  C6  UNL d   1      -4.932   5.223  -5.095  0.00  0.00    -0.075 A 
ATOM      6  C7  UNL d   1      -5.997   5.774  -5.997  0.00  0.00     0.076 C 
ATOM      7  C8  UNL d   1      -4.461   3.917  -5.285  0.00  0.00     0.001 A 
ENDROOT
BRANCH   1   8
ATOM      8  C1  UNL d   1      -2.968   1.975  -4.672  0.00  0.00     0.053 C 
ATOM      9  C   UNL d   1      -3.041   1.150  -3.397  0.00  0.00     0.018 C 
ENDBRANCH   1   8
TORSDOF 1
ENDMDL
