MODEL 1
REMARK minimizedAffinity 18.7024612
REMARK minimizedRMSD -1
REMARK  1 active torsions:
REMARK  status: ('A' for Active; 'I' for Inactive)
REMARK    1  A    between atoms: C1_2  and  C2_3 
ROOT
ATOM      1  C2  UNL d   1       4.627   3.500   3.457  0.00  0.00    -0.073 A 
ATOM      2  C3  UNL d   1       5.858   3.462   4.123  0.00  0.00    -0.002 A 
ATOM      3  C4  UNL d   1       5.995   4.041   5.385  0.00  0.00     0.004 A 
ATOM      4  C5  UNL d   1       4.903   4.657   5.997  0.00  0.00    -0.004 A 
ATOM      5  C6  UNL d   1       3.662   4.695   5.353  0.00  0.00    -0.075 A 
ATOM      6  C7  UNL d   1       2.479   5.356   5.997  0.00  0.00     0.076 C 
ATOM      7  C8  UNL d   1       3.533   4.114   4.085  0.00  0.00     0.001 A 
ENDROOT
BRANCH   1   8
ATOM      8  C1  UNL d   1       4.472   2.871   2.097  0.00  0.00     0.053 C 
ATOM      9  C   UNL d   1       4.376   3.913   0.994  0.00  0.00     0.018 C 
ENDBRANCH   1   8
TORSDOF 1
ENDMDL
