MODEL 1
REMARK minimizedAffinity 16.740345
REMARK minimizedRMSD -1
REMARK  1 active torsions:
REMARK  status: ('A' for Active; 'I' for Inactive)
REMARK    1  A    between atoms: C1_2  and  C2_3 
ROOT
ATOM      1  C2  UNL d   1      -3.451   3.950   1.047  0.00  0.00    -0.073 A 
ATOM      2  C3  UNL d   1      -3.694   4.584  -0.176  0.00  0.00    -0.002 A 
ATOM      3  C4  UNL d   1      -4.682   5.565  -0.278  0.00  0.00     0.004 A 
ATOM      4  C5  UNL d   1      -5.431   5.926   0.842  0.00  0.00    -0.004 A 
ATOM      5  C6  UNL d   1      -5.194   5.312   2.076  0.00  0.00    -0.075 A 
ATOM      6  C7  UNL d   1      -5.992   5.687   3.290  0.00  0.00     0.076 C 
ATOM      7  C8  UNL d   1      -4.203   4.326   2.170  0.00  0.00     0.001 A 
ENDROOT
BRANCH   1   8
ATOM      8  C1  UNL d   1      -2.381   2.895   1.163  0.00  0.00     0.053 C 
ATOM      9  C   UNL d   1      -2.346   2.269   2.548  0.00  0.00     0.018 C 
ENDBRANCH   1   8
TORSDOF 1
ENDMDL
