MODEL 1
REMARK minimizedAffinity -6.50991964
REMARK minimizedRMSD -1
REMARK  0 active torsions:
REMARK  status: ('A' for Active; 'I' for Inactive)
ROOT
ATOM      1  C1  DEN d   1      -0.678   1.226  -1.271  0.00  0.00     0.130 A 
ATOM      2  C2  DEN d   1      -0.987   0.211  -0.268  0.00  0.00    -0.031 A 
ATOM      3  C3  DEN d   1       0.074  -0.814  -0.313  0.00  0.00     0.027 A 
ATOM      4  C4  DEN d   1       2.159  -0.926  -1.827  0.00  0.00     0.027 A 
ATOM      5  C5  DEN d   1       2.843  -0.297  -2.843  0.00  0.00    -0.003 A 
ATOM      6  C6  DEN d   1       2.387   0.856  -3.426  0.00  0.00     0.001 A 
ATOM      7  C7  DEN d   1       1.238   1.441  -2.964  0.00  0.00     0.017 A 
ATOM      8  C8  DEN d   1       0.539   0.809  -1.945  0.00  0.00    -0.094 A 
ATOM      9  C9  DEN d   1       1.022  -0.350  -1.361  0.00  0.00    -0.072 A 
ENDROOT
TORSDOF 0
ENDMDL
