MODEL 1
REMARK minimizedAffinity -5.75062609
REMARK minimizedRMSD -1
REMARK  0 active torsions:
REMARK  status: ('A' for Active; 'I' for Inactive)
ROOT
ATOM      1  C1  DEN d   1      -0.743   0.732  -0.385  0.00  0.00     0.130 A 
ATOM      2  C2  DEN d   1      -0.799  -0.526   0.356  0.00  0.00    -0.031 A 
ATOM      3  C3  DEN d   1       0.484  -1.230   0.157  0.00  0.00     0.027 A 
ATOM      4  C4  DEN d   1       2.542  -0.496  -1.213  0.00  0.00     0.027 A 
ATOM      5  C5  DEN d   1       3.055   0.489  -2.027  0.00  0.00    -0.003 A 
ATOM      6  C6  DEN d   1       2.332   1.599  -2.375  0.00  0.00     0.001 A 
ATOM      7  C7  DEN d   1       1.071   1.773  -1.871  0.00  0.00     0.017 A 
ATOM      8  C8  DEN d   1       0.543   0.780  -1.056  0.00  0.00    -0.094 A 
ATOM      9  C9  DEN d   1       1.294  -0.329  -0.706  0.00  0.00    -0.072 A 
ENDROOT
TORSDOF 0
ENDMDL
