MODEL 1
REMARK minimizedAffinity -4.34417057
REMARK minimizedRMSD -1
REMARK  0 active torsions:
REMARK  status: ('A' for Active; 'I' for Inactive)
ROOT
ATOM      1  C1  DEN d   1       0.609   1.955  -2.399  0.00  0.00     0.130 A 
ATOM      2  C2  DEN d   1       1.660   1.753  -3.393  0.00  0.00    -0.031 A 
ATOM      3  C3  DEN d   1       2.297   0.447  -3.125  0.00  0.00     0.027 A 
ATOM      4  C4  DEN d   1       1.757  -1.273  -1.281  0.00  0.00     0.027 A 
ATOM      5  C5  DEN d   1       0.954  -1.539  -0.194  0.00  0.00    -0.003 A 
ATOM      6  C6  DEN d   1       0.010  -0.652   0.251  0.00  0.00     0.001 A 
ATOM      7  C7  DEN d   1      -0.185   0.526  -0.422  0.00  0.00     0.017 A 
ATOM      8  C8  DEN d   1       0.626   0.804  -1.514  0.00  0.00    -0.094 A 
ATOM      9  C9  DEN d   1       1.566  -0.111  -1.956  0.00  0.00    -0.072 A 
ENDROOT
TORSDOF 0
ENDMDL
