MODEL 1
REMARK minimizedAffinity -0.720339477
REMARK minimizedRMSD -1
REMARK  0 active torsions:
REMARK  status: ('A' for Active; 'I' for Inactive)
ROOT
ATOM      1  C1  DEN d   1      -0.918  -0.331   0.633  0.00  0.00     0.130 A 
ATOM      2  C2  DEN d   1      -0.072   0.619  -0.084  0.00  0.00    -0.031 A 
ATOM      3  C3  DEN d   1      -0.022   1.868   0.701  0.00  0.00     0.027 A 
ATOM      4  C4  DEN d   1      -1.162   2.420   2.948  0.00  0.00     0.027 A 
ATOM      5  C5  DEN d   1      -1.990   1.934   3.936  0.00  0.00    -0.003 A 
ATOM      6  C6  DEN d   1      -2.541   0.682   3.876  0.00  0.00     0.001 A 
ATOM      7  C7  DEN d   1      -2.235  -0.145   2.827  0.00  0.00     0.017 A 
ATOM      8  C8  DEN d   1      -1.407   0.340   1.824  0.00  0.00    -0.094 A 
ATOM      9  C9  DEN d   1      -0.850   1.605   1.909  0.00  0.00    -0.072 A 
ENDROOT
TORSDOF 0
ENDMDL
