MODEL 1
REMARK minimizedAffinity -3.11210918
REMARK minimizedRMSD -1
REMARK  0 active torsions:
REMARK  status: ('A' for Active; 'I' for Inactive)
ROOT
ATOM      1  C1  DEN d   1      -1.002   0.652   3.785  0.00  0.00     0.130 A 
ATOM      2  C2  DEN d   1      -2.394   1.092   3.792  0.00  0.00    -0.031 A 
ATOM      3  C3  DEN d   1      -2.907   1.009   2.410  0.00  0.00     0.027 A 
ATOM      4  C4  DEN d   1      -1.687   0.240   0.271  0.00  0.00     0.027 A 
ATOM      5  C5  DEN d   1      -0.490  -0.216  -0.237  0.00  0.00    -0.003 A 
ATOM      6  C6  DEN d   1       0.620  -0.380   0.548  0.00  0.00     0.001 A 
ATOM      7  C7  DEN d   1       0.545  -0.129   1.893  0.00  0.00     0.017 A 
ATOM      8  C8  DEN d   1      -0.656   0.337   2.410  0.00  0.00    -0.094 A 
ATOM      9  C9  DEN d   1      -1.771   0.485   1.603  0.00  0.00    -0.072 A 
ENDROOT
TORSDOF 0
ENDMDL
