MODEL 1
REMARK minimizedAffinity -5.481534
REMARK minimizedRMSD -1
REMARK  0 active torsions:
REMARK  status: ('A' for Active; 'I' for Inactive)
ROOT
ATOM      1  C1  DEN d   1       0.897   2.045  -2.254  0.00  0.00     0.130 A 
ATOM      2  C2  DEN d   1       1.597   2.289  -3.512  0.00  0.00    -0.031 A 
ATOM      3  C3  DEN d   1       2.568   1.196  -3.715  0.00  0.00     0.027 A 
ATOM      4  C4  DEN d   1       3.051  -0.844  -2.212  0.00  0.00     0.027 A 
ATOM      5  C5  DEN d   1       2.716  -1.475  -1.034  0.00  0.00    -0.003 A 
ATOM      6  C6  DEN d   1       1.784  -0.963  -0.171  0.00  0.00     0.001 A 
ATOM      7  C7  DEN d   1       1.121   0.191  -0.495  0.00  0.00     0.017 A 
ATOM      8  C8  DEN d   1       1.458   0.836  -1.677  0.00  0.00    -0.094 A 
ATOM      9  C9  DEN d   1       2.394   0.297  -2.542  0.00  0.00    -0.072 A 
ENDROOT
TORSDOF 0
ENDMDL
