MODEL 1
REMARK minimizedAffinity -6.04764891
REMARK minimizedRMSD -1
REMARK  0 active torsions:
REMARK  status: ('A' for Active; 'I' for Inactive)
ROOT
ATOM      1  C1  DEN d   1       0.390   1.751  -2.278  0.00  0.00     0.130 A 
ATOM      2  C2  DEN d   1       1.388   1.582  -3.331  0.00  0.00    -0.031 A 
ATOM      3  C3  DEN d   1       2.017   0.258  -3.155  0.00  0.00     0.027 A 
ATOM      4  C4  DEN d   1       1.544  -1.538  -1.365  0.00  0.00     0.027 A 
ATOM      5  C5  DEN d   1       0.791  -1.844  -0.253  0.00  0.00    -0.003 A 
ATOM      6  C6  DEN d   1      -0.116  -0.966   0.278  0.00  0.00     0.001 A 
ATOM      7  C7  DEN d   1      -0.327   0.243  -0.330  0.00  0.00     0.017 A 
ATOM      8  C8  DEN d   1       0.434   0.561  -1.448  0.00  0.00    -0.094 A 
ATOM      9  C9  DEN d   1       1.337  -0.345  -1.977  0.00  0.00    -0.072 A 
ENDROOT
TORSDOF 0
ENDMDL
