MODEL 1
REMARK minimizedAffinity -5.21547222
REMARK minimizedRMSD -1
REMARK  0 active torsions:
REMARK  status: ('A' for Active; 'I' for Inactive)
ROOT
ATOM      1  C1  DEN d   1      -1.027   0.535  -0.103  0.00  0.00     0.130 A 
ATOM      2  C2  DEN d   1      -1.085  -0.687   0.694  0.00  0.00    -0.031 A 
ATOM      3  C3  DEN d   1       0.027  -1.562   0.270  0.00  0.00     0.027 A 
ATOM      4  C4  DEN d   1       1.825  -1.143  -1.531  0.00  0.00     0.027 A 
ATOM      5  C5  DEN d   1       2.277  -0.253  -2.481  0.00  0.00    -0.003 A 
ATOM      6  C6  DEN d   1       1.644   0.937  -2.726  0.00  0.00     0.001 A 
ATOM      7  C7  DEN d   1       0.550   1.290  -1.981  0.00  0.00     0.017 A 
ATOM      8  C8  DEN d   1       0.084   0.395  -1.027  0.00  0.00    -0.094 A 
ATOM      9  C9  DEN d   1       0.745  -0.798  -0.786  0.00  0.00    -0.072 A 
ENDROOT
TORSDOF 0
ENDMDL
