MODEL 1
REMARK minimizedAffinity -5.34571505
REMARK minimizedRMSD -1
REMARK  0 active torsions:
REMARK  status: ('A' for Active; 'I' for Inactive)
ROOT
ATOM      1  C1  DEN d   1      -0.647   0.753  -0.355  0.00  0.00     0.130 A 
ATOM      2  C2  DEN d   1      -0.759  -0.304   0.646  0.00  0.00    -0.031 A 
ATOM      3  C3  DEN d   1       0.457  -1.138   0.568  0.00  0.00     0.027 A 
ATOM      4  C4  DEN d   1       2.495  -0.892  -0.994  0.00  0.00     0.027 A 
ATOM      5  C5  DEN d   1       3.040  -0.153  -2.021  0.00  0.00    -0.003 A 
ATOM      6  C6  DEN d   1       2.385   0.911  -2.582  0.00  0.00     0.001 A 
ATOM      7  C7  DEN d   1       1.165   1.293  -2.090  0.00  0.00     0.017 A 
ATOM      8  C8  DEN d   1       0.606   0.548  -1.060  0.00  0.00    -0.094 A 
ATOM      9  C9  DEN d   1       1.290  -0.516  -0.498  0.00  0.00    -0.072 A 
ENDROOT
TORSDOF 0
ENDMDL
