MODEL 1
REMARK minimizedAffinity -3.9573946
REMARK minimizedRMSD -1
REMARK  0 active torsions:
REMARK  status: ('A' for Active; 'I' for Inactive)
ROOT
ATOM      1  C1  DEN d   1      -0.037   1.034   0.171  0.00  0.00     0.130 A 
ATOM      2  C2  DEN d   1      -0.104  -0.289  -0.445  0.00  0.00    -0.031 A 
ATOM      3  C3  DEN d   1      -1.206  -1.035   0.195  0.00  0.00     0.027 A 
ATOM      4  C4  DEN d   1      -2.810  -0.274   2.066  0.00  0.00     0.027 A 
ATOM      5  C5  DEN d   1      -3.134   0.761   2.915  0.00  0.00    -0.003 A 
ATOM      6  C6  DEN d   1      -2.433   1.938   2.932  0.00  0.00     0.001 A 
ATOM      7  C7  DEN d   1      -1.399   2.125   2.052  0.00  0.00     0.017 A 
ATOM      8  C8  DEN d   1      -1.062   1.083   1.199  0.00  0.00    -0.094 A 
ATOM      9  C9  DEN d   1      -1.791  -0.094   1.188  0.00  0.00    -0.072 A 
ENDROOT
TORSDOF 0
ENDMDL
