MODEL 1
REMARK minimizedAffinity -2.3127768
REMARK minimizedRMSD -1
REMARK  0 active torsions:
REMARK  status: ('A' for Active; 'I' for Inactive)
ROOT
ATOM      1  C1  DEN d   1      -0.873   1.452  -0.114  0.00  0.00     0.130 A 
ATOM      2  C2  DEN d   1      -1.153   0.357   0.811  0.00  0.00    -0.031 A 
ATOM      3  C3  DEN d   1      -0.194  -0.731   0.533  0.00  0.00     0.027 A 
ATOM      4  C4  DEN d   1       1.688  -0.825  -1.228  0.00  0.00     0.027 A 
ATOM      5  C5  DEN d   1       2.304  -0.138  -2.251  0.00  0.00    -0.003 A 
ATOM      6  C6  DEN d   1       1.885   1.103  -2.653  0.00  0.00     0.001 A 
ATOM      7  C7  DEN d   1       0.849   1.714  -1.998  0.00  0.00     0.017 A 
ATOM      8  C8  DEN d   1       0.219   1.025  -0.970  0.00  0.00    -0.094 A 
ATOM      9  C9  DEN d   1       0.665  -0.223  -0.570  0.00  0.00    -0.072 A 
ENDROOT
TORSDOF 0
ENDMDL
