MODEL 1
REMARK minimizedAffinity -5.88055611
REMARK minimizedRMSD -1
REMARK  0 active torsions:
REMARK  status: ('A' for Active; 'I' for Inactive)
ROOT
ATOM      1  C1  DEN d   1       1.803   0.007  -2.491  0.00  0.00     0.130 A 
ATOM      2  C2  DEN d   1       1.395   1.377  -2.786  0.00  0.00    -0.031 A 
ATOM      3  C3  DEN d   1       0.218   1.693  -1.953  0.00  0.00     0.027 A 
ATOM      4  C4  DEN d   1      -1.004   0.201  -0.239  0.00  0.00     0.027 A 
ATOM      5  C5  DEN d   1      -1.031  -1.045   0.346  0.00  0.00    -0.003 A 
ATOM      6  C6  DEN d   1      -0.144  -2.032   0.005  0.00  0.00     0.001 A 
ATOM      7  C7  DEN d   1       0.837  -1.773  -0.915  0.00  0.00     0.017 A 
ATOM      8  C8  DEN d   1       0.866  -0.521  -1.515  0.00  0.00    -0.094 A 
ATOM      9  C9  DEN d   1      -0.031   0.467  -1.148  0.00  0.00    -0.072 A 
ENDROOT
TORSDOF 0
ENDMDL
