MODEL 1
REMARK minimizedAffinity -1.40392482
REMARK minimizedRMSD -1
REMARK  0 active torsions:
REMARK  status: ('A' for Active; 'I' for Inactive)
ROOT
ATOM      1  C1  DEN d   1      -0.835   0.635   0.277  0.00  0.00     0.130 A 
ATOM      2  C2  DEN d   1      -0.920  -0.558   1.115  0.00  0.00    -0.031 A 
ATOM      3  C3  DEN d   1       0.105  -1.515   0.652  0.00  0.00     0.027 A 
ATOM      4  C4  DEN d   1       1.808  -1.266  -1.269  0.00  0.00     0.027 A 
ATOM      5  C5  DEN d   1       2.254  -0.435  -2.273  0.00  0.00    -0.003 A 
ATOM      6  C6  DEN d   1       1.684   0.786  -2.518  0.00  0.00     0.001 A 
ATOM      7  C7  DEN d   1       0.664   1.231  -1.719  0.00  0.00     0.017 A 
ATOM      8  C8  DEN d   1       0.204   0.396  -0.709  0.00  0.00    -0.094 A 
ATOM      9  C9  DEN d   1       0.801  -0.830  -0.470  0.00  0.00    -0.072 A 
ENDROOT
TORSDOF 0
ENDMDL
