MODEL 1
REMARK minimizedAffinity -4.68175983
REMARK minimizedRMSD -1
REMARK  0 active torsions:
REMARK  status: ('A' for Active; 'I' for Inactive)
ROOT
ATOM      1  C1  DEN d   1       0.511  -1.479  -0.084  0.00  0.00     0.130 A 
ATOM      2  C2  DEN d   1      -0.522  -0.509   0.269  0.00  0.00    -0.031 A 
ATOM      3  C3  DEN d   1      -0.172   0.780  -0.363  0.00  0.00     0.027 A 
ATOM      4  C4  DEN d   1       1.854   1.361  -1.850  0.00  0.00     0.027 A 
ATOM      5  C5  DEN d   1       3.008   0.867  -2.418  0.00  0.00    -0.003 A 
ATOM      6  C6  DEN d   1       3.424  -0.423  -2.222  0.00  0.00     0.001 A 
ATOM      7  C7  DEN d   1       2.658  -1.277  -1.474  0.00  0.00     0.017 A 
ATOM      8  C8  DEN d   1       1.497  -0.785  -0.892  0.00  0.00    -0.094 A 
ATOM      9  C9  DEN d   1       1.086   0.519  -1.112  0.00  0.00    -0.072 A 
ENDROOT
TORSDOF 0
ENDMDL
