MODEL 1
REMARK minimizedAffinity -7.15451765
REMARK minimizedRMSD -1
REMARK  0 active torsions:
REMARK  status: ('A' for Active; 'I' for Inactive)
ROOT
ATOM      1  C1  DEN d   1      -0.500   0.784  -0.591  0.00  0.00     0.130 A 
ATOM      2  C2  DEN d   1      -0.659  -0.195   0.480  0.00  0.00    -0.031 A 
ATOM      3  C3  DEN d   1       0.599  -0.961   0.589  0.00  0.00     0.027 A 
ATOM      4  C4  DEN d   1       2.767  -0.722  -0.788  0.00  0.00     0.027 A 
ATOM      5  C5  DEN d   1       3.374  -0.036  -1.816  0.00  0.00    -0.003 A 
ATOM      6  C6  DEN d   1       2.726   0.940  -2.525  0.00  0.00     0.001 A 
ATOM      7  C7  DEN d   1       1.446   1.289  -2.185  0.00  0.00     0.017 A 
ATOM      8  C8  DEN d   1       0.825   0.597  -1.154  0.00  0.00    -0.094 A 
ATOM      9  C9  DEN d   1       1.501  -0.378  -0.441  0.00  0.00    -0.072 A 
ENDROOT
TORSDOF 0
ENDMDL
