MODEL 1
REMARK minimizedAffinity -4.48145342
REMARK minimizedRMSD -1
REMARK  0 active torsions:
REMARK  status: ('A' for Active; 'I' for Inactive)
ROOT
ATOM      1  C1  BNZ d   1      -1.218  -0.435   1.999  0.00  0.00     0.000 A 
ATOM      2  C2  BNZ d   1      -0.647  -0.911   3.149  0.00  0.00     0.000 A 
ATOM      3  C3  BNZ d   1       0.712  -0.950   3.292  0.00  0.00     0.000 A 
ATOM      4  C4  BNZ d   1       1.497  -0.551   2.271  0.00  0.00     0.000 A 
ATOM      5  C5  BNZ d   1       0.936  -0.077   1.102  0.00  0.00     0.000 A 
ATOM      6  C6  BNZ d   1      -0.432  -0.003   0.976  0.00  0.00     0.000 A 
ENDROOT
TORSDOF 0
ENDMDL
