MODEL 1
REMARK minimizedAffinity -3.46340513
REMARK minimizedRMSD -1
REMARK  0 active torsions:
REMARK  status: ('A' for Active; 'I' for Inactive)
ROOT
ATOM      1  C1  BNZ d   1      -0.435  -1.070   3.038  0.00  0.00     0.000 A 
ATOM      2  C2  BNZ d   1       0.922  -1.057   3.224  0.00  0.00     0.000 A 
ATOM      3  C3  BNZ d   1       1.758  -0.590   2.248  0.00  0.00     0.000 A 
ATOM      4  C4  BNZ d   1       1.240  -0.176   1.074  0.00  0.00     0.000 A 
ATOM      5  C5  BNZ d   1      -0.125  -0.192   0.868  0.00  0.00     0.000 A 
ATOM      6  C6  BNZ d   1      -0.966  -0.625   1.867  0.00  0.00     0.000 A 
ENDROOT
TORSDOF 0
ENDMDL
