MODEL 1
REMARK minimizedAffinity -2.76589537
REMARK minimizedRMSD -1
REMARK  0 active torsions:
REMARK  status: ('A' for Active; 'I' for Inactive)
ROOT
ATOM      1  C1  BNZ d   1       2.242  -0.229   2.069  0.00  0.00     0.000 A 
ATOM      2  C2  BNZ d   1       1.720  -0.991   3.080  0.00  0.00     0.000 A 
ATOM      3  C3  BNZ d   1       0.439  -1.463   3.011  0.00  0.00     0.000 A 
ATOM      4  C4  BNZ d   1      -0.331  -1.140   1.952  0.00  0.00     0.000 A 
ATOM      5  C5  BNZ d   1       0.178  -0.364   0.929  0.00  0.00     0.000 A 
ATOM      6  C6  BNZ d   1       1.480   0.077   0.984  0.00  0.00     0.000 A 
ENDROOT
TORSDOF 0
ENDMDL
