MODEL 1
REMARK minimizedAffinity -2.97597528
REMARK minimizedRMSD -1
REMARK  0 active torsions:
REMARK  status: ('A' for Active; 'I' for Inactive)
ROOT
ATOM      1  C1  BNZ d   1       1.576  -1.013   1.484  0.00  0.00     0.000 A 
ATOM      2  C2  BNZ d   1       0.838  -0.510   0.446  0.00  0.00     0.000 A 
ATOM      3  C3  BNZ d   1      -0.527  -0.479   0.508  0.00  0.00     0.000 A 
ATOM      4  C4  BNZ d   1      -1.153  -0.987   1.589  0.00  0.00     0.000 A 
ATOM      5  C5  BNZ d   1      -0.424  -1.506   2.640  0.00  0.00     0.000 A 
ATOM      6  C6  BNZ d   1       0.951  -1.500   2.591  0.00  0.00     0.000 A 
ENDROOT
TORSDOF 0
ENDMDL
