MODEL 1
REMARK minimizedAffinity -5.1344285
REMARK minimizedRMSD -1
REMARK  0 active torsions:
REMARK  status: ('A' for Active; 'I' for Inactive)
ROOT
ATOM      1  C1  BNZ d   1       1.657  -0.021   1.919  0.00  0.00     0.000 A 
ATOM      2  C2  BNZ d   1       1.047  -0.681   2.952  0.00  0.00     0.000 A 
ATOM      3  C3  BNZ d   1      -0.169  -1.282   2.778  0.00  0.00     0.000 A 
ATOM      4  C4  BNZ d   1      -0.790  -1.187   1.585  0.00  0.00     0.000 A 
ATOM      5  C5  BNZ d   1      -0.192  -0.517   0.536  0.00  0.00     0.000 A 
ATOM      6  C6  BNZ d   1       1.049   0.053   0.703  0.00  0.00     0.000 A 
ENDROOT
TORSDOF 0
ENDMDL
