MODEL 1
REMARK minimizedAffinity -4.24852324
REMARK minimizedRMSD -1
REMARK  0 active torsions:
REMARK  status: ('A' for Active; 'I' for Inactive)
ROOT
ATOM      1  C1  BNZ d   1      -0.545  -0.655   2.274  0.00  0.00     0.000 A 
ATOM      2  C2  BNZ d   1      -1.446  -0.371   1.282  0.00  0.00     0.000 A 
ATOM      3  C3  BNZ d   1      -1.028  -0.141   0.001  0.00  0.00     0.000 A 
ATOM      4  C4  BNZ d   1       0.292  -0.155  -0.278  0.00  0.00     0.000 A 
ATOM      5  C5  BNZ d   1       1.213  -0.430   0.713  0.00  0.00     0.000 A 
ATOM      6  C6  BNZ d   1       0.785  -0.700   1.993  0.00  0.00     0.000 A 
ENDROOT
TORSDOF 0
ENDMDL
