MODEL 1
REMARK minimizedAffinity -3.51232409
REMARK minimizedRMSD -1
REMARK  0 active torsions:
REMARK  status: ('A' for Active; 'I' for Inactive)
ROOT
ATOM      1  C1  BNZ d   1      -1.221   0.909  -1.547  0.00  0.00     0.000 A 
ATOM      2  C2  BNZ d   1      -2.229   1.469  -2.285  0.00  0.00     0.000 A 
ATOM      3  C3  BNZ d   1      -1.989   2.539  -3.100  0.00  0.00     0.000 A 
ATOM      4  C4  BNZ d   1      -0.751   3.073  -3.146  0.00  0.00     0.000 A 
ATOM      5  C5  BNZ d   1       0.274   2.526  -2.401  0.00  0.00     0.000 A 
ATOM      6  C6  BNZ d   1       0.037   1.424  -1.611  0.00  0.00     0.000 A 
ENDROOT
TORSDOF 0
ENDMDL
