MODEL 1
REMARK minimizedAffinity -3.87239838
REMARK minimizedRMSD -1
REMARK  0 active torsions:
REMARK  status: ('A' for Active; 'I' for Inactive)
ROOT
ATOM      1  C1  BNZ d   1       0.840   0.173  -0.784  0.00  0.00     0.000 A 
ATOM      2  C2  BNZ d   1       2.077   0.742  -0.925  0.00  0.00     0.000 A 
ATOM      3  C3  BNZ d   1       3.077   0.473  -0.032  0.00  0.00     0.000 A 
ATOM      4  C4  BNZ d   1       2.827  -0.332   1.020  0.00  0.00     0.000 A 
ATOM      5  C5  BNZ d   1       1.581  -0.906   1.181  0.00  0.00     0.000 A 
ATOM      6  C6  BNZ d   1       0.589  -0.663   0.260  0.00  0.00     0.000 A 
ENDROOT
TORSDOF 0
ENDMDL
