MODEL 1
REMARK minimizedAffinity -3.54061055
REMARK minimizedRMSD -1
REMARK  0 active torsions:
REMARK  status: ('A' for Active; 'I' for Inactive)
ROOT
ATOM      1  C1  BNZ d   1       1.275   1.204   1.215  0.00  0.00     0.000 A 
ATOM      2  C2  BNZ d   1      -0.036   1.483   0.938  0.00  0.00     0.000 A 
ATOM      3  C3  BNZ d   1      -0.805   0.602   0.229  0.00  0.00     0.000 A 
ATOM      4  C4  BNZ d   1      -0.251  -0.537  -0.235  0.00  0.00     0.000 A 
ATOM      5  C5  BNZ d   1       1.072  -0.828   0.029  0.00  0.00     0.000 A 
ATOM      6  C6  BNZ d   1       1.832   0.043   0.775  0.00  0.00     0.000 A 
ENDROOT
TORSDOF 0
ENDMDL
