MODEL 1
REMARK minimizedAffinity -4.37094641
REMARK minimizedRMSD -1
REMARK  0 active torsions:
REMARK  status: ('A' for Active; 'I' for Inactive)
ROOT
ATOM      1  C1  BNZ d   1       1.331   2.013   0.245  0.00  0.00     0.000 A 
ATOM      2  C2  BNZ d   1       2.489   1.343   0.535  0.00  0.00     0.000 A 
ATOM      3  C3  BNZ d   1       2.491  -0.015   0.697  0.00  0.00     0.000 A 
ATOM      4  C4  BNZ d   1       1.329  -0.694   0.609  0.00  0.00     0.000 A 
ATOM      5  C5  BNZ d   1       0.151  -0.032   0.327  0.00  0.00     0.000 A 
ATOM      6  C6  BNZ d   1       0.160   1.329   0.126  0.00  0.00     0.000 A 
ENDROOT
TORSDOF 0
ENDMDL
