MODEL 1
REMARK minimizedAffinity -4.75153112
REMARK minimizedRMSD -1
REMARK  0 active torsions:
REMARK  status: ('A' for Active; 'I' for Inactive)
ROOT
ATOM      1  C1  BNZ d   1       1.068  -0.845   0.373  0.00  0.00     0.000 A 
ATOM      2  C2  BNZ d   1       1.965   0.154   0.107  0.00  0.00     0.000 A 
ATOM      3  C3  BNZ d   1       3.131   0.254   0.815  0.00  0.00     0.000 A 
ATOM      4  C4  BNZ d   1       3.378  -0.619   1.812  0.00  0.00     0.000 A 
ATOM      5  C5  BNZ d   1       2.479  -1.626   2.098  0.00  0.00     0.000 A 
ATOM      6  C6  BNZ d   1       1.325  -1.748   1.359  0.00  0.00     0.000 A 
ENDROOT
TORSDOF 0
ENDMDL
