MODEL 1
REMARK minimizedAffinity -4.1619029
REMARK minimizedRMSD -1
REMARK  0 active torsions:
REMARK  status: ('A' for Active; 'I' for Inactive)
ROOT
ATOM      1  C1  BNZ d   1       0.550   0.776   0.366  0.00  0.00     0.000 A 
ATOM      2  C2  BNZ d   1       1.703   1.509   0.269  0.00  0.00     0.000 A 
ATOM      3  C3  BNZ d   1       2.895   0.999   0.704  0.00  0.00     0.000 A 
ATOM      4  C4  BNZ d   1       2.925  -0.225   1.271  0.00  0.00     0.000 A 
ATOM      5  C5  BNZ d   1       1.769  -0.971   1.384  0.00  0.00     0.000 A 
ATOM      6  C6  BNZ d   1       0.578  -0.471   0.910  0.00  0.00     0.000 A 
ENDROOT
TORSDOF 0
ENDMDL
