MODEL 1
REMARK minimizedAffinity -5.04113722
REMARK minimizedRMSD -1
REMARK  0 active torsions:
REMARK  status: ('A' for Active; 'I' for Inactive)
ROOT
ATOM      1  C1  BNZ d   1       2.982  -1.001   0.579  0.00  0.00     0.000 A 
ATOM      2  C2  BNZ d   1       3.591   0.167   0.953  0.00  0.00     0.000 A 
ATOM      3  C3  BNZ d   1       2.878   1.329   1.052  0.00  0.00     0.000 A 
ATOM      4  C4  BNZ d   1       1.566   1.330   0.738  0.00  0.00     0.000 A 
ATOM      5  C5  BNZ d   1       0.939   0.163   0.350  0.00  0.00     0.000 A 
ATOM      6  C6  BNZ d   1       1.652  -1.013   0.289  0.00  0.00     0.000 A 
ENDROOT
TORSDOF 0
ENDMDL
