MODEL 1
REMARK minimizedAffinity 5.61879873
REMARK minimizedRMSD -1
REMARK  0 active torsions:
REMARK  status: ('A' for Active; 'I' for Inactive)
ROOT
ATOM      1  O1  BZF d   1      -5.342   0.738  -5.264  0.00  0.00    -0.204 OA
ATOM      2  C2  BZF d   1      -5.999  -0.261  -4.572  0.00  0.00     0.174 A 
ATOM      3  C3  BZF d   1      -5.174  -0.852  -3.684  0.00  0.00    -0.012 A 
ATOM      4  C3A BZF d   1      -3.948  -0.119  -3.764  0.00  0.00    -0.107 A 
ATOM      5  C4  BZF d   1      -2.751  -0.217  -3.114  0.00  0.00     0.055 A 
ATOM      6  C5  BZF d   1      -1.733   0.606  -3.478  0.00  0.00    -0.016 A 
ATOM      7  C6  BZF d   1      -1.875   1.534  -4.489  0.00  0.00     0.022 A 
ATOM      8  C7  BZF d   1      -3.044   1.672  -5.159  0.00  0.00     0.029 A 
ATOM      9  C7A BZF d   1      -4.086   0.864  -4.772  0.00  0.00     0.058 A 
ENDROOT
TORSDOF 0
ENDMDL
