MODEL 1
REMARK minimizedAffinity 6.72054482
REMARK minimizedRMSD -1
REMARK  0 active torsions:
REMARK  status: ('A' for Active; 'I' for Inactive)
ROOT
ATOM      1  O1  BZF d   1      -1.377   1.267  -3.290  0.00  0.00    -0.204 OA
ATOM      2  C2  BZF d   1      -1.239   0.705  -2.035  0.00  0.00     0.174 A 
ATOM      3  C3  BZF d   1      -2.281  -0.103  -1.755  0.00  0.00    -0.012 A 
ATOM      4  C3A BZF d   1      -3.078  -0.115  -2.943  0.00  0.00    -0.107 A 
ATOM      5  C4  BZF d   1      -4.238  -0.748  -3.289  0.00  0.00     0.055 A 
ATOM      6  C5  BZF d   1      -4.794  -0.489  -4.502  0.00  0.00    -0.016 A 
ATOM      7  C6  BZF d   1      -4.222   0.399  -5.389  0.00  0.00     0.022 A 
ATOM      8  C7  BZF d   1      -3.070   1.047  -5.092  0.00  0.00     0.029 A 
ATOM      9  C7A BZF d   1      -2.487   0.763  -3.881  0.00  0.00     0.058 A 
ENDROOT
TORSDOF 0
ENDMDL
