MODEL 1
REMARK minimizedAffinity 2.0540607
REMARK minimizedRMSD -1
REMARK  0 active torsions:
REMARK  status: ('A' for Active; 'I' for Inactive)
ROOT
ATOM      1  O1  BZF d   1       4.913   4.833  -1.674  0.00  0.00    -0.204 OA
ATOM      2  C2  BZF d   1       5.585   5.766  -0.908  0.00  0.00     0.174 A 
ATOM      3  C3  BZF d   1       6.000   5.222   0.254  0.00  0.00    -0.012 A 
ATOM      4  C3A BZF d   1       5.639   3.840   0.173  0.00  0.00    -0.107 A 
ATOM      5  C4  BZF d   1       5.800   2.776   1.014  0.00  0.00     0.055 A 
ATOM      6  C5  BZF d   1       5.269   1.574   0.669  0.00  0.00    -0.016 A 
ATOM      7  C6  BZF d   1       4.568   1.401  -0.507  0.00  0.00     0.022 A 
ATOM      8  C7  BZF d   1       4.387   2.425  -1.376  0.00  0.00     0.029 A 
ATOM      9  C7A BZF d   1       4.951   3.633  -1.045  0.00  0.00     0.058 A 
ENDROOT
TORSDOF 0
ENDMDL
