MODEL 1
REMARK minimizedAffinity 10.4169827
REMARK minimizedRMSD -1
REMARK  0 active torsions:
REMARK  status: ('A' for Active; 'I' for Inactive)
ROOT
ATOM      1  O1  BZF d   1       2.104  -0.013  -0.986  0.00  0.00    -0.204 OA
ATOM      2  C2  BZF d   1       1.924  -1.353  -0.701  0.00  0.00     0.174 A 
ATOM      3  C3  BZF d   1       3.083  -1.918  -0.307  0.00  0.00    -0.012 A 
ATOM      4  C3A BZF d   1       4.028  -0.845  -0.260  0.00  0.00    -0.107 A 
ATOM      5  C4  BZF d   1       5.350  -0.771   0.075  0.00  0.00     0.055 A 
ATOM      6  C5  BZF d   1       6.000   0.415  -0.056  0.00  0.00    -0.016 A 
ATOM      7  C6  BZF d   1       5.362   1.544  -0.525  0.00  0.00     0.022 A 
ATOM      8  C7  BZF d   1       4.050   1.522  -0.865  0.00  0.00     0.029 A 
ATOM      9  C7A BZF d   1       3.382   0.333  -0.702  0.00  0.00     0.058 A 
ENDROOT
TORSDOF 0
ENDMDL
