MODEL 1
REMARK minimizedAffinity 11.2374315
REMARK minimizedRMSD -1
REMARK  0 active torsions:
REMARK  status: ('A' for Active; 'I' for Inactive)
ROOT
ATOM      1  O1  BZF d   1       0.163   1.233   1.441  0.00  0.00    -0.204 OA
ATOM      2  C2  BZF d   1      -0.644   1.274   0.320  0.00  0.00     0.174 A 
ATOM      3  C3  BZF d   1       0.081   1.082  -0.800  0.00  0.00    -0.012 A 
ATOM      4  C3A BZF d   1       1.412   0.817  -0.345  0.00  0.00    -0.107 A 
ATOM      5  C4  BZF d   1       2.584   0.533  -0.986  0.00  0.00     0.055 A 
ATOM      6  C5  BZF d   1       3.721   0.400  -0.255  0.00  0.00    -0.016 A 
ATOM      7  C6  BZF d   1       3.724   0.550   1.117  0.00  0.00     0.022 A 
ATOM      8  C7  BZF d   1       2.586   0.828   1.797  0.00  0.00     0.029 A 
ATOM      9  C7A BZF d   1       1.429   0.930   1.064  0.00  0.00     0.058 A 
ENDROOT
TORSDOF 0
ENDMDL
