MODEL 1
REMARK minimizedAffinity 8.53282833
REMARK minimizedRMSD -1
REMARK  0 active torsions:
REMARK  status: ('A' for Active; 'I' for Inactive)
ROOT
ATOM      1  O1  BZF d   1       4.225  -2.122   1.177  0.00  0.00    -0.204 OA
ATOM      2  C2  BZF d   1       5.415  -1.847   1.822  0.00  0.00     0.174 A 
ATOM      3  C3  BZF d   1       6.000  -0.750   1.300  0.00  0.00    -0.012 A 
ATOM      4  C3A BZF d   1       5.075  -0.259   0.325  0.00  0.00    -0.107 A 
ATOM      5  C4  BZF d   1       5.083   0.816  -0.518  0.00  0.00     0.055 A 
ATOM      6  C5  BZF d   1       4.059   0.972  -1.397  0.00  0.00    -0.016 A 
ATOM      7  C6  BZF d   1       3.015   0.072  -1.465  0.00  0.00     0.022 A 
ATOM      8  C7  BZF d   1       2.962  -1.006  -0.645  0.00  0.00     0.029 A 
ATOM      9  C7A BZF d   1       3.978  -1.149   0.267  0.00  0.00     0.058 A 
ENDROOT
TORSDOF 0
ENDMDL
