MODEL 1
REMARK minimizedAffinity 18.3439922
REMARK minimizedRMSD -1
REMARK  0 active torsions:
REMARK  status: ('A' for Active; 'I' for Inactive)
ROOT
ATOM      1  O1  BZF d   1       1.667  -4.375  -0.485  0.00  0.00    -0.204 OA
ATOM      2  C2  BZF d   1       2.351  -3.318  -1.054  0.00  0.00     0.174 A 
ATOM      3  C3  BZF d   1       1.755  -2.922  -2.197  0.00  0.00    -0.012 A 
ATOM      4  C3A BZF d   1       0.576  -3.726  -2.305  0.00  0.00    -0.107 A 
ATOM      5  C4  BZF d   1      -0.436  -3.789  -3.219  0.00  0.00     0.055 A 
ATOM      6  C5  BZF d   1      -1.401  -4.735  -3.072  0.00  0.00    -0.016 A 
ATOM      7  C6  BZF d   1      -1.381  -5.635  -2.027  0.00  0.00     0.022 A 
ATOM      8  C7  BZF d   1      -0.400  -5.608  -1.092  0.00  0.00     0.029 A 
ATOM      9  C7A BZF d   1       0.558  -4.632  -1.220  0.00  0.00     0.058 A 
ENDROOT
TORSDOF 0
ENDMDL
