MODEL 1
REMARK minimizedAffinity 7.10090733
REMARK minimizedRMSD -1
REMARK  0 active torsions:
REMARK  status: ('A' for Active; 'I' for Inactive)
ROOT
ATOM      1  O1  BZF d   1       3.891   1.199  -1.493  0.00  0.00    -0.204 OA
ATOM      2  C2  BZF d   1       5.018   1.999  -1.508  0.00  0.00     0.174 A 
ATOM      3  C3  BZF d   1       6.000   1.456  -0.761  0.00  0.00    -0.012 A 
ATOM      4  C3A BZF d   1       5.486   0.196  -0.321  0.00  0.00    -0.107 A 
ATOM      5  C4  BZF d   1       6.000  -0.814   0.442  0.00  0.00     0.055 A 
ATOM      6  C5  BZF d   1       5.212  -1.878   0.746  0.00  0.00    -0.016 A 
ATOM      7  C6  BZF d   1       3.906  -1.964   0.310  0.00  0.00     0.022 A 
ATOM      8  C7  BZF d   1       3.354  -0.990  -0.454  0.00  0.00     0.029 A 
ATOM      9  C7A BZF d   1       4.158   0.072  -0.791  0.00  0.00     0.058 A 
ENDROOT
TORSDOF 0
ENDMDL
