MODEL 1
REMARK minimizedAffinity 20.509903
REMARK minimizedRMSD -1
REMARK  0 active torsions:
REMARK  status: ('A' for Active; 'I' for Inactive)
ROOT
ATOM      1  O1  BZF d   1      -1.048  -5.017   4.368  0.00  0.00    -0.204 OA
ATOM      2  C2  BZF d   1      -0.867  -5.974   5.348  0.00  0.00     0.174 A 
ATOM      3  C3  BZF d   1       0.297  -5.777   6.000  0.00  0.00    -0.012 A 
ATOM      4  C3A BZF d   1       0.836  -4.571   5.452  0.00  0.00    -0.107 A 
ATOM      5  C4  BZF d   1       1.968  -3.849   5.703  0.00  0.00     0.055 A 
ATOM      6  C5  BZF d   1       2.238  -2.757   4.941  0.00  0.00    -0.016 A 
ATOM      7  C6  BZF d   1       1.401  -2.361   3.918  0.00  0.00     0.022 A 
ATOM      8  C7  BZF d   1       0.264  -3.041   3.635  0.00  0.00     0.029 A 
ATOM      9  C7A BZF d   1      -0.028  -4.127   4.424  0.00  0.00     0.058 A 
ENDROOT
TORSDOF 0
ENDMDL
