MODEL 1
REMARK minimizedAffinity 15.028492
REMARK minimizedRMSD -1
REMARK  0 active torsions:
REMARK  status: ('A' for Active; 'I' for Inactive)
ROOT
ATOM      1  O1  BZF d   1      -1.503   1.878  -5.220  0.00  0.00    -0.204 OA
ATOM      2  C2  BZF d   1      -2.606   2.170  -5.999  0.00  0.00     0.174 A 
ATOM      3  C3  BZF d   1      -3.683   1.472  -5.585  0.00  0.00    -0.012 A 
ATOM      4  C3A BZF d   1      -3.247   0.764  -4.420  0.00  0.00    -0.107 A 
ATOM      5  C4  BZF d   1      -3.869  -0.086  -3.551  0.00  0.00     0.055 A 
ATOM      6  C5  BZF d   1      -3.142  -0.663  -2.558  0.00  0.00    -0.016 A 
ATOM      7  C6  BZF d   1      -1.793  -0.417  -2.408  0.00  0.00     0.022 A 
ATOM      8  C7  BZF d   1      -1.134   0.424  -3.242  0.00  0.00     0.029 A 
ATOM      9  C7A BZF d   1      -1.873   1.034  -4.226  0.00  0.00     0.058 A 
ENDROOT
TORSDOF 0
ENDMDL
