MODEL 1
REMARK minimizedAffinity 12.5556068
REMARK minimizedRMSD -1
REMARK  0 active torsions:
REMARK  status: ('A' for Active; 'I' for Inactive)
ROOT
ATOM      1  O1  BZF d   1       2.196   0.210  -1.356  0.00  0.00    -0.204 OA
ATOM      2  C2  BZF d   1       3.396  -0.119  -0.756  0.00  0.00     0.174 A 
ATOM      3  C3  BZF d   1       3.328   0.056   0.579  0.00  0.00    -0.012 A 
ATOM      4  C3A BZF d   1       1.973   0.435   0.840  0.00  0.00    -0.107 A 
ATOM      5  C4  BZF d   1       1.283   0.730   1.981  0.00  0.00     0.055 A 
ATOM      6  C5  BZF d   1      -0.011   1.135   1.885  0.00  0.00    -0.016 A 
ATOM      7  C6  BZF d   1      -0.644   1.259   0.666  0.00  0.00     0.022 A 
ATOM      8  C7  BZF d   1      -0.003   0.972  -0.493  0.00  0.00     0.029 A 
ATOM      9  C7A BZF d   1       1.295   0.531  -0.397  0.00  0.00     0.058 A 
ENDROOT
TORSDOF 0
ENDMDL
