MODEL 1
REMARK minimizedAffinity 3.05715919
REMARK minimizedRMSD -1
REMARK  0 active torsions:
REMARK  status: ('A' for Active; 'I' for Inactive)
ROOT
ATOM      1  O1  BZF d   1       1.916   0.037  -1.138  0.00  0.00    -0.204 OA
ATOM      2  C2  BZF d   1       3.109   0.173  -0.454  0.00  0.00     0.174 A 
ATOM      3  C3  BZF d   1       3.427  -0.972   0.185  0.00  0.00    -0.012 A 
ATOM      4  C3A BZF d   1       2.414  -1.909  -0.194  0.00  0.00    -0.107 A 
ATOM      5  C4  BZF d   1       2.192  -3.223   0.103  0.00  0.00     0.055 A 
ATOM      6  C5  BZF d   1       1.071  -3.827  -0.371  0.00  0.00    -0.016 A 
ATOM      7  C6  BZF d   1       0.150  -3.147  -1.140  0.00  0.00     0.022 A 
ATOM      8  C7  BZF d   1       0.330  -1.843  -1.466  0.00  0.00     0.029 A 
ATOM      9  C7A BZF d   1       1.478  -1.239  -1.016  0.00  0.00     0.058 A 
ENDROOT
TORSDOF 0
ENDMDL
