MODEL 1
REMARK minimizedAffinity 13.3089342
REMARK minimizedRMSD -1
REMARK  0 active torsions:
REMARK  status: ('A' for Active; 'I' for Inactive)
ROOT
ATOM      1  O1  BZF d   1      -3.222   0.564   1.659  0.00  0.00    -0.204 OA
ATOM      2  C2  BZF d   1      -4.293   1.336   2.069  0.00  0.00     0.174 A 
ATOM      3  C3  BZF d   1      -3.937   2.633   2.166  0.00  0.00    -0.012 A 
ATOM      4  C3A BZF d   1      -2.584   2.688   1.704  0.00  0.00    -0.107 A 
ATOM      5  C4  BZF d   1      -1.685   3.705   1.549  0.00  0.00     0.055 A 
ATOM      6  C5  BZF d   1      -0.421   3.413   1.145  0.00  0.00    -0.016 A 
ATOM      7  C6  BZF d   1      -0.020   2.118   0.894  0.00  0.00     0.022 A 
ATOM      8  C7  BZF d   1      -0.877   1.076   1.029  0.00  0.00     0.029 A 
ATOM      9  C7A BZF d   1      -2.165   1.372   1.405  0.00  0.00     0.058 A 
ENDROOT
TORSDOF 0
ENDMDL
