MODEL 1
REMARK minimizedAffinity 10.3138256
REMARK minimizedRMSD -1
REMARK  0 active torsions:
REMARK  status: ('A' for Active; 'I' for Inactive)
ROOT
ATOM      1  O1  BZF d   1       1.313   0.480   0.222  0.00  0.00    -0.204 OA
ATOM      2  C2  BZF d   1       0.337   1.248  -0.384  0.00  0.00     0.174 A 
ATOM      3  C3  BZF d   1      -0.480   0.479  -1.131  0.00  0.00    -0.012 A 
ATOM      4  C3A BZF d   1      -0.040  -0.865  -0.910  0.00  0.00    -0.107 A 
ATOM      5  C4  BZF d   1      -0.467  -2.079  -1.365  0.00  0.00     0.055 A 
ATOM      6  C5  BZF d   1       0.226  -3.196  -1.017  0.00  0.00    -0.016 A 
ATOM      7  C6  BZF d   1       1.351  -3.133  -0.220  0.00  0.00     0.022 A 
ATOM      8  C7  BZF d   1       1.810  -1.951   0.259  0.00  0.00     0.029 A 
ATOM      9  C7A BZF d   1       1.093  -0.825  -0.064  0.00  0.00     0.058 A 
ENDROOT
TORSDOF 0
ENDMDL
