MODEL 1
REMARK minimizedAffinity 14.1580915
REMARK minimizedRMSD -1
REMARK  0 active torsions:
REMARK  status: ('A' for Active; 'I' for Inactive)
ROOT
ATOM      1  C   UNL d   1      -0.537  -1.097   5.733  0.00  0.00     0.020 A 
ATOM      2  C1  UNL d   1      -1.684  -1.854   5.968  0.00  0.00     0.020 A 
ATOM      3  C2  UNL d   1      -2.356  -2.454   4.901  0.00  0.00     0.034 A 
ATOM      4  C3  UNL d   1      -1.881  -2.298   3.594  0.00  0.00     0.017 A 
ATOM      5  C4  UNL d   1      -0.729  -1.538   3.359  0.00  0.00     0.017 A 
ATOM      6  C5  UNL d   1      -0.061  -0.940   4.431  0.00  0.00     0.034 A 
ATOM      7 Cl   UNL d   1      -0.083  -1.301   1.773  0.00  0.00    -0.070 Cl
ATOM      8 Cl1  UNL d   1      -2.762  -3.068   2.322  0.00  0.00    -0.070 Cl
ENDROOT
TORSDOF 0
ENDMDL
