MODEL 1
REMARK minimizedAffinity 8.90382099
REMARK minimizedRMSD -1
REMARK  0 active torsions:
REMARK  status: ('A' for Active; 'I' for Inactive)
ROOT
ATOM      1  C   UNL d   1       0.825  -0.487   3.102  0.00  0.00     0.020 A 
ATOM      2  C1  UNL d   1       0.381  -1.591   2.376  0.00  0.00     0.020 A 
ATOM      3  C2  UNL d   1      -0.782  -2.259   2.765  0.00  0.00     0.034 A 
ATOM      4  C3  UNL d   1      -1.505  -1.824   3.882  0.00  0.00     0.017 A 
ATOM      5  C4  UNL d   1      -1.058  -0.716   4.610  0.00  0.00     0.017 A 
ATOM      6  C5  UNL d   1       0.108  -0.050   4.217  0.00  0.00     0.034 A 
ATOM      7 Cl   UNL d   1      -1.895  -0.120   5.999  0.00  0.00    -0.070 Cl
ATOM      8 Cl1  UNL d   1      -2.934  -2.698   4.304  0.00  0.00    -0.070 Cl
ENDROOT
TORSDOF 0
ENDMDL
