MODEL 1
REMARK minimizedAffinity 6.62732267
REMARK minimizedRMSD -1
REMARK  0 active torsions:
REMARK  status: ('A' for Active; 'I' for Inactive)
ROOT
ATOM      1  C   UNL d   1      -5.308  -5.788  -0.005  0.00  0.00     0.020 A 
ATOM      2  C1  UNL d   1      -3.964  -6.000  -0.311  0.00  0.00     0.020 A 
ATOM      3  C2  UNL d   1      -3.004  -5.063   0.077  0.00  0.00     0.034 A 
ATOM      4  C3  UNL d   1      -3.385  -3.910   0.772  0.00  0.00     0.017 A 
ATOM      5  C4  UNL d   1      -4.734  -3.698   1.079  0.00  0.00     0.017 A 
ATOM      6  C5  UNL d   1      -5.692  -4.640   0.689  0.00  0.00     0.034 A 
ATOM      7 Cl   UNL d   1      -5.281  -2.300   1.935  0.00  0.00    -0.070 Cl
ATOM      8 Cl1  UNL d   1      -2.144  -2.795   1.221  0.00  0.00    -0.070 Cl
ENDROOT
TORSDOF 0
ENDMDL
