MODEL 1
REMARK minimizedAffinity 13.7167883
REMARK minimizedRMSD -1
REMARK  0 active torsions:
REMARK  status: ('A' for Active; 'I' for Inactive)
ROOT
ATOM      1  C   UNL d   1       3.918  -0.087   2.002  0.00  0.00     0.020 A 
ATOM      2  C1  UNL d   1       3.653  -1.150   1.139  0.00  0.00     0.020 A 
ATOM      3  C2  UNL d   1       2.511  -1.932   1.325  0.00  0.00     0.034 A 
ATOM      4  C3  UNL d   1       1.629  -1.652   2.375  0.00  0.00     0.017 A 
ATOM      5  C4  UNL d   1       1.896  -0.585   3.240  0.00  0.00     0.017 A 
ATOM      6  C5  UNL d   1       3.041   0.195   3.050  0.00  0.00     0.034 A 
ATOM      7 Cl   UNL d   1       0.855  -0.178   4.559  0.00  0.00    -0.070 Cl
ATOM      8 Cl1  UNL d   1       0.236  -2.660   2.545  0.00  0.00    -0.070 Cl
ENDROOT
TORSDOF 0
ENDMDL
