MODEL 1
REMARK minimizedAffinity 7.4511013
REMARK minimizedRMSD -1
REMARK  0 active torsions:
REMARK  status: ('A' for Active; 'I' for Inactive)
ROOT
ATOM      1  C   UNL d   1       1.881  -4.380  -5.934  0.00  0.00     0.020 A 
ATOM      2  C1  UNL d   1       1.074  -5.515  -5.997  0.00  0.00     0.020 A 
ATOM      3  C2  UNL d   1       0.455  -5.997  -4.841  0.00  0.00     0.034 A 
ATOM      4  C3  UNL d   1       0.644  -5.344  -3.618  0.00  0.00     0.017 A 
ATOM      5  C4  UNL d   1       1.454  -4.205  -3.556  0.00  0.00     0.017 A 
ATOM      6  C5  UNL d   1       2.071  -3.726  -4.716  0.00  0.00     0.034 A 
ATOM      7 Cl   UNL d   1       1.733  -3.345  -2.082  0.00  0.00    -0.070 Cl
ATOM      8 Cl1  UNL d   1      -0.152  -5.995  -2.229  0.00  0.00    -0.070 Cl
ENDROOT
TORSDOF 0
ENDMDL
