MODEL 1
REMARK minimizedAffinity 8.40612793
REMARK minimizedRMSD -1
REMARK  0 active torsions:
REMARK  status: ('A' for Active; 'I' for Inactive)
ROOT
ATOM      1  C   UNL d   1      -3.896  -4.749   3.973  0.00  0.00     0.020 A 
ATOM      2  C1  UNL d   1      -3.350  -5.779   3.210  0.00  0.00     0.020 A 
ATOM      3  C2  UNL d   1      -3.447  -5.743   1.817  0.00  0.00     0.034 A 
ATOM      4  C3  UNL d   1      -4.092  -4.675   1.184  0.00  0.00     0.017 A 
ATOM      5  C4  UNL d   1      -4.640  -3.641   1.951  0.00  0.00     0.017 A 
ATOM      6  C5  UNL d   1      -4.540  -3.682   3.345  0.00  0.00     0.034 A 
ATOM      7 Cl   UNL d   1      -5.451  -2.289   1.242  0.00  0.00    -0.070 Cl
ATOM      8 Cl1  UNL d   1      -4.175  -4.695  -0.542  0.00  0.00    -0.070 Cl
ENDROOT
TORSDOF 0
ENDMDL
