MODEL 1
REMARK minimizedAffinity 7.10479021
REMARK minimizedRMSD -1
REMARK  0 active torsions:
REMARK  status: ('A' for Active; 'I' for Inactive)
ROOT
ATOM      1  C   UNL d   1       1.192  -0.822   1.977  0.00  0.00     0.020 A 
ATOM      2  C1  UNL d   1       0.544  -1.624   1.039  0.00  0.00     0.020 A 
ATOM      3  C2  UNL d   1      -0.691  -2.198   1.345  0.00  0.00     0.034 A 
ATOM      4  C3  UNL d   1      -1.283  -1.972   2.593  0.00  0.00     0.017 A 
ATOM      5  C4  UNL d   1      -0.632  -1.167   3.535  0.00  0.00     0.017 A 
ATOM      6  C5  UNL d   1       0.605  -0.594   3.223  0.00  0.00     0.034 A 
ATOM      7 Cl   UNL d   1      -1.299  -0.842   5.095  0.00  0.00    -0.070 Cl
ATOM      8 Cl1  UNL d   1      -2.812  -2.713   2.903  0.00  0.00    -0.070 Cl
ENDROOT
TORSDOF 0
ENDMDL
