MODEL 1
REMARK minimizedAffinity 18.6934853
REMARK minimizedRMSD -1
REMARK  0 active torsions:
REMARK  status: ('A' for Active; 'I' for Inactive)
ROOT
ATOM      1  C   UNL d   1      -1.487  -2.149   2.392  0.00  0.00     0.020 A 
ATOM      2  C1  UNL d   1      -1.066  -0.939   2.941  0.00  0.00     0.020 A 
ATOM      3  C2  UNL d   1       0.216  -0.457   2.668  0.00  0.00     0.034 A 
ATOM      4  C3  UNL d   1       1.081  -1.185   1.842  0.00  0.00     0.017 A 
ATOM      5  C4  UNL d   1       0.657  -2.399   1.291  0.00  0.00     0.017 A 
ATOM      6  C5  UNL d   1      -0.628  -2.878   1.568  0.00  0.00     0.034 A 
ATOM      7 Cl   UNL d   1       1.667  -3.354   0.263  0.00  0.00    -0.070 Cl
ATOM      8 Cl1  UNL d   1       2.651  -0.528   1.546  0.00  0.00    -0.070 Cl
ENDROOT
TORSDOF 0
ENDMDL
