MODEL 1
REMARK minimizedAffinity 17.2940159
REMARK minimizedRMSD -1
REMARK  0 active torsions:
REMARK  status: ('A' for Active; 'I' for Inactive)
ROOT
ATOM      1  C   UNL d   1      -4.854   5.439  -0.846  0.00  0.00     0.020 A 
ATOM      2  C1  UNL d   1      -5.188   4.113  -1.119  0.00  0.00     0.020 A 
ATOM      3  C2  UNL d   1      -4.378   3.347  -1.960  0.00  0.00     0.034 A 
ATOM      4  C3  UNL d   1      -3.229   3.907  -2.531  0.00  0.00     0.017 A 
ATOM      5  C4  UNL d   1      -2.894   5.237  -2.256  0.00  0.00     0.017 A 
ATOM      6  C5  UNL d   1      -3.709   6.000  -1.414  0.00  0.00     0.034 A 
ATOM      7 Cl   UNL d   1      -1.492   5.997  -2.924  0.00  0.00    -0.070 Cl
ATOM      8 Cl1  UNL d   1      -2.273   2.901  -3.561  0.00  0.00    -0.070 Cl
ENDROOT
TORSDOF 0
ENDMDL
