MODEL 1
REMARK minimizedAffinity 7.38010359
REMARK minimizedRMSD -1
REMARK  0 active torsions:
REMARK  status: ('A' for Active; 'I' for Inactive)
ROOT
ATOM      1  C   UNL d   1       1.228  -2.492   0.921  0.00  0.00     0.020 A 
ATOM      2  C1  UNL d   1       0.188  -2.541   1.848  0.00  0.00     0.020 A 
ATOM      3  C2  UNL d   1       0.312  -1.879   3.071  0.00  0.00     0.034 A 
ATOM      4  C3  UNL d   1       1.477  -1.163   3.370  0.00  0.00     0.017 A 
ATOM      5  C4  UNL d   1       2.520  -1.114   2.438  0.00  0.00     0.017 A 
ATOM      6  C5  UNL d   1       2.391  -1.779   1.215  0.00  0.00     0.034 A 
ATOM      7 Cl   UNL d   1       3.989  -0.252   2.735  0.00  0.00    -0.070 Cl
ATOM      8 Cl1  UNL d   1       1.561  -0.367   4.901  0.00  0.00    -0.070 Cl
ENDROOT
TORSDOF 0
ENDMDL
