MODEL 1
REMARK minimizedAffinity 11.6627741
REMARK minimizedRMSD -1
REMARK  0 active torsions:
REMARK  status: ('A' for Active; 'I' for Inactive)
ROOT
ATOM      1  C   UNL d   1       4.286  -0.299   1.991  0.00  0.00     0.020 A 
ATOM      2  C1  UNL d   1       4.399   0.985   1.459  0.00  0.00     0.020 A 
ATOM      3  C2  UNL d   1       3.300   1.582   0.837  0.00  0.00     0.034 A 
ATOM      4  C3  UNL d   1       2.084   0.895   0.745  0.00  0.00     0.017 A 
ATOM      5  C4  UNL d   1       1.972  -0.394   1.279  0.00  0.00     0.017 A 
ATOM      6  C5  UNL d   1       3.075  -0.987   1.901  0.00  0.00     0.034 A 
ATOM      7 Cl   UNL d   1       0.505  -1.304   1.204  0.00  0.00    -0.070 Cl
ATOM      8 Cl1  UNL d   1       0.767   1.694  -0.037  0.00  0.00    -0.070 Cl
ENDROOT
TORSDOF 0
ENDMDL
