MODEL 1
REMARK minimizedAffinity 9.16700459
REMARK minimizedRMSD -1
REMARK  0 active torsions:
REMARK  status: ('A' for Active; 'I' for Inactive)
ROOT
ATOM      1  C   UNL d   1      -6.000  -5.496   3.149  0.00  0.00     0.020 A 
ATOM      2  C1  UNL d   1      -5.238  -4.891   4.147  0.00  0.00     0.020 A 
ATOM      3  C2  UNL d   1      -4.129  -4.113   3.805  0.00  0.00     0.034 A 
ATOM      4  C3  UNL d   1      -3.780  -3.938   2.460  0.00  0.00     0.017 A 
ATOM      5  C4  UNL d   1      -4.546  -4.546   1.459  0.00  0.00     0.017 A 
ATOM      6  C5  UNL d   1      -5.655  -5.324   1.808  0.00  0.00     0.034 A 
ATOM      7 Cl   UNL d   1      -4.178  -4.377  -0.221  0.00  0.00    -0.070 Cl
ATOM      8 Cl1  UNL d   1      -2.398  -2.963   2.109  0.00  0.00    -0.070 Cl
ENDROOT
TORSDOF 0
ENDMDL
