MODEL 1
REMARK minimizedAffinity 3.12088275
REMARK minimizedRMSD -1
REMARK  0 active torsions:
REMARK  status: ('A' for Active; 'I' for Inactive)
ROOT
ATOM      1  C   UNL d   1      -5.299  -4.151   4.546  0.00  0.00     0.020 A 
ATOM      2  C1  UNL d   1      -5.639  -5.459   4.201  0.00  0.00     0.020 A 
ATOM      3  C2  UNL d   1      -5.195  -6.000   2.993  0.00  0.00     0.034 A 
ATOM      4  C3  UNL d   1      -4.410  -5.233   2.124  0.00  0.00     0.017 A 
ATOM      5  C4  UNL d   1      -4.070  -3.920   2.471  0.00  0.00     0.017 A 
ATOM      6  C5  UNL d   1      -4.517  -3.383   3.682  0.00  0.00     0.034 A 
ATOM      7 Cl   UNL d   1      -3.105  -2.913   1.450  0.00  0.00    -0.070 Cl
ATOM      8 Cl1  UNL d   1      -3.897  -5.966   0.646  0.00  0.00    -0.070 Cl
ENDROOT
TORSDOF 0
ENDMDL
