MODEL 1
REMARK minimizedAffinity -0.832118273
REMARK minimizedRMSD -1
REMARK  0 active torsions:
REMARK  status: ('A' for Active; 'I' for Inactive)
ROOT
ATOM      1  C   UNL d   1      -5.976  -5.688   5.310  0.00  0.00     0.020 A 
ATOM      2  C1  UNL d   1      -5.073  -4.880   6.000  0.00  0.00     0.020 A 
ATOM      3  C2  UNL d   1      -4.193  -4.056   5.295  0.00  0.00     0.034 A 
ATOM      4  C3  UNL d   1      -4.214  -4.039   3.895  0.00  0.00     0.017 A 
ATOM      5  C4  UNL d   1      -5.120  -4.851   3.204  0.00  0.00     0.017 A 
ATOM      6  C5  UNL d   1      -6.000  -5.673   3.915  0.00  0.00     0.034 A 
ATOM      7 Cl   UNL d   1      -5.205  -4.884   1.478  0.00  0.00    -0.070 Cl
ATOM      8 Cl1  UNL d   1      -3.097  -2.997   3.088  0.00  0.00    -0.070 Cl
ENDROOT
TORSDOF 0
ENDMDL
