MODEL 1
REMARK minimizedAffinity 10.8713131
REMARK minimizedRMSD -1
REMARK  0 active torsions:
REMARK  status: ('A' for Active; 'I' for Inactive)
ROOT
ATOM      1  C   UNL d   1       0.509  -5.413  -2.963  0.00  0.00     0.020 A 
ATOM      2  C1  UNL d   1       0.655  -4.056  -2.675  0.00  0.00     0.020 A 
ATOM      3  C2  UNL d   1       1.544  -3.277  -3.418  0.00  0.00     0.034 A 
ATOM      4  C3  UNL d   1       2.292  -3.854  -4.451  0.00  0.00     0.017 A 
ATOM      5  C4  UNL d   1       2.145  -5.215  -4.739  0.00  0.00     0.017 A 
ATOM      6  C5  UNL d   1       1.252  -5.991  -3.993  0.00  0.00     0.034 A 
ATOM      7 Cl   UNL d   1       3.032  -5.998  -5.999  0.00  0.00    -0.070 Cl
ATOM      8 Cl1  UNL d   1       3.373  -2.830  -5.329  0.00  0.00    -0.070 Cl
ENDROOT
TORSDOF 0
ENDMDL
