MODEL 1
REMARK minimizedAffinity 18.2622223
REMARK minimizedRMSD -1
REMARK  0 active torsions:
REMARK  status: ('A' for Active; 'I' for Inactive)
ROOT
ATOM      1  C   UNL d   1      -1.996   4.593  -2.562  0.00  0.00     0.020 A 
ATOM      2  C1  UNL d   1      -2.011   3.315  -3.119  0.00  0.00     0.020 A 
ATOM      3  C2  UNL d   1      -3.112   2.479  -2.918  0.00  0.00     0.034 A 
ATOM      4  C3  UNL d   1      -4.201   2.920  -2.158  0.00  0.00     0.017 A 
ATOM      5  C4  UNL d   1      -4.185   4.204  -1.599  0.00  0.00     0.017 A 
ATOM      6  C5  UNL d   1      -3.081   5.037  -1.804  0.00  0.00     0.034 A 
ATOM      7 Cl   UNL d   1      -5.492   4.818  -0.650  0.00  0.00    -0.070 Cl
ATOM      8 Cl1  UNL d   1      -5.529   1.834  -1.950  0.00  0.00    -0.070 Cl
ENDROOT
TORSDOF 0
ENDMDL
