MODEL 1
REMARK minimizedAffinity 7.21332645
REMARK minimizedRMSD -1
REMARK  0 active torsions:
REMARK  status: ('A' for Active; 'I' for Inactive)
ROOT
ATOM      1  C2' OXE d   1      -5.885   1.721   0.780  0.00  0.00     0.078 C 
ATOM      2  C1' OXE d   1      -4.528  -0.563   1.687  0.00  0.00     0.078 C 
ATOM      3  C1  OXE d   1      -3.763   0.417   0.833  0.00  0.00    -0.078 A 
ATOM      4  C2  OXE d   1      -4.449   1.508   0.355  0.00  0.00    -0.078 A 
ATOM      5  C3  OXE d   1      -3.776   2.471  -0.392  0.00  0.00     0.003 A 
ATOM      6  C4  OXE d   1      -2.450   2.261  -0.789  0.00  0.00    -0.002 A 
ATOM      7  C5  OXE d   1      -1.745   1.137  -0.346  0.00  0.00    -0.002 A 
ATOM      8  C6  OXE d   1      -2.373   0.229   0.499  0.00  0.00     0.003 A 
ENDROOT
TORSDOF 0
ENDMDL
