MODEL 1
REMARK minimizedAffinity -1.93011642
REMARK minimizedRMSD -1
REMARK  0 active torsions:
REMARK  status: ('A' for Active; 'I' for Inactive)
ROOT
ATOM      1  C2' OXE d   1      -5.296  -0.744   2.152  0.00  0.00     0.078 C 
ATOM      2  C1' OXE d   1      -5.997   1.858   1.366  0.00  0.00     0.078 C 
ATOM      3  C1  OXE d   1      -4.594   1.390   1.074  0.00  0.00    -0.078 A 
ATOM      4  C2  OXE d   1      -4.245   0.132   1.504  0.00  0.00    -0.078 A 
ATOM      5  C3  OXE d   1      -2.980  -0.370   1.212  0.00  0.00     0.003 A 
ATOM      6  C4  OXE d   1      -2.011   0.450   0.621  0.00  0.00    -0.002 A 
ATOM      7  C5  OXE d   1      -2.333   1.748   0.211  0.00  0.00    -0.002 A 
ATOM      8  C6  OXE d   1      -3.630   2.217   0.391  0.00  0.00     0.003 A 
ENDROOT
TORSDOF 0
ENDMDL
