MODEL 1
REMARK minimizedAffinity 6.36172438
REMARK minimizedRMSD -1
REMARK  0 active torsions:
REMARK  status: ('A' for Active; 'I' for Inactive)
ROOT
ATOM      1  C2' OXE d   1      -1.223   1.942  -1.138  0.00  0.00     0.078 C 
ATOM      2  C1' OXE d   1      -3.428   2.697  -2.703  0.00  0.00     0.078 C 
ATOM      3  C1  OXE d   1      -3.696   2.189  -1.309  0.00  0.00    -0.078 A 
ATOM      4  C2  OXE d   1      -2.615   1.777  -0.567  0.00  0.00    -0.078 A 
ATOM      5  C3  OXE d   1      -2.801   1.351   0.745  0.00  0.00     0.003 A 
ATOM      6  C4  OXE d   1      -4.093   1.192   1.262  0.00  0.00    -0.002 A 
ATOM      7  C5  OXE d   1      -5.210   1.568   0.509  0.00  0.00    -0.002 A 
ATOM      8  C6  OXE d   1      -5.027   2.107  -0.759  0.00  0.00     0.003 A 
ENDROOT
TORSDOF 0
ENDMDL
