MODEL 1
REMARK minimizedAffinity 5.27457476
REMARK minimizedRMSD -1
REMARK  0 active torsions:
REMARK  status: ('A' for Active; 'I' for Inactive)
ROOT
ATOM      1  C2' OXE d   1      -2.812  -2.477  -3.260  0.00  0.00     0.078 C 
ATOM      2  C1' OXE d   1      -1.078  -4.684  -3.190  0.00  0.00     0.078 C 
ATOM      3  C1  OXE d   1      -1.884  -4.382  -1.951  0.00  0.00    -0.078 A 
ATOM      4  C2  OXE d   1      -2.694  -3.273  -1.978  0.00  0.00    -0.078 A 
ATOM      5  C3  OXE d   1      -3.500  -2.980  -0.881  0.00  0.00     0.003 A 
ATOM      6  C4  OXE d   1      -3.378  -3.716   0.304  0.00  0.00    -0.002 A 
ATOM      7  C5  OXE d   1      -2.528  -4.825   0.367  0.00  0.00    -0.002 A 
ATOM      8  C6  OXE d   1      -1.808  -5.197  -0.763  0.00  0.00     0.003 A 
ENDROOT
TORSDOF 0
ENDMDL
