MODEL 1
REMARK minimizedAffinity 9.14857674
REMARK minimizedRMSD -1
REMARK  0 active torsions:
REMARK  status: ('A' for Active; 'I' for Inactive)
ROOT
ATOM      1  C2' OXE d   1      -2.143   1.468   0.149  0.00  0.00     0.078 C 
ATOM      2  C1' OXE d   1      -2.640  -1.106   1.153  0.00  0.00     0.078 C 
ATOM      3  C1  OXE d   1      -2.224  -0.037   2.132  0.00  0.00    -0.078 A 
ATOM      4  C2  OXE d   1      -1.937   1.207   1.626  0.00  0.00    -0.078 A 
ATOM      5  C3  OXE d   1      -1.601   2.244   2.492  0.00  0.00     0.003 A 
ATOM      6  C4  OXE d   1      -1.403   1.992   3.855  0.00  0.00    -0.002 A 
ATOM      7  C5  OXE d   1      -1.651   0.722   4.386  0.00  0.00    -0.002 A 
ATOM      8  C6  OXE d   1      -2.102  -0.291   3.547  0.00  0.00     0.003 A 
ENDROOT
TORSDOF 0
ENDMDL
