MODEL 1
REMARK minimizedAffinity 1.30355394
REMARK minimizedRMSD -1
REMARK  0 active torsions:
REMARK  status: ('A' for Active; 'I' for Inactive)
ROOT
ATOM      1  C2' OXE d   1       5.999   3.189   1.463  0.00  0.00     0.078 C 
ATOM      2  C1' OXE d   1       5.283   1.734   3.755  0.00  0.00     0.078 C 
ATOM      3  C1  OXE d   1       5.084   3.229   3.780  0.00  0.00    -0.078 A 
ATOM      4  C2  OXE d   1       5.480   3.938   2.672  0.00  0.00    -0.078 A 
ATOM      5  C3  OXE d   1       5.268   5.313   2.621  0.00  0.00     0.003 A 
ATOM      6  C4  OXE d   1       4.798   6.000   3.747  0.00  0.00    -0.002 A 
ATOM      7  C5  OXE d   1       4.425   5.301   4.901  0.00  0.00    -0.002 A 
ATOM      8  C6  OXE d   1       4.522   3.914   4.918  0.00  0.00     0.003 A 
ENDROOT
TORSDOF 0
ENDMDL
