MODEL 1
REMARK minimizedAffinity -0.498676568
REMARK minimizedRMSD -1
REMARK  0 active torsions:
REMARK  status: ('A' for Active; 'I' for Inactive)
ROOT
ATOM      1  C2' OXE d   1      -5.999   2.048   1.490  0.00  0.00     0.078 C 
ATOM      2  C1' OXE d   1      -5.377  -0.534   2.399  0.00  0.00     0.078 C 
ATOM      3  C1  OXE d   1      -4.315   0.219   1.637  0.00  0.00    -0.078 A 
ATOM      4  C2  OXE d   1      -4.644   1.463   1.155  0.00  0.00    -0.078 A 
ATOM      5  C3  OXE d   1      -3.684   2.222   0.492  0.00  0.00     0.003 A 
ATOM      6  C4  OXE d   1      -2.437   1.669   0.177  0.00  0.00    -0.002 A 
ATOM      7  C5  OXE d   1      -2.095   0.388   0.624  0.00  0.00    -0.002 A 
ATOM      8  C6  OXE d   1      -3.005  -0.332   1.390  0.00  0.00     0.003 A 
ENDROOT
TORSDOF 0
ENDMDL
