MODEL 1
REMARK minimizedAffinity 0.329941511
REMARK minimizedRMSD -1
REMARK  0 active torsions:
REMARK  status: ('A' for Active; 'I' for Inactive)
ROOT
ATOM      1  C2' OXE d   1      -4.857   1.914   0.268  0.00  0.00     0.078 C 
ATOM      2  C1' OXE d   1      -2.708   2.714  -1.351  0.00  0.00     0.078 C 
ATOM      3  C1  OXE d   1      -2.481   1.569  -0.396  0.00  0.00    -0.078 A 
ATOM      4  C2  OXE d   1      -3.524   1.214   0.425  0.00  0.00    -0.078 A 
ATOM      5  C3  OXE d   1      -3.386   0.129   1.286  0.00  0.00     0.003 A 
ATOM      6  C4  OXE d   1      -2.147  -0.506   1.433  0.00  0.00    -0.002 A 
ATOM      7  C5  OXE d   1      -1.060  -0.134   0.634  0.00  0.00    -0.002 A 
ATOM      8  C6  OXE d   1      -1.222   0.870  -0.313  0.00  0.00     0.003 A 
ENDROOT
TORSDOF 0
ENDMDL
