MODEL 1
REMARK minimizedAffinity 18.2974873
REMARK minimizedRMSD -1
REMARK  0 active torsions:
REMARK  status: ('A' for Active; 'I' for Inactive)
ROOT
ATOM      1  C2' OXE d   1      -4.898   2.215  -3.702  0.00  0.00     0.078 C 
ATOM      2  C1' OXE d   1      -2.718   3.959  -3.409  0.00  0.00     0.078 C 
ATOM      3  C1  OXE d   1      -3.857   4.398  -4.295  0.00  0.00    -0.078 A 
ATOM      4  C2  OXE d   1      -4.898   3.519  -4.470  0.00  0.00    -0.078 A 
ATOM      5  C3  OXE d   1      -5.999   3.897  -5.233  0.00  0.00     0.003 A 
ATOM      6  C4  OXE d   1      -5.986   5.101  -5.948  0.00  0.00    -0.002 A 
ATOM      7  C5  OXE d   1      -4.918   5.994  -5.815  0.00  0.00    -0.002 A 
ATOM      8  C6  OXE d   1      -3.867   5.677  -4.961  0.00  0.00     0.003 A 
ENDROOT
TORSDOF 0
ENDMDL
