MODEL 1
REMARK minimizedAffinity 11.2889214
REMARK minimizedRMSD -1
REMARK  0 active torsions:
REMARK  status: ('A' for Active; 'I' for Inactive)
ROOT
ATOM      1  C2' OXE d   1       4.848   1.186   2.704  0.00  0.00     0.078 C 
ATOM      2  C1' OXE d   1       5.258   3.667   1.456  0.00  0.00     0.078 C 
ATOM      3  C1  OXE d   1       4.499   2.612   0.691  0.00  0.00    -0.078 A 
ATOM      4  C2  OXE d   1       4.343   1.386   1.291  0.00  0.00    -0.078 A 
ATOM      5  C3  OXE d   1       3.604   0.395   0.651  0.00  0.00     0.003 A 
ATOM      6  C4  OXE d   1       3.150   0.584  -0.659  0.00  0.00    -0.002 A 
ATOM      7  C5  OXE d   1       3.332   1.812  -1.304  0.00  0.00    -0.002 A 
ATOM      8  C6  OXE d   1       3.966   2.849  -0.628  0.00  0.00     0.003 A 
ENDROOT
TORSDOF 0
ENDMDL
