MODEL 1
REMARK minimizedAffinity 1.65508139
REMARK minimizedRMSD -1
REMARK  0 active torsions:
REMARK  status: ('A' for Active; 'I' for Inactive)
ROOT
ATOM      1  C2' OXE d   1       2.762  -4.870  -2.044  0.00  0.00     0.078 C 
ATOM      2  C1' OXE d   1       2.606  -5.999  -4.609  0.00  0.00     0.078 C 
ATOM      3  C1  OXE d   1       1.313  -5.705  -3.891  0.00  0.00    -0.078 A 
ATOM      4  C2  OXE d   1       1.400  -5.196  -2.617  0.00  0.00    -0.078 A 
ATOM      5  C3  OXE d   1       0.238  -4.855  -1.931  0.00  0.00     0.003 A 
ATOM      6  C4  OXE d   1      -1.018  -5.168  -2.464  0.00  0.00    -0.002 A 
ATOM      7  C5  OXE d   1      -1.128  -5.724  -3.743  0.00  0.00    -0.002 A 
ATOM      8  C6  OXE d   1       0.024  -5.958  -4.485  0.00  0.00     0.003 A 
ENDROOT
TORSDOF 0
ENDMDL
