MODEL 1
REMARK minimizedAffinity 8.31806946
REMARK minimizedRMSD -1
REMARK  0 active torsions:
REMARK  status: ('A' for Active; 'I' for Inactive)
ROOT
ATOM      1  C2' OXE d   1       3.261   0.447  -1.498  0.00  0.00     0.078 C 
ATOM      2  C1' OXE d   1       1.029   1.402  -2.907  0.00  0.00     0.078 C 
ATOM      3  C1  OXE d   1       0.949   1.368  -1.401  0.00  0.00    -0.078 A 
ATOM      4  C2  OXE d   1       2.028   0.856  -0.722  0.00  0.00    -0.078 A 
ATOM      5  C3  OXE d   1       2.029   0.853   0.670  0.00  0.00     0.003 A 
ATOM      6  C4  OXE d   1       0.880   1.224   1.380  0.00  0.00    -0.002 A 
ATOM      7  C5  OXE d   1      -0.245   1.711   0.706  0.00  0.00    -0.002 A 
ATOM      8  C6  OXE d   1      -0.211   1.830  -0.679  0.00  0.00     0.003 A 
ENDROOT
TORSDOF 0
ENDMDL
