MODEL 1
REMARK minimizedAffinity 10.8814363
REMARK minimizedRMSD -1
REMARK  0 active torsions:
REMARK  status: ('A' for Active; 'I' for Inactive)
ROOT
ATOM      1  C2' OXE d   1       0.383   1.884   1.379  0.00  0.00     0.078 C 
ATOM      2  C1' OXE d   1       3.100   2.135   2.040  0.00  0.00     0.078 C 
ATOM      3  C1  OXE d   1       2.754   1.671   0.647  0.00  0.00    -0.078 A 
ATOM      4  C2  OXE d   1       1.424   1.506   0.347  0.00  0.00    -0.078 A 
ATOM      5  C3  OXE d   1       1.048   1.133  -0.941  0.00  0.00     0.003 A 
ATOM      6  C4  OXE d   1       2.017   0.776  -1.886  0.00  0.00    -0.002 A 
ATOM      7  C5  OXE d   1       3.378   0.898  -1.588  0.00  0.00    -0.002 A 
ATOM      8  C6  OXE d   1       3.763   1.384  -0.343  0.00  0.00     0.003 A 
ENDROOT
TORSDOF 0
ENDMDL
