MODEL 1
REMARK minimizedAffinity 5.17602253
REMARK minimizedRMSD -1
REMARK  0 active torsions:
REMARK  status: ('A' for Active; 'I' for Inactive)
ROOT
ATOM      1  C2' OXE d   1       0.033   1.500  -4.991  0.00  0.00     0.078 C 
ATOM      2  C1' OXE d   1      -2.606   0.751  -4.395  0.00  0.00     0.078 C 
ATOM      3  C1  OXE d   1      -2.378   2.126  -4.972  0.00  0.00    -0.078 A 
ATOM      4  C2  OXE d   1      -1.079   2.501  -5.217  0.00  0.00    -0.078 A 
ATOM      5  C3  OXE d   1      -0.818   3.738  -5.801  0.00  0.00     0.003 A 
ATOM      6  C4  OXE d   1      -1.851   4.662  -5.997  0.00  0.00    -0.002 A 
ATOM      7  C5  OXE d   1      -3.177   4.314  -5.718  0.00  0.00    -0.002 A 
ATOM      8  C6  OXE d   1      -3.462   3.038  -5.246  0.00  0.00     0.003 A 
ENDROOT
TORSDOF 0
ENDMDL
