MODEL 1
REMARK minimizedAffinity 2.59552503
REMARK minimizedRMSD -1
REMARK  0 active torsions:
REMARK  status: ('A' for Active; 'I' for Inactive)
ROOT
ATOM      1  C2' OXE d   1       4.020   1.854   1.673  0.00  0.00     0.078 C 
ATOM      2  C1' OXE d   1       2.658  -0.005   0.070  0.00  0.00     0.078 C 
ATOM      3  C1  OXE d   1       1.846   1.077   0.738  0.00  0.00    -0.078 A 
ATOM      4  C2  OXE d   1       2.515   1.954   1.557  0.00  0.00    -0.078 A 
ATOM      5  C3  OXE d   1       1.822   3.004   2.154  0.00  0.00     0.003 A 
ATOM      6  C4  OXE d   1       0.428   3.084   2.050  0.00  0.00    -0.002 A 
ATOM      7  C5  OXE d   1      -0.277   2.177   1.252  0.00  0.00    -0.002 A 
ATOM      8  C6  OXE d   1       0.420   1.195   0.557  0.00  0.00     0.003 A 
ENDROOT
TORSDOF 0
ENDMDL
