MODEL 1
REMARK minimizedAffinity 10.7721691
REMARK minimizedRMSD -1
REMARK  0 active torsions:
REMARK  status: ('A' for Active; 'I' for Inactive)
ROOT
ATOM      1  C2' OXE d   1       1.759   3.938   1.896  0.00  0.00     0.078 C 
ATOM      2  C1' OXE d   1      -0.758   2.891   2.566  0.00  0.00     0.078 C 
ATOM      3  C1  OXE d   1       0.178   2.017   1.769  0.00  0.00    -0.078 A 
ATOM      4  C2  OXE d   1       1.389   2.555   1.406  0.00  0.00    -0.078 A 
ATOM      5  C3  OXE d   1       2.312   1.773   0.717  0.00  0.00     0.003 A 
ATOM      6  C4  OXE d   1       1.958   0.498   0.258  0.00  0.00    -0.002 A 
ATOM      7  C5  OXE d   1       0.715  -0.054   0.583  0.00  0.00    -0.002 A 
ATOM      8  C6  OXE d   1      -0.169   0.675   1.372  0.00  0.00     0.003 A 
ENDROOT
TORSDOF 0
ENDMDL
