MODEL 1
REMARK minimizedAffinity 2.53337502
REMARK minimizedRMSD -1
REMARK  0 active torsions:
REMARK  status: ('A' for Active; 'I' for Inactive)
ROOT
ATOM      1  C2' OXE d   1      -1.245   1.103   0.617  0.00  0.00     0.078 C 
ATOM      2  C1' OXE d   1      -0.822   2.748   2.852  0.00  0.00     0.078 C 
ATOM      3  C1  OXE d   1       0.391   2.202   2.142  0.00  0.00    -0.078 A 
ATOM      4  C2  OXE d   1       0.174   1.360   1.077  0.00  0.00    -0.078 A 
ATOM      5  C3  OXE d   1       1.258   0.872   0.353  0.00  0.00     0.003 A 
ATOM      6  C4  OXE d   1       2.567   1.106   0.791  0.00  0.00    -0.002 A 
ATOM      7  C5  OXE d   1       2.809   1.928   1.897  0.00  0.00    -0.002 A 
ATOM      8  C6  OXE d   1       1.736   2.517   2.556  0.00  0.00     0.003 A 
ENDROOT
TORSDOF 0
ENDMDL
