MODEL 1
REMARK minimizedAffinity 7.22417355
REMARK minimizedRMSD -1
REMARK  0 active torsions:
REMARK  status: ('A' for Active; 'I' for Inactive)
ROOT
ATOM      1  O1  BZF d   1      -0.669   0.434  -0.356  0.00  0.00    -0.204 OA
ATOM      2  C2  BZF d   1      -0.333   1.748  -0.623  0.00  0.00     0.174 A 
ATOM      3  C3  BZF d   1       0.935   1.835  -1.074  0.00  0.00    -0.012 A 
ATOM      4  C3A BZF d   1       1.392   0.483  -1.177  0.00  0.00    -0.107 A 
ATOM      5  C4  BZF d   1       2.567  -0.083  -1.582  0.00  0.00     0.055 A 
ATOM      6  C5  BZF d   1       2.716  -1.431  -1.493  0.00  0.00    -0.016 A 
ATOM      7  C6  BZF d   1       1.715  -2.241  -0.999  0.00  0.00     0.022 A 
ATOM      8  C7  BZF d   1       0.530  -1.726  -0.589  0.00  0.00     0.029 A 
ATOM      9  C7A BZF d   1       0.364  -0.368  -0.709  0.00  0.00     0.058 A 
ENDROOT
TORSDOF 0
ENDMDL
