MODEL 1
REMARK minimizedAffinity 7.67653227
REMARK minimizedRMSD -1
REMARK  0 active torsions:
REMARK  status: ('A' for Active; 'I' for Inactive)
ROOT
ATOM      1  O1  BZF d   1       2.628   1.861  -0.748  0.00  0.00    -0.204 OA
ATOM      2  C2  BZF d   1       1.546   2.629  -1.131  0.00  0.00     0.174 A 
ATOM      3  C3  BZF d   1       0.642   1.883  -1.799  0.00  0.00    -0.012 A 
ATOM      4  C3A BZF d   1       1.152   0.547  -1.755  0.00  0.00    -0.107 A 
ATOM      5  C4  BZF d   1       0.695  -0.649  -2.231  0.00  0.00     0.055 A 
ATOM      6  C5  BZF d   1       1.467  -1.757  -2.084  0.00  0.00    -0.016 A 
ATOM      7  C6  BZF d   1       2.703  -1.706  -1.472  0.00  0.00     0.022 A 
ATOM      8  C7  BZF d   1       3.197  -0.544  -0.980  0.00  0.00     0.029 A 
ATOM      9  C7A BZF d   1       2.404   0.572  -1.097  0.00  0.00     0.058 A 
ENDROOT
TORSDOF 0
ENDMDL
