MODEL 1
REMARK minimizedAffinity 7.30849409
REMARK minimizedRMSD -1
REMARK  0 active torsions:
REMARK  status: ('A' for Active; 'I' for Inactive)
ROOT
ATOM      1  O1  BZF d   1       1.006   2.661  -2.558  0.00  0.00    -0.204 OA
ATOM      2  C2  BZF d   1       1.985   2.444  -3.508  0.00  0.00     0.174 A 
ATOM      3  C3  BZF d   1       2.421   1.169  -3.464  0.00  0.00    -0.012 A 
ATOM      4  C3A BZF d   1       1.602   0.525  -2.483  0.00  0.00    -0.107 A 
ATOM      5  C4  BZF d   1       1.542  -0.752  -2.001  0.00  0.00     0.055 A 
ATOM      6  C5  BZF d   1       0.677  -1.037  -0.992  0.00  0.00    -0.016 A 
ATOM      7  C6  BZF d   1      -0.136  -0.070  -0.438  0.00  0.00     0.022 A 
ATOM      8  C7  BZF d   1      -0.116   1.209  -0.886  0.00  0.00     0.029 A 
ATOM      9  C7A BZF d   1       0.733   1.493  -1.928  0.00  0.00     0.058 A 
ENDROOT
TORSDOF 0
ENDMDL
