MODEL 1
REMARK minimizedAffinity 13.2817669
REMARK minimizedRMSD -1
REMARK  0 active torsions:
REMARK  status: ('A' for Active; 'I' for Inactive)
ROOT
ATOM      1  O1  BZF d   1       0.165  -3.016  -0.130  0.00  0.00    -0.204 OA
ATOM      2  C2  BZF d   1       0.991  -3.817   0.634  0.00  0.00     0.174 A 
ATOM      3  C3  BZF d   1       2.285  -3.489   0.443  0.00  0.00    -0.012 A 
ATOM      4  C3A BZF d   1       2.262  -2.356  -0.430  0.00  0.00    -0.107 A 
ATOM      5  C4  BZF d   1       3.237  -1.568  -0.972  0.00  0.00     0.055 A 
ATOM      6  C5  BZF d   1       2.884  -0.587  -1.843  0.00  0.00    -0.016 A 
ATOM      7  C6  BZF d   1       1.569  -0.369  -2.198  0.00  0.00     0.022 A 
ATOM      8  C7  BZF d   1       0.567  -1.122  -1.683  0.00  0.00     0.029 A 
ATOM      9  C7A BZF d   1       0.917  -2.093  -0.777  0.00  0.00     0.058 A 
ENDROOT
TORSDOF 0
ENDMDL
