MODEL 1
REMARK minimizedAffinity 3.14984179
REMARK minimizedRMSD -1
REMARK  0 active torsions:
REMARK  status: ('A' for Active; 'I' for Inactive)
ROOT
ATOM      1  O1  BZF d   1       0.815  -1.189  -0.916  0.00  0.00    -0.204 OA
ATOM      2  C2  BZF d   1       2.002  -1.754  -1.342  0.00  0.00     0.174 A 
ATOM      3  C3  BZF d   1       2.710  -0.877  -2.082  0.00  0.00    -0.012 A 
ATOM      4  C3A BZF d   1       1.960   0.340  -2.045  0.00  0.00    -0.107 A 
ATOM      5  C4  BZF d   1       2.157   1.581  -2.579  0.00  0.00     0.055 A 
ATOM      6  C5  BZF d   1       1.198   2.530  -2.417  0.00  0.00    -0.016 A 
ATOM      7  C6  BZF d   1       0.029   2.271  -1.731  0.00  0.00     0.022 A 
ATOM      8  C7  BZF d   1      -0.209   1.057  -1.179  0.00  0.00     0.029 A 
ATOM      9  C7A BZF d   1       0.773   0.106  -1.313  0.00  0.00     0.058 A 
ENDROOT
TORSDOF 0
ENDMDL
