MODEL 1
REMARK minimizedAffinity 0.748237729
REMARK minimizedRMSD -1
REMARK  0 active torsions:
REMARK  status: ('A' for Active; 'I' for Inactive)
ROOT
ATOM      1  O1  BZF d   1       2.550  -1.179  -2.336  0.00  0.00    -0.204 OA
ATOM      2  C2  BZF d   1       1.924  -1.952  -1.377  0.00  0.00     0.174 A 
ATOM      3  C3  BZF d   1       0.992  -1.234  -0.718  0.00  0.00    -0.012 A 
ATOM      4  C3A BZF d   1       0.975   0.043  -1.363  0.00  0.00    -0.107 A 
ATOM      5  C4  BZF d   1       0.246   1.182  -1.171  0.00  0.00     0.055 A 
ATOM      6  C5  BZF d   1       0.524   2.279  -1.923  0.00  0.00    -0.016 A 
ATOM      7  C6  BZF d   1       1.526   2.273  -2.872  0.00  0.00     0.022 A 
ATOM      8  C7  BZF d   1       2.272   1.166  -3.102  0.00  0.00     0.029 A 
ATOM      9  C7A BZF d   1       1.972   0.046  -2.366  0.00  0.00     0.058 A 
ENDROOT
TORSDOF 0
ENDMDL
