MODEL 1
REMARK minimizedAffinity 5.95821619
REMARK minimizedRMSD -1
REMARK  0 active torsions:
REMARK  status: ('A' for Active; 'I' for Inactive)
ROOT
ATOM      1  O1  BZF d   1       0.090  -0.857  -0.373  0.00  0.00    -0.204 OA
ATOM      2  C2  BZF d   1       0.993  -1.875  -0.611  0.00  0.00     0.174 A 
ATOM      3  C3  BZF d   1       1.875  -1.519  -1.567  0.00  0.00    -0.012 A 
ATOM      4  C3A BZF d   1       1.557  -0.161  -1.886  0.00  0.00    -0.107 A 
ATOM      5  C4  BZF d   1       2.090   0.749  -2.753  0.00  0.00     0.055 A 
ATOM      6  C5  BZF d   1       1.500   1.967  -2.877  0.00  0.00    -0.016 A 
ATOM      7  C6  BZF d   1       0.375   2.306  -2.154  0.00  0.00     0.022 A 
ATOM      8  C7  BZF d   1      -0.187   1.438  -1.277  0.00  0.00     0.029 A 
ATOM      9  C7A BZF d   1       0.427   0.219  -1.126  0.00  0.00     0.058 A 
ENDROOT
TORSDOF 0
ENDMDL
