MODEL 1
REMARK minimizedAffinity -3.41554618
REMARK minimizedRMSD -1
REMARK  0 active torsions:
REMARK  status: ('A' for Active; 'I' for Inactive)
ROOT
ATOM      1  O1  BZF d   1       2.987  -1.918  -1.822  0.00  0.00    -0.204 OA
ATOM      2  C2  BZF d   1       2.496  -2.686  -0.784  0.00  0.00     0.174 A 
ATOM      3  C3  BZF d   1       1.528  -2.025  -0.116  0.00  0.00    -0.012 A 
ATOM      4  C3A BZF d   1       1.342  -0.802  -0.835  0.00  0.00    -0.107 A 
ATOM      5  C4  BZF d   1       0.508   0.266  -0.670  0.00  0.00     0.055 A 
ATOM      6  C5  BZF d   1       0.629   1.333  -1.502  0.00  0.00    -0.016 A 
ATOM      7  C6  BZF d   1       1.576   1.368  -2.506  0.00  0.00     0.022 A 
ATOM      8  C7  BZF d   1       2.422   0.330  -2.711  0.00  0.00     0.029 A 
ATOM      9  C7A BZF d   1       2.280  -0.764  -1.892  0.00  0.00     0.058 A 
ENDROOT
TORSDOF 0
ENDMDL
