MODEL 1
REMARK minimizedAffinity 4.57379723
REMARK minimizedRMSD -1
REMARK  0 active torsions:
REMARK  status: ('A' for Active; 'I' for Inactive)
ROOT
ATOM      1  O1  BZF d   1       2.333  -2.681  -2.677  0.00  0.00    -0.204 OA
ATOM      2  C2  BZF d   1       1.614  -2.827  -3.847  0.00  0.00     0.174 A 
ATOM      3  C3  BZF d   1       1.150  -1.635  -4.276  0.00  0.00    -0.012 A 
ATOM      4  C3A BZF d   1       1.686  -0.673  -3.363  0.00  0.00    -0.107 A 
ATOM      5  C4  BZF d   1       1.595   0.687  -3.272  0.00  0.00     0.055 A 
ATOM      6  C5  BZF d   1       2.176   1.318  -2.218  0.00  0.00    -0.016 A 
ATOM      7  C6  BZF d   1       2.851   0.622  -1.236  0.00  0.00     0.022 A 
ATOM      8  C7  BZF d   1       2.972  -0.727  -1.287  0.00  0.00     0.029 A 
ATOM      9  C7A BZF d   1       2.414  -1.365  -2.367  0.00  0.00     0.058 A 
ENDROOT
TORSDOF 0
ENDMDL
