MODEL 1
REMARK minimizedAffinity 3.6616044
REMARK minimizedRMSD -1
REMARK  0 active torsions:
REMARK  status: ('A' for Active; 'I' for Inactive)
ROOT
ATOM      1  O1  BZF d   1      -3.000   0.333  -1.221  0.00  0.00    -0.204 OA
ATOM      2  C2  BZF d   1      -1.979   0.769  -0.399  0.00  0.00     0.174 A 
ATOM      3  C3  BZF d   1      -2.302   0.597   0.899  0.00  0.00    -0.012 A 
ATOM      4  C3A BZF d   1      -3.569  -0.069   0.885  0.00  0.00    -0.107 A 
ATOM      5  C4  BZF d   1      -4.400  -0.524   1.868  0.00  0.00     0.055 A 
ATOM      6  C5  BZF d   1      -5.599  -1.064   1.522  0.00  0.00    -0.016 A 
ATOM      7  C6  BZF d   1      -5.999  -1.158   0.205  0.00  0.00     0.022 A 
ATOM      8  C7  BZF d   1      -5.206  -0.724  -0.805  0.00  0.00     0.029 A 
ATOM      9  C7A BZF d   1      -3.981  -0.209  -0.460  0.00  0.00     0.058 A 
ENDROOT
TORSDOF 0
ENDMDL
