MODEL 1
REMARK minimizedAffinity 11.6351767
REMARK minimizedRMSD -1
REMARK  0 active torsions:
REMARK  status: ('A' for Active; 'I' for Inactive)
ROOT
ATOM      1  O1  BZF d   1       0.246   1.724  -1.994  0.00  0.00    -0.204 OA
ATOM      2  C2  BZF d   1       1.445   1.316  -2.546  0.00  0.00     0.174 A 
ATOM      3  C3  BZF d   1       2.428   1.338  -1.624  0.00  0.00    -0.012 A 
ATOM      4  C3A BZF d   1       1.786   1.699  -0.397  0.00  0.00    -0.107 A 
ATOM      5  C4  BZF d   1       2.233   1.871   0.881  0.00  0.00     0.055 A 
ATOM      6  C5  BZF d   1       1.363   2.297   1.834  0.00  0.00    -0.016 A 
ATOM      7  C6  BZF d   1       0.042   2.567   1.542  0.00  0.00     0.022 A 
ATOM      8  C7  BZF d   1      -0.449   2.407   0.289  0.00  0.00     0.029 A 
ATOM      9  C7A BZF d   1       0.420   1.944  -0.669  0.00  0.00     0.058 A 
ENDROOT
TORSDOF 0
ENDMDL
