MODEL 1
REMARK minimizedAffinity 7.56432486
REMARK minimizedRMSD -1
REMARK  0 active torsions:
REMARK  status: ('A' for Active; 'I' for Inactive)
ROOT
ATOM      1  O1  BZF d   1       0.611   1.679  -2.483  0.00  0.00    -0.204 OA
ATOM      2  C2  BZF d   1       1.902   1.507  -2.945  0.00  0.00     0.174 A 
ATOM      3  C3  BZF d   1       2.787   1.588  -1.931  0.00  0.00    -0.012 A 
ATOM      4  C3A BZF d   1       1.994   1.734  -0.749  0.00  0.00    -0.107 A 
ATOM      5  C4  BZF d   1       2.298   1.849   0.577  0.00  0.00     0.055 A 
ATOM      6  C5  BZF d   1       1.294   2.051   1.470  0.00  0.00    -0.016 A 
ATOM      7  C6  BZF d   1      -0.023   2.147   1.071  0.00  0.00     0.022 A 
ATOM      8  C7  BZF d   1      -0.374   2.034  -0.233  0.00  0.00     0.029 A 
ATOM      9  C7A BZF d   1       0.635   1.797  -1.134  0.00  0.00     0.058 A 
ENDROOT
TORSDOF 0
ENDMDL
