MODEL 1
REMARK minimizedAffinity -1.14637589
REMARK minimizedRMSD -1
REMARK  0 active torsions:
REMARK  status: ('A' for Active; 'I' for Inactive)
ROOT
ATOM      1  O1  BZF d   1       2.970  -4.491   3.768  0.00  0.00    -0.204 OA
ATOM      2  C2  BZF d   1       3.388  -5.796   3.590  0.00  0.00     0.174 A 
ATOM      3  C3  BZF d   1       4.592  -5.994   4.165  0.00  0.00    -0.012 A 
ATOM      4  C3A BZF d   1       4.906  -4.760   4.816  0.00  0.00    -0.107 A 
ATOM      5  C4  BZF d   1       5.964  -4.339   5.570  0.00  0.00     0.055 A 
ATOM      6  C5  BZF d   1       6.000  -3.049   5.997  0.00  0.00    -0.016 A 
ATOM      7  C6  BZF d   1       4.999  -2.153   5.684  0.00  0.00     0.022 A 
ATOM      8  C7  BZF d   1       3.927  -2.525   4.943  0.00  0.00     0.029 A 
ATOM      9  C7A BZF d   1       3.872  -3.837   4.538  0.00  0.00     0.058 A 
ENDROOT
TORSDOF 0
ENDMDL
