MODEL 1
REMARK minimizedAffinity 5.08181667
REMARK minimizedRMSD -1
REMARK  0 active torsions:
REMARK  status: ('A' for Active; 'I' for Inactive)
ROOT
ATOM      1  O1  BZF d   1       3.437   0.896  -2.731  0.00  0.00    -0.204 OA
ATOM      2  C2  BZF d   1       2.535   1.793  -3.271  0.00  0.00     0.174 A 
ATOM      3  C3  BZF d   1       1.272   1.469  -2.926  0.00  0.00    -0.012 A 
ATOM      4  C3A BZF d   1       1.399   0.348  -2.045  0.00  0.00    -0.107 A 
ATOM      5  C4  BZF d   1       0.497  -0.413  -1.359  0.00  0.00     0.055 A 
ATOM      6  C5  BZF d   1       0.941  -1.480  -0.644  0.00  0.00    -0.016 A 
ATOM      7  C6  BZF d   1       2.278  -1.816  -0.597  0.00  0.00     0.022 A 
ATOM      8  C7  BZF d   1       3.211  -1.088  -1.257  0.00  0.00     0.029 A 
ATOM      9  C7A BZF d   1       2.769   0.010  -1.953  0.00  0.00     0.058 A 
ENDROOT
TORSDOF 0
ENDMDL
