MODEL 1
REMARK minimizedAffinity 15.6718874
REMARK minimizedRMSD -1
REMARK  0 active torsions:
REMARK  status: ('A' for Active; 'I' for Inactive)
ROOT
ATOM      1  O1  BZF d   1       2.912  -0.957  -2.354  0.00  0.00    -0.204 OA
ATOM      2  C2  BZF d   1       2.539  -1.947  -1.465  0.00  0.00     0.174 A 
ATOM      3  C3  BZF d   1       1.452  -1.572  -0.760  0.00  0.00    -0.012 A 
ATOM      4  C3A BZF d   1       1.071  -0.304  -1.303  0.00  0.00    -0.107 A 
ATOM      5  C4  BZF d   1       0.056   0.568  -1.029  0.00  0.00     0.055 A 
ATOM      6  C5  BZF d   1       0.007   1.754  -1.690  0.00  0.00    -0.016 A 
ATOM      7  C6  BZF d   1       0.958   2.103  -2.626  0.00  0.00     0.022 A 
ATOM      8  C7  BZF d   1       1.981   1.269  -2.935  0.00  0.00     0.029 A 
ATOM      9  C7A BZF d   1       2.014   0.056  -2.293  0.00  0.00     0.058 A 
ENDROOT
TORSDOF 0
ENDMDL
