MODEL 1
REMARK minimizedAffinity 7.18023157
REMARK minimizedRMSD -1
REMARK  0 active torsions:
REMARK  status: ('A' for Active; 'I' for Inactive)
ROOT
ATOM      1  O1  BZF d   1       3.127  -1.660  -1.683  0.00  0.00    -0.204 OA
ATOM      2  C2  BZF d   1       2.313  -2.524  -0.977  0.00  0.00     0.174 A 
ATOM      3  C3  BZF d   1       1.208  -1.889  -0.537  0.00  0.00    -0.012 A 
ATOM      4  C3A BZF d   1       1.294  -0.567  -1.076  0.00  0.00    -0.107 A 
ATOM      5  C4  BZF d   1       0.485   0.531  -1.005  0.00  0.00     0.055 A 
ATOM      6  C5  BZF d   1       0.893   1.691  -1.582  0.00  0.00    -0.016 A 
ATOM      7  C6  BZF d   1       2.106   1.791  -2.233  0.00  0.00     0.022 A 
ATOM      8  C7  BZF d   1       2.940   0.728  -2.334  0.00  0.00     0.029 A 
ATOM      9  C7A BZF d   1       2.515  -0.455  -1.780  0.00  0.00     0.058 A 
ENDROOT
TORSDOF 0
ENDMDL
