MODEL 1
REMARK minimizedAffinity 5.29852581
REMARK minimizedRMSD -1
REMARK  0 active torsions:
REMARK  status: ('A' for Active; 'I' for Inactive)
ROOT
ATOM      1  O1  BZF d   1      -0.156   1.417  -1.446  0.00  0.00    -0.204 OA
ATOM      2  C2  BZF d   1       1.048   1.102  -2.045  0.00  0.00     0.174 A 
ATOM      3  C3  BZF d   1       2.078   1.356  -1.211  0.00  0.00    -0.012 A 
ATOM      4  C3A BZF d   1       1.473   1.774   0.017  0.00  0.00    -0.107 A 
ATOM      5  C4  BZF d   1       1.975   2.148   1.230  0.00  0.00     0.055 A 
ATOM      6  C5  BZF d   1       1.118   2.570   2.198  0.00  0.00    -0.016 A 
ATOM      7  C6  BZF d   1      -0.243   2.633   1.984  0.00  0.00     0.022 A 
ATOM      8  C7  BZF d   1      -0.788   2.267   0.799  0.00  0.00     0.029 A 
ATOM      9  C7A BZF d   1       0.072   1.810  -0.170  0.00  0.00     0.058 A 
ENDROOT
TORSDOF 0
ENDMDL
