MODEL 1
REMARK minimizedAffinity 3.43776751
REMARK minimizedRMSD -1
REMARK  0 active torsions:
REMARK  status: ('A' for Active; 'I' for Inactive)
ROOT
ATOM      1  O1  BZF d   1       2.947  -2.706   0.516  0.00  0.00    -0.204 OA
ATOM      2  C2  BZF d   1       1.988  -3.689   0.667  0.00  0.00     0.174 A 
ATOM      3  C3  BZF d   1       0.870  -3.377  -0.020  0.00  0.00    -0.012 A 
ATOM      4  C3A BZF d   1       1.182  -2.165  -0.714  0.00  0.00    -0.107 A 
ATOM      5  C4  BZF d   1       0.480  -1.369  -1.574  0.00  0.00     0.055 A 
ATOM      6  C5  BZF d   1       1.047  -0.216  -2.017  0.00  0.00    -0.016 A 
ATOM      7  C6  BZF d   1       2.309   0.174  -1.618  0.00  0.00     0.022 A 
ATOM      8  C7  BZF d   1       3.045  -0.586  -0.770  0.00  0.00     0.029 A 
ATOM      9  C7A BZF d   1       2.488  -1.768  -0.346  0.00  0.00     0.058 A 
ENDROOT
TORSDOF 0
ENDMDL
