MODEL 1
REMARK minimizedAffinity -0.750046313
REMARK minimizedRMSD -1
REMARK  0 active torsions:
REMARK  status: ('A' for Active; 'I' for Inactive)
ROOT
ATOM      1  O1  BZF d   1       3.382  -1.871  -0.757  0.00  0.00    -0.204 OA
ATOM      2  C2  BZF d   1       2.542  -2.673  -0.010  0.00  0.00     0.174 A 
ATOM      3  C3  BZF d   1       1.296  -2.159   0.026  0.00  0.00    -0.012 A 
ATOM      4  C3A BZF d   1       1.339  -1.009  -0.824  0.00  0.00    -0.107 A 
ATOM      5  C4  BZF d   1       0.405  -0.088  -1.206  0.00  0.00     0.055 A 
ATOM      6  C5  BZF d   1       0.788   0.955  -1.988  0.00  0.00    -0.016 A 
ATOM      7  C6  BZF d   1       2.095   1.112  -2.401  0.00  0.00     0.022 A 
ATOM      8  C7  BZF d   1       3.055   0.221  -2.052  0.00  0.00     0.029 A 
ATOM      9  C7A BZF d   1       2.665  -0.852  -1.289  0.00  0.00     0.058 A 
ENDROOT
TORSDOF 0
ENDMDL
