MODEL 1
REMARK minimizedAffinity -0.0787613541
REMARK minimizedRMSD -1
REMARK  0 active torsions:
REMARK  status: ('A' for Active; 'I' for Inactive)
ROOT
ATOM      1  O1  BZF d   1       0.222   0.482  -3.855  0.00  0.00    -0.204 OA
ATOM      2  C2  BZF d   1       1.532   0.605  -4.277  0.00  0.00     0.174 A 
ATOM      3  C3  BZF d   1       2.386   0.323  -3.273  0.00  0.00    -0.012 A 
ATOM      4  C3A BZF d   1       1.559  -0.088  -2.179  0.00  0.00    -0.107 A 
ATOM      5  C4  BZF d   1       1.825  -0.509  -0.908  0.00  0.00     0.055 A 
ATOM      6  C5  BZF d   1       0.789  -0.764  -0.066  0.00  0.00    -0.016 A 
ATOM      7  C6  BZF d   1      -0.523  -0.604  -0.461  0.00  0.00     0.022 A 
ATOM      8  C7  BZF d   1      -0.836  -0.193  -1.714  0.00  0.00     0.029 A 
ATOM      9  C7A BZF d   1       0.208   0.034  -2.577  0.00  0.00     0.058 A 
ENDROOT
TORSDOF 0
ENDMDL
