MODEL 1
REMARK minimizedAffinity -3.88794303
REMARK minimizedRMSD -1
REMARK  0 active torsions:
REMARK  status: ('A' for Active; 'I' for Inactive)
ROOT
ATOM      1  O1  BZF d   1      -1.344  -0.198  -0.804  0.00  0.00    -0.204 OA
ATOM      2  C2  BZF d   1      -0.228  -0.576  -1.525  0.00  0.00     0.174 A 
ATOM      3  C3  BZF d   1       0.902  -0.234  -0.873  0.00  0.00    -0.012 A 
ATOM      4  C3A BZF d   1       0.465   0.314   0.375  0.00  0.00    -0.107 A 
ATOM      5  C4  BZF d   1       1.122   0.817   1.461  0.00  0.00     0.055 A 
ATOM      6  C5  BZF d   1       0.399   1.340   2.486  0.00  0.00    -0.016 A 
ATOM      7  C6  BZF d   1      -0.979   1.381   2.456  0.00  0.00     0.022 A 
ATOM      8  C7  BZF d   1      -1.676   0.889   1.402  0.00  0.00     0.029 A 
ATOM      9  C7A BZF d   1      -0.949   0.330   0.379  0.00  0.00     0.058 A 
ENDROOT
TORSDOF 0
ENDMDL
