MODEL 1
REMARK minimizedAffinity -3.27928734
REMARK minimizedRMSD -1
REMARK  0 active torsions:
REMARK  status: ('A' for Active; 'I' for Inactive)
ROOT
ATOM      1  O1  BZF d   1      -1.441   0.956   2.011  0.00  0.00    -0.204 OA
ATOM      2  C2  BZF d   1      -0.526   1.420   2.936  0.00  0.00     0.174 A 
ATOM      3  C3  BZF d   1       0.732   1.103   2.566  0.00  0.00    -0.012 A 
ATOM      4  C3A BZF d   1       0.601   0.478   1.286  0.00  0.00    -0.107 A 
ATOM      5  C4  BZF d   1       1.500  -0.042   0.399  0.00  0.00     0.055 A 
ATOM      6  C5  BZF d   1       1.041  -0.645  -0.729  0.00  0.00    -0.016 A 
ATOM      7  C6  BZF d   1      -0.307  -0.752  -0.999  0.00  0.00     0.022 A 
ATOM      8  C7  BZF d   1      -1.237  -0.247  -0.151  0.00  0.00     0.029 A 
ATOM      9  C7A BZF d   1      -0.775   0.393   0.973  0.00  0.00     0.058 A 
ENDROOT
TORSDOF 0
ENDMDL
