MODEL 1
REMARK minimizedAffinity -2.05619907
REMARK minimizedRMSD -1
REMARK  0 active torsions:
REMARK  status: ('A' for Active; 'I' for Inactive)
ROOT
ATOM      1  O1  BZF d   1      -1.490   1.141   1.942  0.00  0.00    -0.204 OA
ATOM      2  C2  BZF d   1      -0.395   1.490   2.709  0.00  0.00     0.174 A 
ATOM      3  C3  BZF d   1       0.751   1.117   2.105  0.00  0.00    -0.012 A 
ATOM      4  C3A BZF d   1       0.352   0.579   0.840  0.00  0.00    -0.107 A 
ATOM      5  C4  BZF d   1       1.041   0.058  -0.218  0.00  0.00     0.055 A 
ATOM      6  C5  BZF d   1       0.348  -0.448  -1.272  0.00  0.00    -0.016 A 
ATOM      7  C6  BZF d   1      -1.031  -0.452  -1.300  0.00  0.00     0.022 A 
ATOM      8  C7  BZF d   1      -1.757   0.059  -0.276  0.00  0.00     0.029 A 
ATOM      9  C7A BZF d   1      -1.060   0.601   0.776  0.00  0.00     0.058 A 
ENDROOT
TORSDOF 0
ENDMDL
