MODEL 1
REMARK minimizedAffinity -3.31461787
REMARK minimizedRMSD -1
REMARK  0 active torsions:
REMARK  status: ('A' for Active; 'I' for Inactive)
ROOT
ATOM      1  O1  BZF d   1      -0.665  -1.078  -0.951  0.00  0.00    -0.204 OA
ATOM      2  C2  BZF d   1       0.679  -0.947  -1.241  0.00  0.00     0.174 A 
ATOM      3  C3  BZF d   1       1.238   0.026  -0.493  0.00  0.00    -0.012 A 
ATOM      4  C3A BZF d   1       0.197   0.473   0.381  0.00  0.00    -0.107 A 
ATOM      5  C4  BZF d   1       0.140   1.414   1.369  0.00  0.00     0.055 A 
ATOM      6  C5  BZF d   1      -1.048   1.658   1.982  0.00  0.00    -0.016 A 
ATOM      7  C6  BZF d   1      -2.198   0.984   1.629  0.00  0.00     0.022 A 
ATOM      8  C7  BZF d   1      -2.191   0.038   0.658  0.00  0.00     0.029 A 
ATOM      9  C7A BZF d   1      -0.985  -0.234   0.059  0.00  0.00     0.058 A 
ENDROOT
TORSDOF 0
ENDMDL
