MODEL 1
REMARK minimizedAffinity -2.89022803
REMARK minimizedRMSD -1
REMARK  0 active torsions:
REMARK  status: ('A' for Active; 'I' for Inactive)
ROOT
ATOM      1  O1  BZF d   1      -0.400  -0.458  -1.121  0.00  0.00    -0.204 OA
ATOM      2  C2  BZF d   1       0.739  -1.096  -1.573  0.00  0.00     0.174 A 
ATOM      3  C3  BZF d   1       1.773  -0.879  -0.734  0.00  0.00    -0.012 A 
ATOM      4  C3A BZF d   1       1.224  -0.130   0.355  0.00  0.00    -0.107 A 
ATOM      5  C4  BZF d   1       1.752   0.372   1.509  0.00  0.00     0.055 A 
ATOM      6  C5  BZF d   1       0.964   1.119   2.326  0.00  0.00    -0.016 A 
ATOM      7  C6  BZF d   1      -0.353   1.388   2.017  0.00  0.00     0.022 A 
ATOM      8  C7  BZF d   1      -0.923   0.907   0.885  0.00  0.00     0.029 A 
ATOM      9  C7A BZF d   1      -0.138   0.124   0.074  0.00  0.00     0.058 A 
ENDROOT
TORSDOF 0
ENDMDL
