MODEL 1
REMARK minimizedAffinity -1.07723176
REMARK minimizedRMSD -1
REMARK  0 active torsions:
REMARK  status: ('A' for Active; 'I' for Inactive)
ROOT
ATOM      1  O1  BZF d   1       0.001   1.360  -3.698  0.00  0.00    -0.204 OA
ATOM      2  C2  BZF d   1       1.085   0.937  -4.443  0.00  0.00     0.174 A 
ATOM      3  C3  BZF d   1       1.830   0.056  -3.745  0.00  0.00    -0.012 A 
ATOM      4  C3A BZF d   1       1.121  -0.150  -2.519  0.00  0.00    -0.107 A 
ATOM      5  C4  BZF d   1       1.350  -0.928  -1.421  0.00  0.00     0.055 A 
ATOM      6  C5  BZF d   1       0.501  -0.844  -0.363  0.00  0.00    -0.016 A 
ATOM      7  C6  BZF d   1      -0.582   0.011  -0.367  0.00  0.00     0.022 A 
ATOM      8  C7  BZF d   1      -0.853   0.799  -1.436  0.00  0.00     0.029 A 
ATOM      9  C7A BZF d   1      -0.016   0.692  -2.520  0.00  0.00     0.058 A 
ENDROOT
TORSDOF 0
ENDMDL
