MODEL 1
REMARK minimizedAffinity -1.61919701
REMARK minimizedRMSD -1
REMARK  0 active torsions:
REMARK  status: ('A' for Active; 'I' for Inactive)
ROOT
ATOM      1  O1  BZF d   1      -1.702   0.763   0.888  0.00  0.00    -0.204 OA
ATOM      2  C2  BZF d   1      -1.233   1.286   2.078  0.00  0.00     0.174 A 
ATOM      3  C3  BZF d   1       0.094   1.079   2.201  0.00  0.00    -0.012 A 
ATOM      4  C3A BZF d   1       0.495   0.466   0.973  0.00  0.00    -0.107 A 
ATOM      5  C4  BZF d   1       1.696   0.035   0.487  0.00  0.00     0.055 A 
ATOM      6  C5  BZF d   1       1.736  -0.587  -0.721  0.00  0.00    -0.016 A 
ATOM      7  C6  BZF d   1       0.594  -0.799  -1.466  0.00  0.00     0.022 A 
ATOM      8  C7  BZF d   1      -0.620  -0.385  -1.028  0.00  0.00     0.029 A 
ATOM      9  C7A BZF d   1      -0.658   0.273   0.177  0.00  0.00     0.058 A 
ENDROOT
TORSDOF 0
ENDMDL
