MODEL 1
REMARK minimizedAffinity -3.16687608
REMARK minimizedRMSD -1
REMARK  0 active torsions:
REMARK  status: ('A' for Active; 'I' for Inactive)
ROOT
ATOM      1  O1  BZF d   1      -0.672  -0.542  -1.402  0.00  0.00    -0.204 OA
ATOM      2  C2  BZF d   1       0.701  -0.557  -1.558  0.00  0.00     0.174 A 
ATOM      3  C3  BZF d   1       1.313  -0.094  -0.449  0.00  0.00    -0.012 A 
ATOM      4  C3A BZF d   1       0.260   0.144   0.490  0.00  0.00    -0.107 A 
ATOM      5  C4  BZF d   1       0.236   0.594   1.779  0.00  0.00     0.055 A 
ATOM      6  C5  BZF d   1      -0.963   0.784   2.390  0.00  0.00    -0.016 A 
ATOM      7  C6  BZF d   1      -2.155   0.539   1.742  0.00  0.00     0.022 A 
ATOM      8  C7  BZF d   1      -2.182   0.086   0.464  0.00  0.00     0.029 A 
ATOM      9  C7A BZF d   1      -0.972  -0.138  -0.145  0.00  0.00     0.058 A 
ENDROOT
TORSDOF 0
ENDMDL
