MODEL 1
REMARK minimizedAffinity -4.06454182
REMARK minimizedRMSD -1
REMARK  0 active torsions:
REMARK  status: ('A' for Active; 'I' for Inactive)
ROOT
ATOM      1  O1  BZF d   1       0.902  -0.298   1.246  0.00  0.00    -0.204 OA
ATOM      2  C2  BZF d   1       1.302  -0.552  -0.052  0.00  0.00     0.174 A 
ATOM      3  C3  BZF d   1       0.268  -0.412  -0.907  0.00  0.00    -0.012 A 
ATOM      4  C3A BZF d   1      -0.825   0.043  -0.104  0.00  0.00    -0.107 A 
ATOM      5  C4  BZF d   1      -2.120   0.376  -0.383  0.00  0.00     0.055 A 
ATOM      6  C5  BZF d   1      -2.950   0.712   0.639  0.00  0.00    -0.016 A 
ATOM      7  C6  BZF d   1      -2.522   0.720   1.951  0.00  0.00     0.022 A 
ATOM      8  C7  BZF d   1      -1.245   0.401   2.276  0.00  0.00     0.029 A 
ATOM      9  C7A BZF d   1      -0.395   0.094   1.242  0.00  0.00     0.058 A 
ENDROOT
TORSDOF 0
ENDMDL
