MODEL 1
REMARK minimizedAffinity -2.03260636
REMARK minimizedRMSD -1
REMARK  0 active torsions:
REMARK  status: ('A' for Active; 'I' for Inactive)
ROOT
ATOM      1  O1  BZF d   1      -2.021  -0.329   4.109  0.00  0.00    -0.204 OA
ATOM      2  C2  BZF d   1      -3.022  -1.187   3.697  0.00  0.00     0.174 A 
ATOM      3  C3  BZF d   1      -3.141  -1.175   2.354  0.00  0.00    -0.012 A 
ATOM      4  C3A BZF d   1      -2.089  -0.322   1.891  0.00  0.00    -0.107 A 
ATOM      5  C4  BZF d   1      -1.679   0.075   0.650  0.00  0.00     0.055 A 
ATOM      6  C5  BZF d   1      -0.665   0.973   0.546  0.00  0.00    -0.016 A 
ATOM      7  C6  BZF d   1      -0.043   1.498   1.659  0.00  0.00     0.022 A 
ATOM      8  C7  BZF d   1      -0.411   1.132   2.911  0.00  0.00     0.029 A 
ATOM      9  C7A BZF d   1      -1.414   0.199   3.019  0.00  0.00     0.058 A 
ENDROOT
TORSDOF 0
ENDMDL
