MODEL 1
REMARK minimizedAffinity -5.43362427
REMARK minimizedRMSD -1
REMARK  2 active torsions:
REMARK  status: ('A' for Active; 'I' for Inactive)
REMARK    1  A    between atoms: C1_2  and  C2_3 
REMARK    2  A    between atoms: C2_3  and  C3_4 
ROOT
ATOM      1  C3  UNL d   1       0.004   0.161   0.029  0.00  0.00    -0.075 A 
ATOM      2  C4  UNL d   1      -0.410  -1.066   0.566  0.00  0.00     0.002 A 
ATOM      3  C5  UNL d   1       0.526  -2.044   0.904  0.00  0.00     0.002 A 
ATOM      4  C6  UNL d   1       1.884  -1.813   0.700  0.00  0.00    -0.004 A 
ATOM      5  C7  UNL d   1       2.306  -0.604   0.151  0.00  0.00     0.002 A 
ATOM      6  C8  UNL d   1       1.372   0.378  -0.184  0.00  0.00     0.002 A 
ENDROOT
BRANCH   1   7
ATOM      7  C2  UNL d   1      -1.001   1.235  -0.311  0.00  0.00     0.056 C 
BRANCH   7   8
ATOM      8  C1  UNL d   1      -0.994   1.651  -1.786  0.00  0.00     0.007 C 
ATOM      9  C   UNL d   1      -2.388   1.901  -2.346  0.00  0.00     0.009 C 
ENDBRANCH   7   8
ENDBRANCH   1   7
TORSDOF 2
ENDMDL
