MODEL 1
REMARK minimizedAffinity -5.42654419
REMARK minimizedRMSD -1
REMARK  2 active torsions:
REMARK  status: ('A' for Active; 'I' for Inactive)
REMARK    1  A    between atoms: C1_2  and  C2_3 
REMARK    2  A    between atoms: C2_3  and  C3_4 
ROOT
ATOM      1  C3  UNL d   1       0.523   0.004  -0.007  0.00  0.00    -0.075 A 
ATOM      2  C4  UNL d   1      -0.337  -1.075  -0.255  0.00  0.00     0.002 A 
ATOM      3  C5  UNL d   1       0.056  -2.379   0.051  0.00  0.00     0.002 A 
ATOM      4  C6  UNL d   1       1.315  -2.620   0.597  0.00  0.00    -0.004 A 
ATOM      5  C7  UNL d   1       2.184  -1.556   0.832  0.00  0.00     0.002 A 
ATOM      6  C8  UNL d   1       1.791  -0.251   0.531  0.00  0.00     0.002 A 
ENDROOT
BRANCH   1   7
ATOM      7  C2  UNL d   1       0.092   1.420  -0.308  0.00  0.00     0.056 C 
BRANCH   7   8
ATOM      8  C1  UNL d   1      -1.417   1.582  -0.514  0.00  0.00     0.007 C 
ATOM      9  C   UNL d   1      -1.770   2.438  -1.723  0.00  0.00     0.009 C 
ENDBRANCH   7   8
ENDBRANCH   1   7
TORSDOF 2
ENDMDL
