MODEL 1
REMARK minimizedAffinity -3.23354912
REMARK minimizedRMSD -1
REMARK  2 active torsions:
REMARK  status: ('A' for Active; 'I' for Inactive)
REMARK    1  A    between atoms: C1_2  and  C2_3 
REMARK    2  A    between atoms: C2_3  and  C3_4 
ROOT
ATOM      1  C3  UNL d   1       0.508  -0.145  -0.468  0.00  0.00    -0.075 A 
ATOM      2  C4  UNL d   1       1.847  -0.405  -0.144  0.00  0.00     0.002 A 
ATOM      3  C5  UNL d   1       2.180  -1.481   0.680  0.00  0.00     0.002 A 
ATOM      4  C6  UNL d   1       1.181  -2.303   1.196  0.00  0.00    -0.004 A 
ATOM      5  C7  UNL d   1      -0.154  -2.044   0.893  0.00  0.00     0.002 A 
ATOM      6  C8  UNL d   1      -0.490  -0.971   0.066  0.00  0.00     0.002 A 
ENDROOT
BRANCH   1   7
ATOM      7  C2  UNL d   1       0.142   1.000  -1.382  0.00  0.00     0.056 C 
BRANCH   7   8
ATOM      8  C1  UNL d   1      -1.353   1.085  -1.708  0.00  0.00     0.007 C 
ATOM      9  C   UNL d   1      -1.637   1.727  -3.060  0.00  0.00     0.009 C 
ENDBRANCH   7   8
ENDBRANCH   1   7
TORSDOF 2
ENDMDL
