MODEL 1
REMARK minimizedAffinity -5.37612534
REMARK minimizedRMSD -1
REMARK  2 active torsions:
REMARK  status: ('A' for Active; 'I' for Inactive)
REMARK    1  A    between atoms: C1_2  and  C2_3 
REMARK    2  A    between atoms: C2_3  and  C3_4 
ROOT
ATOM      1  C3  UNL d   1      -0.280   0.661   0.162  0.00  0.00    -0.075 A 
ATOM      2  C4  UNL d   1       0.861   0.792  -0.642  0.00  0.00     0.002 A 
ATOM      3  C5  UNL d   1       1.818  -0.222  -0.683  0.00  0.00     0.002 A 
ATOM      4  C6  UNL d   1       1.653  -1.372   0.085  0.00  0.00    -0.004 A 
ATOM      5  C7  UNL d   1       0.531  -1.505   0.901  0.00  0.00     0.002 A 
ATOM      6  C8  UNL d   1      -0.431  -0.494   0.940  0.00  0.00     0.002 A 
ENDROOT
BRANCH   1   7
ATOM      7  C2  UNL d   1      -1.335   1.742   0.189  0.00  0.00     0.056 C 
BRANCH   7   8
ATOM      8  C1  UNL d   1      -1.593   2.395  -1.174  0.00  0.00     0.007 C 
ATOM      9  C   UNL d   1      -2.698   1.710  -1.967  0.00  0.00     0.009 C 
ENDBRANCH   7   8
ENDBRANCH   1   7
TORSDOF 2
ENDMDL
