MODEL 1
REMARK minimizedAffinity -4.81042385
REMARK minimizedRMSD -1
REMARK  2 active torsions:
REMARK  status: ('A' for Active; 'I' for Inactive)
REMARK    1  A    between atoms: C1_2  and  C2_3 
REMARK    2  A    between atoms: C2_3  and  C3_4 
ROOT
ATOM      1  C3  UNL d   1       0.240   0.411  -0.375  0.00  0.00    -0.075 A 
ATOM      2  C4  UNL d   1       1.342   0.809  -1.145  0.00  0.00     0.002 A 
ATOM      3  C5  UNL d   1       2.512   0.048  -1.152  0.00  0.00     0.002 A 
ATOM      4  C6  UNL d   1       2.598  -1.110  -0.383  0.00  0.00    -0.004 A 
ATOM      5  C7  UNL d   1       1.515  -1.505   0.399  0.00  0.00     0.002 A 
ATOM      6  C8  UNL d   1       0.341  -0.749   0.404  0.00  0.00     0.002 A 
ENDROOT
BRANCH   1   7
ATOM      7  C2  UNL d   1      -1.040   1.213  -0.386  0.00  0.00     0.056 C 
BRANCH   7   8
ATOM      8  C1  UNL d   1      -2.104   0.678  -1.350  0.00  0.00     0.007 C 
ATOM      9  C   UNL d   1      -2.115   1.397  -2.692  0.00  0.00     0.009 C 
ENDBRANCH   7   8
ENDBRANCH   1   7
TORSDOF 2
ENDMDL
