MODEL 1
REMARK minimizedAffinity -5.950984
REMARK minimizedRMSD -1
REMARK  2 active torsions:
REMARK  status: ('A' for Active; 'I' for Inactive)
REMARK    1  A    between atoms: C1_2  and  C2_3 
REMARK    2  A    between atoms: C2_3  and  C3_4 
ROOT
ATOM      1  C3  UNL d   1      -0.281   0.070   0.083  0.00  0.00    -0.075 A 
ATOM      2  C4  UNL d   1       1.034   0.219  -0.380  0.00  0.00     0.002 A 
ATOM      3  C5  UNL d   1       1.896  -0.877  -0.432  0.00  0.00     0.002 A 
ATOM      4  C6  UNL d   1       1.457  -2.132  -0.015  0.00  0.00    -0.004 A 
ATOM      5  C7  UNL d   1       0.157  -2.288   0.462  0.00  0.00     0.002 A 
ATOM      6  C8  UNL d   1      -0.708  -1.194   0.512  0.00  0.00     0.002 A 
ENDROOT
BRANCH   1   7
ATOM      7  C2  UNL d   1      -1.227   1.247   0.115  0.00  0.00     0.056 C 
BRANCH   7   8
ATOM      8  C1  UNL d   1      -1.452   1.903  -1.252  0.00  0.00     0.007 C 
ATOM      9  C   UNL d   1      -2.393   1.112  -2.150  0.00  0.00     0.009 C 
ENDBRANCH   7   8
ENDBRANCH   1   7
TORSDOF 2
ENDMDL
