MODEL 1
REMARK minimizedAffinity -5.3779974
REMARK minimizedRMSD -1
REMARK  2 active torsions:
REMARK  status: ('A' for Active; 'I' for Inactive)
REMARK    1  A    between atoms: C1_2  and  C2_3 
REMARK    2  A    between atoms: C2_3  and  C3_4 
ROOT
ATOM      1  C3  UNL d   1       0.189  -0.141   0.163  0.00  0.00    -0.075 A 
ATOM      2  C4  UNL d   1       1.518  -0.104  -0.284  0.00  0.00     0.002 A 
ATOM      3  C5  UNL d   1       2.362  -1.198  -0.089  0.00  0.00     0.002 A 
ATOM      4  C6  UNL d   1       1.893  -2.336   0.563  0.00  0.00    -0.004 A 
ATOM      5  C7  UNL d   1       0.579  -2.378   1.026  0.00  0.00     0.002 A 
ATOM      6  C8  UNL d   1      -0.269  -1.287   0.828  0.00  0.00     0.002 A 
ENDROOT
BRANCH   1   7
ATOM      7  C2  UNL d   1      -0.737   1.028  -0.071  0.00  0.00     0.056 C 
BRANCH   7   8
ATOM      8  C1  UNL d   1      -0.776   1.512  -1.524  0.00  0.00     0.007 C 
ATOM      9  C   UNL d   1      -2.166   1.444  -2.143  0.00  0.00     0.009 C 
ENDBRANCH   7   8
ENDBRANCH   1   7
TORSDOF 2
ENDMDL
