MODEL 1
REMARK minimizedAffinity -4.33589363
REMARK minimizedRMSD -1
REMARK  2 active torsions:
REMARK  status: ('A' for Active; 'I' for Inactive)
REMARK    1  A    between atoms: C1_2  and  C2_3 
REMARK    2  A    between atoms: C2_3  and  C3_4 
ROOT
ATOM      1  C3  UNL d   1       0.278   0.090   0.147  0.00  0.00    -0.075 A 
ATOM      2  C4  UNL d   1       1.498  -0.333  -0.402  0.00  0.00     0.002 A 
ATOM      3  C5  UNL d   1       2.161  -1.444   0.118  0.00  0.00     0.002 A 
ATOM      4  C6  UNL d   1       1.622  -2.139   1.198  0.00  0.00    -0.004 A 
ATOM      5  C7  UNL d   1       0.419  -1.718   1.762  0.00  0.00     0.002 A 
ATOM      6  C8  UNL d   1      -0.249  -0.609   1.241  0.00  0.00     0.002 A 
ENDROOT
BRANCH   1   7
ATOM      7  C2  UNL d   1      -0.460   1.274  -0.431  0.00  0.00     0.056 C 
BRANCH   7   8
ATOM      8  C1  UNL d   1      -1.412   0.917  -1.577  0.00  0.00     0.007 C 
ATOM      9  C   UNL d   1      -2.035   2.137  -2.242  0.00  0.00     0.009 C 
ENDBRANCH   7   8
ENDBRANCH   1   7
TORSDOF 2
ENDMDL
