MODEL 1
REMARK minimizedAffinity -3.30161381
REMARK minimizedRMSD -1
REMARK  2 active torsions:
REMARK  status: ('A' for Active; 'I' for Inactive)
REMARK    1  A    between atoms: C1_2  and  C2_3 
REMARK    2  A    between atoms: C2_3  and  C3_4 
ROOT
ATOM      1  C3  UNL d   1      -0.003   0.421  -0.357  0.00  0.00    -0.075 A 
ATOM      2  C4  UNL d   1       1.253   0.576  -0.960  0.00  0.00     0.002 A 
ATOM      3  C5  UNL d   1       2.252  -0.380  -0.773  0.00  0.00     0.002 A 
ATOM      4  C6  UNL d   1       2.011  -1.495   0.027  0.00  0.00    -0.004 A 
ATOM      5  C7  UNL d   1       0.772  -1.651   0.644  0.00  0.00     0.002 A 
ATOM      6  C8  UNL d   1      -0.231  -0.698   0.454  0.00  0.00     0.002 A 
ENDROOT
BRANCH   1   7
ATOM      7  C2  UNL d   1      -1.098   1.438  -0.580  0.00  0.00     0.056 C 
BRANCH   7   8
ATOM      8  C1  UNL d   1      -1.317   1.805  -2.052  0.00  0.00     0.007 C 
ATOM      9  C   UNL d   1      -2.560   1.161  -2.652  0.00  0.00     0.009 C 
ENDBRANCH   7   8
ENDBRANCH   1   7
TORSDOF 2
ENDMDL
