MODEL 1
REMARK minimizedAffinity -5.81545305
REMARK minimizedRMSD -1
REMARK  2 active torsions:
REMARK  status: ('A' for Active; 'I' for Inactive)
REMARK    1  A    between atoms: C1_2  and  C2_3 
REMARK    2  A    between atoms: C2_3  and  C3_4 
ROOT
ATOM      1  C3  UNL d   1       0.117  -0.145  -0.248  0.00  0.00    -0.075 A 
ATOM      2  C4  UNL d   1      -0.508  -1.325   0.183  0.00  0.00     0.002 A 
ATOM      3  C5  UNL d   1       0.249  -2.390   0.670  0.00  0.00     0.002 A 
ATOM      4  C6  UNL d   1       1.638  -2.294   0.724  0.00  0.00    -0.004 A 
ATOM      5  C7  UNL d   1       2.270  -1.134   0.283  0.00  0.00     0.002 A 
ATOM      6  C8  UNL d   1       1.515  -0.064  -0.201  0.00  0.00     0.002 A 
ENDROOT
BRANCH   1   7
ATOM      7  C2  UNL d   1      -0.699   1.023  -0.749  0.00  0.00     0.056 C 
BRANCH   7   8
ATOM      8  C1  UNL d   1      -1.664   0.668  -1.886  0.00  0.00     0.007 C 
ATOM      9  C   UNL d   1      -2.197   1.888  -2.624  0.00  0.00     0.009 C 
ENDBRANCH   7   8
ENDBRANCH   1   7
TORSDOF 2
ENDMDL
