MODEL 1
REMARK minimizedAffinity -3.60489011
REMARK minimizedRMSD -1
REMARK  2 active torsions:
REMARK  status: ('A' for Active; 'I' for Inactive)
REMARK    1  A    between atoms: C1_2  and  C2_3 
REMARK    2  A    between atoms: C2_3  and  C3_4 
ROOT
ATOM      1  C3  UNL d   1      -1.230   1.439  -1.182  0.00  0.00    -0.075 A 
ATOM      2  C4  UNL d   1      -2.626   1.326  -1.232  0.00  0.00     0.002 A 
ATOM      3  C5  UNL d   1      -3.325   1.680  -2.387  0.00  0.00     0.002 A 
ATOM      4  C6  UNL d   1      -2.638   2.160  -3.500  0.00  0.00    -0.004 A 
ATOM      5  C7  UNL d   1      -1.252   2.293  -3.455  0.00  0.00     0.002 A 
ATOM      6  C8  UNL d   1      -0.550   1.935  -2.303  0.00  0.00     0.002 A 
ENDROOT
BRANCH   1   7
ATOM      7  C2  UNL d   1      -0.465   1.030   0.055  0.00  0.00     0.056 C 
BRANCH   7   8
ATOM      8  C1  UNL d   1      -0.334  -0.486   0.234  0.00  0.00     0.007 C 
ATOM      9  C   UNL d   1       1.021  -1.027  -0.203  0.00  0.00     0.009 C 
ENDBRANCH   7   8
ENDBRANCH   1   7
TORSDOF 2
ENDMDL
