MODEL 1
REMARK minimizedAffinity -2.76422787
REMARK minimizedRMSD -1
REMARK  2 active torsions:
REMARK  status: ('A' for Active; 'I' for Inactive)
REMARK    1  A    between atoms: C1_2  and  C2_3 
REMARK    2  A    between atoms: C2_3  and  C3_4 
ROOT
ATOM      1  C3  UNL d   1       0.367   0.101  -0.445  0.00  0.00    -0.075 A 
ATOM      2  C4  UNL d   1       1.736   0.119  -0.140  0.00  0.00     0.002 A 
ATOM      3  C5  UNL d   1       2.377  -1.035   0.310  0.00  0.00     0.002 A 
ATOM      4  C6  UNL d   1       1.658  -2.217   0.471  0.00  0.00    -0.004 A 
ATOM      5  C7  UNL d   1       0.294  -2.243   0.187  0.00  0.00     0.002 A 
ATOM      6  C8  UNL d   1      -0.349  -1.090  -0.268  0.00  0.00     0.002 A 
ENDROOT
BRANCH   1   7
ATOM      7  C2  UNL d   1      -0.326   1.339  -0.960  0.00  0.00     0.056 C 
BRANCH   7   8
ATOM      8  C1  UNL d   1      -1.528   1.050  -1.866  0.00  0.00     0.007 C 
ATOM      9  C   UNL d   1      -1.694   2.066  -2.987  0.00  0.00     0.009 C 
ENDBRANCH   7   8
ENDBRANCH   1   7
TORSDOF 2
ENDMDL
