MODEL 1
REMARK minimizedAffinity -4.43229294
REMARK minimizedRMSD -1
REMARK  0 active torsions:
REMARK  status: ('A' for Active; 'I' for Inactive)
ROOT
ATOM      1  N1  IND d   1       2.236   0.688   0.683  0.00  0.00    -0.196 N 
ATOM      2  C2  IND d   1       2.571  -0.633   0.790  0.00  0.00     0.054 A 
ATOM      3  C3  IND d   1       1.509  -1.413   0.491  0.00  0.00    -0.031 A 
ATOM      4  C4  IND d   1      -0.847  -0.738  -0.299  0.00  0.00     0.051 A 
ATOM      5  C5  IND d   1      -1.639   0.355  -0.513  0.00  0.00    -0.031 A 
ATOM      6  C6  IND d   1      -1.170   1.641  -0.338  0.00  0.00     0.015 A 
ATOM      7  C7  IND d   1       0.118   1.883   0.048  0.00  0.00    -0.016 A 
ATOM      8  C8  IND d   1       0.924   0.776   0.272  0.00  0.00    -0.047 A 
ATOM      9  C9  IND d   1       0.441  -0.533   0.138  0.00  0.00    -0.096 A 
ATOM     10  HN1 IND d   1       2.757   1.353   0.844  0.00  0.00     0.298 HD
ENDROOT
TORSDOF 0
ENDMDL
