MODEL 1
REMARK minimizedAffinity -3.90217352
REMARK minimizedRMSD -1
REMARK  0 active torsions:
REMARK  status: ('A' for Active; 'I' for Inactive)
ROOT
ATOM      1  N1  IND d   1       1.246   1.680   1.143  0.00  0.00    -0.196 N 
ATOM      2  C2  IND d   1       2.574   1.456   1.381  0.00  0.00     0.054 A 
ATOM      3  C3  IND d   1       2.875   0.153   1.179  0.00  0.00    -0.031 A 
ATOM      4  C4  IND d   1       1.367  -1.766   0.359  0.00  0.00     0.051 A 
ATOM      5  C5  IND d   1       0.070  -2.057   0.045  0.00  0.00    -0.031 A 
ATOM      6  C6  IND d   1      -0.922  -1.098   0.080  0.00  0.00     0.015 A 
ATOM      7  C7  IND d   1      -0.649   0.197   0.420  0.00  0.00    -0.016 A 
ATOM      8  C8  IND d   1       0.666   0.495   0.745  0.00  0.00    -0.047 A 
ATOM      9  C9  IND d   1       1.669  -0.484   0.753  0.00  0.00    -0.096 A 
ATOM     10  HN1 IND d   1       0.841   2.433   1.228  0.00  0.00     0.298 HD
ENDROOT
TORSDOF 0
ENDMDL
