MODEL 1
REMARK minimizedAffinity -6.23862076
REMARK minimizedRMSD -1
REMARK  0 active torsions:
REMARK  status: ('A' for Active; 'I' for Inactive)
ROOT
ATOM      1  N1  IND d   1      -0.647  -0.730   0.293  0.00  0.00    -0.196 N 
ATOM      2  C2  IND d   1      -0.683   0.529  -0.238  0.00  0.00     0.054 A 
ATOM      3  C3  IND d   1       0.543   1.097  -0.186  0.00  0.00    -0.031 A 
ATOM      4  C4  IND d   1       2.772   0.103   0.635  0.00  0.00     0.051 A 
ATOM      5  C5  IND d   1       3.300  -1.002   1.242  0.00  0.00    -0.031 A 
ATOM      6  C6  IND d   1       2.525  -2.096   1.567  0.00  0.00     0.015 A 
ATOM      7  C7  IND d   1       1.188  -2.130   1.286  0.00  0.00    -0.016 A 
ATOM      8  C8  IND d   1       0.647  -1.007   0.677  0.00  0.00    -0.047 A 
ATOM      9  C9  IND d   1       1.420   0.123   0.383  0.00  0.00    -0.096 A 
ATOM     10  HN1 IND d   1      -1.319  -1.260   0.373  0.00  0.00     0.298 HD
ENDROOT
TORSDOF 0
ENDMDL
