MODEL 1
REMARK minimizedAffinity -1.63690579
REMARK minimizedRMSD -1
REMARK  0 active torsions:
REMARK  status: ('A' for Active; 'I' for Inactive)
ROOT
ATOM      1  N1  IND d   1      -1.399  -1.115  -0.721  0.00  0.00    -0.196 N 
ATOM      2  C2  IND d   1      -0.987   0.043  -0.123  0.00  0.00     0.054 A 
ATOM      3  C3  IND d   1      -1.455   1.115  -0.800  0.00  0.00    -0.031 A 
ATOM      4  C4  IND d   1      -3.000   1.203  -2.858  0.00  0.00     0.051 A 
ATOM      5  C5  IND d   1      -3.610   0.401  -3.781  0.00  0.00    -0.031 A 
ATOM      6  C6  IND d   1      -3.515  -0.974  -3.729  0.00  0.00     0.015 A 
ATOM      7  C7  IND d   1      -2.812  -1.603  -2.741  0.00  0.00    -0.016 A 
ATOM      8  C8  IND d   1      -2.185  -0.792  -1.805  0.00  0.00    -0.047 A 
ATOM      9  C9  IND d   1      -2.243   0.606  -1.877  0.00  0.00    -0.096 A 
ATOM     10  HN1 IND d   1      -1.201  -1.911  -0.463  0.00  0.00     0.298 HD
ENDROOT
TORSDOF 0
ENDMDL
