MODEL 1
REMARK minimizedAffinity -4.88252878
REMARK minimizedRMSD -1
REMARK  0 active torsions:
REMARK  status: ('A' for Active; 'I' for Inactive)
ROOT
ATOM      1  N1  IND d   1      -0.027  -1.781   1.695  0.00  0.00    -0.196 N 
ATOM      2  C2  IND d   1      -1.358  -1.584   1.456  0.00  0.00     0.054 A 
ATOM      3  C3  IND d   1      -1.561  -0.369   0.899  0.00  0.00    -0.031 A 
ATOM      4  C4  IND d   1       0.156   1.416   0.198  0.00  0.00     0.051 A 
ATOM      5  C5  IND d   1       1.491   1.705   0.248  0.00  0.00    -0.031 A 
ATOM      6  C6  IND d   1       2.407   0.828   0.791  0.00  0.00     0.015 A 
ATOM      7  C7  IND d   1       2.022  -0.382   1.297  0.00  0.00    -0.016 A 
ATOM      8  C8  IND d   1       0.666  -0.675   1.254  0.00  0.00    -0.047 A 
ATOM      9  C9  IND d   1      -0.274   0.229   0.743  0.00  0.00    -0.096 A 
ATOM     10  HN1 IND d   1       0.319  -2.479   2.059  0.00  0.00     0.298 HD
ENDROOT
TORSDOF 0
ENDMDL
