MODEL 1
REMARK minimizedAffinity -2.08465505
REMARK minimizedRMSD -1
REMARK  1 active torsions:
REMARK  status: ('A' for Active; 'I' for Inactive)
REMARK    1  A    between atoms: N_2  and  C1_3 
ROOT
ATOM      1  C1  UNL d   1       1.746  -0.286   1.484  0.00  0.00     0.143 A 
ATOM      2  C2  UNL d   1       0.559  -0.605   0.816  0.00  0.00    -0.057 A 
ATOM      3  C3  UNL d   1      -0.127   0.350   0.057  0.00  0.00     0.033 A 
ATOM      4  C4  UNL d   1       0.348   1.655  -0.024  0.00  0.00    -0.042 A 
ATOM      5  C5  UNL d   1       1.513   2.002   0.652  0.00  0.00     0.033 A 
ATOM      6  C6  UNL d   1       2.197   1.041   1.403  0.00  0.00    -0.057 A 
ENDROOT
BRANCH   1   7
ATOM      7  N   UNL d   1       2.421  -1.165   2.335  0.00  0.00    -0.732 N 
ATOM      8  C   UNL d   1       1.697  -2.177   3.073  0.00  0.00     0.284 C 
ATOM      9  H3  UNL d   1       3.301  -1.487   1.940  0.00  0.00     0.395 HD
ENDBRANCH   1   7
TORSDOF 1
ENDMDL
