MODEL 1
REMARK minimizedAffinity -1.36487091
REMARK minimizedRMSD -1
REMARK  1 active torsions:
REMARK  status: ('A' for Active; 'I' for Inactive)
REMARK    1  A    between atoms: N_2  and  C1_3 
ROOT
ATOM      1  C1  UNL d   1       1.271   1.022   0.869  0.00  0.00     0.143 A 
ATOM      2  C2  UNL d   1       1.004   1.782  -0.275  0.00  0.00    -0.057 A 
ATOM      3  C3  UNL d   1      -0.037   1.440  -1.147  0.00  0.00     0.033 A 
ATOM      4  C4  UNL d   1      -0.813   0.311  -0.904  0.00  0.00    -0.042 A 
ATOM      5  C5  UNL d   1      -0.549  -0.473   0.213  0.00  0.00     0.033 A 
ATOM      6  C6  UNL d   1       0.488  -0.123   1.084  0.00  0.00    -0.057 A 
ENDROOT
BRANCH   1   7
ATOM      7  N   UNL d   1       2.354   1.254   1.721  0.00  0.00    -0.732 N 
ATOM      8  C   UNL d   1       2.176   1.988   2.956  0.00  0.00     0.284 C 
ATOM      9  H3  UNL d   1       2.964   0.444   1.804  0.00  0.00     0.395 HD
ENDBRANCH   1   7
TORSDOF 1
ENDMDL
