MODEL 1
REMARK minimizedAffinity -3.23828387
REMARK minimizedRMSD -1
REMARK  1 active torsions:
REMARK  status: ('A' for Active; 'I' for Inactive)
REMARK    1  A    between atoms: N_2  and  C1_3 
ROOT
ATOM      1  C1  UNL d   1       1.021  -0.473   1.218  0.00  0.00     0.143 A 
ATOM      2  C2  UNL d   1       0.020   0.322   0.650  0.00  0.00    -0.057 A 
ATOM      3  C3  UNL d   1       0.308   1.592   0.133  0.00  0.00     0.033 A 
ATOM      4  C4  UNL d   1       1.600   2.101   0.203  0.00  0.00    -0.042 A 
ATOM      5  C5  UNL d   1       2.606   1.338   0.786  0.00  0.00     0.033 A 
ATOM      6  C6  UNL d   1       2.314   0.069   1.294  0.00  0.00    -0.057 A 
ENDROOT
BRANCH   1   7
ATOM      7  N   UNL d   1       0.780  -1.702   1.838  0.00  0.00    -0.732 N 
ATOM      8  C   UNL d   1       1.582  -2.130   2.963  0.00  0.00     0.284 C 
ATOM      9  H3  UNL d   1      -0.214  -1.899   1.937  0.00  0.00     0.395 HD
ENDBRANCH   1   7
TORSDOF 1
ENDMDL
