MODEL 1
REMARK minimizedAffinity -3.20714426
REMARK minimizedRMSD -1
REMARK  1 active torsions:
REMARK  status: ('A' for Active; 'I' for Inactive)
REMARK    1  A    between atoms: N_2  and  C1_3 
ROOT
ATOM      1  C1  UNL d   1       0.329   0.158   0.132  0.00  0.00     0.143 A 
ATOM      2  C2  UNL d   1       0.645   1.502  -0.090  0.00  0.00    -0.057 A 
ATOM      3  C3  UNL d   1       1.849   2.050   0.369  0.00  0.00     0.033 A 
ATOM      4  C4  UNL d   1       2.748   1.267   1.085  0.00  0.00    -0.042 A 
ATOM      5  C5  UNL d   1       2.444  -0.065   1.339  0.00  0.00     0.033 A 
ATOM      6  C6  UNL d   1       1.243  -0.608   0.872  0.00  0.00    -0.057 A 
ENDROOT
BRANCH   1   7
ATOM      7  N   UNL d   1      -0.895  -0.420  -0.213  0.00  0.00    -0.732 N 
ATOM      8  C   UNL d   1      -1.828   0.283  -1.067  0.00  0.00     0.284 C 
ATOM      9  H3  UNL d   1      -0.812  -1.413  -0.418  0.00  0.00     0.395 HD
ENDBRANCH   1   7
TORSDOF 1
ENDMDL
