MODEL 1
REMARK minimizedAffinity -0.374210387
REMARK minimizedRMSD -1
REMARK  1 active torsions:
REMARK  status: ('A' for Active; 'I' for Inactive)
REMARK    1  A    between atoms: N_2  and  C1_3 
ROOT
ATOM      1  C1  UNL d   1      -1.145  -0.053  -0.720  0.00  0.00     0.143 A 
ATOM      2  C2  UNL d   1       0.047   0.656  -0.902  0.00  0.00    -0.057 A 
ATOM      3  C3  UNL d   1       1.099   0.554   0.016  0.00  0.00     0.033 A 
ATOM      4  C4  UNL d   1       0.966  -0.240   1.151  0.00  0.00    -0.042 A 
ATOM      5  C5  UNL d   1      -0.219  -0.934   1.364  0.00  0.00     0.033 A 
ATOM      6  C6  UNL d   1      -1.264  -0.833   0.441  0.00  0.00    -0.057 A 
ENDROOT
BRANCH   1   7
ATOM      7  N   UNL d   1      -2.265   0.083  -1.545  0.00  0.00    -0.732 N 
ATOM      8  C   UNL d   1      -2.332  -0.604  -2.816  0.00  0.00     0.284 C 
ATOM      9  H3  UNL d   1      -3.137   0.074  -1.021  0.00  0.00     0.395 HD
ENDBRANCH   1   7
TORSDOF 1
ENDMDL
