MODEL 1
REMARK minimizedAffinity -1.38499892
REMARK minimizedRMSD -1
REMARK  1 active torsions:
REMARK  status: ('A' for Active; 'I' for Inactive)
REMARK    1  A    between atoms: N_2  and  C1_3 
ROOT
ATOM      1  C1  UNL d   1      -0.237   1.363   0.577  0.00  0.00     0.143 A 
ATOM      2  C2  UNL d   1       0.111   2.619   1.085  0.00  0.00    -0.057 A 
ATOM      3  C3  UNL d   1       1.326   2.821   1.751  0.00  0.00     0.033 A 
ATOM      4  C4  UNL d   1       2.204   1.760   1.947  0.00  0.00    -0.042 A 
ATOM      5  C5  UNL d   1       1.867   0.497   1.473  0.00  0.00     0.033 A 
ATOM      6  C6  UNL d   1       0.655   0.303   0.803  0.00  0.00    -0.057 A 
ENDROOT
BRANCH   1   7
ATOM      7  N   UNL d   1      -1.473   1.076  -0.008  0.00  0.00    -0.732 N 
ATOM      8  C   UNL d   1      -2.654   0.906   0.811  0.00  0.00     0.284 C 
ATOM      9  H3  UNL d   1      -1.632   1.606  -0.861  0.00  0.00     0.395 HD
ENDBRANCH   1   7
TORSDOF 1
ENDMDL
