MODEL 1
REMARK minimizedAffinity 3.25025249
REMARK minimizedRMSD -1
REMARK  0 active torsions:
REMARK  status: ('A' for Active; 'I' for Inactive)
ROOT
ATOM      1  C   UNL d   1       1.629  -0.265   2.358  0.00  0.00     0.172 C 
ATOM      2  N   UNL d   1       0.380   0.418   2.602  0.00  0.00    -0.070 N 
ATOM      3  C1  UNL d   1       0.193   1.774   2.577  0.00  0.00    -0.004 A 
ATOM      4  C2  UNL d   1      -1.132   2.023   2.859  0.00  0.00    -0.047 A 
ATOM      5  C3  UNL d   1      -1.764   0.773   3.062  0.00  0.00    -0.047 A 
ATOM      6  C4  UNL d   1      -0.805  -0.203   2.897  0.00  0.00    -0.004 A 
ENDROOT
TORSDOF 0
ENDMDL
