MODEL 1
REMARK minimizedAffinity 2.26186419
REMARK minimizedRMSD -1
REMARK  0 active torsions:
REMARK  status: ('A' for Active; 'I' for Inactive)
ROOT
ATOM      1  C   UNL d   1      -3.284   1.169  -0.107  0.00  0.00     0.172 C 
ATOM      2  N   UNL d   1      -2.347   1.024   0.982  0.00  0.00    -0.070 N 
ATOM      3  C1  UNL d   1      -2.400   1.693   2.176  0.00  0.00    -0.004 A 
ATOM      4  C2  UNL d   1      -1.333   1.277   2.941  0.00  0.00    -0.047 A 
ATOM      5  C3  UNL d   1      -0.613   0.324   2.182  0.00  0.00    -0.047 A 
ATOM      6  C4  UNL d   1      -1.263   0.187   0.973  0.00  0.00    -0.004 A 
ENDROOT
TORSDOF 0
ENDMDL
