MODEL 1
REMARK minimizedAffinity -1.41438389
REMARK minimizedRMSD -1
REMARK  0 active torsions:
REMARK  status: ('A' for Active; 'I' for Inactive)
ROOT
ATOM      1  C   UNL d   1      -1.487   0.235   2.163  0.00  0.00     0.172 C 
ATOM      2  N   UNL d   1      -0.254   0.906   2.502  0.00  0.00    -0.070 N 
ATOM      3  C1  UNL d   1      -0.152   2.144   3.078  0.00  0.00    -0.004 A 
ATOM      4  C2  UNL d   1       1.187   2.426   3.239  0.00  0.00    -0.047 A 
ATOM      5  C3  UNL d   1       1.915   1.319   2.741  0.00  0.00    -0.047 A 
ATOM      6  C4  UNL d   1       0.998   0.393   2.291  0.00  0.00    -0.004 A 
ENDROOT
TORSDOF 0
ENDMDL
