MODEL 1
REMARK minimizedAffinity 2.2444241
REMARK minimizedRMSD -1
REMARK  0 active torsions:
REMARK  status: ('A' for Active; 'I' for Inactive)
ROOT
ATOM      1  C   UNL d   1       1.697  -0.162   2.206  0.00  0.00     0.172 C 
ATOM      2  N   UNL d   1       0.263   0.001   2.264  0.00  0.00    -0.070 N 
ATOM      3  C1  UNL d   1      -0.509  -0.121   3.389  0.00  0.00    -0.004 A 
ATOM      4  C2  UNL d   1      -1.819   0.107   3.028  0.00  0.00    -0.047 A 
ATOM      5  C3  UNL d   1      -1.835   0.374   1.639  0.00  0.00    -0.047 A 
ATOM      6  C4  UNL d   1      -0.533   0.302   1.191  0.00  0.00    -0.004 A 
ENDROOT
TORSDOF 0
ENDMDL
