MODEL 1
REMARK minimizedAffinity 2.10451841
REMARK minimizedRMSD -1
REMARK  0 active torsions:
REMARK  status: ('A' for Active; 'I' for Inactive)
ROOT
ATOM      1  C   UNL d   1      -1.846  -1.065   2.002  0.00  0.00     0.172 C 
ATOM      2  N   UNL d   1      -1.207   0.146   2.462  0.00  0.00    -0.070 N 
ATOM      3  C1  UNL d   1       0.143   0.336   2.595  0.00  0.00    -0.004 A 
ATOM      4  C2  UNL d   1       0.345   1.618   3.058  0.00  0.00    -0.047 A 
ATOM      5  C3  UNL d   1      -0.927   2.219   3.211  0.00  0.00    -0.047 A 
ATOM      6  C4  UNL d   1      -1.870   1.285   2.834  0.00  0.00    -0.004 A 
ENDROOT
TORSDOF 0
ENDMDL
