MODEL 1
REMARK minimizedAffinity 8.75891399
REMARK minimizedRMSD -1
REMARK  0 active torsions:
REMARK  status: ('A' for Active; 'I' for Inactive)
ROOT
ATOM      1  C   UNL d   1       0.324  -0.395   1.745  0.00  0.00     0.172 C 
ATOM      2  N   UNL d   1       1.599  -0.143   1.117  0.00  0.00    -0.070 N 
ATOM      3  C1  UNL d   1       1.882   0.898   0.274  0.00  0.00    -0.004 A 
ATOM      4  C2  UNL d   1       3.201   0.786  -0.109  0.00  0.00    -0.047 A 
ATOM      5  C3  UNL d   1       3.729  -0.364   0.525  0.00  0.00    -0.047 A 
ATOM      6  C4  UNL d   1       2.716  -0.920   1.278  0.00  0.00    -0.004 A 
ENDROOT
TORSDOF 0
ENDMDL
