MODEL 1
REMARK minimizedAffinity 1.84530663
REMARK minimizedRMSD -1
REMARK  0 active torsions:
REMARK  status: ('A' for Active; 'I' for Inactive)
ROOT
ATOM      1  C   UNL d   1       0.038   0.758   2.918  0.00  0.00     0.172 C 
ATOM      2  N   UNL d   1       1.227   0.269   2.260  0.00  0.00    -0.070 N 
ATOM      3  C1  UNL d   1       2.338  -0.229   2.886  0.00  0.00    -0.004 A 
ATOM      4  C2  UNL d   1       3.246  -0.587   1.913  0.00  0.00    -0.047 A 
ATOM      5  C3  UNL d   1       2.660  -0.293   0.658  0.00  0.00    -0.047 A 
ATOM      6  C4  UNL d   1       1.411   0.236   0.903  0.00  0.00    -0.004 A 
ENDROOT
TORSDOF 0
ENDMDL
