MODEL 1
REMARK minimizedAffinity 3.97296071
REMARK minimizedRMSD -1
REMARK  0 active torsions:
REMARK  status: ('A' for Active; 'I' for Inactive)
ROOT
ATOM      1  C   UNL d   1      -1.116   0.389   2.606  0.00  0.00     0.172 C 
ATOM      2  N   UNL d   1       0.178   0.032   2.074  0.00  0.00    -0.070 N 
ATOM      3  C1  UNL d   1       1.348  -0.017   2.785  0.00  0.00    -0.004 A 
ATOM      4  C2  UNL d   1       2.351  -0.398   1.920  0.00  0.00    -0.047 A 
ATOM      5  C3  UNL d   1       1.765  -0.583   0.645  0.00  0.00    -0.047 A 
ATOM      6  C4  UNL d   1       0.419  -0.310   0.769  0.00  0.00    -0.004 A 
ENDROOT
TORSDOF 0
ENDMDL
