MODEL 1
REMARK minimizedAffinity -3.20245004
REMARK minimizedRMSD -1
REMARK  0 active torsions:
REMARK  status: ('A' for Active; 'I' for Inactive)
ROOT
ATOM      1  C4' PXY d   1      -0.467  -0.846  -2.957  0.00  0.00     0.077 C 
ATOM      2  C1' PXY d   1       5.221  -0.481  -3.919  0.00  0.00     0.077 C 
ATOM      3  C1  PXY d   1       3.730  -0.565  -3.661  0.00  0.00    -0.082 A 
ATOM      4  C2  PXY d   1       3.141  -1.749  -3.606  0.00  0.00     0.003 A 
ATOM      5  C3  PXY d   1       1.788  -1.842  -3.406  0.00  0.00     0.003 A 
ATOM      6  C4  PXY d   1       1.038  -0.714  -3.206  0.00  0.00    -0.082 A 
ATOM      7  C5  PXY d   1       1.633   0.497  -3.250  0.00  0.00     0.003 A 
ATOM      8  C6  PXY d   1       3.001   0.572  -3.496  0.00  0.00     0.003 A 
ENDROOT
TORSDOF 0
ENDMDL
