MODEL 1
REMARK minimizedAffinity -4.60693502
REMARK minimizedRMSD -1
REMARK  0 active torsions:
REMARK  status: ('A' for Active; 'I' for Inactive)
ROOT
ATOM      1  C4' PXY d   1      -2.941  -0.289   2.416  0.00  0.00     0.077 C 
ATOM      2  C1' PXY d   1       1.441   2.913   4.405  0.00  0.00     0.077 C 
ATOM      3  C1  PXY d   1       0.300   2.069   3.875  0.00  0.00    -0.082 A 
ATOM      4  C2  PXY d   1      -0.949   2.453   4.081  0.00  0.00     0.003 A 
ATOM      5  C3  PXY d   1      -1.994   1.684   3.636  0.00  0.00     0.003 A 
ATOM      6  C4  PXY d   1      -1.757   0.538   2.926  0.00  0.00    -0.082 A 
ATOM      7  C5  PXY d   1      -0.485   0.145   2.702  0.00  0.00     0.003 A 
ATOM      8  C6  PXY d   1       0.561   0.918   3.198  0.00  0.00     0.003 A 
ENDROOT
TORSDOF 0
ENDMDL
