MODEL 1
REMARK minimizedAffinity -5.37032175
REMARK minimizedRMSD -1
REMARK  0 active torsions:
REMARK  status: ('A' for Active; 'I' for Inactive)
ROOT
ATOM      1  C4' PXY d   1       0.811  -0.157  -2.070  0.00  0.00     0.077 C 
ATOM      2  C1' PXY d   1      -2.515  -0.041   2.656  0.00  0.00     0.077 C 
ATOM      3  C1  PXY d   1      -1.653  -0.073   1.409  0.00  0.00    -0.082 A 
ATOM      4  C2  PXY d   1      -0.375  -0.399   1.506  0.00  0.00     0.003 A 
ATOM      5  C3  PXY d   1       0.427  -0.402   0.394  0.00  0.00     0.003 A 
ATOM      6  C4  PXY d   1      -0.099  -0.120  -0.839  0.00  0.00    -0.082 A 
ATOM      7  C5  PXY d   1      -1.405   0.202  -0.948  0.00  0.00     0.003 A 
ATOM      8  C6  PXY d   1      -2.192   0.240   0.199  0.00  0.00     0.003 A 
ENDROOT
TORSDOF 0
ENDMDL
