MODEL 1
REMARK minimizedAffinity -4.10872221
REMARK minimizedRMSD -1
REMARK  0 active torsions:
REMARK  status: ('A' for Active; 'I' for Inactive)
ROOT
ATOM      1  C4' PXY d   1       1.078   0.726  -2.263  0.00  0.00     0.077 C 
ATOM      2  C1' PXY d   1      -0.896  -0.488   3.033  0.00  0.00     0.077 C 
ATOM      3  C1  PXY d   1      -0.388  -0.176   1.639  0.00  0.00    -0.082 A 
ATOM      4  C2  PXY d   1       0.891   0.109   1.457  0.00  0.00     0.003 A 
ATOM      5  C3  PXY d   1       1.360   0.424   0.208  0.00  0.00     0.003 A 
ATOM      6  C4  PXY d   1       0.523   0.396  -0.874  0.00  0.00    -0.082 A 
ATOM      7  C5  PXY d   1      -0.782   0.096  -0.699  0.00  0.00     0.003 A 
ATOM      8  C6  PXY d   1      -1.247  -0.181   0.584  0.00  0.00     0.003 A 
ENDROOT
TORSDOF 0
ENDMDL
