MODEL 1
REMARK minimizedAffinity -0.981932104
REMARK minimizedRMSD -1
REMARK  0 active torsions:
REMARK  status: ('A' for Active; 'I' for Inactive)
ROOT
ATOM      1  C4' PXY d   1      -1.444  -0.646   3.295  0.00  0.00     0.077 C 
ATOM      2  C1' PXY d   1       0.165   0.193  -2.194  0.00  0.00     0.077 C 
ATOM      3  C1  PXY d   1      -0.269  -0.022  -0.757  0.00  0.00    -0.082 A 
ATOM      4  C2  PXY d   1       0.640  -0.051   0.204  0.00  0.00     0.003 A 
ATOM      5  C3  PXY d   1       0.269  -0.276   1.504  0.00  0.00     0.003 A 
ATOM      6  C4  PXY d   1      -1.053  -0.422   1.831  0.00  0.00    -0.082 A 
ATOM      7  C5  PXY d   1      -1.987  -0.384   0.858  0.00  0.00     0.003 A 
ATOM      8  C6  PXY d   1      -1.586  -0.195  -0.461  0.00  0.00     0.003 A 
ENDROOT
TORSDOF 0
ENDMDL
