MODEL 1
REMARK minimizedAffinity -3.8761673
REMARK minimizedRMSD -1
REMARK  0 active torsions:
REMARK  status: ('A' for Active; 'I' for Inactive)
ROOT
ATOM      1  C4' PXY d   1       1.506  -1.571  -4.133  0.00  0.00     0.077 C 
ATOM      2  C1' PXY d   1       6.000   2.007  -3.488  0.00  0.00     0.077 C 
ATOM      3  C1  PXY d   1       4.829   1.059  -3.657  0.00  0.00    -0.082 A 
ATOM      4  C2  PXY d   1       3.699   1.502  -4.184  0.00  0.00     0.003 A 
ATOM      5  C3  PXY d   1       2.620   0.665  -4.315  0.00  0.00     0.003 A 
ATOM      6  C4  PXY d   1       2.716  -0.651  -3.951  0.00  0.00    -0.082 A 
ATOM      7  C5  PXY d   1       3.869  -1.113  -3.423  0.00  0.00     0.003 A 
ATOM      8  C6  PXY d   1       4.939  -0.238  -3.260  0.00  0.00     0.003 A 
ENDROOT
TORSDOF 0
ENDMDL
