MODEL 1
REMARK minimizedAffinity -0.689189732
REMARK minimizedRMSD -1
REMARK  0 active torsions:
REMARK  status: ('A' for Active; 'I' for Inactive)
ROOT
ATOM      1  C4' PXY d   1      -0.088  -0.425  -2.372  0.00  0.00     0.077 C 
ATOM      2  C1' PXY d   1      -0.925  -0.415   3.348  0.00  0.00     0.077 C 
ATOM      3  C1  PXY d   1      -0.718  -0.423   1.846  0.00  0.00    -0.082 A 
ATOM      4  C2  PXY d   1       0.511  -0.418   1.356  0.00  0.00     0.003 A 
ATOM      5  C3  PXY d   1       0.717  -0.393   0.001  0.00  0.00     0.003 A 
ATOM      6  C4  PXY d   1      -0.345  -0.427  -0.862  0.00  0.00    -0.082 A 
ATOM      7  C5  PXY d   1      -1.602  -0.443  -0.370  0.00  0.00     0.003 A 
ATOM      8  C6  PXY d   1      -1.790  -0.427   1.009  0.00  0.00     0.003 A 
ENDROOT
TORSDOF 0
ENDMDL
