MODEL 1
REMARK minimizedAffinity -1.35761726
REMARK minimizedRMSD -1
REMARK  0 active torsions:
REMARK  status: ('A' for Active; 'I' for Inactive)
ROOT
ATOM      1  C4' PXY d   1       0.928   0.872  -1.799  0.00  0.00     0.077 C 
ATOM      2  C1' PXY d   1      -0.998  -1.016   3.314  0.00  0.00     0.077 C 
ATOM      3  C1  PXY d   1      -0.502  -0.528   1.967  0.00  0.00    -0.082 A 
ATOM      4  C2  PXY d   1       0.743  -0.097   1.845  0.00  0.00     0.003 A 
ATOM      5  C3  PXY d   1       1.199   0.378   0.642  0.00  0.00     0.003 A 
ATOM      6  C4  PXY d   1       0.387   0.362  -0.461  0.00  0.00    -0.082 A 
ATOM      7  C5  PXY d   1      -0.881  -0.086  -0.347  0.00  0.00     0.003 A 
ATOM      8  C6  PXY d   1      -1.337  -0.525   0.893  0.00  0.00     0.003 A 
ENDROOT
TORSDOF 0
ENDMDL
