MODEL 1
REMARK minimizedAffinity 2.77452946
REMARK minimizedRMSD -1
REMARK  0 active torsions:
REMARK  status: ('A' for Active; 'I' for Inactive)
ROOT
ATOM      1  C4' PXY d   1       3.335  -1.029   2.919  0.00  0.00     0.077 C 
ATOM      2  C1' PXY d   1      -2.213  -0.093   1.592  0.00  0.00     0.077 C 
ATOM      3  C1  PXY d   1      -0.761  -0.349   1.947  0.00  0.00    -0.082 A 
ATOM      4  C2  PXY d   1       0.118   0.636   1.855  0.00  0.00     0.003 A 
ATOM      5  C3  PXY d   1       1.440   0.414   2.142  0.00  0.00     0.003 A 
ATOM      6  C4  PXY d   1       1.858  -0.814   2.579  0.00  0.00    -0.082 A 
ATOM      7  C5  PXY d   1       0.965  -1.821   2.686  0.00  0.00     0.003 A 
ATOM      8  C6  PXY d   1      -0.365  -1.587   2.350  0.00  0.00     0.003 A 
ENDROOT
TORSDOF 0
ENDMDL
