MODEL 1
REMARK minimizedAffinity 5.3237586
REMARK minimizedRMSD -1
REMARK  0 active torsions:
REMARK  status: ('A' for Active; 'I' for Inactive)
ROOT
ATOM      1  C4' PXY d   1       2.235  -0.719   2.602  0.00  0.00     0.077 C 
ATOM      2  C1' PXY d   1      -3.265   0.515   1.319  0.00  0.00     0.077 C 
ATOM      3  C1  PXY d   1      -1.819   0.195   1.644  0.00  0.00    -0.082 A 
ATOM      4  C2  PXY d   1      -1.540  -0.697   2.579  0.00  0.00     0.003 A 
ATOM      5  C3  PXY d   1      -0.238  -0.975   2.908  0.00  0.00     0.003 A 
ATOM      6  C4  PXY d   1       0.790  -0.372   2.234  0.00  0.00    -0.082 A 
ATOM      7  C5  PXY d   1       0.514   0.533   1.271  0.00  0.00     0.003 A 
ATOM      8  C6  PXY d   1      -0.814   0.831   0.981  0.00  0.00     0.003 A 
ENDROOT
TORSDOF 0
ENDMDL
