MODEL 1
REMARK minimizedAffinity -5.14609003
REMARK minimizedRMSD -1
REMARK  0 active torsions:
REMARK  status: ('A' for Active; 'I' for Inactive)
ROOT
ATOM      1  C4' PXY d   1       0.036   0.526  -0.950  0.00  0.00     0.077 C 
ATOM      2  C1' PXY d   1      -2.242  -0.790   4.197  0.00  0.00     0.077 C 
ATOM      3  C1  PXY d   1      -1.656  -0.448   2.841  0.00  0.00    -0.082 A 
ATOM      4  C2  PXY d   1      -0.344  -0.482   2.668  0.00  0.00     0.003 A 
ATOM      5  C3  PXY d   1       0.205  -0.145   1.458  0.00  0.00     0.003 A 
ATOM      6  C4  PXY d   1      -0.600   0.179   0.399  0.00  0.00    -0.082 A 
ATOM      7  C5  PXY d   1      -1.940   0.206   0.564  0.00  0.00     0.003 A 
ATOM      8  C6  PXY d   1      -2.475  -0.100   1.812  0.00  0.00     0.003 A 
ENDROOT
TORSDOF 0
ENDMDL
