MODEL 1
REMARK minimizedAffinity -5.23538637
REMARK minimizedRMSD -1
REMARK  0 active torsions:
REMARK  status: ('A' for Active; 'I' for Inactive)
ROOT
ATOM      1  C4' PXY d   1       0.236  -2.093  -3.644  0.00  0.00     0.077 C 
ATOM      2  C1' PXY d   1       5.007   1.168  -3.778  0.00  0.00     0.077 C 
ATOM      3  C1  PXY d   1       3.750   0.321  -3.734  0.00  0.00    -0.082 A 
ATOM      4  C2  PXY d   1       3.822  -0.971  -4.008  0.00  0.00     0.003 A 
ATOM      5  C3  PXY d   1       2.691  -1.745  -4.005  0.00  0.00     0.003 A 
ATOM      6  C4  PXY d   1       1.480  -1.202  -3.666  0.00  0.00    -0.082 A 
ATOM      7  C5  PXY d   1       1.400   0.114  -3.375  0.00  0.00     0.003 A 
ATOM      8  C6  PXY d   1       2.554   0.891  -3.424  0.00  0.00     0.003 A 
ENDROOT
TORSDOF 0
ENDMDL
