MODEL 1
REMARK minimizedAffinity -0.0783484355
REMARK minimizedRMSD -1
REMARK  0 active torsions:
REMARK  status: ('A' for Active; 'I' for Inactive)
ROOT
ATOM      1  C4' PXY d   1      -3.598   0.791   0.921  0.00  0.00     0.077 C 
ATOM      2  C1' PXY d   1       1.999  -0.278   1.898  0.00  0.00     0.077 C 
ATOM      3  C1  PXY d   1       0.534   0.006   1.629  0.00  0.00    -0.082 A 
ATOM      4  C2  PXY d   1      -0.269   0.309   2.637  0.00  0.00     0.003 A 
ATOM      5  C3  PXY d   1      -1.603   0.537   2.416  0.00  0.00     0.003 A 
ATOM      6  C4  PXY d   1      -2.110   0.507   1.144  0.00  0.00    -0.082 A 
ATOM      7  C5  PXY d   1      -1.295   0.209   0.110  0.00  0.00     0.003 A 
ATOM      8  C6  PXY d   1       0.048  -0.060   0.360  0.00  0.00     0.003 A 
ENDROOT
TORSDOF 0
ENDMDL
