MODEL 1
REMARK minimizedAffinity 1.00941956
REMARK minimizedRMSD -1
REMARK  0 active torsions:
REMARK  status: ('A' for Active; 'I' for Inactive)
ROOT
ATOM      1  C4' PXY d   1       4.073   0.271   1.397  0.00  0.00     0.077 C 
ATOM      2  C1' PXY d   1      -1.518  -0.191   2.790  0.00  0.00     0.077 C 
ATOM      3  C1  PXY d   1      -0.055  -0.064   2.414  0.00  0.00    -0.082 A 
ATOM      4  C2  PXY d   1       0.833  -0.880   2.958  0.00  0.00     0.003 A 
ATOM      5  C3  PXY d   1       2.165  -0.758   2.653  0.00  0.00     0.003 A 
ATOM      6  C4  PXY d   1       2.584   0.173   1.741  0.00  0.00    -0.082 A 
ATOM      7  C5  PXY d   1       1.682   1.002   1.173  0.00  0.00     0.003 A 
ATOM      8  C6  PXY d   1       0.341   0.889   1.527  0.00  0.00     0.003 A 
ENDROOT
TORSDOF 0
ENDMDL
