MODEL 1
REMARK minimizedAffinity 2.22380805
REMARK minimizedRMSD -1
REMARK  0 active torsions:
REMARK  status: ('A' for Active; 'I' for Inactive)
ROOT
ATOM      1  C4' PXY d   1      -3.793   0.993   1.665  0.00  0.00     0.077 C 
ATOM      2  C1' PXY d   1       1.731  -0.614   2.232  0.00  0.00     0.077 C 
ATOM      3  C1  PXY d   1       0.285  -0.188   2.072  0.00  0.00    -0.082 A 
ATOM      4  C2  PXY d   1      -0.462   0.008   3.146  0.00  0.00     0.003 A 
ATOM      5  C3  PXY d   1      -1.780   0.363   3.019  0.00  0.00     0.003 A 
ATOM      6  C4  PXY d   1      -2.325   0.571   1.780  0.00  0.00    -0.082 A 
ATOM      7  C5  PXY d   1      -1.566   0.383   0.679  0.00  0.00     0.003 A 
ATOM      8  C6  PXY d   1      -0.242  -0.017   0.829  0.00  0.00     0.003 A 
ENDROOT
TORSDOF 0
ENDMDL
