MODEL 1
REMARK minimizedAffinity 3.24458647
REMARK minimizedRMSD -1
REMARK  0 active torsions:
REMARK  status: ('A' for Active; 'I' for Inactive)
ROOT
ATOM      1  C4' PXY d   1      -1.243  -0.213   1.533  0.00  0.00     0.077 C 
ATOM      2  C1' PXY d   1       0.579  -0.744  -3.927  0.00  0.00     0.077 C 
ATOM      3  C1  PXY d   1       0.094  -0.615  -2.497  0.00  0.00    -0.082 A 
ATOM      4  C2  PXY d   1       0.162   0.557  -1.886  0.00  0.00     0.003 A 
ATOM      5  C3  PXY d   1      -0.243   0.684  -0.582  0.00  0.00     0.003 A 
ATOM      6  C4  PXY d   1      -0.773  -0.387   0.087  0.00  0.00    -0.082 A 
ATOM      7  C5  PXY d   1      -0.856  -1.584  -0.533  0.00  0.00     0.003 A 
ATOM      8  C6  PXY d   1      -0.401  -1.702  -1.844  0.00  0.00     0.003 A 
ENDROOT
TORSDOF 0
ENDMDL
