MODEL 1
REMARK minimizedAffinity -1.53834319
REMARK minimizedRMSD -1
REMARK  0 active torsions:
REMARK  status: ('A' for Active; 'I' for Inactive)
ROOT
ATOM      1  C4' PXY d   1       2.463  -0.755   2.697  0.00  0.00     0.077 C 
ATOM      2  C1' PXY d   1      -3.179   0.282   1.985  0.00  0.00     0.077 C 
ATOM      3  C1  PXY d   1      -1.702   0.002   2.182  0.00  0.00    -0.082 A 
ATOM      4  C2  PXY d   1      -0.807   0.855   1.711  0.00  0.00     0.003 A 
ATOM      5  C3  PXY d   1       0.533   0.602   1.853  0.00  0.00     0.003 A 
ATOM      6  C4  PXY d   1       0.961  -0.509   2.530  0.00  0.00    -0.082 A 
ATOM      7  C5  PXY d   1       0.053  -1.378   3.023  0.00  0.00     0.003 A 
ATOM      8  C6  PXY d   1      -1.302  -1.124   2.833  0.00  0.00     0.003 A 
ENDROOT
TORSDOF 0
ENDMDL
