MODEL 1
REMARK minimizedAffinity 0.566439748
REMARK minimizedRMSD -1
REMARK  0 active torsions:
REMARK  status: ('A' for Active; 'I' for Inactive)
ROOT
ATOM      1  C4' PXY d   1      -4.055   0.845   1.563  0.00  0.00     0.077 C 
ATOM      2  C1' PXY d   1       1.485  -0.640   2.281  0.00  0.00     0.077 C 
ATOM      3  C1  PXY d   1       0.033  -0.255   2.081  0.00  0.00    -0.082 A 
ATOM      4  C2  PXY d   1      -0.496   0.709   2.816  0.00  0.00     0.003 A 
ATOM      5  C3  PXY d   1      -1.817   1.048   2.670  0.00  0.00     0.003 A 
ATOM      6  C4  PXY d   1      -2.590   0.430   1.725  0.00  0.00    -0.082 A 
ATOM      7  C5  PXY d   1      -2.055  -0.548   0.963  0.00  0.00     0.003 A 
ATOM      8  C6  PXY d   1      -0.724  -0.905   1.155  0.00  0.00     0.003 A 
ENDROOT
TORSDOF 0
ENDMDL
