MODEL 1
REMARK minimizedAffinity 0.846473396
REMARK minimizedRMSD -1
REMARK  0 active torsions:
REMARK  status: ('A' for Active; 'I' for Inactive)
ROOT
ATOM      1  C4' PXY d   1      -0.496   0.273  -0.992  0.00  0.00     0.077 C 
ATOM      2  C1' PXY d   1       1.312   1.951   4.236  0.00  0.00     0.077 C 
ATOM      3  C1  PXY d   1       0.833   1.500   2.870  0.00  0.00    -0.082 A 
ATOM      4  C2  PXY d   1       1.401   1.994   1.782  0.00  0.00     0.003 A 
ATOM      5  C3  PXY d   1       0.959   1.621   0.538  0.00  0.00     0.003 A 
ATOM      6  C4  PXY d   1      -0.039   0.693   0.408  0.00  0.00    -0.082 A 
ATOM      7  C5  PXY d   1      -0.616   0.176   1.513  0.00  0.00     0.003 A 
ATOM      8  C6  PXY d   1      -0.181   0.599   2.766  0.00  0.00     0.003 A 
ENDROOT
TORSDOF 0
ENDMDL
