MODEL 1
REMARK minimizedAffinity -4.56860304
REMARK minimizedRMSD -1
REMARK  0 active torsions:
REMARK  status: ('A' for Active; 'I' for Inactive)
ROOT
ATOM      1  C   UNL d   1       2.895   2.993   4.509  0.00  0.00     0.077 C 
ATOM      2  C1  UNL d   1       2.458   1.774   3.752  0.00  0.00    -0.074 A 
ATOM      3  C2  UNL d   1       1.431   1.846   2.805  0.00  0.00    -0.005 A 
ATOM      4  C3  UNL d   1       1.042   0.706   2.102  0.00  0.00     0.006 A 
ATOM      5  C4  UNL d   1       1.674  -0.515   2.337  0.00  0.00    -0.005 A 
ATOM      6  C5  UNL d   1       2.704  -0.606   3.279  0.00  0.00    -0.074 A 
ATOM      7  C6  UNL d   1       3.401  -1.908   3.537  0.00  0.00     0.077 C 
ATOM      8  C7  UNL d   1       3.094   0.546   3.977  0.00  0.00    -0.001 A 
ENDROOT
TORSDOF 0
ENDMDL
