MODEL 1
REMARK minimizedAffinity -1.86064589
REMARK minimizedRMSD -1
REMARK  0 active torsions:
REMARK  status: ('A' for Active; 'I' for Inactive)
ROOT
ATOM      1  C   UNL d   1      -3.050  -0.298  -2.764  0.00  0.00     0.077 C 
ATOM      2  C1  UNL d   1      -1.790  -0.091  -1.976  0.00  0.00    -0.074 A 
ATOM      3  C2  UNL d   1      -0.836   0.848  -2.379  0.00  0.00    -0.005 A 
ATOM      4  C3  UNL d   1       0.326   1.035  -1.631  0.00  0.00     0.006 A 
ATOM      5  C4  UNL d   1       0.545   0.287  -0.474  0.00  0.00    -0.005 A 
ATOM      6  C5  UNL d   1      -0.399  -0.656  -0.054  0.00  0.00    -0.074 A 
ATOM      7  C6  UNL d   1      -0.184  -1.461   1.193  0.00  0.00     0.077 C 
ATOM      8  C7  UNL d   1      -1.567  -0.833  -0.808  0.00  0.00    -0.001 A 
ENDROOT
TORSDOF 0
ENDMDL
