MODEL 1
REMARK minimizedAffinity 1.10430646
REMARK minimizedRMSD -1
REMARK  0 active torsions:
REMARK  status: ('A' for Active; 'I' for Inactive)
ROOT
ATOM      1  C   UNL d   1       0.597   1.518   2.586  0.00  0.00     0.077 C 
ATOM      2  C1  UNL d   1       0.218   1.656   1.141  0.00  0.00    -0.074 A 
ATOM      3  C2  UNL d   1      -0.338   0.583   0.437  0.00  0.00    -0.005 A 
ATOM      4  C3  UNL d   1      -0.693   0.730  -0.903  0.00  0.00     0.006 A 
ATOM      5  C4  UNL d   1      -0.497   1.949  -1.553  0.00  0.00    -0.005 A 
ATOM      6  C5  UNL d   1       0.057   3.034  -0.865  0.00  0.00    -0.074 A 
ATOM      7  C6  UNL d   1       0.265   4.354  -1.546  0.00  0.00     0.077 C 
ATOM      8  C7  UNL d   1       0.405   2.881   0.484  0.00  0.00    -0.001 A 
ENDROOT
TORSDOF 0
ENDMDL
