MODEL 1
REMARK minimizedAffinity 0.0970404893
REMARK minimizedRMSD -1
REMARK  0 active torsions:
REMARK  status: ('A' for Active; 'I' for Inactive)
ROOT
ATOM      1  C   UNL d   1       0.734   5.380  -1.099  0.00  0.00     0.077 C 
ATOM      2  C1  UNL d   1       0.536   3.953  -0.683  0.00  0.00    -0.074 A 
ATOM      3  C2  UNL d   1       0.296   2.954  -1.632  0.00  0.00    -0.005 A 
ATOM      4  C3  UNL d   1       0.124   1.629  -1.231  0.00  0.00     0.006 A 
ATOM      5  C4  UNL d   1       0.189   1.290   0.121  0.00  0.00    -0.005 A 
ATOM      6  C5  UNL d   1       0.428   2.275   1.084  0.00  0.00    -0.074 A 
ATOM      7  C6  UNL d   1       0.511   1.927   2.541  0.00  0.00     0.077 C 
ATOM      8  C7  UNL d   1       0.608   3.603   0.673  0.00  0.00    -0.001 A 
ENDROOT
TORSDOF 0
ENDMDL
