MODEL 1
REMARK minimizedAffinity 8.52908516
REMARK minimizedRMSD -1
REMARK  0 active torsions:
REMARK  status: ('A' for Active; 'I' for Inactive)
ROOT
ATOM      1  C   UNL d   1       4.452  -4.500  -3.485  0.00  0.00     0.077 C 
ATOM      2  C1  UNL d   1       3.873  -4.877  -2.154  0.00  0.00    -0.074 A 
ATOM      3  C2  UNL d   1       4.600  -5.655  -1.247  0.00  0.00    -0.005 A 
ATOM      4  C3  UNL d   1       4.051  -5.989  -0.009  0.00  0.00     0.006 A 
ATOM      5  C4  UNL d   1       2.772  -5.550   0.335  0.00  0.00    -0.005 A 
ATOM      6  C5  UNL d   1       2.030  -4.770  -0.559  0.00  0.00    -0.074 A 
ATOM      7  C6  UNL d   1       0.658  -4.281  -0.201  0.00  0.00     0.077 C 
ATOM      8  C7  UNL d   1       2.591  -4.432  -1.798  0.00  0.00    -0.001 A 
ENDROOT
TORSDOF 0
ENDMDL
