MODEL 1
REMARK minimizedAffinity -0.810797274
REMARK minimizedRMSD -1
REMARK  0 active torsions:
REMARK  status: ('A' for Active; 'I' for Inactive)
ROOT
ATOM      1  C   UNL d   1       0.747   5.999  -1.197  0.00  0.00     0.077 C 
ATOM      2  C1  UNL d   1      -0.052   4.842  -1.719  0.00  0.00    -0.074 A 
ATOM      3  C2  UNL d   1      -1.039   5.031  -2.692  0.00  0.00    -0.005 A 
ATOM      4  C3  UNL d   1      -1.768   3.945  -3.176  0.00  0.00     0.006 A 
ATOM      5  C4  UNL d   1      -1.518   2.660  -2.692  0.00  0.00    -0.005 A 
ATOM      6  C5  UNL d   1      -0.534   2.451  -1.719  0.00  0.00    -0.074 A 
ATOM      7  C6  UNL d   1      -0.246   1.076  -1.196  0.00  0.00     0.077 C 
ATOM      8  C7  UNL d   1       0.198   3.547  -1.244  0.00  0.00    -0.001 A 
ENDROOT
TORSDOF 0
ENDMDL
