MODEL 1
REMARK minimizedAffinity 1.49312472
REMARK minimizedRMSD -1
REMARK  0 active torsions:
REMARK  status: ('A' for Active; 'I' for Inactive)
ROOT
ATOM      1  C   UNL d   1       0.757   5.531  -0.982  0.00  0.00     0.077 C 
ATOM      2  C1  UNL d   1       0.553   4.100  -0.581  0.00  0.00    -0.074 A 
ATOM      3  C2  UNL d   1       0.239   3.125  -1.533  0.00  0.00    -0.005 A 
ATOM      4  C3  UNL d   1       0.062   1.796  -1.146  0.00  0.00     0.006 A 
ATOM      5  C4  UNL d   1       0.196   1.431   0.194  0.00  0.00    -0.005 A 
ATOM      6  C5  UNL d   1       0.510   2.392   1.159  0.00  0.00    -0.074 A 
ATOM      7  C6  UNL d   1       0.668   2.015   2.602  0.00  0.00     0.077 C 
ATOM      8  C7  UNL d   1       0.694   3.724   0.762  0.00  0.00    -0.001 A 
ENDROOT
TORSDOF 0
ENDMDL
