MODEL 1
REMARK minimizedAffinity 2.2547214
REMARK minimizedRMSD -1
REMARK  0 active torsions:
REMARK  status: ('A' for Active; 'I' for Inactive)
ROOT
ATOM      1  C   UNL d   1       0.954   5.681  -1.064  0.00  0.00     0.077 C 
ATOM      2  C1  UNL d   1       0.603   4.262  -0.728  0.00  0.00    -0.074 A 
ATOM      3  C2  UNL d   1       0.202   3.366  -1.723  0.00  0.00    -0.005 A 
ATOM      4  C3  UNL d   1      -0.113   2.047  -1.397  0.00  0.00     0.006 A 
ATOM      5  C4  UNL d   1      -0.028   1.611  -0.074  0.00  0.00    -0.005 A 
ATOM      6  C5  UNL d   1       0.372   2.493   0.935  0.00  0.00    -0.074 A 
ATOM      7  C6  UNL d   1       0.477   2.038   2.361  0.00  0.00     0.077 C 
ATOM      8  C7  UNL d   1       0.693   3.815   0.598  0.00  0.00    -0.001 A 
ENDROOT
TORSDOF 0
ENDMDL
