MODEL 1
REMARK minimizedAffinity -1.99637449
REMARK minimizedRMSD -1
REMARK  2 active torsions:
REMARK  status: ('A' for Active; 'I' for Inactive)
REMARK    1  A    between atoms: C2'_3  and  C1'_4 
REMARK    2  A    between atoms: C1'_4  and  C1_5 
ROOT
ATOM      1  C1  I4B d   1      -0.049  -0.184  -0.108  0.00  0.00    -0.075 A 
ATOM      2  C2  I4B d   1      -0.831   0.215   0.948  0.00  0.00     0.003 A 
ATOM      3  C3  I4B d   1      -0.457   1.336   1.728  0.00  0.00     0.002 A 
ATOM      4  C4  I4B d   1       0.724   1.994   1.450  0.00  0.00    -0.004 A 
ATOM      5  C5  I4B d   1       1.503   1.602   0.365  0.00  0.00     0.002 A 
ATOM      6  C6  I4B d   1       1.108   0.514  -0.426  0.00  0.00     0.003 A 
ENDROOT
BRANCH   1   7
ATOM      7  C1' I4B d   1      -0.456  -1.393  -0.889  0.00  0.00     0.060 C 
BRANCH   7   8
ATOM      8  C2' I4B d   1      -1.843  -1.142  -1.448  0.00  0.00    -0.013 C 
ATOM      9  C4' I4B d   1      -1.785  -0.780  -2.908  0.00  0.00     0.013 C 
ATOM     10  C3' I4B d   1      -2.660  -2.380  -1.229  0.00  0.00     0.013 C 
ENDBRANCH   7   8
ENDBRANCH   1   7
TORSDOF 2
ENDMDL
