MODEL 1
REMARK minimizedAffinity -3.58833599
REMARK minimizedRMSD -1
REMARK  2 active torsions:
REMARK  status: ('A' for Active; 'I' for Inactive)
REMARK    1  A    between atoms: C2'_3  and  C1'_4 
REMARK    2  A    between atoms: C1'_4  and  C1_5 
ROOT
ATOM      1  C1  I4B d   1      -0.132   0.102  -0.073  0.00  0.00    -0.075 A 
ATOM      2  C2  I4B d   1      -0.883   0.661   0.932  0.00  0.00     0.003 A 
ATOM      3  C3  I4B d   1      -0.479   1.878   1.531  0.00  0.00     0.002 A 
ATOM      4  C4  I4B d   1       0.701   2.472   1.133  0.00  0.00    -0.004 A 
ATOM      5  C5  I4B d   1       1.449   1.916   0.099  0.00  0.00     0.002 A 
ATOM      6  C6  I4B d   1       1.024   0.730  -0.517  0.00  0.00     0.003 A 
ENDROOT
BRANCH   1   7
ATOM      7  C1' I4B d   1      -0.571  -1.202  -0.660  0.00  0.00     0.060 C 
BRANCH   7   8
ATOM      8  C2' I4B d   1      -1.810  -0.945  -1.494  0.00  0.00    -0.013 C 
ATOM      9  C4' I4B d   1      -1.462  -0.762  -2.947  0.00  0.00     0.013 C 
ATOM     10  C3' I4B d   1      -2.746  -2.101  -1.302  0.00  0.00     0.013 C 
ENDBRANCH   7   8
ENDBRANCH   1   7
TORSDOF 2
ENDMDL
