MODEL 1
REMARK minimizedAffinity -4.79902601
REMARK minimizedRMSD -1
REMARK  2 active torsions:
REMARK  status: ('A' for Active; 'I' for Inactive)
REMARK    1  A    between atoms: C2'_3  and  C1'_4 
REMARK    2  A    between atoms: C1'_4  and  C1_5 
ROOT
ATOM      1  C1  I4B d   1       0.023   0.153   0.274  0.00  0.00    -0.075 A 
ATOM      2  C2  I4B d   1       1.056   1.051   0.374  0.00  0.00     0.003 A 
ATOM      3  C3  I4B d   1       1.037   2.052   1.375  0.00  0.00     0.002 A 
ATOM      4  C4  I4B d   1      -0.052   2.149   2.218  0.00  0.00    -0.004 A 
ATOM      5  C5  I4B d   1      -1.088   1.224   2.130  0.00  0.00     0.002 A 
ATOM      6  C6  I4B d   1      -1.045   0.211   1.160  0.00  0.00     0.003 A 
ENDROOT
BRANCH   1   7
ATOM      7  C1' I4B d   1       0.060  -0.870  -0.816  0.00  0.00     0.060 C 
BRANCH   7   8
ATOM      8  C2' I4B d   1       0.989  -0.363  -1.901  0.00  0.00    -0.013 C 
ATOM      9  C4' I4B d   1       2.221  -1.222  -2.010  0.00  0.00     0.013 C 
ATOM     10  C3' I4B d   1       0.226  -0.345  -3.192  0.00  0.00     0.013 C 
ENDBRANCH   7   8
ENDBRANCH   1   7
TORSDOF 2
ENDMDL
