MODEL 1
REMARK minimizedAffinity -2.04672694
REMARK minimizedRMSD -1
REMARK  2 active torsions:
REMARK  status: ('A' for Active; 'I' for Inactive)
REMARK    1  A    between atoms: C2'_3  and  C1'_4 
REMARK    2  A    between atoms: C1'_4  and  C1_5 
ROOT
ATOM      1  C1  I4B d   1      -0.468  -0.137  -0.244  0.00  0.00    -0.075 A 
ATOM      2  C2  I4B d   1       0.735   0.343  -0.698  0.00  0.00     0.003 A 
ATOM      3  C3  I4B d   1       1.336   1.465  -0.077  0.00  0.00     0.002 A 
ATOM      4  C4  I4B d   1       0.678   2.103   0.955  0.00  0.00    -0.004 A 
ATOM      5  C5  I4B d   1      -0.531   1.601   1.429  0.00  0.00     0.002 A 
ATOM      6  C6  I4B d   1      -1.102   0.467   0.834  0.00  0.00     0.003 A 
ENDROOT
BRANCH   1   7
ATOM      7  C1' I4B d   1      -1.089  -1.303  -0.945  0.00  0.00     0.060 C 
BRANCH   7   8
ATOM      8  C2' I4B d   1      -2.212  -0.780  -1.817  0.00  0.00    -0.013 C 
ATOM      9  C4' I4B d   1      -1.701  -0.368  -3.173  0.00  0.00     0.013 C 
ATOM     10  C3' I4B d   1      -3.249  -1.857  -1.933  0.00  0.00     0.013 C 
ENDBRANCH   7   8
ENDBRANCH   1   7
TORSDOF 2
ENDMDL
