MODEL 1
REMARK minimizedAffinity -5.38630152
REMARK minimizedRMSD -1
REMARK  2 active torsions:
REMARK  status: ('A' for Active; 'I' for Inactive)
REMARK    1  A    between atoms: C2'_3  and  C1'_4 
REMARK    2  A    between atoms: C1'_4  and  C1_5 
ROOT
ATOM      1  C1  I4B d   1      -0.286  -0.296  -0.351  0.00  0.00    -0.075 A 
ATOM      2  C2  I4B d   1       0.839   0.367  -0.771  0.00  0.00     0.003 A 
ATOM      3  C3  I4B d   1       1.236   1.570  -0.138  0.00  0.00     0.002 A 
ATOM      4  C4  I4B d   1       0.454   2.097   0.870  0.00  0.00    -0.004 A 
ATOM      5  C5  I4B d   1      -0.674   1.411   1.310  0.00  0.00     0.002 A 
ATOM      6  C6  I4B d   1      -1.040   0.201   0.705  0.00  0.00     0.003 A 
ENDROOT
BRANCH   1   7
ATOM      7  C1' I4B d   1      -0.694  -1.547  -1.063  0.00  0.00     0.060 C 
BRANCH   7   8
ATOM      8  C2' I4B d   1      -1.752  -1.180  -2.083  0.00  0.00    -0.013 C 
ATOM      9  C4' I4B d   1      -1.167  -1.089  -3.467  0.00  0.00     0.013 C 
ATOM     10  C3' I4B d   1      -2.835  -2.215  -2.019  0.00  0.00     0.013 C 
ENDBRANCH   7   8
ENDBRANCH   1   7
TORSDOF 2
ENDMDL
