MODEL 1
REMARK minimizedAffinity -5.64483643
REMARK minimizedRMSD -1
REMARK  2 active torsions:
REMARK  status: ('A' for Active; 'I' for Inactive)
REMARK    1  A    between atoms: C2'_3  and  C1'_4 
REMARK    2  A    between atoms: C1'_4  and  C1_5 
ROOT
ATOM      1  C1  I4B d   1      -0.530   0.870   0.308  0.00  0.00    -0.075 A 
ATOM      2  C2  I4B d   1      -0.959   1.117   1.588  0.00  0.00     0.003 A 
ATOM      3  C3  I4B d   1      -0.143   1.849   2.485  0.00  0.00     0.002 A 
ATOM      4  C4  I4B d   1       1.107   2.269   2.077  0.00  0.00    -0.004 A 
ATOM      5  C5  I4B d   1       1.530   2.037   0.772  0.00  0.00     0.002 A 
ATOM      6  C6  I4B d   1       0.702   1.344  -0.123  0.00  0.00     0.003 A 
ENDROOT
BRANCH   1   7
ATOM      7  C1' I4B d   1      -1.404   0.066  -0.602  0.00  0.00     0.060 C 
BRANCH   7   8
ATOM      8  C2' I4B d   1      -0.524  -0.546  -1.673  0.00  0.00    -0.013 C 
ATOM      9  C4' I4B d   1       0.421  -1.563  -1.089  0.00  0.00     0.013 C 
ATOM     10  C3' I4B d   1      -1.416  -1.166  -2.707  0.00  0.00     0.013 C 
ENDBRANCH   7   8
ENDBRANCH   1   7
TORSDOF 2
ENDMDL
