MODEL 1
REMARK minimizedAffinity -5.61241436
REMARK minimizedRMSD -1
REMARK  2 active torsions:
REMARK  status: ('A' for Active; 'I' for Inactive)
REMARK    1  A    between atoms: C2'_3  and  C1'_4 
REMARK    2  A    between atoms: C1'_4  and  C1_5 
ROOT
ATOM      1  C1  I4B d   1      -0.085  -0.288  -0.245  0.00  0.00    -0.075 A 
ATOM      2  C2  I4B d   1       1.087   0.398  -0.445  0.00  0.00     0.003 A 
ATOM      3  C3  I4B d   1       1.419   1.498   0.382  0.00  0.00     0.002 A 
ATOM      4  C4  I4B d   1       0.533   1.907   1.358  0.00  0.00    -0.004 A 
ATOM      5  C5  I4B d   1      -0.644   1.196   1.575  0.00  0.00     0.002 A 
ATOM      6  C6  I4B d   1      -0.950   0.084   0.777  0.00  0.00     0.003 A 
ENDROOT
BRANCH   1   7
ATOM      7  C1' I4B d   1      -0.421  -1.424  -1.158  0.00  0.00     0.060 C 
BRANCH   7   8
ATOM      8  C2' I4B d   1      -1.775  -1.142  -1.777  0.00  0.00    -0.013 C 
ATOM      9  C4' I4B d   1      -1.639  -0.717  -3.215  0.00  0.00     0.013 C 
ATOM     10  C3' I4B d   1      -2.607  -2.383  -1.655  0.00  0.00     0.013 C 
ENDBRANCH   7   8
ENDBRANCH   1   7
TORSDOF 2
ENDMDL
