MODEL 1
REMARK minimizedAffinity -1.61535156
REMARK minimizedRMSD -1
REMARK  2 active torsions:
REMARK  status: ('A' for Active; 'I' for Inactive)
REMARK    1  A    between atoms: C2'_3  and  C1'_4 
REMARK    2  A    between atoms: C1'_4  and  C1_5 
ROOT
ATOM      1  C1  I4B d   1       1.465   0.805   0.296  0.00  0.00    -0.075 A 
ATOM      2  C2  I4B d   1       2.698   0.372  -0.124  0.00  0.00     0.003 A 
ATOM      3  C3  I4B d   1       3.867   0.766   0.571  0.00  0.00     0.002 A 
ATOM      4  C4  I4B d   1       3.762   1.629   1.643  0.00  0.00    -0.004 A 
ATOM      5  C5  I4B d   1       2.509   2.048   2.082  0.00  0.00     0.002 A 
ATOM      6  C6  I4B d   1       1.352   1.624   1.412  0.00  0.00     0.003 A 
ENDROOT
BRANCH   1   7
ATOM      7  C1' I4B d   1       0.254   0.396  -0.481  0.00  0.00     0.060 C 
BRANCH   7   8
ATOM      8  C2' I4B d   1      -0.273  -0.892   0.119  0.00  0.00    -0.013 C 
ATOM      9  C4' I4B d   1      -1.202  -0.616   1.272  0.00  0.00     0.013 C 
ATOM     10  C3' I4B d   1      -0.969  -1.657  -0.967  0.00  0.00     0.013 C 
ENDBRANCH   7   8
ENDBRANCH   1   7
TORSDOF 2
ENDMDL
