MODEL 1
REMARK minimizedAffinity -3.39855361
REMARK minimizedRMSD -1
REMARK  2 active torsions:
REMARK  status: ('A' for Active; 'I' for Inactive)
REMARK    1  A    between atoms: C2'_3  and  C1'_4 
REMARK    2  A    between atoms: C1'_4  and  C1_5 
ROOT
ATOM      1  C1  I4B d   1      -0.066  -0.820  -0.361  0.00  0.00    -0.075 A 
ATOM      2  C2  I4B d   1       0.903   0.034  -0.824  0.00  0.00     0.003 A 
ATOM      3  C3  I4B d   1       1.188   1.234  -0.128  0.00  0.00     0.002 A 
ATOM      4  C4  I4B d   1       0.449   1.562   0.990  0.00  0.00    -0.004 A 
ATOM      5  C5  I4B d   1      -0.517   0.684   1.471  0.00  0.00     0.002 A 
ATOM      6  C6  I4B d   1      -0.769  -0.521   0.799  0.00  0.00     0.003 A 
ENDROOT
BRANCH   1   7
ATOM      7  C1' I4B d   1      -0.363  -2.063  -1.139  0.00  0.00     0.060 C 
BRANCH   7   8
ATOM      8  C2' I4B d   1      -1.704  -1.877  -1.820  0.00  0.00    -0.013 C 
ATOM      9  C4' I4B d   1      -1.542  -1.720  -3.309  0.00  0.00     0.013 C 
ATOM     10  C3' I4B d   1      -2.559  -3.065  -1.491  0.00  0.00     0.013 C 
ENDBRANCH   7   8
ENDBRANCH   1   7
TORSDOF 2
ENDMDL
