MODEL 1
REMARK minimizedAffinity -2.12198973
REMARK minimizedRMSD -1
REMARK  2 active torsions:
REMARK  status: ('A' for Active; 'I' for Inactive)
REMARK    1  A    between atoms: C2'_3  and  C1'_4 
REMARK    2  A    between atoms: C1'_4  and  C1_5 
ROOT
ATOM      1  C1  I4B d   1      -0.848  -1.203  -1.305  0.00  0.00    -0.075 A 
ATOM      2  C2  I4B d   1      -1.844  -2.139  -1.180  0.00  0.00     0.003 A 
ATOM      3  C3  I4B d   1      -2.627  -2.501  -2.303  0.00  0.00     0.002 A 
ATOM      4  C4  I4B d   1      -2.415  -1.869  -3.511  0.00  0.00    -0.004 A 
ATOM      5  C5  I4B d   1      -1.390  -0.936  -3.641  0.00  0.00     0.002 A 
ATOM      6  C6  I4B d   1      -0.593  -0.610  -2.534  0.00  0.00     0.003 A 
ENDROOT
BRANCH   1   7
ATOM      7  C1' I4B d   1      -0.062  -0.821  -0.091  0.00  0.00     0.060 C 
BRANCH   7   8
ATOM      8  C2' I4B d   1      -0.898   0.148   0.721  0.00  0.00    -0.013 C 
ATOM      9  C4' I4B d   1      -1.552  -0.541   1.889  0.00  0.00     0.013 C 
ATOM     10  C3' I4B d   1      -0.002   1.260   1.180  0.00  0.00     0.013 C 
ENDBRANCH   7   8
ENDBRANCH   1   7
TORSDOF 2
ENDMDL
