MODEL 1
REMARK minimizedAffinity -5.69897652
REMARK minimizedRMSD -1
REMARK  2 active torsions:
REMARK  status: ('A' for Active; 'I' for Inactive)
REMARK    1  A    between atoms: C2'_3  and  C1'_4 
REMARK    2  A    between atoms: C1'_4  and  C1_5 
ROOT
ATOM      1  C1  I4B d   1      -0.165  -0.265  -0.331  0.00  0.00    -0.075 A 
ATOM      2  C2  I4B d   1      -0.990   0.045   0.721  0.00  0.00     0.003 A 
ATOM      3  C3  I4B d   1      -0.772   1.223   1.475  0.00  0.00     0.002 A 
ATOM      4  C4  I4B d   1       0.307   2.031   1.178  0.00  0.00    -0.004 A 
ATOM      5  C5  I4B d   1       1.130   1.726   0.097  0.00  0.00     0.002 A 
ATOM      6  C6  I4B d   1       0.886   0.578  -0.670  0.00  0.00     0.003 A 
ENDROOT
BRANCH   1   7
ATOM      7  C1' I4B d   1      -0.405  -1.534  -1.085  0.00  0.00     0.060 C 
BRANCH   7   8
ATOM      8  C2' I4B d   1      -1.715  -1.392  -1.833  0.00  0.00    -0.013 C 
ATOM      9  C4' I4B d   1      -1.484  -1.253  -3.315  0.00  0.00     0.013 C 
ATOM     10  C3' I4B d   1      -2.556  -2.595  -1.526  0.00  0.00     0.013 C 
ENDBRANCH   7   8
ENDBRANCH   1   7
TORSDOF 2
ENDMDL
