MODEL 1
REMARK minimizedAffinity 1.22443748
REMARK minimizedRMSD -1
REMARK  2 active torsions:
REMARK  status: ('A' for Active; 'I' for Inactive)
REMARK    1  A    between atoms: C2'_3  and  C1'_4 
REMARK    2  A    between atoms: C1'_4  and  C1_5 
ROOT
ATOM      1  C1  I4B d   1       0.746   1.349   2.880  0.00  0.00    -0.075 A 
ATOM      2  C2  I4B d   1      -0.141   1.264   3.924  0.00  0.00     0.003 A 
ATOM      3  C3  I4B d   1       0.327   1.029   5.240  0.00  0.00     0.002 A 
ATOM      4  C4  I4B d   1       1.676   0.836   5.457  0.00  0.00    -0.004 A 
ATOM      5  C5  I4B d   1       2.576   0.945   4.401  0.00  0.00     0.002 A 
ATOM      6  C6  I4B d   1       2.110   1.215   3.106  0.00  0.00     0.003 A 
ENDROOT
BRANCH   1   7
ATOM      7  C1' I4B d   1       0.215   1.565   1.499  0.00  0.00     0.060 C 
BRANCH   7   8
ATOM      8  C2' I4B d   1      -0.105   0.209   0.904  0.00  0.00    -0.013 C 
ATOM      9  C4' I4B d   1      -1.588   0.035   0.707  0.00  0.00     0.013 C 
ATOM     10  C3' I4B d   1       0.632   0.088  -0.397  0.00  0.00     0.013 C 
ENDBRANCH   7   8
ENDBRANCH   1   7
TORSDOF 2
ENDMDL
