MODEL 1
REMARK minimizedAffinity 4.66709042
REMARK minimizedRMSD -1
REMARK  2 active torsions:
REMARK  status: ('A' for Active; 'I' for Inactive)
REMARK    1  A    between atoms: C2'_3  and  C1'_4 
REMARK    2  A    between atoms: C1'_4  and  C1_5 
ROOT
ATOM      1  C1  I4B d   1      -0.078   1.164   1.935  0.00  0.00    -0.075 A 
ATOM      2  C2  I4B d   1       0.894   0.565   1.172  0.00  0.00     0.003 A 
ATOM      3  C3  I4B d   1       0.535  -0.240   0.064  0.00  0.00     0.002 A 
ATOM      4  C4  I4B d   1      -0.798  -0.459  -0.214  0.00  0.00    -0.004 A 
ATOM      5  C5  I4B d   1      -1.782   0.167   0.546  0.00  0.00     0.002 A 
ATOM      6  C6  I4B d   1      -1.420   0.994   1.619  0.00  0.00     0.003 A 
ENDROOT
BRANCH   1   7
ATOM      7  C1' I4B d   1       0.334   1.980   3.118  0.00  0.00     0.060 C 
BRANCH   7   8
ATOM      8  C2' I4B d   1       1.210   1.114   4.000  0.00  0.00    -0.013 C 
ATOM      9  C4' I4B d   1       2.662   1.490   3.864  0.00  0.00     0.013 C 
ATOM     10  C3' I4B d   1       0.740   1.271   5.416  0.00  0.00     0.013 C 
ENDBRANCH   7   8
ENDBRANCH   1   7
TORSDOF 2
ENDMDL
