MODEL 1
REMARK minimizedAffinity 1.97874057
REMARK minimizedRMSD -1
REMARK  1 active torsions:
REMARK  status: ('A' for Active; 'I' for Inactive)
REMARK    1  A    between atoms: C1_2  and  C2_3 
ROOT
ATOM      1  C2  UNL d   1       4.421   3.648   3.045  0.00  0.00    -0.076 A 
ATOM      2  C3  UNL d   1       5.303   3.340   1.994  0.00  0.00     0.004 A 
ATOM      3  C4  UNL d   1       5.981   4.346   1.308  0.00  0.00    -0.003 A 
ATOM      4  C5  UNL d   1       5.788   5.677   1.662  0.00  0.00     0.000 A 
ATOM      5  C6  UNL d   1       4.931   6.000   2.713  0.00  0.00     0.000 A 
ATOM      6  C7  UNL d   1       4.252   4.997   3.426  0.00  0.00    -0.073 A 
ATOM      7  C8  UNL d   1       3.335   5.402   4.547  0.00  0.00     0.078 C 
ENDROOT
BRANCH   1   8
ATOM      8  C1  UNL d   1       3.693   2.517   3.735  0.00  0.00     0.053 C 
ATOM      9  C   UNL d   1       3.795   1.206   2.970  0.00  0.00     0.018 C 
ENDBRANCH   1   8
TORSDOF 1
ENDMDL
