MODEL 1
REMARK minimizedAffinity 14.1872244
REMARK minimizedRMSD -1
REMARK  1 active torsions:
REMARK  status: ('A' for Active; 'I' for Inactive)
REMARK    1  A    between atoms: C1_2  and  C2_3 
ROOT
ATOM      1  C2  UNL d   1       5.108   4.154   2.447  0.00  0.00    -0.076 A 
ATOM      2  C3  UNL d   1       5.984   5.244   2.595  0.00  0.00     0.004 A 
ATOM      3  C4  UNL d   1       5.998   5.998   3.767  0.00  0.00    -0.003 A 
ATOM      4  C5  UNL d   1       5.137   5.675   4.810  0.00  0.00     0.000 A 
ATOM      5  C6  UNL d   1       4.274   4.586   4.687  0.00  0.00     0.000 A 
ATOM      6  C7  UNL d   1       4.259   3.805   3.519  0.00  0.00    -0.073 A 
ATOM      7  C8  UNL d   1       3.304   2.646   3.437  0.00  0.00     0.078 C 
ENDROOT
BRANCH   1   8
ATOM      8  C1  UNL d   1       5.119   3.389   1.143  0.00  0.00     0.053 C 
ATOM      9  C   UNL d   1       5.999   2.150   1.201  0.00  0.00     0.018 C 
ENDBRANCH   1   8
TORSDOF 1
ENDMDL
