MODEL 1
REMARK minimizedAffinity 15.5693884
REMARK minimizedRMSD -1
REMARK  1 active torsions:
REMARK  status: ('A' for Active; 'I' for Inactive)
REMARK    1  A    between atoms: C1_2  and  C2_3 
ROOT
ATOM      1  C2  UNL d   1       2.125  -0.197   3.788  0.00  0.00    -0.076 A 
ATOM      2  C3  UNL d   1       1.444   0.785   3.047  0.00  0.00     0.004 A 
ATOM      3  C4  UNL d   1       0.620   0.435   1.979  0.00  0.00    -0.003 A 
ATOM      4  C5  UNL d   1       0.463  -0.902   1.634  0.00  0.00     0.000 A 
ATOM      5  C6  UNL d   1       1.116  -1.891   2.369  0.00  0.00     0.000 A 
ATOM      6  C7  UNL d   1       1.938  -1.557   3.459  0.00  0.00    -0.073 A 
ATOM      7  C8  UNL d   1       2.624  -2.663   4.212  0.00  0.00     0.078 C 
ENDROOT
BRANCH   1   8
ATOM      8  C1  UNL d   1       3.026   0.244   4.919  0.00  0.00     0.053 C 
ATOM      9  C   UNL d   1       4.287   0.936   4.423  0.00  0.00     0.018 C 
ENDBRANCH   1   8
TORSDOF 1
ENDMDL
