MODEL 1
REMARK minimizedAffinity 10.3047066
REMARK minimizedRMSD -1
REMARK  1 active torsions:
REMARK  status: ('A' for Active; 'I' for Inactive)
REMARK    1  A    between atoms: C1_2  and  C2_3 
ROOT
ATOM      1  C2  UNL d   1       1.679  -1.557   3.838  0.00  0.00    -0.076 A 
ATOM      2  C3  UNL d   1       0.456  -2.206   3.592  0.00  0.00     0.004 A 
ATOM      3  C4  UNL d   1      -0.628  -1.514   3.054  0.00  0.00    -0.003 A 
ATOM      4  C5  UNL d   1      -0.507  -0.162   2.754  0.00  0.00     0.000 A 
ATOM      5  C6  UNL d   1       0.704   0.494   2.975  0.00  0.00     0.000 A 
ATOM      6  C7  UNL d   1       1.811  -0.192   3.501  0.00  0.00    -0.073 A 
ATOM      7  C8  UNL d   1       3.091   0.566   3.724  0.00  0.00     0.078 C 
ENDROOT
BRANCH   1   8
ATOM      8  C1  UNL d   1       2.811  -2.352   4.447  0.00  0.00     0.053 C 
ATOM      9  C   UNL d   1       2.441  -2.957   5.792  0.00  0.00     0.018 C 
ENDBRANCH   1   8
TORSDOF 1
ENDMDL
