MODEL 1
REMARK minimizedAffinity 13.4804955
REMARK minimizedRMSD -1
REMARK  1 active torsions:
REMARK  status: ('A' for Active; 'I' for Inactive)
REMARK    1  A    between atoms: C1_2  and  C2_3 
ROOT
ATOM      1  C2  UNL d   1      -0.286   1.219   2.727  0.00  0.00    -0.076 A 
ATOM      2  C3  UNL d   1       1.081   1.304   3.047  0.00  0.00     0.004 A 
ATOM      3  C4  UNL d   1       1.841   0.155   3.256  0.00  0.00    -0.003 A 
ATOM      4  C5  UNL d   1       1.248  -1.098   3.148  0.00  0.00     0.000 A 
ATOM      5  C6  UNL d   1      -0.102  -1.202   2.814  0.00  0.00     0.000 A 
ATOM      6  C7  UNL d   1      -0.879  -0.054   2.584  0.00  0.00    -0.073 A 
ATOM      7  C8  UNL d   1      -2.331  -0.224   2.232  0.00  0.00     0.078 C 
ENDROOT
BRANCH   1   8
ATOM      8  C1  UNL d   1      -1.066   2.499   2.537  0.00  0.00     0.053 C 
ATOM      9  C   UNL d   1      -0.505   3.364   1.420  0.00  0.00     0.018 C 
ENDBRANCH   1   8
TORSDOF 1
ENDMDL
