MODEL 1
REMARK minimizedAffinity 11.883975
REMARK minimizedRMSD -1
REMARK  1 active torsions:
REMARK  status: ('A' for Active; 'I' for Inactive)
REMARK    1  A    between atoms: C1_2  and  C2_3 
ROOT
ATOM      1  C2  UNL d   1      -1.169  -0.107   2.983  0.00  0.00    -0.076 A 
ATOM      2  C3  UNL d   1      -0.882   1.246   2.733  0.00  0.00     0.004 A 
ATOM      3  C4  UNL d   1      -1.855   2.104   2.224  0.00  0.00    -0.003 A 
ATOM      4  C5  UNL d   1      -3.132   1.623   1.957  0.00  0.00     0.000 A 
ATOM      5  C6  UNL d   1      -3.439   0.287   2.216  0.00  0.00     0.000 A 
ATOM      6  C7  UNL d   1      -2.474  -0.587   2.744  0.00  0.00    -0.073 A 
ATOM      7  C8  UNL d   1      -2.858  -2.019   2.997  0.00  0.00     0.078 C 
ENDROOT
BRANCH   1   8
ATOM      8  C1  UNL d   1      -0.065  -0.996   3.510  0.00  0.00     0.053 C 
ATOM      9  C   UNL d   1       1.294  -0.313   3.489  0.00  0.00     0.018 C 
ENDBRANCH   1   8
TORSDOF 1
ENDMDL
