MODEL 1
REMARK minimizedAffinity 16.7022038
REMARK minimizedRMSD -1
REMARK  1 active torsions:
REMARK  status: ('A' for Active; 'I' for Inactive)
REMARK    1  A    between atoms: C1_2  and  C2_3 
ROOT
ATOM      1  C2  UNL d   1      -0.250  -3.466  -5.819  0.00  0.00    -0.076 A 
ATOM      2  C3  UNL d   1      -1.648  -3.611  -5.776  0.00  0.00     0.004 A 
ATOM      3  C4  UNL d   1      -2.235  -4.868  -5.636  0.00  0.00    -0.003 A 
ATOM      4  C5  UNL d   1      -1.433  -6.000  -5.536  0.00  0.00     0.000 A 
ATOM      5  C6  UNL d   1      -0.045  -5.872  -5.559  0.00  0.00     0.000 A 
ATOM      6  C7  UNL d   1       0.563  -4.611  -5.683  0.00  0.00    -0.073 A 
ATOM      7  C8  UNL d   1       2.065  -4.533  -5.709  0.00  0.00     0.078 C 
ENDROOT
BRANCH   1   8
ATOM      8  C1  UNL d   1       0.329  -2.081  -6.000  0.00  0.00     0.053 C 
ATOM      9  C   UNL d   1       0.461  -1.328  -4.685  0.00  0.00     0.018 C 
ENDBRANCH   1   8
TORSDOF 1
ENDMDL
