MODEL 1
REMARK minimizedAffinity 15.6646338
REMARK minimizedRMSD -1
REMARK  1 active torsions:
REMARK  status: ('A' for Active; 'I' for Inactive)
REMARK    1  A    between atoms: C1_2  and  C2_3 
ROOT
ATOM      1  C2  UNL d   1      -0.929  -3.195  -4.173  0.00  0.00    -0.076 A 
ATOM      2  C3  UNL d   1      -0.853  -3.775  -5.451  0.00  0.00     0.004 A 
ATOM      3  C4  UNL d   1      -0.913  -5.157  -5.617  0.00  0.00    -0.003 A 
ATOM      4  C5  UNL d   1      -1.051  -5.983  -4.506  0.00  0.00     0.000 A 
ATOM      5  C6  UNL d   1      -1.146  -5.424  -3.232  0.00  0.00     0.000 A 
ATOM      6  C7  UNL d   1      -1.103  -4.031  -3.049  0.00  0.00    -0.073 A 
ATOM      7  C8  UNL d   1      -1.203  -3.483  -1.652  0.00  0.00     0.078 C 
ENDROOT
BRANCH   1   8
ATOM      8  C1  UNL d   1      -0.830  -1.691  -4.052  0.00  0.00     0.053 C 
ATOM      9  C   UNL d   1       0.144  -1.089  -5.053  0.00  0.00     0.018 C 
ENDBRANCH   1   8
TORSDOF 1
ENDMDL
