MODEL 1
REMARK minimizedAffinity 23.3011303
REMARK minimizedRMSD -1
REMARK  1 active torsions:
REMARK  status: ('A' for Active; 'I' for Inactive)
REMARK    1  A    between atoms: C1_2  and  C2_3 
ROOT
ATOM      1  C2  UNL d   1      -0.612   0.206   2.389  0.00  0.00    -0.076 A 
ATOM      2  C3  UNL d   1      -0.631  -1.198   2.342  0.00  0.00     0.004 A 
ATOM      3  C4  UNL d   1      -1.835  -1.900   2.335  0.00  0.00    -0.003 A 
ATOM      4  C5  UNL d   1      -3.040  -1.208   2.375  0.00  0.00     0.000 A 
ATOM      5  C6  UNL d   1      -3.041   0.187   2.404  0.00  0.00     0.000 A 
ATOM      6  C7  UNL d   1      -1.835   0.909   2.395  0.00  0.00    -0.073 A 
ATOM      7  C8  UNL d   1      -1.894   2.412   2.434  0.00  0.00     0.078 C 
ENDROOT
BRANCH   1   8
ATOM      8  C1  UNL d   1       0.725   0.912   2.422  0.00  0.00     0.053 C 
ATOM      9  C   UNL d   1       1.759   0.242   1.530  0.00  0.00     0.018 C 
ENDBRANCH   1   8
TORSDOF 1
ENDMDL
