MODEL 1
REMARK minimizedAffinity 16.219471
REMARK minimizedRMSD -1
REMARK  1 active torsions:
REMARK  status: ('A' for Active; 'I' for Inactive)
REMARK    1  A    between atoms: C1_2  and  C2_3 
ROOT
ATOM      1  C2  UNL d   1       1.602  -0.095   3.384  0.00  0.00    -0.081 A 
ATOM      2  C3  UNL d   1       1.210  -1.031   2.419  0.00  0.00     0.006 A 
ATOM      3  C4  UNL d   1       2.066  -1.363   1.367  0.00  0.00     0.002 A 
ATOM      4  C5  UNL d   1       3.330  -0.772   1.266  0.00  0.00    -0.080 A 
ATOM      5  C6  UNL d   1       4.271  -1.143   0.158  0.00  0.00     0.076 C 
ATOM      6  C7  UNL d   1       3.715   0.176   2.220  0.00  0.00     0.002 A 
ATOM      7  C8  UNL d   1       2.859   0.509   3.272  0.00  0.00     0.006 A 
ENDROOT
BRANCH   1   8
ATOM      8  C1  UNL d   1       0.707   0.218   4.556  0.00  0.00     0.054 C 
ATOM      9  C   UNL d   1      -0.755  -0.040   4.221  0.00  0.00     0.018 C 
ENDBRANCH   1   8
TORSDOF 1
ENDMDL
