MODEL 1
REMARK minimizedAffinity 16.8963909
REMARK minimizedRMSD -1
REMARK  1 active torsions:
REMARK  status: ('A' for Active; 'I' for Inactive)
REMARK    1  A    between atoms: C1_2  and  C2_3 
ROOT
ATOM      1  C2  UNL d   1      -0.502   2.785  -0.738  0.00  0.00    -0.081 A 
ATOM      2  C3  UNL d   1      -1.025   2.679  -2.033  0.00  0.00     0.006 A 
ATOM      3  C4  UNL d   1      -2.406   2.680  -2.241  0.00  0.00     0.002 A 
ATOM      4  C5  UNL d   1      -3.286   2.793  -1.159  0.00  0.00    -0.080 A 
ATOM      5  C6  UNL d   1      -4.771   2.826  -1.371  0.00  0.00     0.076 C 
ATOM      6  C7  UNL d   1      -2.764   2.882   0.135  0.00  0.00     0.002 A 
ATOM      7  C8  UNL d   1      -1.383   2.881   0.344  0.00  0.00     0.006 A 
ENDROOT
BRANCH   1   8
ATOM      8  C1  UNL d   1       0.988   2.850  -0.517  0.00  0.00     0.054 C 
ATOM      9  C   UNL d   1       1.414   4.225  -0.022  0.00  0.00     0.018 C 
ENDBRANCH   1   8
TORSDOF 1
ENDMDL
