MODEL 1
REMARK minimizedAffinity 7.41756248
REMARK minimizedRMSD -1
REMARK  1 active torsions:
REMARK  status: ('A' for Active; 'I' for Inactive)
REMARK    1  A    between atoms: C1_2  and  C2_3 
ROOT
ATOM      1  C2  UNL d   1      -4.435  -5.120   0.756  0.00  0.00    -0.081 A 
ATOM      2  C3  UNL d   1      -4.918  -3.833   1.020  0.00  0.00     0.006 A 
ATOM      3  C4  UNL d   1      -4.253  -2.998   1.921  0.00  0.00     0.002 A 
ATOM      4  C5  UNL d   1      -3.091  -3.433   2.567  0.00  0.00    -0.080 A 
ATOM      5  C6  UNL d   1      -2.351  -2.536   3.514  0.00  0.00     0.076 C 
ATOM      6  C7  UNL d   1      -2.618  -4.725   2.317  0.00  0.00     0.002 A 
ATOM      7  C8  UNL d   1      -3.282  -5.561   1.416  0.00  0.00     0.006 A 
ENDROOT
BRANCH   1   8
ATOM      8  C1  UNL d   1      -5.112  -5.999  -0.264  0.00  0.00     0.054 C 
ATOM      9  C   UNL d   1      -4.361  -5.992  -1.588  0.00  0.00     0.018 C 
ENDBRANCH   1   8
TORSDOF 1
ENDMDL
