MODEL 1
REMARK minimizedAffinity 6.17714596
REMARK minimizedRMSD -1
REMARK  1 active torsions:
REMARK  status: ('A' for Active; 'I' for Inactive)
REMARK    1  A    between atoms: C1_2  and  C2_3 
ROOT
ATOM      1  C2  UNL d   1      -3.767  -4.349   1.254  0.00  0.00    -0.081 A 
ATOM      2  C3  UNL d   1      -3.176  -5.291   0.403  0.00  0.00     0.006 A 
ATOM      3  C4  UNL d   1      -3.900  -5.836  -0.660  0.00  0.00     0.002 A 
ATOM      4  C5  UNL d   1      -5.222  -5.444  -0.895  0.00  0.00    -0.080 A 
ATOM      5  C6  UNL d   1      -6.000  -5.999  -2.050  0.00  0.00     0.076 C 
ATOM      6  C7  UNL d   1      -5.818  -4.516  -0.034  0.00  0.00     0.002 A 
ATOM      7  C8  UNL d   1      -5.095  -3.971   1.030  0.00  0.00     0.006 A 
ENDROOT
BRANCH   1   8
ATOM      8  C1  UNL d   1      -2.969  -3.711   2.362  0.00  0.00     0.054 C 
ATOM      9  C   UNL d   1      -3.775  -2.635   3.076  0.00  0.00     0.018 C 
ENDBRANCH   1   8
TORSDOF 1
ENDMDL
