MODEL 1
REMARK minimizedAffinity 22.8621712
REMARK minimizedRMSD -1
REMARK  1 active torsions:
REMARK  status: ('A' for Active; 'I' for Inactive)
REMARK    1  A    between atoms: C1_2  and  C2_3 
ROOT
ATOM      1  C2  UNL d   1      -0.017  -0.814   3.708  0.00  0.00    -0.081 A 
ATOM      2  C3  UNL d   1      -0.749  -1.903   3.219  0.00  0.00     0.006 A 
ATOM      3  C4  UNL d   1      -0.343  -2.566   2.059  0.00  0.00     0.002 A 
ATOM      4  C5  UNL d   1       0.806  -2.156   1.373  0.00  0.00    -0.080 A 
ATOM      5  C6  UNL d   1       1.270  -2.878   0.143  0.00  0.00     0.076 C 
ATOM      6  C7  UNL d   1       1.527  -1.057   1.851  0.00  0.00     0.002 A 
ATOM      7  C8  UNL d   1       1.121  -0.394   3.011  0.00  0.00     0.006 A 
ENDROOT
BRANCH   1   8
ATOM      8  C1  UNL d   1      -0.416  -0.138   4.995  0.00  0.00     0.054 C 
ATOM      9  C   UNL d   1       0.726  -0.143   6.000  0.00  0.00     0.018 C 
ENDBRANCH   1   8
TORSDOF 1
ENDMDL
