MODEL 1
REMARK minimizedAffinity 3.98512673
REMARK minimizedRMSD -1
REMARK  1 active torsions:
REMARK  status: ('A' for Active; 'I' for Inactive)
REMARK    1  A    between atoms: C1_2  and  C2_3 
ROOT
ATOM      1  C2  UNL d   1      -1.868  -2.443   2.985  0.00  0.00    -0.081 A 
ATOM      2  C3  UNL d   1      -0.679  -2.040   2.364  0.00  0.00     0.006 A 
ATOM      3  C4  UNL d   1       0.223  -1.210   3.034  0.00  0.00     0.002 A 
ATOM      4  C5  UNL d   1      -0.043  -0.777   4.337  0.00  0.00    -0.080 A 
ATOM      5  C6  UNL d   1       0.932   0.089   5.078  0.00  0.00     0.076 C 
ATOM      6  C7  UNL d   1      -1.238  -1.166   4.951  0.00  0.00     0.002 A 
ATOM      7  C8  UNL d   1      -2.142  -1.995   4.282  0.00  0.00     0.006 A 
ENDROOT
BRANCH   1   8
ATOM      8  C1  UNL d   1      -2.812  -3.390   2.290  0.00  0.00     0.054 C 
ATOM      9  C   UNL d   1      -4.219  -2.814   2.217  0.00  0.00     0.018 C 
ENDBRANCH   1   8
TORSDOF 1
ENDMDL
