MODEL 1
REMARK minimizedAffinity 16.0707626
REMARK minimizedRMSD -1
REMARK  1 active torsions:
REMARK  status: ('A' for Active; 'I' for Inactive)
REMARK    1  A    between atoms: C1_2  and  C2_3 
ROOT
ATOM      1  C2  UNL d   1      -1.171  -1.632   2.907  0.00  0.00    -0.081 A 
ATOM      2  C3  UNL d   1      -0.362  -2.049   1.843  0.00  0.00     0.006 A 
ATOM      3  C4  UNL d   1       0.897  -1.478   1.645  0.00  0.00     0.002 A 
ATOM      4  C5  UNL d   1       1.372  -0.489   2.513  0.00  0.00    -0.080 A 
ATOM      5  C6  UNL d   1       2.735   0.110   2.330  0.00  0.00     0.076 C 
ATOM      6  C7  UNL d   1       0.557  -0.060   3.566  0.00  0.00     0.002 A 
ATOM      7  C8  UNL d   1      -0.703  -0.630   3.763  0.00  0.00     0.006 A 
ENDROOT
BRANCH   1   8
ATOM      8  C1  UNL d   1      -2.503  -2.291   3.161  0.00  0.00     0.054 C 
ATOM      9  C   UNL d   1      -2.761  -3.418   2.171  0.00  0.00     0.018 C 
ENDBRANCH   1   8
TORSDOF 1
ENDMDL
