MODEL 1
REMARK minimizedAffinity 10.7777996
REMARK minimizedRMSD -1
REMARK  1 active torsions:
REMARK  status: ('A' for Active; 'I' for Inactive)
REMARK    1  A    between atoms: C1_2  and  C2_3 
ROOT
ATOM      1  C2  UNL d   1      -3.691   4.333  -1.570  0.00  0.00    -0.081 A 
ATOM      2  C3  UNL d   1      -3.791   3.059  -0.997  0.00  0.00     0.006 A 
ATOM      3  C4  UNL d   1      -2.824   2.087  -1.260  0.00  0.00     0.002 A 
ATOM      4  C5  UNL d   1      -1.737   2.373  -2.093  0.00  0.00    -0.080 A 
ATOM      5  C6  UNL d   1      -0.676   1.347  -2.359  0.00  0.00     0.076 C 
ATOM      6  C7  UNL d   1      -1.646   3.639  -2.680  0.00  0.00     0.002 A 
ATOM      7  C8  UNL d   1      -2.614   4.612  -2.418  0.00  0.00     0.006 A 
ENDROOT
BRANCH   1   8
ATOM      8  C1  UNL d   1      -4.698   5.405  -1.238  0.00  0.00     0.054 C 
ATOM      9  C   UNL d   1      -5.463   5.069   0.034  0.00  0.00     0.018 C 
ENDBRANCH   1   8
TORSDOF 1
ENDMDL
