MODEL 1
REMARK minimizedAffinity 14.8687744
REMARK minimizedRMSD -1
REMARK  1 active torsions:
REMARK  status: ('A' for Active; 'I' for Inactive)
REMARK    1  A    between atoms: C1_2  and  C2_3 
ROOT
ATOM      1  C2  UNL d   1      -1.909   3.498  -3.775  0.00  0.00    -0.081 A 
ATOM      2  C3  UNL d   1      -2.936   3.404  -2.828  0.00  0.00     0.006 A 
ATOM      3  C4  UNL d   1      -2.658   2.997  -1.521  0.00  0.00     0.002 A 
ATOM      4  C5  UNL d   1      -1.350   2.685  -1.137  0.00  0.00    -0.080 A 
ATOM      5  C6  UNL d   1      -1.034   2.276   0.271  0.00  0.00     0.076 C 
ATOM      6  C7  UNL d   1      -0.326   2.762  -2.088  0.00  0.00     0.002 A 
ATOM      7  C8  UNL d   1      -0.603   3.168  -3.395  0.00  0.00     0.006 A 
ENDROOT
BRANCH   1   8
ATOM      8  C1  UNL d   1      -2.194   3.998  -5.168  0.00  0.00     0.054 C 
ATOM      9  C   UNL d   1      -1.488   5.319  -5.437  0.00  0.00     0.018 C 
ENDBRANCH   1   8
TORSDOF 1
ENDMDL
