MODEL 1
REMARK minimizedAffinity 11.5667105
REMARK minimizedRMSD -1
REMARK  1 active torsions:
REMARK  status: ('A' for Active; 'I' for Inactive)
REMARK    1  A    between atoms: C1_2  and  C2_3 
ROOT
ATOM      1  C2  UNL d   1      -0.666   2.810  -2.106  0.00  0.00    -0.081 A 
ATOM      2  C3  UNL d   1      -1.512   3.486  -2.994  0.00  0.00     0.006 A 
ATOM      3  C4  UNL d   1      -2.858   3.129  -3.099  0.00  0.00     0.002 A 
ATOM      4  C5  UNL d   1      -3.383   2.097  -2.313  0.00  0.00    -0.080 A 
ATOM      5  C6  UNL d   1      -4.833   1.724  -2.395  0.00  0.00     0.076 C 
ATOM      6  C7  UNL d   1      -2.534   1.410  -1.439  0.00  0.00     0.002 A 
ATOM      7  C8  UNL d   1      -1.187   1.766  -1.334  0.00  0.00     0.006 A 
ENDROOT
BRANCH   1   8
ATOM      8  C1  UNL d   1       0.771   3.235  -1.943  0.00  0.00     0.054 C 
ATOM      9  C   UNL d   1       1.149   3.357  -0.473  0.00  0.00     0.018 C 
ENDBRANCH   1   8
TORSDOF 1
ENDMDL
