MODEL 1
REMARK minimizedAffinity 1.66995621
REMARK minimizedRMSD -1
REMARK  1 active torsions:
REMARK  status: ('A' for Active; 'I' for Inactive)
REMARK    1  A    between atoms: C1_2  and  C2_3 
ROOT
ATOM      1  C2  UNL d   1      -0.988  -1.084   0.782  0.00  0.00    -0.081 A 
ATOM      2  C3  UNL d   1      -0.966   0.315   0.844  0.00  0.00     0.006 A 
ATOM      3  C4  UNL d   1       0.172   1.023   0.449  0.00  0.00     0.002 A 
ATOM      4  C5  UNL d   1       1.302   0.345  -0.020  0.00  0.00    -0.080 A 
ATOM      5  C6  UNL d   1       2.519   1.095  -0.475  0.00  0.00     0.076 C 
ATOM      6  C7  UNL d   1       1.286  -1.053  -0.066  0.00  0.00     0.002 A 
ATOM      7  C8  UNL d   1       0.149  -1.761   0.329  0.00  0.00     0.006 A 
ENDROOT
BRANCH   1   8
ATOM      8  C1  UNL d   1      -2.236  -1.848   1.145  0.00  0.00     0.054 C 
ATOM      9  C   UNL d   1      -2.163  -3.289   0.663  0.00  0.00     0.018 C 
ENDBRANCH   1   8
TORSDOF 1
ENDMDL
