MODEL 1
REMARK minimizedAffinity -0.337629586
REMARK minimizedRMSD -1
REMARK  2 active torsions:
REMARK  status: ('A' for Active; 'I' for Inactive)
REMARK    1  A    between atoms: C2'_3  and  C1'_4 
REMARK    2  A    between atoms: C1'_4  and  C1_5 
ROOT
ATOM      1  C1  I4B d   1      -4.469   2.625  -3.577  0.00  0.00    -0.075 A 
ATOM      2  C2  I4B d   1      -5.389   1.608  -3.636  0.00  0.00     0.003 A 
ATOM      3  C3  I4B d   1      -5.998   1.267  -4.868  0.00  0.00     0.002 A 
ATOM      4  C4  I4B d   1      -5.697   1.998  -5.999  0.00  0.00    -0.004 A 
ATOM      5  C5  I4B d   1      -4.747   3.013  -5.943  0.00  0.00     0.002 A 
ATOM      6  C6  I4B d   1      -4.119   3.321  -4.727  0.00  0.00     0.003 A 
ENDROOT
BRANCH   1   7
ATOM      7  C1' I4B d   1      -3.869   2.979  -2.254  0.00  0.00     0.060 C 
BRANCH   7   8
ATOM      8  C2' I4B d   1      -2.534   3.649  -2.510  0.00  0.00    -0.013 C 
ATOM      9  C4' I4B d   1      -2.602   5.126  -2.227  0.00  0.00     0.013 C 
ATOM     10  C3' I4B d   1      -1.507   2.978  -1.647  0.00  0.00     0.013 C 
ENDBRANCH   7   8
ENDBRANCH   1   7
TORSDOF 2
ENDMDL
