MODEL 1
REMARK minimizedAffinity -4.12602854
REMARK minimizedRMSD -1
REMARK  2 active torsions:
REMARK  status: ('A' for Active; 'I' for Inactive)
REMARK    1  A    between atoms: C2'_3  and  C1'_4 
REMARK    2  A    between atoms: C1'_4  and  C1_5 
ROOT
ATOM      1  C1  I4B d   1      -5.163   2.243  -4.916  0.00  0.00    -0.075 A 
ATOM      2  C2  I4B d   1      -5.880   1.092  -5.128  0.00  0.00     0.003 A 
ATOM      3  C3  I4B d   1      -5.244  -0.058  -5.655  0.00  0.00     0.002 A 
ATOM      4  C4  I4B d   1      -3.909   0.002  -6.000  0.00  0.00    -0.004 A 
ATOM      5  C5  I4B d   1      -3.178   1.162  -5.763  0.00  0.00     0.002 A 
ATOM      6  C6  I4B d   1      -3.805   2.286  -5.206  0.00  0.00     0.003 A 
ENDROOT
BRANCH   1   7
ATOM      7  C1' I4B d   1      -5.873   3.449  -4.389  0.00  0.00     0.060 C 
BRANCH   7   8
ATOM      8  C2' I4B d   1      -5.357   3.721  -2.991  0.00  0.00    -0.013 C 
ATOM      9  C4' I4B d   1      -6.000   4.950  -2.402  0.00  0.00     0.013 C 
ATOM     10  C3' I4B d   1      -5.634   2.510  -2.151  0.00  0.00     0.013 C 
ENDBRANCH   7   8
ENDBRANCH   1   7
TORSDOF 2
ENDMDL
