MODEL 1
REMARK minimizedAffinity -2.05838394
REMARK minimizedRMSD -1
REMARK  2 active torsions:
REMARK  status: ('A' for Active; 'I' for Inactive)
REMARK    1  A    between atoms: C2'_3  and  C1'_4 
REMARK    2  A    between atoms: C1'_4  and  C1_5 
ROOT
ATOM      1  C1  I4B d   1      -4.965   1.462  -5.312  0.00  0.00    -0.075 A 
ATOM      2  C2  I4B d   1      -3.649   1.851  -5.355  0.00  0.00     0.003 A 
ATOM      3  C3  I4B d   1      -2.644   0.926  -5.729  0.00  0.00     0.002 A 
ATOM      4  C4  I4B d   1      -2.991  -0.382  -6.000  0.00  0.00    -0.004 A 
ATOM      5  C5  I4B d   1      -4.328  -0.769  -5.978  0.00  0.00     0.002 A 
ATOM      6  C6  I4B d   1      -5.323   0.162  -5.643  0.00  0.00     0.003 A 
ENDROOT
BRANCH   1   7
ATOM      7  C1' I4B d   1      -5.996   2.456  -4.881  0.00  0.00     0.060 C 
BRANCH   7   8
ATOM      8  C2' I4B d   1      -5.922   2.582  -3.373  0.00  0.00    -0.013 C 
ATOM      9  C4' I4B d   1      -6.000   1.232  -2.709  0.00  0.00     0.013 C 
ATOM     10  C3' I4B d   1      -4.642   3.282  -3.029  0.00  0.00     0.013 C 
ENDBRANCH   7   8
ENDBRANCH   1   7
TORSDOF 2
ENDMDL
