MODEL 1
REMARK minimizedAffinity 8.07168198
REMARK minimizedRMSD -1
REMARK  2 active torsions:
REMARK  status: ('A' for Active; 'I' for Inactive)
REMARK    1  A    between atoms: C2'_3  and  C1'_4 
REMARK    2  A    between atoms: C1'_4  and  C1_5 
ROOT
ATOM      1  C1  I4B d   1      -1.750   3.687  -1.295  0.00  0.00    -0.075 A 
ATOM      2  C2  I4B d   1      -0.720   4.592  -1.235  0.00  0.00     0.003 A 
ATOM      3  C3  I4B d   1       0.445   4.298  -0.484  0.00  0.00     0.002 A 
ATOM      4  C4  I4B d   1       0.515   3.117   0.227  0.00  0.00    -0.004 A 
ATOM      5  C5  I4B d   1      -0.521   2.191   0.146  0.00  0.00     0.002 A 
ATOM      6  C6  I4B d   1      -1.655   2.472  -0.629  0.00  0.00     0.003 A 
ENDROOT
BRANCH   1   7
ATOM      7  C1' I4B d   1      -2.978   4.044  -2.070  0.00  0.00     0.060 C 
BRANCH   7   8
ATOM      8  C2' I4B d   1      -3.547   2.768  -2.658  0.00  0.00    -0.013 C 
ATOM      9  C4' I4B d   1      -4.940   2.507  -2.149  0.00  0.00     0.013 C 
ATOM     10  C3' I4B d   1      -3.531   2.899  -4.151  0.00  0.00     0.013 C 
ENDBRANCH   7   8
ENDBRANCH   1   7
TORSDOF 2
ENDMDL
