MODEL 1
REMARK minimizedAffinity 7.475914
REMARK minimizedRMSD -1
REMARK  2 active torsions:
REMARK  status: ('A' for Active; 'I' for Inactive)
REMARK    1  A    between atoms: C2'_3  and  C1'_4 
REMARK    2  A    between atoms: C1'_4  and  C1_5 
ROOT
ATOM      1  C1  I4B d   1      -0.775   3.771   0.074  0.00  0.00    -0.075 A 
ATOM      2  C2  I4B d   1      -0.952   2.711  -0.780  0.00  0.00     0.003 A 
ATOM      3  C3  I4B d   1      -1.977   2.745  -1.756  0.00  0.00     0.002 A 
ATOM      4  C4  I4B d   1      -2.829   3.829  -1.810  0.00  0.00    -0.004 A 
ATOM      5  C5  I4B d   1      -2.634   4.913  -0.958  0.00  0.00     0.002 A 
ATOM      6  C6  I4B d   1      -1.593   4.889  -0.019  0.00  0.00     0.003 A 
ENDROOT
BRANCH   1   7
ATOM      7  C1' I4B d   1       0.296   3.687   1.114  0.00  0.00     0.060 C 
BRANCH   7   8
ATOM      8  C2' I4B d   1      -0.025   2.517   2.021  0.00  0.00    -0.013 C 
ATOM      9  C4' I4B d   1       1.108   2.240   2.975  0.00  0.00     0.013 C 
ATOM     10  C3' I4B d   1      -1.289   2.838   2.761  0.00  0.00     0.013 C 
ENDBRANCH   7   8
ENDBRANCH   1   7
TORSDOF 2
ENDMDL
