MODEL 1
REMARK minimizedAffinity 6.71934128
REMARK minimizedRMSD -1
REMARK  2 active torsions:
REMARK  status: ('A' for Active; 'I' for Inactive)
REMARK    1  A    between atoms: C2'_3  and  C1'_4 
REMARK    2  A    between atoms: C1'_4  and  C1_5 
ROOT
ATOM      1  C1  I4B d   1      -1.848   3.321  -1.664  0.00  0.00    -0.075 A 
ATOM      2  C2  I4B d   1      -0.745   2.621  -1.242  0.00  0.00     0.003 A 
ATOM      3  C3  I4B d   1       0.365   3.305  -0.690  0.00  0.00     0.002 A 
ATOM      4  C4  I4B d   1       0.351   4.684  -0.625  0.00  0.00    -0.004 A 
ATOM      5  C5  I4B d   1      -0.777   5.390  -1.032  0.00  0.00     0.002 A 
ATOM      6  C6  I4B d   1      -1.889   4.704  -1.543  0.00  0.00     0.003 A 
ENDROOT
BRANCH   1   7
ATOM      7  C1' I4B d   1      -2.989   2.570  -2.273  0.00  0.00     0.060 C 
BRANCH   7   8
ATOM      8  C2' I4B d   1      -3.951   3.581  -2.863  0.00  0.00    -0.013 C 
ATOM      9  C4' I4B d   1      -4.034   3.445  -4.360  0.00  0.00     0.013 C 
ATOM     10  C3' I4B d   1      -5.292   3.370  -2.225  0.00  0.00     0.013 C 
ENDBRANCH   7   8
ENDBRANCH   1   7
TORSDOF 2
ENDMDL
