MODEL 1
REMARK minimizedAffinity 13.1882153
REMARK minimizedRMSD -1
REMARK  2 active torsions:
REMARK  status: ('A' for Active; 'I' for Inactive)
REMARK    1  A    between atoms: C2'_3  and  C1'_4 
REMARK    2  A    between atoms: C1'_4  and  C1_5 
ROOT
ATOM      1  C1  I4B d   1       0.023   0.905  -0.889  0.00  0.00    -0.075 A 
ATOM      2  C2  I4B d   1       0.535  -0.162  -1.585  0.00  0.00     0.003 A 
ATOM      3  C3  I4B d   1      -0.334  -1.116  -2.167  0.00  0.00     0.002 A 
ATOM      4  C4  I4B d   1      -1.697  -0.993  -1.987  0.00  0.00    -0.004 A 
ATOM      5  C5  I4B d   1      -2.215   0.101  -1.301  0.00  0.00     0.002 A 
ATOM      6  C6  I4B d   1      -1.350   1.063  -0.759  0.00  0.00     0.003 A 
ENDROOT
BRANCH   1   7
ATOM      7  C1' I4B d   1       0.971   1.876  -0.258  0.00  0.00     0.060 C 
BRANCH   7   8
ATOM      8  C2' I4B d   1       0.175   3.091   0.173  0.00  0.00    -0.013 C 
ATOM      9  C4' I4B d   1      -0.032   3.105   1.665  0.00  0.00     0.013 C 
ATOM     10  C3' I4B d   1       0.914   4.314  -0.282  0.00  0.00     0.013 C 
ENDBRANCH   7   8
ENDBRANCH   1   7
TORSDOF 2
ENDMDL
