MODEL 1
REMARK minimizedAffinity 10.2053881
REMARK minimizedRMSD -1
REMARK  0 active torsions:
REMARK  status: ('A' for Active; 'I' for Inactive)
ROOT
ATOM      1  C1  BNZ d   1      -1.948   5.864  -4.179  0.00  0.00     0.000 A 
ATOM      2  C2  BNZ d   1      -2.039   5.199  -2.985  0.00  0.00     0.000 A 
ATOM      3  C3  BNZ d   1      -2.320   3.862  -2.948  0.00  0.00     0.000 A 
ATOM      4  C4  BNZ d   1      -2.547   3.200  -4.101  0.00  0.00     0.000 A 
ATOM      5  C5  BNZ d   1      -2.468   3.858  -5.312  0.00  0.00     0.000 A 
ATOM      6  C6  BNZ d   1      -2.147   5.195  -5.348  0.00  0.00     0.000 A 
ENDROOT
TORSDOF 0
ENDMDL
