MODEL 1
REMARK minimizedAffinity -0.387797713
REMARK minimizedRMSD -1
REMARK  0 active torsions:
REMARK  status: ('A' for Active; 'I' for Inactive)
ROOT
ATOM      1  C1  BNZ d   1      -5.249  -4.841   0.118  0.00  0.00     0.000 A 
ATOM      2  C2  BNZ d   1      -4.886  -3.696   0.776  0.00  0.00     0.000 A 
ATOM      3  C3  BNZ d   1      -4.681  -3.702   2.128  0.00  0.00     0.000 A 
ATOM      4  C4  BNZ d   1      -4.878  -4.840   2.824  0.00  0.00     0.000 A 
ATOM      5  C5  BNZ d   1      -5.254  -6.000   2.175  0.00  0.00     0.000 A 
ATOM      6  C6  BNZ d   1      -5.421  -6.000   0.809  0.00  0.00     0.000 A 
ENDROOT
TORSDOF 0
ENDMDL
