MODEL 1
REMARK minimizedAffinity 1.96078897
REMARK minimizedRMSD -1
REMARK  0 active torsions:
REMARK  status: ('A' for Active; 'I' for Inactive)
ROOT
ATOM      1  C1  BNZ d   1       0.256  -2.656   1.482  0.00  0.00     0.000 A 
ATOM      2  C2  BNZ d   1      -0.680  -2.433   2.457  0.00  0.00     0.000 A 
ATOM      3  C3  BNZ d   1      -0.578  -1.354   3.290  0.00  0.00     0.000 A 
ATOM      4  C4  BNZ d   1       0.478  -0.524   3.175  0.00  0.00     0.000 A 
ATOM      5  C5  BNZ d   1       1.435  -0.741   2.203  0.00  0.00     0.000 A 
ATOM      6  C6  BNZ d   1       1.309  -1.806   1.340  0.00  0.00     0.000 A 
ENDROOT
TORSDOF 0
ENDMDL
