MODEL 1
REMARK minimizedAffinity 3.94760299
REMARK minimizedRMSD -1
REMARK  0 active torsions:
REMARK  status: ('A' for Active; 'I' for Inactive)
ROOT
ATOM      1  C1  BNZ d   1      -2.052   4.924  -2.959  0.00  0.00     0.000 A 
ATOM      2  C2  BNZ d   1      -1.910   5.778  -4.020  0.00  0.00     0.000 A 
ATOM      3  C3  BNZ d   1      -2.034   5.326  -5.304  0.00  0.00     0.000 A 
ATOM      4  C4  BNZ d   1      -2.259   4.016  -5.527  0.00  0.00     0.000 A 
ATOM      5  C5  BNZ d   1      -2.395   3.140  -4.468  0.00  0.00     0.000 A 
ATOM      6  C6  BNZ d   1      -2.308   3.605  -3.176  0.00  0.00     0.000 A 
ENDROOT
TORSDOF 0
ENDMDL
