MODEL 1
REMARK minimizedAffinity 9.7695713
REMARK minimizedRMSD -1
REMARK  0 active torsions:
REMARK  status: ('A' for Active; 'I' for Inactive)
ROOT
ATOM      1  C1  BNZ d   1       1.340   2.698  -1.886  0.00  0.00     0.000 A 
ATOM      2  C2  BNZ d   1       1.473   2.281  -0.588  0.00  0.00     0.000 A 
ATOM      3  C3  BNZ d   1       1.352   3.164   0.448  0.00  0.00     0.000 A 
ATOM      4  C4  BNZ d   1       1.138   4.469   0.184  0.00  0.00     0.000 A 
ATOM      5  C5  BNZ d   1       1.011   4.908  -1.119  0.00  0.00     0.000 A 
ATOM      6  C6  BNZ d   1       1.095   4.009  -2.157  0.00  0.00     0.000 A 
ENDROOT
TORSDOF 0
ENDMDL
