MODEL 1
REMARK minimizedAffinity -0.452519447
REMARK minimizedRMSD -1
REMARK  0 active torsions:
REMARK  status: ('A' for Active; 'I' for Inactive)
ROOT
ATOM      1  C1  BNZ d   1      -5.136  -3.839   4.869  0.00  0.00     0.000 A 
ATOM      2  C2  BNZ d   1      -4.301  -3.827   3.783  0.00  0.00     0.000 A 
ATOM      3  C3  BNZ d   1      -4.328  -4.842   2.869  0.00  0.00     0.000 A 
ATOM      4  C4  BNZ d   1      -5.158  -5.887   3.062  0.00  0.00     0.000 A 
ATOM      5  C5  BNZ d   1      -5.999  -5.918   4.156  0.00  0.00     0.000 A 
ATOM      6  C6  BNZ d   1      -5.998  -4.875   5.054  0.00  0.00     0.000 A 
ENDROOT
TORSDOF 0
ENDMDL
