MODEL 1
REMARK minimizedAffinity 3.76662874
REMARK minimizedRMSD -1
REMARK  0 active torsions:
REMARK  status: ('A' for Active; 'I' for Inactive)
ROOT
ATOM      1  C1  BNZ d   1      -5.130  -3.664   4.751  0.00  0.00     0.000 A 
ATOM      2  C2  BNZ d   1      -5.997  -4.710   4.920  0.00  0.00     0.000 A 
ATOM      3  C3  BNZ d   1      -6.000  -5.765   4.051  0.00  0.00     0.000 A 
ATOM      4  C4  BNZ d   1      -5.165  -5.754   2.992  0.00  0.00     0.000 A 
ATOM      5  C5  BNZ d   1      -4.291  -4.702   2.803  0.00  0.00     0.000 A 
ATOM      6  C6  BNZ d   1      -4.264  -3.660   3.702  0.00  0.00     0.000 A 
ENDROOT
TORSDOF 0
ENDMDL
