MODEL 1
REMARK minimizedAffinity 6.2161727
REMARK minimizedRMSD -1
REMARK  0 active torsions:
REMARK  status: ('A' for Active; 'I' for Inactive)
ROOT
ATOM      1  C1  BNZ d   1      -1.974   3.517  -3.644  0.00  0.00     0.000 A 
ATOM      2  C2  BNZ d   1      -2.953   2.756  -3.064  0.00  0.00     0.000 A 
ATOM      3  C3  BNZ d   1      -3.824   3.303  -2.164  0.00  0.00     0.000 A 
ATOM      4  C4  BNZ d   1      -3.691   4.599  -1.815  0.00  0.00     0.000 A 
ATOM      5  C5  BNZ d   1      -2.703   5.377  -2.384  0.00  0.00     0.000 A 
ATOM      6  C6  BNZ d   1      -1.852   4.833  -3.319  0.00  0.00     0.000 A 
ENDROOT
TORSDOF 0
ENDMDL
