MODEL 1
REMARK minimizedAffinity 9.6821928
REMARK minimizedRMSD -1
REMARK  0 active torsions:
REMARK  status: ('A' for Active; 'I' for Inactive)
ROOT
ATOM      1  C1  BNZ d   1       0.543  -2.264   1.763  0.00  0.00     0.000 A 
ATOM      2  C2  BNZ d   1      -0.455  -2.963   2.389  0.00  0.00     0.000 A 
ATOM      3  C3  BNZ d   1      -1.230  -2.370   3.346  0.00  0.00     0.000 A 
ATOM      4  C4  BNZ d   1      -0.982  -1.094   3.704  0.00  0.00     0.000 A 
ATOM      5  C5  BNZ d   1       0.027  -0.379   3.089  0.00  0.00     0.000 A 
ATOM      6  C6  BNZ d   1       0.780  -0.966   2.099  0.00  0.00     0.000 A 
ENDROOT
TORSDOF 0
ENDMDL
