MODEL 1
REMARK minimizedAffinity 0.230433568
REMARK minimizedRMSD -1
REMARK  0 active torsions:
REMARK  status: ('A' for Active; 'I' for Inactive)
ROOT
ATOM      1  C1  BNZ d   1      -3.752  -3.928   2.193  0.00  0.00     0.000 A 
ATOM      2  C2  BNZ d   1      -3.376  -3.947   0.876  0.00  0.00     0.000 A 
ATOM      3  C3  BNZ d   1      -3.751  -4.975   0.056  0.00  0.00     0.000 A 
ATOM      4  C4  BNZ d   1      -4.467  -6.000   0.562  0.00  0.00     0.000 A 
ATOM      5  C5  BNZ d   1      -4.845  -6.000   1.890  0.00  0.00     0.000 A 
ATOM      6  C6  BNZ d   1      -4.499  -4.945   2.703  0.00  0.00     0.000 A 
ENDROOT
TORSDOF 0
ENDMDL
