MODEL 1
REMARK minimizedAffinity 8.18937588
REMARK minimizedRMSD -1
REMARK  0 active torsions:
REMARK  status: ('A' for Active; 'I' for Inactive)
ROOT
ATOM      1  C1  BNZ d   1       4.220  -4.855  -5.984  0.00  0.00     0.000 A 
ATOM      2  C2  BNZ d   1       3.596  -3.638  -5.905  0.00  0.00     0.000 A 
ATOM      3  C3  BNZ d   1       2.234  -3.553  -5.829  0.00  0.00     0.000 A 
ATOM      4  C4  BNZ d   1       1.496  -4.681  -5.871  0.00  0.00     0.000 A 
ATOM      5  C5  BNZ d   1       2.109  -5.915  -5.960  0.00  0.00     0.000 A 
ATOM      6  C6  BNZ d   1       3.482  -5.998  -5.998  0.00  0.00     0.000 A 
ENDROOT
TORSDOF 0
ENDMDL
