MODEL 1
REMARK minimizedAffinity -1.50554526
REMARK minimizedRMSD -1
REMARK  0 active torsions:
REMARK  status: ('A' for Active; 'I' for Inactive)
ROOT
ATOM      1  C1  BNZ d   1       1.126  -5.891  -5.219  0.00  0.00     0.000 A 
ATOM      2  C2  BNZ d   1       2.249  -5.997  -5.996  0.00  0.00     0.000 A 
ATOM      3  C3  BNZ d   1       3.194  -5.010  -5.999  0.00  0.00     0.000 A 
ATOM      4  C4  BNZ d   1       2.997  -3.901  -5.257  0.00  0.00     0.000 A 
ATOM      5  C5  BNZ d   1       1.866  -3.775  -4.476  0.00  0.00     0.000 A 
ATOM      6  C6  BNZ d   1       0.935  -4.788  -4.445  0.00  0.00     0.000 A 
ENDROOT
TORSDOF 0
ENDMDL
