MODEL 1
REMARK minimizedAffinity -0.461115509
REMARK minimizedRMSD -1
REMARK  0 active torsions:
REMARK  status: ('A' for Active; 'I' for Inactive)
ROOT
ATOM      1  C1  BNZ d   1      -5.006  -5.330   2.342  0.00  0.00     0.000 A 
ATOM      2  C2  BNZ d   1      -5.070  -5.986   1.141  0.00  0.00     0.000 A 
ATOM      3  C3  BNZ d   1      -4.403  -5.510   0.047  0.00  0.00     0.000 A 
ATOM      4  C4  BNZ d   1      -3.707  -4.359   0.144  0.00  0.00     0.000 A 
ATOM      5  C5  BNZ d   1      -3.641  -3.681   1.345  0.00  0.00     0.000 A 
ATOM      6  C6  BNZ d   1      -4.282  -4.183   2.454  0.00  0.00     0.000 A 
ENDROOT
TORSDOF 0
ENDMDL
