MODEL 1
REMARK minimizedAffinity -0.751191854
REMARK minimizedRMSD -1
REMARK  3 active torsions:
REMARK  status: ('A' for Active; 'I' for Inactive)
REMARK    1  A    between atoms: C3'_2  and  C2'_3 
REMARK    2  A    between atoms: C2'_3  and  C1'_4 
REMARK    3  A    between atoms: C1'_4  and  C1_5 
ROOT
ATOM      1  C1  N4B d   1      -1.017   3.512   1.625  0.00  0.00    -0.075 A 
ATOM      2  C2  N4B d   1      -1.490   2.975   2.842  0.00  0.00     0.002 A 
ATOM      3  C3  N4B d   1      -2.560   3.554   3.478  0.00  0.00     0.002 A 
ATOM      4  C4  N4B d   1      -3.159   4.679   2.929  0.00  0.00    -0.004 A 
ATOM      5  C5  N4B d   1      -2.711   5.176   1.740  0.00  0.00     0.002 A 
ATOM      6  C6  N4B d   1      -1.639   4.602   1.087  0.00  0.00     0.002 A 
ENDROOT
BRANCH   1   7
ATOM      7  C1' N4B d   1       0.204   2.965   0.936  0.00  0.00     0.057 C 
BRANCH   7   8
ATOM      8  C2' N4B d   1      -0.071   2.861  -0.561  0.00  0.00     0.009 C 
BRANCH   8   9
ATOM      9  C3' N4B d   1       0.643   3.947  -1.347  0.00  0.00     0.004 C 
ATOM     10  C4' N4B d   1       1.607   4.732  -0.508  0.00  0.00     0.003 C 
ENDBRANCH   8   9
ENDBRANCH   7   8
ENDBRANCH   1   7
TORSDOF 3
ENDMDL
