MODEL 1
REMARK minimizedAffinity 6.68700027
REMARK minimizedRMSD -1
REMARK  3 active torsions:
REMARK  status: ('A' for Active; 'I' for Inactive)
REMARK    1  A    between atoms: C3'_2  and  C2'_3 
REMARK    2  A    between atoms: C2'_3  and  C1'_4 
REMARK    3  A    between atoms: C1'_4  and  C1_5 
ROOT
ATOM      1  C1  N4B d   1       4.760  -4.238  -2.083  0.00  0.00    -0.075 A 
ATOM      2  C2  N4B d   1       5.122  -3.668  -3.323  0.00  0.00     0.002 A 
ATOM      3  C3  N4B d   1       4.626  -4.192  -4.491  0.00  0.00     0.002 A 
ATOM      4  C4  N4B d   1       3.784  -5.294  -4.445  0.00  0.00    -0.004 A 
ATOM      5  C5  N4B d   1       3.419  -5.823  -3.242  0.00  0.00     0.002 A 
ATOM      6  C6  N4B d   1       3.907  -5.303  -2.060  0.00  0.00     0.002 A 
ENDROOT
BRANCH   1   7
ATOM      7  C1' N4B d   1       5.345  -3.753  -0.785  0.00  0.00     0.057 C 
BRANCH   7   8
ATOM      8  C2' N4B d   1       4.967  -2.289  -0.581  0.00  0.00     0.009 C 
BRANCH   8   9
ATOM      9  C3' N4B d   1       3.464  -2.102  -0.459  0.00  0.00     0.004 C 
ATOM     10  C4' N4B d   1       2.870  -2.892   0.669  0.00  0.00     0.003 C 
ENDBRANCH   8   9
ENDBRANCH   7   8
ENDBRANCH   1   7
TORSDOF 3
ENDMDL
