MODEL 1
REMARK minimizedAffinity -0.821319103
REMARK minimizedRMSD -1
REMARK  3 active torsions:
REMARK  status: ('A' for Active; 'I' for Inactive)
REMARK    1  A    between atoms: C3'_2  and  C2'_3 
REMARK    2  A    between atoms: C2'_3  and  C1'_4 
REMARK    3  A    between atoms: C1'_4  and  C1_5 
ROOT
ATOM      1  C1  N4B d   1      -5.584   3.588  -3.596  0.00  0.00    -0.075 A 
ATOM      2  C2  N4B d   1      -4.756   4.728  -3.499  0.00  0.00     0.002 A 
ATOM      3  C3  N4B d   1      -4.355   5.384  -4.636  0.00  0.00     0.002 A 
ATOM      4  C4  N4B d   1      -4.751   4.910  -5.878  0.00  0.00    -0.004 A 
ATOM      5  C5  N4B d   1      -5.571   3.823  -5.962  0.00  0.00     0.002 A 
ATOM      6  C6  N4B d   1      -5.986   3.156  -4.827  0.00  0.00     0.002 A 
ENDROOT
BRANCH   1   7
ATOM      7  C1' N4B d   1      -5.978   2.787  -2.385  0.00  0.00     0.057 C 
BRANCH   7   8
ATOM      8  C2' N4B d   1      -5.105   1.538  -2.305  0.00  0.00     0.009 C 
BRANCH   8   9
ATOM      9  C3' N4B d   1      -3.673   1.870  -1.922  0.00  0.00     0.004 C 
ATOM     10  C4' N4B d   1      -3.390   1.636  -0.469  0.00  0.00     0.003 C 
ENDBRANCH   8   9
ENDBRANCH   7   8
ENDBRANCH   1   7
TORSDOF 3
ENDMDL
