MODEL 1
REMARK minimizedAffinity -3.43272901
REMARK minimizedRMSD -1
REMARK  3 active torsions:
REMARK  status: ('A' for Active; 'I' for Inactive)
REMARK    1  A    between atoms: C3'_2  and  C2'_3 
REMARK    2  A    between atoms: C2'_3  and  C1'_4 
REMARK    3  A    between atoms: C1'_4  and  C1_5 
ROOT
ATOM      1  C1  N4B d   1      -4.925   4.031  -3.388  0.00  0.00    -0.075 A 
ATOM      2  C2  N4B d   1      -4.529   3.718  -4.707  0.00  0.00     0.002 A 
ATOM      3  C3  N4B d   1      -4.881   4.545  -5.745  0.00  0.00     0.002 A 
ATOM      4  C4  N4B d   1      -5.643   5.676  -5.492  0.00  0.00    -0.004 A 
ATOM      5  C5  N4B d   1      -6.000   5.986  -4.212  0.00  0.00     0.002 A 
ATOM      6  C6  N4B d   1      -5.649   5.165  -3.159  0.00  0.00     0.002 A 
ENDROOT
BRANCH   1   7
ATOM      7  C1' N4B d   1      -4.637   3.112  -2.233  0.00  0.00     0.057 C 
BRANCH   7   8
ATOM      8  C2' N4B d   1      -5.908   2.928  -1.410  0.00  0.00     0.009 C 
BRANCH   8   9
ATOM      9  C3' N4B d   1      -5.923   1.598  -0.676  0.00  0.00     0.004 C 
ATOM     10  C4' N4B d   1      -4.620   1.294   0.001  0.00  0.00     0.003 C 
ENDBRANCH   8   9
ENDBRANCH   7   8
ENDBRANCH   1   7
TORSDOF 3
ENDMDL
