MODEL 1
REMARK minimizedAffinity 8.99268532
REMARK minimizedRMSD -1
REMARK  3 active torsions:
REMARK  status: ('A' for Active; 'I' for Inactive)
REMARK    1  A    between atoms: C3'_2  and  C2'_3 
REMARK    2  A    between atoms: C2'_3  and  C1'_4 
REMARK    3  A    between atoms: C1'_4  and  C1_5 
ROOT
ATOM      1  C1  N4B d   1      -0.851   3.585   0.807  0.00  0.00    -0.075 A 
ATOM      2  C2  N4B d   1      -1.895   3.858   1.719  0.00  0.00     0.002 A 
ATOM      3  C3  N4B d   1      -2.630   5.011   1.596  0.00  0.00     0.002 A 
ATOM      4  C4  N4B d   1      -2.328   5.912   0.585  0.00  0.00    -0.004 A 
ATOM      5  C5  N4B d   1      -1.335   5.629  -0.306  0.00  0.00     0.002 A 
ATOM      6  C6  N4B d   1      -0.591   4.472  -0.197  0.00  0.00     0.002 A 
ENDROOT
BRANCH   1   7
ATOM      7  C1' N4B d   1       0.036   2.379   0.953  0.00  0.00     0.057 C 
BRANCH   7   8
ATOM      8  C2' N4B d   1      -0.416   1.303  -0.030  0.00  0.00     0.009 C 
BRANCH   8   9
ATOM      9  C3' N4B d   1       0.585   1.106  -1.156  0.00  0.00     0.004 C 
ATOM     10  C4' N4B d   1       1.413  -0.133  -0.986  0.00  0.00     0.003 C 
ENDBRANCH   8   9
ENDBRANCH   7   8
ENDBRANCH   1   7
TORSDOF 3
ENDMDL
