MODEL 1
REMARK minimizedAffinity 11.2025299
REMARK minimizedRMSD -1
REMARK  0 active torsions:
REMARK  status: ('A' for Active; 'I' for Inactive)
ROOT
ATOM      1  C   UNL d   1       5.943  -5.456   5.652  0.00  0.00    -0.002 A 
ATOM      2  C1  UNL d   1       5.922  -5.958   4.358  0.00  0.00     0.010 A 
ATOM      3  C2  UNL d   1       5.817  -5.097   3.264  0.00  0.00     0.041 A 
ATOM      4  C3  UNL d   1       5.734  -3.709   3.494  0.00  0.00    -0.075 A 
ATOM      5  S   UNL d   1       5.601  -2.465   2.308  0.00  0.00     0.015 SA
ATOM      6  C4  UNL d   1       5.568  -1.238   3.490  0.00  0.00     0.022 A 
ATOM      7  C5  UNL d   1       5.656  -1.747   4.764  0.00  0.00     0.026 A 
ATOM      8  C6  UNL d   1       5.754  -3.180   4.787  0.00  0.00    -0.082 A 
ATOM      9  C7  UNL d   1       5.860  -4.079   5.876  0.00  0.00     0.045 A 
ENDROOT
TORSDOF 0
ENDMDL
