MODEL 1
REMARK minimizedAffinity 5.97252083
REMARK minimizedRMSD -1
REMARK  0 active torsions:
REMARK  status: ('A' for Active; 'I' for Inactive)
ROOT
ATOM      1  C   UNL d   1       0.497  -0.254   0.134  0.00  0.00    -0.002 A 
ATOM      2  C1  UNL d   1      -0.390   0.079   1.148  0.00  0.00     0.010 A 
ATOM      3  C2  UNL d   1      -1.677  -0.460   1.172  0.00  0.00     0.041 A 
ATOM      4  C3  UNL d   1      -2.063  -1.350   0.149  0.00  0.00    -0.075 A 
ATOM      5  S   UNL d   1      -3.588  -2.134  -0.027  0.00  0.00     0.015 SA
ATOM      6  C4  UNL d   1      -3.099  -2.929  -1.452  0.00  0.00     0.022 A 
ATOM      7  C5  UNL d   1      -1.806  -2.616  -1.800  0.00  0.00     0.026 A 
ATOM      8  C6  UNL d   1      -1.187  -1.701  -0.882  0.00  0.00    -0.082 A 
ATOM      9  C7  UNL d   1       0.111  -1.137  -0.879  0.00  0.00     0.045 A 
ENDROOT
TORSDOF 0
ENDMDL
