MODEL 1
REMARK minimizedAffinity 8.74118423
REMARK minimizedRMSD -1
REMARK  0 active torsions:
REMARK  status: ('A' for Active; 'I' for Inactive)
ROOT
ATOM      1  C   UNL d   1      -2.046  -3.473  -2.475  0.00  0.00    -0.002 A 
ATOM      2  C1  UNL d   1      -1.158  -3.068  -3.461  0.00  0.00     0.010 A 
ATOM      3  C2  UNL d   1      -0.282  -2.004  -3.235  0.00  0.00     0.041 A 
ATOM      4  C3  UNL d   1      -0.312  -1.350  -1.987  0.00  0.00    -0.075 A 
ATOM      5  S   UNL d   1       0.669  -0.024  -1.485  0.00  0.00     0.015 SA
ATOM      6  C4  UNL d   1      -0.067   0.035   0.051  0.00  0.00     0.022 A 
ATOM      7  C5  UNL d   1      -1.039  -0.926   0.194  0.00  0.00     0.026 A 
ATOM      8  C6  UNL d   1      -1.196  -1.741  -0.978  0.00  0.00    -0.082 A 
ATOM      9  C7  UNL d   1      -2.073  -2.822  -1.239  0.00  0.00     0.045 A 
ENDROOT
TORSDOF 0
ENDMDL
