MODEL 1
REMARK minimizedAffinity 12.7278547
REMARK minimizedRMSD -1
REMARK  0 active torsions:
REMARK  status: ('A' for Active; 'I' for Inactive)
ROOT
ATOM      1  C   UNL d   1      -3.782  -0.079   3.697  0.00  0.00    -0.002 A 
ATOM      2  C1  UNL d   1      -4.452   0.909   2.989  0.00  0.00     0.010 A 
ATOM      3  C2  UNL d   1      -4.006   1.305   1.727  0.00  0.00     0.041 A 
ATOM      4  C3  UNL d   1      -2.864   0.684   1.182  0.00  0.00    -0.075 A 
ATOM      5  S   UNL d   1      -2.136   1.007  -0.347  0.00  0.00     0.015 SA
ATOM      6  C4  UNL d   1      -0.919  -0.160  -0.097  0.00  0.00     0.022 A 
ATOM      7  C5  UNL d   1      -1.050  -0.789   1.118  0.00  0.00     0.026 A 
ATOM      8  C6  UNL d   1      -2.173  -0.314   1.875  0.00  0.00    -0.082 A 
ATOM      9  C7  UNL d   1      -2.650  -0.693   3.153  0.00  0.00     0.045 A 
ENDROOT
TORSDOF 0
ENDMDL
