MODEL 1
REMARK minimizedAffinity 10.7062807
REMARK minimizedRMSD -1
REMARK  0 active torsions:
REMARK  status: ('A' for Active; 'I' for Inactive)
ROOT
ATOM      1  C   UNL d   1       1.542  -2.494  -1.970  0.00  0.00    -0.002 A 
ATOM      2  C1  UNL d   1       2.054  -2.241  -0.705  0.00  0.00     0.010 A 
ATOM      3  C2  UNL d   1       3.402  -2.473  -0.425  0.00  0.00     0.041 A 
ATOM      4  C3  UNL d   1       4.235  -2.966  -1.448  0.00  0.00    -0.075 A 
ATOM      5  S   UNL d   1       5.918  -3.324  -1.335  0.00  0.00     0.015 SA
ATOM      6  C4  UNL d   1       5.997  -3.820  -2.964  0.00  0.00     0.022 A 
ATOM      7  C5  UNL d   1       4.779  -3.722  -3.593  0.00  0.00     0.026 A 
ATOM      8  C6  UNL d   1       3.743  -3.228  -2.730  0.00  0.00    -0.082 A 
ATOM      9  C7  UNL d   1       2.372  -2.984  -2.982  0.00  0.00     0.045 A 
ENDROOT
TORSDOF 0
ENDMDL
