MODEL 1
REMARK minimizedAffinity 21.8745632
REMARK minimizedRMSD -1
REMARK  0 active torsions:
REMARK  status: ('A' for Active; 'I' for Inactive)
ROOT
ATOM      1  C   UNL d   1       5.990  -2.022   0.978  0.00  0.00    -0.002 A 
ATOM      2  C1  UNL d   1       5.990  -1.145  -0.098  0.00  0.00     0.010 A 
ATOM      3  C2  UNL d   1       5.993  -1.629  -1.408  0.00  0.00     0.041 A 
ATOM      4  C3  UNL d   1       5.994  -3.022  -1.620  0.00  0.00    -0.075 A 
ATOM      5  S   UNL d   1       5.996  -3.842  -3.136  0.00  0.00     0.015 SA
ATOM      6  C4  UNL d   1       5.995  -5.375  -2.391  0.00  0.00     0.022 A 
ATOM      7  C5  UNL d   1       5.993  -5.282  -1.020  0.00  0.00     0.026 A 
ATOM      8  C6  UNL d   1       5.992  -3.924  -0.553  0.00  0.00    -0.082 A 
ATOM      9  C7  UNL d   1       5.990  -3.402   0.763  0.00  0.00     0.045 A 
ENDROOT
TORSDOF 0
ENDMDL
