MODEL 1
REMARK minimizedAffinity 8.27478504
REMARK minimizedRMSD -1
REMARK  0 active torsions:
REMARK  status: ('A' for Active; 'I' for Inactive)
ROOT
ATOM      1  C   UNL d   1      -1.787  -3.310  -3.320  0.00  0.00    -0.002 A 
ATOM      2  C1  UNL d   1      -2.834  -3.666  -2.482  0.00  0.00     0.010 A 
ATOM      3  C2  UNL d   1      -2.985  -3.057  -1.235  0.00  0.00     0.041 A 
ATOM      4  C3  UNL d   1      -2.058  -2.073  -0.841  0.00  0.00    -0.075 A 
ATOM      5  S   UNL d   1      -2.044  -1.192   0.641  0.00  0.00     0.015 SA
ATOM      6  C4  UNL d   1      -0.648  -0.320   0.197  0.00  0.00     0.022 A 
ATOM      7  C5  UNL d   1      -0.190  -0.680  -1.048  0.00  0.00     0.026 A 
ATOM      8  C6  UNL d   1      -0.995  -1.696  -1.667  0.00  0.00    -0.082 A 
ATOM      9  C7  UNL d   1      -0.869  -2.333  -2.925  0.00  0.00     0.045 A 
ENDROOT
TORSDOF 0
ENDMDL
