MODEL 1
REMARK minimizedAffinity 8.12385845
REMARK minimizedRMSD -1
REMARK  0 active torsions:
REMARK  status: ('A' for Active; 'I' for Inactive)
ROOT
ATOM      1  C   UNL d   1      -2.299  -1.968  -0.497  0.00  0.00    -0.002 A 
ATOM      2  C1  UNL d   1      -1.210  -1.338  -1.083  0.00  0.00     0.010 A 
ATOM      3  C2  UNL d   1      -0.782  -1.702  -2.361  0.00  0.00     0.041 A 
ATOM      4  C3  UNL d   1      -1.474  -2.720  -3.047  0.00  0.00    -0.075 A 
ATOM      5  S   UNL d   1      -1.129  -3.331  -4.622  0.00  0.00     0.015 SA
ATOM      6  C4  UNL d   1      -2.419  -4.443  -4.554  0.00  0.00     0.022 A 
ATOM      7  C5  UNL d   1      -3.106  -4.363  -3.366  0.00  0.00     0.026 A 
ATOM      8  C6  UNL d   1      -2.573  -3.369  -2.478  0.00  0.00    -0.082 A 
ATOM      9  C7  UNL d   1      -2.982  -2.977  -1.181  0.00  0.00     0.045 A 
ENDROOT
TORSDOF 0
ENDMDL
