MODEL 1
REMARK minimizedAffinity 15.9070587
REMARK minimizedRMSD -1
REMARK  0 active torsions:
REMARK  status: ('A' for Active; 'I' for Inactive)
ROOT
ATOM      1  C   UNL d   1       3.920  -2.575  -0.847  0.00  0.00    -0.002 A 
ATOM      2  C1  UNL d   1       5.233  -3.008  -0.730  0.00  0.00     0.010 A 
ATOM      3  C2  UNL d   1       5.949  -3.417  -1.856  0.00  0.00     0.041 A 
ATOM      4  C3  UNL d   1       5.318  -3.380  -3.115  0.00  0.00    -0.075 A 
ATOM      5  S   UNL d   1       5.999  -3.832  -4.633  0.00  0.00     0.015 SA
ATOM      6  C4  UNL d   1       4.564  -3.460  -5.473  0.00  0.00     0.022 A 
ATOM      7  C5  UNL d   1       3.578  -3.001  -4.631  0.00  0.00     0.026 A 
ATOM      8  C6  UNL d   1       3.997  -2.947  -3.259  0.00  0.00    -0.082 A 
ATOM      9  C7  UNL d   1       3.297  -2.540  -2.097  0.00  0.00     0.045 A 
ENDROOT
TORSDOF 0
ENDMDL
