MODEL 1
REMARK minimizedAffinity 10.8927841
REMARK minimizedRMSD -1
REMARK  0 active torsions:
REMARK  status: ('A' for Active; 'I' for Inactive)
ROOT
ATOM      1  C   UNL d   1      -0.547  -1.388  -0.737  0.00  0.00    -0.002 A 
ATOM      2  C1  UNL d   1      -1.144  -0.851   0.395  0.00  0.00     0.010 A 
ATOM      3  C2  UNL d   1      -2.465  -1.166   0.718  0.00  0.00     0.041 A 
ATOM      4  C3  UNL d   1      -3.183  -2.040  -0.122  0.00  0.00    -0.075 A 
ATOM      5  S   UNL d   1      -4.812  -2.568   0.077  0.00  0.00     0.015 SA
ATOM      6  C4  UNL d   1      -4.754  -3.520  -1.336  0.00  0.00     0.022 A 
ATOM      7  C5  UNL d   1      -3.529  -3.448  -1.956  0.00  0.00     0.026 A 
ATOM      8  C6  UNL d   1      -2.603  -2.594  -1.266  0.00  0.00    -0.082 A 
ATOM      9  C7  UNL d   1      -1.262  -2.254  -1.568  0.00  0.00     0.045 A 
ENDROOT
TORSDOF 0
ENDMDL
