MODEL 1
REMARK minimizedAffinity 13.655982
REMARK minimizedRMSD -1
REMARK  0 active torsions:
REMARK  status: ('A' for Active; 'I' for Inactive)
ROOT
ATOM      1  C   UNL d   1       5.206  -2.290  -4.797  0.00  0.00    -0.002 A 
ATOM      2  C1  UNL d   1       3.823  -2.254  -4.684  0.00  0.00     0.010 A 
ATOM      3  C2  UNL d   1       3.206  -2.461  -3.448  0.00  0.00     0.041 A 
ATOM      4  C3  UNL d   1       4.010  -2.704  -2.317  0.00  0.00    -0.075 A 
ATOM      5  S   UNL d   1       3.475  -2.984  -0.702  0.00  0.00     0.015 SA
ATOM      6  C4  UNL d   1       5.069  -3.157  -0.125  0.00  0.00     0.022 A 
ATOM      7  C5  UNL d   1       5.999  -3.008  -1.126  0.00  0.00     0.026 A 
ATOM      8  C6  UNL d   1       5.404  -2.744  -2.406  0.00  0.00    -0.082 A 
ATOM      9  C7  UNL d   1       6.000  -2.532  -3.673  0.00  0.00     0.045 A 
ENDROOT
TORSDOF 0
ENDMDL
