MODEL 1
REMARK minimizedAffinity 5.27078819
REMARK minimizedRMSD -1
REMARK  0 active torsions:
REMARK  status: ('A' for Active; 'I' for Inactive)
ROOT
ATOM      1  C   UNL d   1       3.631  -2.900  -0.552  0.00  0.00    -0.002 A 
ATOM      2  C1  UNL d   1       3.761  -2.303  -1.799  0.00  0.00     0.010 A 
ATOM      3  C2  UNL d   1       2.762  -1.460  -2.289  0.00  0.00     0.041 A 
ATOM      4  C3  UNL d   1       1.621  -1.221  -1.498  0.00  0.00    -0.075 A 
ATOM      5  S   UNL d   1       0.272  -0.224  -1.892  0.00  0.00     0.015 SA
ATOM      6  C4  UNL d   1      -0.507  -0.565  -0.416  0.00  0.00     0.022 A 
ATOM      7  C5  UNL d   1       0.230  -1.418   0.371  0.00  0.00     0.026 A 
ATOM      8  C6  UNL d   1       1.469  -1.810  -0.239  0.00  0.00    -0.082 A 
ATOM      9  C7  UNL d   1       2.498  -2.661   0.230  0.00  0.00     0.045 A 
ENDROOT
TORSDOF 0
ENDMDL
