MODEL 1
REMARK minimizedAffinity 2.50194716
REMARK minimizedRMSD -1
REMARK  0 active torsions:
REMARK  status: ('A' for Active; 'I' for Inactive)
ROOT
ATOM      1  C   UNL d   1       0.404   0.240  -1.078  0.00  0.00    -0.002 A 
ATOM      2  C1  UNL d   1      -0.618   0.751  -0.290  0.00  0.00     0.010 A 
ATOM      3  C2  UNL d   1      -0.389   1.844   0.548  0.00  0.00     0.041 A 
ATOM      4  C3  UNL d   1       0.896   2.422   0.580  0.00  0.00    -0.075 A 
ATOM      5  S   UNL d   1       1.407   3.767   1.529  0.00  0.00     0.015 SA
ATOM      6  C4  UNL d   1       2.993   3.696   0.910  0.00  0.00     0.022 A 
ATOM      7  C5  UNL d   1       3.147   2.676   0.001  0.00  0.00     0.026 A 
ATOM      8  C6  UNL d   1       1.940   1.926  -0.205  0.00  0.00    -0.082 A 
ATOM      9  C7  UNL d   1       1.677   0.816  -1.044  0.00  0.00     0.045 A 
ENDROOT
TORSDOF 0
ENDMDL
