MODEL 1
REMARK minimizedAffinity -0.563557029
REMARK minimizedRMSD -1
REMARK  0 active torsions:
REMARK  status: ('A' for Active; 'I' for Inactive)
ROOT
ATOM      1  C   UNL d   1       0.052   0.333  -2.417  0.00  0.00    -0.002 A 
ATOM      2  C1  UNL d   1      -0.281   1.248  -1.427  0.00  0.00     0.010 A 
ATOM      3  C2  UNL d   1      -0.530   0.821  -0.121  0.00  0.00     0.041 A 
ATOM      4  C3  UNL d   1      -0.437  -0.553   0.177  0.00  0.00    -0.075 A 
ATOM      5  S   UNL d   1      -0.699  -1.305   1.706  0.00  0.00     0.015 SA
ATOM      6  C4  UNL d   1      -0.374  -2.857   1.082  0.00  0.00     0.022 A 
ATOM      7  C5  UNL d   1      -0.072  -2.821  -0.258  0.00  0.00     0.026 A 
ATOM      8  C6  UNL d   1      -0.103  -1.492  -0.802  0.00  0.00    -0.082 A 
ATOM      9  C7  UNL d   1       0.143  -1.029  -2.117  0.00  0.00     0.045 A 
ENDROOT
TORSDOF 0
ENDMDL
