MODEL 1
REMARK minimizedAffinity 2.69988942
REMARK minimizedRMSD -1
REMARK  1 active torsions:
REMARK  status: ('A' for Active; 'I' for Inactive)
REMARK    1  A    between atoms: C1_2  and  C2_3 
ROOT
ATOM      1  C2  UNL d   1      -3.267   1.418   3.500  0.00  0.00    -0.081 A 
ATOM      2  C3  UNL d   1      -3.030   0.101   3.089  0.00  0.00     0.006 A 
ATOM      3  C4  UNL d   1      -1.913  -0.207   2.309  0.00  0.00     0.002 A 
ATOM      4  C5  UNL d   1      -1.011   0.794   1.934  0.00  0.00    -0.080 A 
ATOM      5  C6  UNL d   1       0.209   0.471   1.123  0.00  0.00     0.076 C 
ATOM      6  C7  UNL d   1      -1.256   2.113   2.330  0.00  0.00     0.002 A 
ATOM      7  C8  UNL d   1      -2.374   2.422   3.109  0.00  0.00     0.006 A 
ENDROOT
BRANCH   1   8
ATOM      8  C1  UNL d   1      -4.436   1.744   4.395  0.00  0.00     0.054 C 
ATOM      9  C   UNL d   1      -4.268   3.107   5.051  0.00  0.00     0.018 C 
ENDBRANCH   1   8
TORSDOF 1
ENDMDL
