MODEL 1
REMARK minimizedAffinity 8.1600132
REMARK minimizedRMSD -1
REMARK  1 active torsions:
REMARK  status: ('A' for Active; 'I' for Inactive)
REMARK    1  A    between atoms: C1_2  and  C2_3 
ROOT
ATOM      1  C2  UNL d   1      -0.251  -0.588   1.880  0.00  0.00    -0.081 A 
ATOM      2  C3  UNL d   1       0.230  -0.182   0.629  0.00  0.00     0.006 A 
ATOM      3  C4  UNL d   1       0.595   1.149   0.409  0.00  0.00     0.002 A 
ATOM      4  C5  UNL d   1       0.493   2.092   1.437  0.00  0.00    -0.080 A 
ATOM      5  C6  UNL d   1       0.911   3.517   1.223  0.00  0.00     0.076 C 
ATOM      6  C7  UNL d   1      -0.004   1.690   2.682  0.00  0.00     0.002 A 
ATOM      7  C8  UNL d   1      -0.370   0.360   2.902  0.00  0.00     0.006 A 
ENDROOT
BRANCH   1   8
ATOM      8  C1  UNL d   1      -0.585  -2.035   2.140  0.00  0.00     0.054 C 
ATOM      9  C   UNL d   1      -1.197  -2.222   3.521  0.00  0.00     0.018 C 
ENDBRANCH   1   8
TORSDOF 1
ENDMDL
