MODEL 1
REMARK minimizedAffinity 2.04170179
REMARK minimizedRMSD -1
REMARK  1 active torsions:
REMARK  status: ('A' for Active; 'I' for Inactive)
REMARK    1  A    between atoms: C1_2  and  C2_3 
ROOT
ATOM      1  C2  UNL d   1      -3.776   1.701   3.993  0.00  0.00    -0.081 A 
ATOM      2  C3  UNL d   1      -3.472   0.630   3.143  0.00  0.00     0.006 A 
ATOM      3  C4  UNL d   1      -2.300   0.640   2.383  0.00  0.00     0.002 A 
ATOM      4  C5  UNL d   1      -1.409   1.716   2.466  0.00  0.00    -0.080 A 
ATOM      5  C6  UNL d   1      -0.133   1.725   1.678  0.00  0.00     0.076 C 
ATOM      6  C7  UNL d   1      -1.721   2.793   3.301  0.00  0.00     0.002 A 
ATOM      7  C8  UNL d   1      -2.893   2.785   4.061  0.00  0.00     0.006 A 
ENDROOT
BRANCH   1   8
ATOM      8  C1  UNL d   1      -5.006   1.664   4.862  0.00  0.00     0.054 C 
ATOM      9  C   UNL d   1      -4.913   2.674   5.997  0.00  0.00     0.018 C 
ENDBRANCH   1   8
TORSDOF 1
ENDMDL
