MODEL 1
REMARK minimizedAffinity 7.41634035
REMARK minimizedRMSD -1
REMARK  1 active torsions:
REMARK  status: ('A' for Active; 'I' for Inactive)
REMARK    1  A    between atoms: C1_2  and  C2_3 
ROOT
ATOM      1  C2  UNL d   1      -3.541  -4.013  -0.766  0.00  0.00    -0.081 A 
ATOM      2  C3  UNL d   1      -2.588  -3.346   0.013  0.00  0.00     0.006 A 
ATOM      3  C4  UNL d   1      -1.404  -3.987   0.387  0.00  0.00     0.002 A 
ATOM      4  C5  UNL d   1      -1.150  -5.301  -0.019  0.00  0.00    -0.080 A 
ATOM      5  C6  UNL d   1       0.131  -5.990   0.349  0.00  0.00     0.076 C 
ATOM      6  C7  UNL d   1      -2.109  -5.974  -0.783  0.00  0.00     0.002 A 
ATOM      7  C8  UNL d   1      -3.293  -5.334  -1.156  0.00  0.00     0.006 A 
ENDROOT
BRANCH   1   8
ATOM      8  C1  UNL d   1      -4.789  -3.303  -1.225  0.00  0.00     0.054 C 
ATOM      9  C   UNL d   1      -4.465  -1.933  -1.802  0.00  0.00     0.018 C 
ENDBRANCH   1   8
TORSDOF 1
ENDMDL
