MODEL 1
REMARK minimizedAffinity -1.48581731
REMARK minimizedRMSD -1
REMARK  1 active torsions:
REMARK  status: ('A' for Active; 'I' for Inactive)
REMARK    1  A    between atoms: C1_2  and  C2_3 
ROOT
ATOM      1  C2  UNL d   1      -2.556   0.803   3.031  0.00  0.00    -0.081 A 
ATOM      2  C3  UNL d   1      -2.018   2.064   2.745  0.00  0.00     0.006 A 
ATOM      3  C4  UNL d   1      -0.852   2.180   1.984  0.00  0.00     0.002 A 
ATOM      4  C5  UNL d   1      -0.211   1.039   1.489  0.00  0.00    -0.080 A 
ATOM      5  C6  UNL d   1       1.024   1.151   0.645  0.00  0.00     0.076 C 
ATOM      6  C7  UNL d   1      -0.739  -0.221   1.790  0.00  0.00     0.002 A 
ATOM      7  C8  UNL d   1      -1.904  -0.338   2.551  0.00  0.00     0.006 A 
ENDROOT
BRANCH   1   8
ATOM      8  C1  UNL d   1      -3.848   0.677   3.797  0.00  0.00     0.054 C 
ATOM      9  C   UNL d   1      -4.229   1.994   4.459  0.00  0.00     0.018 C 
ENDBRANCH   1   8
TORSDOF 1
ENDMDL
