MODEL 1
REMARK minimizedAffinity 4.04464722
REMARK minimizedRMSD -1
REMARK  1 active torsions:
REMARK  status: ('A' for Active; 'I' for Inactive)
REMARK    1  A    between atoms: C1_2  and  C2_3 
ROOT
ATOM      1  C2  UNL d   1       1.646   0.206   0.331  0.00  0.00    -0.081 A 
ATOM      2  C3  UNL d   1       1.282   1.546   0.153  0.00  0.00     0.006 A 
ATOM      3  C4  UNL d   1       0.246   2.104   0.904  0.00  0.00     0.002 A 
ATOM      4  C5  UNL d   1      -0.439   1.335   1.851  0.00  0.00    -0.080 A 
ATOM      5  C6  UNL d   1      -1.533   1.930   2.686  0.00  0.00     0.076 C 
ATOM      6  C7  UNL d   1      -0.087  -0.009   2.017  0.00  0.00     0.002 A 
ATOM      7  C8  UNL d   1       0.949  -0.568   1.265  0.00  0.00     0.006 A 
ENDROOT
BRANCH   1   8
ATOM      8  C1  UNL d   1       2.806  -0.381  -0.432  0.00  0.00     0.054 C 
ATOM      9  C   UNL d   1       3.123   0.439  -1.674  0.00  0.00     0.018 C 
ENDBRANCH   1   8
TORSDOF 1
ENDMDL
