MODEL 1
REMARK minimizedAffinity 1.44330466
REMARK minimizedRMSD -1
REMARK  1 active torsions:
REMARK  status: ('A' for Active; 'I' for Inactive)
REMARK    1  A    between atoms: C1_2  and  C2_3 
ROOT
ATOM      1  C2  UNL d   1      -3.433   1.466   3.252  0.00  0.00    -0.081 A 
ATOM      2  C3  UNL d   1      -2.924   0.274   2.723  0.00  0.00     0.006 A 
ATOM      3  C4  UNL d   1      -1.750   0.280   1.966  0.00  0.00     0.002 A 
ATOM      4  C5  UNL d   1      -1.062   1.475   1.731  0.00  0.00    -0.080 A 
ATOM      5  C6  UNL d   1       0.215   1.491   0.946  0.00  0.00     0.076 C 
ATOM      6  C7  UNL d   1      -1.581   2.669   2.245  0.00  0.00     0.002 A 
ATOM      7  C8  UNL d   1      -2.754   2.664   3.001  0.00  0.00     0.006 A 
ENDROOT
BRANCH   1   8
ATOM      8  C1  UNL d   1      -4.663   1.455   4.123  0.00  0.00     0.054 C 
ATOM      9  C   UNL d   1      -4.598   2.541   5.187  0.00  0.00     0.018 C 
ENDBRANCH   1   8
TORSDOF 1
ENDMDL
