MODEL 1
REMARK minimizedAffinity -1.25425982
REMARK minimizedRMSD -1
REMARK  1 active torsions:
REMARK  status: ('A' for Active; 'I' for Inactive)
REMARK    1  A    between atoms: C1_2  and  C2_3 
ROOT
ATOM      1  C2  UNL d   1      -1.519  -4.865   0.357  0.00  0.00    -0.081 A 
ATOM      2  C3  UNL d   1      -2.456  -3.926  -0.090  0.00  0.00     0.006 A 
ATOM      3  C4  UNL d   1      -2.823  -2.850   0.722  0.00  0.00     0.002 A 
ATOM      4  C5  UNL d   1      -2.253  -2.691   1.990  0.00  0.00    -0.080 A 
ATOM      5  C6  UNL d   1      -2.616  -1.524   2.860  0.00  0.00     0.076 C 
ATOM      6  C7  UNL d   1      -1.330  -3.639   2.443  0.00  0.00     0.002 A 
ATOM      7  C8  UNL d   1      -0.963  -4.715   1.632  0.00  0.00     0.006 A 
ENDROOT
BRANCH   1   8
ATOM      8  C1  UNL d   1      -1.073  -5.990  -0.542  0.00  0.00     0.054 C 
ATOM      9  C   UNL d   1      -0.389  -5.460  -1.794  0.00  0.00     0.018 C 
ENDBRANCH   1   8
TORSDOF 1
ENDMDL
