MODEL 1
REMARK minimizedAffinity 10.70502
REMARK minimizedRMSD -1
REMARK  1 active torsions:
REMARK  status: ('A' for Active; 'I' for Inactive)
REMARK    1  A    between atoms: C1_2  and  C2_3 
ROOT
ATOM      1  C2  UNL d   1      -0.897   2.163   2.024  0.00  0.00    -0.081 A 
ATOM      2  C3  UNL d   1      -0.947   0.912   2.651  0.00  0.00     0.006 A 
ATOM      3  C4  UNL d   1      -0.094  -0.117   2.247  0.00  0.00     0.002 A 
ATOM      4  C5  UNL d   1       0.829   0.089   1.216  0.00  0.00    -0.080 A 
ATOM      5  C6  UNL d   1       1.772  -0.998   0.794  0.00  0.00     0.076 C 
ATOM      6  C7  UNL d   1       0.868   1.333   0.578  0.00  0.00     0.002 A 
ATOM      7  C8  UNL d   1       0.014   2.363   0.980  0.00  0.00     0.006 A 
ENDROOT
BRANCH   1   8
ATOM      8  C1  UNL d   1      -1.771   3.295   2.500  0.00  0.00     0.054 C 
ATOM      9  C   UNL d   1      -2.662   2.858   3.653  0.00  0.00     0.018 C 
ENDBRANCH   1   8
TORSDOF 1
ENDMDL
