MODEL 1
REMARK minimizedAffinity -4.92847538
REMARK minimizedRMSD -1
REMARK  1 active torsions:
REMARK  status: ('A' for Active; 'I' for Inactive)
REMARK    1  A    between atoms: C1_2  and  C2_3 
ROOT
ATOM      1  C2  UNL d   1      -0.843   0.930   1.512  0.00  0.00    -0.081 A 
ATOM      2  C3  UNL d   1      -1.009   2.287   1.818  0.00  0.00     0.006 A 
ATOM      3  C4  UNL d   1      -2.058   2.704   2.641  0.00  0.00     0.002 A 
ATOM      4  C5  UNL d   1      -2.953   1.773   3.177  0.00  0.00    -0.080 A 
ATOM      5  C6  UNL d   1      -4.065   2.204   4.086  0.00  0.00     0.076 C 
ATOM      6  C7  UNL d   1      -2.798   0.419   2.858  0.00  0.00     0.002 A 
ATOM      7  C8  UNL d   1      -1.750   0.001   2.035  0.00  0.00     0.006 A 
ENDROOT
BRANCH   1   8
ATOM      8  C1  UNL d   1       0.325   0.470   0.678  0.00  0.00     0.054 C 
ATOM      9  C   UNL d   1       0.945  -0.798   1.247  0.00  0.00     0.018 C 
ENDBRANCH   1   8
TORSDOF 1
ENDMDL
