MODEL 1
REMARK minimizedAffinity 11.2581282
REMARK minimizedRMSD -1
REMARK  1 active torsions:
REMARK  status: ('A' for Active; 'I' for Inactive)
REMARK    1  A    between atoms: C1_2  and  C2_3 
ROOT
ATOM      1  C2  UNL d   1      -0.963  -1.201  -0.874  0.00  0.00    -0.081 A 
ATOM      2  C3  UNL d   1       0.351  -1.683  -0.920  0.00  0.00     0.006 A 
ATOM      3  C4  UNL d   1       1.290  -1.272   0.030  0.00  0.00     0.002 A 
ATOM      4  C5  UNL d   1       0.929  -0.378   1.044  0.00  0.00    -0.080 A 
ATOM      5  C6  UNL d   1       1.919   0.048   2.087  0.00  0.00     0.076 C 
ATOM      6  C7  UNL d   1      -0.379   0.118   1.079  0.00  0.00     0.002 A 
ATOM      7  C8  UNL d   1      -1.318  -0.293   0.130  0.00  0.00     0.006 A 
ENDROOT
BRANCH   1   8
ATOM      8  C1  UNL d   1      -1.994  -1.692  -1.858  0.00  0.00     0.054 C 
ATOM      9  C   UNL d   1      -2.781  -2.867  -1.293  0.00  0.00     0.018 C 
ENDBRANCH   1   8
TORSDOF 1
ENDMDL
