MODEL 1
REMARK minimizedAffinity 7.27084398
REMARK minimizedRMSD -1
REMARK  1 active torsions:
REMARK  status: ('A' for Active; 'I' for Inactive)
REMARK    1  A    between atoms: C1_2  and  C2_3 
ROOT
ATOM      1  C2  UNL d   1       3.543  -1.604   3.965  0.00  0.00    -0.081 A 
ATOM      2  C3  UNL d   1       2.360  -2.353   3.987  0.00  0.00     0.006 A 
ATOM      3  C4  UNL d   1       1.334  -2.082   3.078  0.00  0.00     0.002 A 
ATOM      4  C5  UNL d   1       1.477  -1.065   2.129  0.00  0.00    -0.080 A 
ATOM      5  C6  UNL d   1       0.395  -0.784   1.129  0.00  0.00     0.076 C 
ATOM      6  C7  UNL d   1       2.651  -0.305   2.119  0.00  0.00     0.002 A 
ATOM      7  C8  UNL d   1       3.677  -0.574   3.027  0.00  0.00     0.006 A 
ENDROOT
BRANCH   1   8
ATOM      8  C1  UNL d   1       4.677  -1.936   4.901  0.00  0.00     0.054 C 
ATOM      9  C   UNL d   1       6.000  -2.035   4.154  0.00  0.00     0.018 C 
ENDBRANCH   1   8
TORSDOF 1
ENDMDL
