MODEL 1
REMARK minimizedAffinity 6.63931513
REMARK minimizedRMSD -1
REMARK  3 active torsions:
REMARK  status: ('A' for Active; 'I' for Inactive)
REMARK    1  A    between atoms: C3'_2  and  C2'_3 
REMARK    2  A    between atoms: C2'_3  and  C1'_4 
REMARK    3  A    between atoms: C1'_4  and  C1_5 
ROOT
ATOM      1  C1  N4B d   1      -2.858   0.454   3.213  0.00  0.00    -0.075 A 
ATOM      2  C2  N4B d   1      -3.852  -0.395   3.747  0.00  0.00     0.002 A 
ATOM      3  C3  N4B d   1      -4.925   0.140   4.416  0.00  0.00     0.002 A 
ATOM      4  C4  N4B d   1      -5.015   1.515   4.580  0.00  0.00    -0.004 A 
ATOM      5  C5  N4B d   1      -4.063   2.329   4.040  0.00  0.00     0.002 A 
ATOM      6  C6  N4B d   1      -2.981   1.805   3.361  0.00  0.00     0.002 A 
ENDROOT
BRANCH   1   7
ATOM      7  C1' N4B d   1      -1.623  -0.090   2.548  0.00  0.00     0.057 C 
BRANCH   7   8
ATOM      8  C2' N4B d   1      -0.676   1.064   2.229  0.00  0.00     0.009 C 
BRANCH   8   9
ATOM      9  C3' N4B d   1       0.058   0.850   0.917  0.00  0.00     0.004 C 
ATOM     10  C4' N4B d   1      -0.775   1.207  -0.279  0.00  0.00     0.003 C 
ENDBRANCH   8   9
ENDBRANCH   7   8
ENDBRANCH   1   7
TORSDOF 3
ENDMDL
