MODEL 1
REMARK minimizedAffinity 9.82047558
REMARK minimizedRMSD -1
REMARK  3 active torsions:
REMARK  status: ('A' for Active; 'I' for Inactive)
REMARK    1  A    between atoms: C3'_2  and  C2'_3 
REMARK    2  A    between atoms: C2'_3  and  C1'_4 
REMARK    3  A    between atoms: C1'_4  and  C1_5 
ROOT
ATOM      1  C1  N4B d   1      -3.336   0.638   3.090  0.00  0.00    -0.075 A 
ATOM      2  C2  N4B d   1      -4.414  -0.209   3.427  0.00  0.00     0.002 A 
ATOM      3  C3  N4B d   1      -5.557   0.318   3.978  0.00  0.00     0.002 A 
ATOM      4  C4  N4B d   1      -5.636   1.682   4.217  0.00  0.00    -0.004 A 
ATOM      5  C5  N4B d   1      -4.600   2.497   3.865  0.00  0.00     0.002 A 
ATOM      6  C6  N4B d   1      -3.448   1.981   3.307  0.00  0.00     0.002 A 
ENDROOT
BRANCH   1   7
ATOM      7  C1' N4B d   1      -2.035   0.097   2.566  0.00  0.00     0.057 C 
BRANCH   7   8
ATOM      8  C2' N4B d   1      -1.167   1.257   2.087  0.00  0.00     0.009 C 
BRANCH   8   9
ATOM      9  C3' N4B d   1       0.146   0.777   1.492  0.00  0.00     0.004 C 
ATOM     10  C4' N4B d   1       0.326   1.198   0.065  0.00  0.00     0.003 C 
ENDBRANCH   8   9
ENDBRANCH   7   8
ENDBRANCH   1   7
TORSDOF 3
ENDMDL
