MODEL 1
REMARK minimizedAffinity 2.65915275
REMARK minimizedRMSD -1
REMARK  3 active torsions:
REMARK  status: ('A' for Active; 'I' for Inactive)
REMARK    1  A    between atoms: C3'_2  and  C2'_3 
REMARK    2  A    between atoms: C2'_3  and  C1'_4 
REMARK    3  A    between atoms: C1'_4  and  C1_5 
ROOT
ATOM      1  C1  N4B d   1       2.095   1.741   0.782  0.00  0.00    -0.075 A 
ATOM      2  C2  N4B d   1       2.660   0.687   1.533  0.00  0.00     0.002 A 
ATOM      3  C3  N4B d   1       1.882  -0.380   1.912  0.00  0.00     0.002 A 
ATOM      4  C4  N4B d   1       0.539  -0.405   1.569  0.00  0.00    -0.004 A 
ATOM      5  C5  N4B d   1       0.007   0.604   0.822  0.00  0.00     0.002 A 
ATOM      6  C6  N4B d   1       0.777   1.681   0.431  0.00  0.00     0.002 A 
ENDROOT
BRANCH   1   7
ATOM      7  C1' N4B d   1       2.884   2.969   0.419  0.00  0.00     0.057 C 
BRANCH   7   8
ATOM      8  C2' N4B d   1       2.349   3.538  -0.892  0.00  0.00     0.009 C 
BRANCH   8   9
ATOM      9  C3' N4B d   1       2.696   5.008  -1.057  0.00  0.00     0.004 C 
ATOM     10  C4' N4B d   1       1.887   5.679  -2.126  0.00  0.00     0.003 C 
ENDBRANCH   8   9
ENDBRANCH   7   8
ENDBRANCH   1   7
TORSDOF 3
ENDMDL
