MODEL 1
REMARK minimizedAffinity 2.46787953
REMARK minimizedRMSD -1
REMARK  3 active torsions:
REMARK  status: ('A' for Active; 'I' for Inactive)
REMARK    1  A    between atoms: C3'_2  and  C2'_3 
REMARK    2  A    between atoms: C2'_3  and  C1'_4 
REMARK    3  A    between atoms: C1'_4  and  C1_5 
ROOT
ATOM      1  C1  N4B d   1       0.015  -5.910   3.318  0.00  0.00    -0.075 A 
ATOM      2  C2  N4B d   1       0.407  -5.844   4.674  0.00  0.00     0.002 A 
ATOM      3  C3  N4B d   1       1.740  -5.849   5.004  0.00  0.00     0.002 A 
ATOM      4  C4  N4B d   1       2.694  -5.938   4.002  0.00  0.00    -0.004 A 
ATOM      5  C5  N4B d   1       2.308  -5.975   2.694  0.00  0.00     0.002 A 
ATOM      6  C6  N4B d   1       0.972  -5.967   2.347  0.00  0.00     0.002 A 
ENDROOT
BRANCH   1   7
ATOM      7  C1' N4B d   1      -1.431  -5.993   2.913  0.00  0.00     0.057 C 
BRANCH   7   8
ATOM      8  C2' N4B d   1      -1.526  -5.991   1.390  0.00  0.00     0.009 C 
BRANCH   8   9
ATOM      9  C3' N4B d   1      -2.896  -5.550   0.906  0.00  0.00     0.004 C 
ATOM     10  C4' N4B d   1      -4.004  -6.000   1.811  0.00  0.00     0.003 C 
ENDBRANCH   8   9
ENDBRANCH   7   8
ENDBRANCH   1   7
TORSDOF 3
ENDMDL
