MODEL 1
REMARK minimizedAffinity 5.78186417
REMARK minimizedRMSD -1
REMARK  3 active torsions:
REMARK  status: ('A' for Active; 'I' for Inactive)
REMARK    1  A    between atoms: C3'_2  and  C2'_3 
REMARK    2  A    between atoms: C2'_3  and  C1'_4 
REMARK    3  A    between atoms: C1'_4  and  C1_5 
ROOT
ATOM      1  C1  N4B d   1      -0.144  -2.180  -3.531  0.00  0.00    -0.075 A 
ATOM      2  C2  N4B d   1      -0.887  -3.322  -3.902  0.00  0.00     0.002 A 
ATOM      3  C3  N4B d   1      -2.188  -3.461  -3.484  0.00  0.00     0.002 A 
ATOM      4  C4  N4B d   1      -2.758  -2.483  -2.682  0.00  0.00    -0.004 A 
ATOM      5  C5  N4B d   1      -2.042  -1.371  -2.350  0.00  0.00     0.002 A 
ATOM      6  C6  N4B d   1      -0.735  -1.217  -2.766  0.00  0.00     0.002 A 
ENDROOT
BRANCH   1   7
ATOM      7  C1' N4B d   1       1.308  -2.026  -3.892  0.00  0.00     0.057 C 
BRANCH   7   8
ATOM      8  C2' N4B d   1       2.013  -1.226  -2.801  0.00  0.00     0.009 C 
BRANCH   8   9
ATOM      9  C3' N4B d   1       3.432  -0.855  -3.196  0.00  0.00     0.004 C 
ATOM     10  C4' N4B d   1       3.599   0.614  -3.451  0.00  0.00     0.003 C 
ENDBRANCH   8   9
ENDBRANCH   7   8
ENDBRANCH   1   7
TORSDOF 3
ENDMDL
