MODEL 1
REMARK minimizedAffinity 6.78447104
REMARK minimizedRMSD -1
REMARK  3 active torsions:
REMARK  status: ('A' for Active; 'I' for Inactive)
REMARK    1  A    between atoms: C3'_2  and  C2'_3 
REMARK    2  A    between atoms: C2'_3  and  C1'_4 
REMARK    3  A    between atoms: C1'_4  and  C1_5 
ROOT
ATOM      1  C1  N4B d   1      -2.529  -5.972   2.972  0.00  0.00    -0.075 A 
ATOM      2  C2  N4B d   1      -3.476  -5.984   4.020  0.00  0.00     0.002 A 
ATOM      3  C3  N4B d   1      -4.819  -5.991   3.732  0.00  0.00     0.002 A 
ATOM      4  C4  N4B d   1      -5.237  -5.966   2.410  0.00  0.00    -0.004 A 
ATOM      5  C5  N4B d   1      -4.316  -5.980   1.403  0.00  0.00     0.002 A 
ATOM      6  C6  N4B d   1      -2.963  -5.978   1.678  0.00  0.00     0.002 A 
ENDROOT
BRANCH   1   7
ATOM      7  C1' N4B d   1      -1.052  -5.878   3.238  0.00  0.00     0.057 C 
BRANCH   7   8
ATOM      8  C2' N4B d   1      -0.316  -5.688   1.915  0.00  0.00     0.009 C 
BRANCH   8   9
ATOM      9  C3' N4B d   1       1.188  -5.828   2.076  0.00  0.00     0.004 C 
ATOM     10  C4' N4B d   1       1.628  -5.756   3.508  0.00  0.00     0.003 C 
ENDBRANCH   8   9
ENDBRANCH   7   8
ENDBRANCH   1   7
TORSDOF 3
ENDMDL
