MODEL 1
REMARK minimizedAffinity 12.0094595
REMARK minimizedRMSD -1
REMARK  3 active torsions:
REMARK  status: ('A' for Active; 'I' for Inactive)
REMARK    1  A    between atoms: C3'_2  and  C2'_3 
REMARK    2  A    between atoms: C2'_3  and  C1'_4 
REMARK    3  A    between atoms: C1'_4  and  C1_5 
ROOT
ATOM      1  C1  N4B d   1       2.170   0.025  -2.137  0.00  0.00    -0.075 A 
ATOM      2  C2  N4B d   1       2.789   1.255  -2.449  0.00  0.00     0.002 A 
ATOM      3  C3  N4B d   1       3.837   1.292  -3.335  0.00  0.00     0.002 A 
ATOM      4  C4  N4B d   1       4.295   0.113  -3.905  0.00  0.00    -0.004 A 
ATOM      5  C5  N4B d   1       3.676  -1.068  -3.618  0.00  0.00     0.002 A 
ATOM      6  C6  N4B d   1       2.619  -1.119  -2.732  0.00  0.00     0.002 A 
ENDROOT
BRANCH   1   7
ATOM      7  C1' N4B d   1       1.077  -0.077  -1.109  0.00  0.00     0.057 C 
BRANCH   7   8
ATOM      8  C2' N4B d   1       0.893   1.281  -0.438  0.00  0.00     0.009 C 
BRANCH   8   9
ATOM      9  C3' N4B d   1      -0.484   1.424   0.187  0.00  0.00     0.004 C 
ATOM     10  C4' N4B d   1      -0.449   1.379   1.686  0.00  0.00     0.003 C 
ENDBRANCH   8   9
ENDBRANCH   7   8
ENDBRANCH   1   7
TORSDOF 3
ENDMDL
