MODEL 1
REMARK minimizedAffinity -1.24829817
REMARK minimizedRMSD -1
REMARK  0 active torsions:
REMARK  status: ('A' for Active; 'I' for Inactive)
ROOT
ATOM      1  C2' OXE d   1      -2.729   3.104   1.000  0.00  0.00     0.078 C 
ATOM      2  C1' OXE d   1      -0.750   2.510  -0.900  0.00  0.00     0.078 C 
ATOM      3  C1  OXE d   1      -0.864   1.607   0.303  0.00  0.00    -0.078 A 
ATOM      4  C2  OXE d   1      -1.804   1.932   1.250  0.00  0.00    -0.078 A 
ATOM      5  C3  OXE d   1      -1.988   1.102   2.352  0.00  0.00     0.003 A 
ATOM      6  C4  OXE d   1      -1.122   0.026   2.582  0.00  0.00    -0.002 A 
ATOM      7  C5  OXE d   1      -0.131  -0.299   1.649  0.00  0.00    -0.002 A 
ATOM      8  C6  OXE d   1      -0.017   0.454   0.486  0.00  0.00     0.003 A 
ENDROOT
TORSDOF 0
ENDMDL
