MODEL 1
REMARK minimizedAffinity -1.18339908
REMARK minimizedRMSD -1
REMARK  0 active torsions:
REMARK  status: ('A' for Active; 'I' for Inactive)
ROOT
ATOM      1  C2' OXE d   1       1.163   0.323  -0.505  0.00  0.00     0.078 C 
ATOM      2  C1' OXE d   1       0.610  -0.347   2.165  0.00  0.00     0.078 C 
ATOM      3  C1  OXE d   1      -0.272   0.680   1.500  0.00  0.00    -0.078 A 
ATOM      4  C2  OXE d   1       0.035   1.036   0.208  0.00  0.00    -0.078 A 
ATOM      5  C3  OXE d   1      -0.780   1.938  -0.470  0.00  0.00     0.003 A 
ATOM      6  C4  OXE d   1      -1.816   2.600   0.200  0.00  0.00    -0.002 A 
ATOM      7  C5  OXE d   1      -2.120   2.282   1.528  0.00  0.00    -0.002 A 
ATOM      8  C6  OXE d   1      -1.387   1.295   2.177  0.00  0.00     0.003 A 
ENDROOT
TORSDOF 0
ENDMDL
