MODEL 1
REMARK minimizedAffinity 0.404695451
REMARK minimizedRMSD -1
REMARK  0 active torsions:
REMARK  status: ('A' for Active; 'I' for Inactive)
ROOT
ATOM      1  C2' OXE d   1      -3.230   0.624   0.672  0.00  0.00     0.078 C 
ATOM      2  C1' OXE d   1      -3.315   3.190   1.806  0.00  0.00     0.078 C 
ATOM      3  C1  OXE d   1      -2.120   2.324   2.115  0.00  0.00    -0.078 A 
ATOM      4  C2  OXE d   1      -2.109   1.052   1.594  0.00  0.00    -0.078 A 
ATOM      5  C3  OXE d   1      -1.005   0.231   1.803  0.00  0.00     0.003 A 
ATOM      6  C4  OXE d   1       0.023   0.631   2.665  0.00  0.00    -0.002 A 
ATOM      7  C5  OXE d   1       0.013   1.907   3.238  0.00  0.00    -0.002 A 
ATOM      8  C6  OXE d   1      -1.028   2.780   2.940  0.00  0.00     0.003 A 
ENDROOT
TORSDOF 0
ENDMDL
