MODEL 1
REMARK minimizedAffinity 6.83298826
REMARK minimizedRMSD -1
REMARK  0 active torsions:
REMARK  status: ('A' for Active; 'I' for Inactive)
ROOT
ATOM      1  C2' OXE d   1      -1.762   2.828  -1.981  0.00  0.00     0.078 C 
ATOM      2  C1' OXE d   1       0.574   1.636  -0.980  0.00  0.00     0.078 C 
ATOM      3  C1  OXE d   1      -0.528   1.956  -0.001  0.00  0.00    -0.078 A 
ATOM      4  C2  OXE d   1      -1.648   2.581  -0.493  0.00  0.00    -0.078 A 
ATOM      5  C3  OXE d   1      -2.717   2.849   0.358  0.00  0.00     0.003 A 
ATOM      6  C4  OXE d   1      -2.600   2.627   1.735  0.00  0.00    -0.002 A 
ATOM      7  C5  OXE d   1      -1.451   2.027   2.262  0.00  0.00    -0.002 A 
ATOM      8  C6  OXE d   1      -0.426   1.647   1.404  0.00  0.00     0.003 A 
ENDROOT
TORSDOF 0
ENDMDL
