MODEL 1
REMARK minimizedAffinity -1.75217414
REMARK minimizedRMSD -1
REMARK  0 active torsions:
REMARK  status: ('A' for Active; 'I' for Inactive)
ROOT
ATOM      1  C2' OXE d   1      -1.396   0.675   2.749  0.00  0.00     0.078 C 
ATOM      2  C1' OXE d   1      -2.850   2.599   1.313  0.00  0.00     0.078 C 
ATOM      3  C1  OXE d   1      -1.614   2.025   0.667  0.00  0.00    -0.078 A 
ATOM      4  C2  OXE d   1      -0.883   1.119   1.396  0.00  0.00    -0.078 A 
ATOM      5  C3  OXE d   1       0.236   0.518   0.826  0.00  0.00     0.003 A 
ATOM      6  C4  OXE d   1       0.710   0.942  -0.422  0.00  0.00    -0.002 A 
ATOM      7  C5  OXE d   1       0.002   1.893  -1.164  0.00  0.00    -0.002 A 
ATOM      8  C6  OXE d   1      -1.183   2.412  -0.653  0.00  0.00     0.003 A 
ENDROOT
TORSDOF 0
ENDMDL
