MODEL 1
REMARK minimizedAffinity 12.3623152
REMARK minimizedRMSD -1
REMARK  0 active torsions:
REMARK  status: ('A' for Active; 'I' for Inactive)
ROOT
ATOM      1  C2' OXE d   1       2.462  -2.629  -5.256  0.00  0.00     0.078 C 
ATOM      2  C1' OXE d   1       4.712  -0.952  -5.304  0.00  0.00     0.078 C 
ATOM      3  C1  OXE d   1       4.802  -2.227  -4.503  0.00  0.00    -0.078 A 
ATOM      4  C2  OXE d   1       3.680  -3.019  -4.447  0.00  0.00    -0.078 A 
ATOM      5  C3  OXE d   1       3.727  -4.233  -3.767  0.00  0.00     0.003 A 
ATOM      6  C4  OXE d   1       4.854  -4.581  -3.014  0.00  0.00    -0.002 A 
ATOM      7  C5  OXE d   1       5.993  -3.769  -3.025  0.00  0.00    -0.002 A 
ATOM      8  C6  OXE d   1       5.999  -2.613  -3.797  0.00  0.00     0.003 A 
ENDROOT
TORSDOF 0
ENDMDL
