MODEL 1
REMARK minimizedAffinity 1.37442136
REMARK minimizedRMSD -1
REMARK  0 active torsions:
REMARK  status: ('A' for Active; 'I' for Inactive)
ROOT
ATOM      1  C2' OXE d   1      -3.092   2.701   0.997  0.00  0.00     0.078 C 
ATOM      2  C1' OXE d   1      -2.072   0.974   2.961  0.00  0.00     0.078 C 
ATOM      3  C1  OXE d   1      -1.249   1.187   1.715  0.00  0.00    -0.078 A 
ATOM      4  C2  OXE d   1      -1.777   1.997   0.739  0.00  0.00    -0.078 A 
ATOM      5  C3  OXE d   1      -1.035   2.270  -0.406  0.00  0.00     0.003 A 
ATOM      6  C4  OXE d   1       0.175   1.607  -0.641  0.00  0.00    -0.002 A 
ATOM      7  C5  OXE d   1       0.713   0.747   0.322  0.00  0.00    -0.002 A 
ATOM      8  C6  OXE d   1       0.035   0.559   1.522  0.00  0.00     0.003 A 
ENDROOT
TORSDOF 0
ENDMDL
