MODEL 1
REMARK minimizedAffinity 5.45082474
REMARK minimizedRMSD -1
REMARK  0 active torsions:
REMARK  status: ('A' for Active; 'I' for Inactive)
ROOT
ATOM      1  C2' OXE d   1       0.323   0.946  -0.746  0.00  0.00     0.078 C 
ATOM      2  C1' OXE d   1       0.621   0.265   1.961  0.00  0.00     0.078 C 
ATOM      3  C1  OXE d   1      -0.596   1.063   1.567  0.00  0.00    -0.078 A 
ATOM      4  C2  OXE d   1      -0.710   1.432   0.248  0.00  0.00    -0.078 A 
ATOM      5  C3  OXE d   1      -1.841   2.122  -0.180  0.00  0.00     0.003 A 
ATOM      6  C4  OXE d   1      -2.787   2.576   0.747  0.00  0.00    -0.002 A 
ATOM      7  C5  OXE d   1      -2.670   2.245   2.102  0.00  0.00    -0.002 A 
ATOM      8  C6  OXE d   1      -1.605   1.455   2.520  0.00  0.00     0.003 A 
ENDROOT
TORSDOF 0
ENDMDL
