MODEL 1
REMARK minimizedAffinity 13.9130564
REMARK minimizedRMSD -1
REMARK  0 active torsions:
REMARK  status: ('A' for Active; 'I' for Inactive)
ROOT
ATOM      1  C2' OXE d   1      -2.281  -0.470   3.063  0.00  0.00     0.078 C 
ATOM      2  C1' OXE d   1      -2.853   1.935   1.734  0.00  0.00     0.078 C 
ATOM      3  C1  OXE d   1      -1.493   1.789   2.370  0.00  0.00    -0.078 A 
ATOM      4  C2  OXE d   1      -1.239   0.627   3.058  0.00  0.00    -0.078 A 
ATOM      5  C3  OXE d   1       0.018   0.418   3.618  0.00  0.00     0.003 A 
ATOM      6  C4  OXE d   1       0.973   1.443   3.618  0.00  0.00    -0.002 A 
ATOM      7  C5  OXE d   1       0.720   2.649   2.957  0.00  0.00    -0.002 A 
ATOM      8  C6  OXE d   1      -0.490   2.822   2.293  0.00  0.00     0.003 A 
ENDROOT
TORSDOF 0
ENDMDL
