MODEL 1
REMARK minimizedAffinity 9.04030514
REMARK minimizedRMSD -1
REMARK  0 active torsions:
REMARK  status: ('A' for Active; 'I' for Inactive)
ROOT
ATOM      1  C2' OXE d   1      -2.070   2.097  -0.155  0.00  0.00     0.078 C 
ATOM      2  C1' OXE d   1      -2.964   0.117  -1.932  0.00  0.00     0.078 C 
ATOM      3  C1  OXE d   1      -1.501   0.483  -1.965  0.00  0.00    -0.078 A 
ATOM      4  C2  OXE d   1      -1.081   1.486  -1.124  0.00  0.00    -0.078 A 
ATOM      5  C3  OXE d   1       0.268   1.825  -1.075  0.00  0.00     0.003 A 
ATOM      6  C4  OXE d   1       1.174   1.262  -1.982  0.00  0.00    -0.002 A 
ATOM      7  C5  OXE d   1       0.760   0.267  -2.874  0.00  0.00    -0.002 A 
ATOM      8  C6  OXE d   1      -0.562  -0.163  -2.849  0.00  0.00     0.003 A 
ENDROOT
TORSDOF 0
ENDMDL
