MODEL 1
REMARK minimizedAffinity 7.55132627
REMARK minimizedRMSD -1
REMARK  0 active torsions:
REMARK  status: ('A' for Active; 'I' for Inactive)
ROOT
ATOM      1  C2' OXE d   1       5.422  -5.988  -1.425  0.00  0.00     0.078 C 
ATOM      2  C1' OXE d   1       5.455  -5.999   1.382  0.00  0.00     0.078 C 
ATOM      3  C1  OXE d   1       5.627  -4.675   0.682  0.00  0.00    -0.078 A 
ATOM      4  C2  OXE d   1       5.657  -4.685  -0.692  0.00  0.00    -0.078 A 
ATOM      5  C3  OXE d   1       5.759  -3.484  -1.388  0.00  0.00     0.003 A 
ATOM      6  C4  OXE d   1       5.986  -2.284  -0.703  0.00  0.00    -0.002 A 
ATOM      7  C5  OXE d   1       5.999  -2.257   0.696  0.00  0.00    -0.002 A 
ATOM      8  C6  OXE d   1       5.779  -3.435   1.402  0.00  0.00     0.003 A 
ENDROOT
TORSDOF 0
ENDMDL
