MODEL 1
REMARK minimizedAffinity 2.12971139
REMARK minimizedRMSD -1
REMARK  0 active torsions:
REMARK  status: ('A' for Active; 'I' for Inactive)
ROOT
ATOM      1  C2' OXE d   1       1.914  -3.590   0.857  0.00  0.00     0.078 C 
ATOM      2  C1' OXE d   1       3.979  -5.314   1.659  0.00  0.00     0.078 C 
ATOM      3  C1  OXE d   1       4.353  -3.912   1.247  0.00  0.00    -0.078 A 
ATOM      4  C2  OXE d   1       3.342  -3.090   0.812  0.00  0.00    -0.078 A 
ATOM      5  C3  OXE d   1       3.624  -1.770   0.473  0.00  0.00     0.003 A 
ATOM      6  C4  OXE d   1       4.949  -1.318   0.424  0.00  0.00    -0.002 A 
ATOM      7  C5  OXE d   1       5.998  -2.152   0.826  0.00  0.00    -0.002 A 
ATOM      8  C6  OXE d   1       5.713  -3.435   1.279  0.00  0.00     0.003 A 
ENDROOT
TORSDOF 0
ENDMDL
