MODEL 1
REMARK minimizedAffinity 0.779396772
REMARK minimizedRMSD -1
REMARK  0 active torsions:
REMARK  status: ('A' for Active; 'I' for Inactive)
ROOT
ATOM      1  C2' OXE d   1       2.443  -1.138   1.501  0.00  0.00     0.078 C 
ATOM      2  C1' OXE d   1       1.972  -3.823   0.830  0.00  0.00     0.078 C 
ATOM      3  C1  OXE d   1       3.400  -3.337   0.831  0.00  0.00    -0.078 A 
ATOM      4  C2  OXE d   1       3.617  -2.011   1.115  0.00  0.00    -0.078 A 
ATOM      5  C3  OXE d   1       4.920  -1.524   1.182  0.00  0.00     0.003 A 
ATOM      6  C4  OXE d   1       6.000  -2.335   0.814  0.00  0.00    -0.002 A 
ATOM      7  C5  OXE d   1       5.797  -3.679   0.483  0.00  0.00    -0.002 A 
ATOM      8  C6  OXE d   1       4.511  -4.206   0.528  0.00  0.00     0.003 A 
ENDROOT
TORSDOF 0
ENDMDL
