MODEL 1
REMARK minimizedAffinity 3.8744626
REMARK minimizedRMSD -1
REMARK  0 active torsions:
REMARK  status: ('A' for Active; 'I' for Inactive)
ROOT
ATOM      1  C2' OXE d   1       0.012   0.307  -0.962  0.00  0.00     0.078 C 
ATOM      2  C1' OXE d   1      -1.082   1.490   1.337  0.00  0.00     0.078 C 
ATOM      3  C1  OXE d   1      -0.359   2.385   0.361  0.00  0.00    -0.078 A 
ATOM      4  C2  OXE d   1       0.214   1.790  -0.737  0.00  0.00    -0.078 A 
ATOM      5  C3  OXE d   1       0.845   2.576  -1.697  0.00  0.00     0.003 A 
ATOM      6  C4  OXE d   1       1.036   3.946  -1.476  0.00  0.00    -0.002 A 
ATOM      7  C5  OXE d   1       0.496   4.565  -0.344  0.00  0.00    -0.002 A 
ATOM      8  C6  OXE d   1      -0.239   3.808   0.561  0.00  0.00     0.003 A 
ENDROOT
TORSDOF 0
ENDMDL
