MODEL 1
REMARK minimizedAffinity 9.72507572
REMARK minimizedRMSD -1
REMARK  0 active torsions:
REMARK  status: ('A' for Active; 'I' for Inactive)
ROOT
ATOM      1  C2' OXE d   1      -2.099   2.119   0.104  0.00  0.00     0.078 C 
ATOM      2  C1' OXE d   1      -3.689   0.193  -1.177  0.00  0.00     0.078 C 
ATOM      3  C1  OXE d   1      -2.218   0.223  -1.507  0.00  0.00    -0.078 A 
ATOM      4  C2  OXE d   1      -1.456   1.199  -0.911  0.00  0.00    -0.078 A 
ATOM      5  C3  OXE d   1      -0.084   1.238  -1.139  0.00  0.00     0.003 A 
ATOM      6  C4  OXE d   1       0.501   0.390  -2.087  0.00  0.00    -0.002 A 
ATOM      7  C5  OXE d   1      -0.264  -0.586  -2.735  0.00  0.00    -0.002 A 
ATOM      8  C6  OXE d   1      -1.614  -0.710  -2.426  0.00  0.00     0.003 A 
ENDROOT
TORSDOF 0
ENDMDL
