MODEL 1
REMARK minimizedAffinity 8.26563358
REMARK minimizedRMSD -1
REMARK  0 active torsions:
REMARK  status: ('A' for Active; 'I' for Inactive)
ROOT
ATOM      1  C2' OXE d   1       0.535   2.116   3.211  0.00  0.00     0.078 C 
ATOM      2  C1' OXE d   1      -1.449   0.139   3.395  0.00  0.00     0.078 C 
ATOM      3  C1  OXE d   1      -1.700   1.304   2.471  0.00  0.00    -0.078 A 
ATOM      4  C2  OXE d   1      -0.744   2.291   2.423  0.00  0.00    -0.078 A 
ATOM      5  C3  OXE d   1      -0.901   3.360   1.546  0.00  0.00     0.003 A 
ATOM      6  C4  OXE d   1      -2.092   3.519   0.827  0.00  0.00    -0.002 A 
ATOM      7  C5  OXE d   1      -3.096   2.546   0.892  0.00  0.00    -0.002 A 
ATOM      8  C6  OXE d   1      -2.898   1.414   1.675  0.00  0.00     0.003 A 
ENDROOT
TORSDOF 0
ENDMDL
