MODEL 1
REMARK minimizedAffinity 0.0762236863
REMARK minimizedRMSD -1
REMARK  0 active torsions:
REMARK  status: ('A' for Active; 'I' for Inactive)
ROOT
ATOM      1  C2' OXE d   1       0.449   0.074   2.825  0.00  0.00     0.078 C 
ATOM      2  C1' OXE d   1      -2.140  -0.871   3.355  0.00  0.00     0.078 C 
ATOM      3  C1  OXE d   1      -2.001   0.329   2.453  0.00  0.00    -0.078 A 
ATOM      4  C2  OXE d   1      -0.733   0.813   2.236  0.00  0.00    -0.078 A 
ATOM      5  C3  OXE d   1      -0.543   1.885   1.368  0.00  0.00     0.003 A 
ATOM      6  C4  OXE d   1      -1.642   2.569   0.835  0.00  0.00    -0.002 A 
ATOM      7  C5  OXE d   1      -2.944   2.117   1.075  0.00  0.00    -0.002 A 
ATOM      8  C6  OXE d   1      -3.138   0.975   1.845  0.00  0.00     0.003 A 
ENDROOT
TORSDOF 0
ENDMDL
