MODEL 1
REMARK minimizedAffinity 6.24497175
REMARK minimizedRMSD -1
REMARK  0 active torsions:
REMARK  status: ('A' for Active; 'I' for Inactive)
ROOT
ATOM      1  C4' PXY d   1       2.939   0.362  -2.391  0.00  0.00     0.077 C 
ATOM      2  C1' PXY d   1       2.861   2.445   3.001  0.00  0.00     0.077 C 
ATOM      3  C1  PXY d   1       2.889   1.909   1.583  0.00  0.00    -0.082 A 
ATOM      4  C2  PXY d   1       1.937   1.084   1.177  0.00  0.00     0.003 A 
ATOM      5  C3  PXY d   1       1.965   0.564  -0.092  0.00  0.00     0.003 A 
ATOM      6  C4  PXY d   1       2.946   0.935  -0.971  0.00  0.00    -0.082 A 
ATOM      7  C5  PXY d   1       3.914   1.786  -0.568  0.00  0.00     0.003 A 
ATOM      8  C6  PXY d   1       3.891   2.269   0.737  0.00  0.00     0.003 A 
ENDROOT
TORSDOF 0
ENDMDL
