MODEL 1
REMARK minimizedAffinity 1.41217005
REMARK minimizedRMSD -1
REMARK  0 active torsions:
REMARK  status: ('A' for Active; 'I' for Inactive)
ROOT
ATOM      1  C4' PXY d   1       0.812   2.981   4.241  0.00  0.00     0.077 C 
ATOM      2  C1' PXY d   1       2.523   0.716  -0.795  0.00  0.00     0.077 C 
ATOM      3  C1  PXY d   1       2.086   1.309   0.530  0.00  0.00    -0.082 A 
ATOM      4  C2  PXY d   1       0.813   1.250   0.885  0.00  0.00     0.003 A 
ATOM      5  C3  PXY d   1       0.396   1.810   2.066  0.00  0.00     0.003 A 
ATOM      6  C4  PXY d   1       1.299   2.388   2.916  0.00  0.00    -0.082 A 
ATOM      7  C5  PXY d   1       2.602   2.442   2.566  0.00  0.00     0.003 A 
ATOM      8  C6  PXY d   1       2.999   1.905   1.345  0.00  0.00     0.003 A 
ENDROOT
TORSDOF 0
ENDMDL
