MODEL 1
REMARK minimizedAffinity 9.24585152
REMARK minimizedRMSD -1
REMARK  0 active torsions:
REMARK  status: ('A' for Active; 'I' for Inactive)
ROOT
ATOM      1  C4' PXY d   1       2.991   2.262   2.111  0.00  0.00     0.077 C 
ATOM      2  C1' PXY d   1       2.462  -0.020  -3.173  0.00  0.00     0.077 C 
ATOM      3  C1  PXY d   1       2.588   0.577  -1.785  0.00  0.00    -0.082 A 
ATOM      4  C2  PXY d   1       3.617   1.358  -1.500  0.00  0.00     0.003 A 
ATOM      5  C3  PXY d   1       3.763   1.881  -0.241  0.00  0.00     0.003 A 
ATOM      6  C4  PXY d   1       2.818   1.645   0.721  0.00  0.00    -0.082 A 
ATOM      7  C5  PXY d   1       1.759   0.858   0.435  0.00  0.00     0.003 A 
ATOM      8  C6  PXY d   1       1.651   0.304  -0.837  0.00  0.00     0.003 A 
ENDROOT
TORSDOF 0
ENDMDL
