MODEL 1
REMARK minimizedAffinity 8.10851383
REMARK minimizedRMSD -1
REMARK  0 active torsions:
REMARK  status: ('A' for Active; 'I' for Inactive)
ROOT
ATOM      1  C4' PXY d   1       2.668   2.183   2.493  0.00  0.00     0.077 C 
ATOM      2  C1' PXY d   1       2.732  -0.195  -2.775  0.00  0.00     0.077 C 
ATOM      3  C1  PXY d   1       2.703   0.424  -1.392  0.00  0.00    -0.082 A 
ATOM      4  C2  PXY d   1       3.495   1.448  -1.117  0.00  0.00     0.003 A 
ATOM      5  C3  PXY d   1       3.505   1.999   0.138  0.00  0.00     0.003 A 
ATOM      6  C4  PXY d   1       2.657   1.532   1.107  0.00  0.00    -0.082 A 
ATOM      7  C5  PXY d   1       1.839   0.495   0.831  0.00  0.00     0.003 A 
ATOM      8  C6  PXY d   1       1.874  -0.078  -0.437  0.00  0.00     0.003 A 
ENDROOT
TORSDOF 0
ENDMDL
