MODEL 1
REMARK minimizedAffinity 11.7828083
REMARK minimizedRMSD -1
REMARK  0 active torsions:
REMARK  status: ('A' for Active; 'I' for Inactive)
ROOT
ATOM      1  C4' PXY d   1       2.799   0.465  -2.003  0.00  0.00     0.077 C 
ATOM      2  C1' PXY d   1      -0.809   2.035   2.231  0.00  0.00     0.077 C 
ATOM      3  C1  PXY d   1       0.146   1.621   1.130  0.00  0.00    -0.082 A 
ATOM      4  C2  PXY d   1      -0.031   2.083  -0.097  0.00  0.00     0.003 A 
ATOM      5  C3  PXY d   1       0.805   1.693  -1.112  0.00  0.00     0.003 A 
ATOM      6  C4  PXY d   1       1.864   0.864  -0.858  0.00  0.00    -0.082 A 
ATOM      7  C5  PXY d   1       2.058   0.397   0.394  0.00  0.00     0.003 A 
ATOM      8  C6  PXY d   1       1.174   0.772   1.402  0.00  0.00     0.003 A 
ENDROOT
TORSDOF 0
ENDMDL
