MODEL 1
REMARK minimizedAffinity 9.61779499
REMARK minimizedRMSD -1
REMARK  0 active torsions:
REMARK  status: ('A' for Active; 'I' for Inactive)
ROOT
ATOM      1  C4' PXY d   1       4.183  -1.013  -2.272  0.00  0.00     0.077 C 
ATOM      2  C1' PXY d   1      -0.448   2.324  -3.185  0.00  0.00     0.077 C 
ATOM      3  C1  PXY d   1       0.759   1.441  -2.937  0.00  0.00    -0.082 A 
ATOM      4  C2  PXY d   1       1.976   1.937  -3.096  0.00  0.00     0.003 A 
ATOM      5  C3  PXY d   1       3.078   1.144  -2.908  0.00  0.00     0.003 A 
ATOM      6  C4  PXY d   1       2.935  -0.156  -2.501  0.00  0.00    -0.082 A 
ATOM      7  C5  PXY d   1       1.698  -0.666  -2.326  0.00  0.00     0.003 A 
ATOM      8  C6  PXY d   1       0.591   0.144  -2.563  0.00  0.00     0.003 A 
ENDROOT
TORSDOF 0
ENDMDL
