MODEL 1
REMARK minimizedAffinity 3.97524762
REMARK minimizedRMSD -1
REMARK  0 active torsions:
REMARK  status: ('A' for Active; 'I' for Inactive)
ROOT
ATOM      1  C4' PXY d   1       2.175   0.307  -0.693  0.00  0.00     0.077 C 
ATOM      2  C1' PXY d   1      -0.885   3.110   3.332  0.00  0.00     0.077 C 
ATOM      3  C1  PXY d   1      -0.071   2.380   2.281  0.00  0.00    -0.082 A 
ATOM      4  C2  PXY d   1      -0.654   1.983   1.162  0.00  0.00     0.003 A 
ATOM      5  C3  PXY d   1       0.059   1.294   0.215  0.00  0.00     0.003 A 
ATOM      6  C4  PXY d   1       1.395   1.055   0.392  0.00  0.00    -0.082 A 
ATOM      7  C5  PXY d   1       2.000   1.467   1.527  0.00  0.00     0.003 A 
ATOM      8  C6  PXY d   1       1.249   2.129   2.494  0.00  0.00     0.003 A 
ENDROOT
TORSDOF 0
ENDMDL
