MODEL 1
REMARK minimizedAffinity 10.7847919
REMARK minimizedRMSD -1
REMARK  0 active torsions:
REMARK  status: ('A' for Active; 'I' for Inactive)
ROOT
ATOM      1  C4' PXY d   1       1.966   1.689   2.409  0.00  0.00     0.077 C 
ATOM      2  C1' PXY d   1       2.101  -0.272  -3.027  0.00  0.00     0.077 C 
ATOM      3  C1  PXY d   1       2.054   0.236  -1.600  0.00  0.00    -0.082 A 
ATOM      4  C2  PXY d   1       2.704   1.342  -1.278  0.00  0.00     0.003 A 
ATOM      5  C3  PXY d   1       2.699   1.798   0.015  0.00  0.00     0.003 A 
ATOM      6  C4  PXY d   1       1.977   1.144   0.978  0.00  0.00    -0.082 A 
ATOM      7  C5  PXY d   1       1.303   0.021   0.655  0.00  0.00     0.003 A 
ATOM      8  C6  PXY d   1       1.354  -0.448  -0.655  0.00  0.00     0.003 A 
ENDROOT
TORSDOF 0
ENDMDL
