MODEL 1
REMARK minimizedAffinity 13.7821083
REMARK minimizedRMSD -1
REMARK  0 active torsions:
REMARK  status: ('A' for Active; 'I' for Inactive)
ROOT
ATOM      1  C4' PXY d   1      -0.733   2.011   1.143  0.00  0.00     0.077 C 
ATOM      2  C1' PXY d   1       4.750   2.817   2.785  0.00  0.00     0.077 C 
ATOM      3  C1  PXY d   1       3.316   2.609   2.342  0.00  0.00    -0.082 A 
ATOM      4  C2  PXY d   1       2.335   2.729   3.223  0.00  0.00     0.003 A 
ATOM      5  C3  PXY d   1       1.035   2.512   2.847  0.00  0.00     0.003 A 
ATOM      6  C4  PXY d   1       0.730   2.222   1.544  0.00  0.00    -0.082 A 
ATOM      7  C5  PXY d   1       1.723   2.108   0.637  0.00  0.00     0.003 A 
ATOM      8  C6  PXY d   1       3.040   2.291   1.048  0.00  0.00     0.003 A 
ENDROOT
TORSDOF 0
ENDMDL
