MODEL 1
REMARK minimizedAffinity 7.34674072
REMARK minimizedRMSD -1
REMARK  0 active torsions:
REMARK  status: ('A' for Active; 'I' for Inactive)
ROOT
ATOM      1  C4' PXY d   1       3.418  -0.377  -2.561  0.00  0.00     0.077 C 
ATOM      2  C1' PXY d   1       0.251   1.870   1.721  0.00  0.00     0.077 C 
ATOM      3  C1  PXY d   1       1.082   1.269   0.605  0.00  0.00    -0.082 A 
ATOM      4  C2  PXY d   1       1.804   2.060  -0.171  0.00  0.00     0.003 A 
ATOM      5  C3  PXY d   1       2.536   1.537  -1.206  0.00  0.00     0.003 A 
ATOM      6  C4  PXY d   1       2.571   0.184  -1.415  0.00  0.00    -0.082 A 
ATOM      7  C5  PXY d   1       1.845  -0.631  -0.621  0.00  0.00     0.003 A 
ATOM      8  C6  PXY d   1       1.076  -0.076   0.398  0.00  0.00     0.003 A 
ENDROOT
TORSDOF 0
ENDMDL
