MODEL 1
REMARK minimizedAffinity 7.95398664
REMARK minimizedRMSD -1
REMARK  0 active torsions:
REMARK  status: ('A' for Active; 'I' for Inactive)
ROOT
ATOM      1  C4' PXY d   1       2.101   0.937   0.823  0.00  0.00     0.077 C 
ATOM      2  C1' PXY d   1      -0.399  -3.750  -1.456  0.00  0.00     0.077 C 
ATOM      3  C1  PXY d   1       0.266  -2.522  -0.866  0.00  0.00    -0.082 A 
ATOM      4  C2  PXY d   1      -0.017  -2.155   0.373  0.00  0.00     0.003 A 
ATOM      5  C3  PXY d   1       0.551  -1.029   0.910  0.00  0.00     0.003 A 
ATOM      6  C4  PXY d   1       1.460  -0.301   0.191  0.00  0.00    -0.082 A 
ATOM      7  C5  PXY d   1       1.763  -0.675  -1.071  0.00  0.00     0.003 A 
ATOM      8  C6  PXY d   1       1.144  -1.797  -1.612  0.00  0.00     0.003 A 
ENDROOT
TORSDOF 0
ENDMDL
