MODEL 1
REMARK minimizedAffinity 13.46984
REMARK minimizedRMSD -1
REMARK  0 active torsions:
REMARK  status: ('A' for Active; 'I' for Inactive)
ROOT
ATOM      1  C4' PXY d   1       4.666  -1.352  -1.844  0.00  0.00     0.077 C 
ATOM      2  C1' PXY d   1      -0.008   1.854  -2.980  0.00  0.00     0.077 C 
ATOM      3  C1  PXY d   1       1.219   1.019  -2.670  0.00  0.00    -0.082 A 
ATOM      4  C2  PXY d   1       1.931   0.511  -3.663  0.00  0.00     0.003 A 
ATOM      5  C3  PXY d   1       3.025  -0.273  -3.400  0.00  0.00     0.003 A 
ATOM      6  C4  PXY d   1       3.425  -0.495  -2.110  0.00  0.00    -0.082 A 
ATOM      7  C5  PXY d   1       2.710   0.029  -1.092  0.00  0.00     0.003 A 
ATOM      8  C6  PXY d   1       1.579   0.788  -1.379  0.00  0.00     0.003 A 
ENDROOT
TORSDOF 0
ENDMDL
