MODEL 1
REMARK minimizedAffinity 6.29277563
REMARK minimizedRMSD -1
REMARK  0 active torsions:
REMARK  status: ('A' for Active; 'I' for Inactive)
ROOT
ATOM      1  C4' PXY d   1       3.562  -0.378  -1.572  0.00  0.00     0.077 C 
ATOM      2  C1' PXY d   1      -0.195   2.386  -4.986  0.00  0.00     0.077 C 
ATOM      3  C1  PXY d   1       0.795   1.673  -4.087  0.00  0.00    -0.082 A 
ATOM      4  C2  PXY d   1       1.123   0.417  -4.343  0.00  0.00     0.003 A 
ATOM      5  C3  PXY d   1       1.993  -0.254  -3.521  0.00  0.00     0.003 A 
ATOM      6  C4  PXY d   1       2.574   0.384  -2.458  0.00  0.00    -0.082 A 
ATOM      7  C5  PXY d   1       2.252   1.669  -2.197  0.00  0.00     0.003 A 
ATOM      8  C6  PXY d   1       1.336   2.319  -3.019  0.00  0.00     0.003 A 
ENDROOT
TORSDOF 0
ENDMDL
