MODEL 1
REMARK minimizedAffinity 6.38107157
REMARK minimizedRMSD -1
REMARK  0 active torsions:
REMARK  status: ('A' for Active; 'I' for Inactive)
ROOT
ATOM      1  C4' PXY d   1      -3.437  -0.227   1.346  0.00  0.00     0.077 C 
ATOM      2  C1' PXY d   1      -6.000   4.889   0.527  0.00  0.00     0.077 C 
ATOM      3  C1  PXY d   1      -5.316   3.553   0.740  0.00  0.00    -0.082 A 
ATOM      4  C2  PXY d   1      -5.998   2.433   0.560  0.00  0.00     0.003 A 
ATOM      5  C3  PXY d   1      -5.404   1.217   0.779  0.00  0.00     0.003 A 
ATOM      6  C4  PXY d   1      -4.084   1.144   1.134  0.00  0.00    -0.082 A 
ATOM      7  C5  PXY d   1      -3.378   2.282   1.309  0.00  0.00     0.003 A 
ATOM      8  C6  PXY d   1      -4.011   3.508   1.122  0.00  0.00     0.003 A 
ENDROOT
TORSDOF 0
ENDMDL
