MODEL 1
REMARK minimizedAffinity 7.95292139
REMARK minimizedRMSD -1
REMARK  0 active torsions:
REMARK  status: ('A' for Active; 'I' for Inactive)
ROOT
ATOM      1  C4' PXY d   1       2.941  -0.515  -2.908  0.00  0.00     0.077 C 
ATOM      2  C1' PXY d   1       0.649   1.311   2.074  0.00  0.00     0.077 C 
ATOM      3  C1  PXY d   1       1.252   0.821   0.773  0.00  0.00    -0.082 A 
ATOM      4  C2  PXY d   1       1.730   1.695  -0.097  0.00  0.00     0.003 A 
ATOM      5  C3  PXY d   1       2.251   1.271  -1.293  0.00  0.00     0.003 A 
ATOM      6  C4  PXY d   1       2.331  -0.066  -1.578  0.00  0.00    -0.082 A 
ATOM      7  C5  PXY d   1       1.855  -0.965  -0.691  0.00  0.00     0.003 A 
ATOM      8  C6  PXY d   1       1.293  -0.512   0.499  0.00  0.00     0.003 A 
ENDROOT
TORSDOF 0
ENDMDL
