MODEL 1
REMARK minimizedAffinity 11.7624359
REMARK minimizedRMSD -1
REMARK  0 active torsions:
REMARK  status: ('A' for Active; 'I' for Inactive)
ROOT
ATOM      1  C4' PXY d   1      -0.267   1.889   0.975  0.00  0.00     0.077 C 
ATOM      2  C1' PXY d   1       3.679  -0.636  -2.411  0.00  0.00     0.077 C 
ATOM      3  C1  PXY d   1       2.646   0.016  -1.515  0.00  0.00    -0.082 A 
ATOM      4  C2  PXY d   1       1.735   0.818  -2.042  0.00  0.00     0.003 A 
ATOM      5  C3  PXY d   1       0.813   1.442  -1.241  0.00  0.00     0.003 A 
ATOM      6  C4  PXY d   1       0.790   1.201   0.106  0.00  0.00    -0.082 A 
ATOM      7  C5  PXY d   1       1.709   0.376   0.651  0.00  0.00     0.003 A 
ATOM      8  C6  PXY d   1       2.662  -0.215  -0.174  0.00  0.00     0.003 A 
ENDROOT
TORSDOF 0
ENDMDL
