MODEL 1
REMARK minimizedAffinity 7.85976028
REMARK minimizedRMSD -1
REMARK  0 active torsions:
REMARK  status: ('A' for Active; 'I' for Inactive)
ROOT
ATOM      1  C4' PXY d   1      -2.101   2.842   3.487  0.00  0.00     0.077 C 
ATOM      2  C1' PXY d   1       2.298   0.942   0.253  0.00  0.00     0.077 C 
ATOM      3  C1  PXY d   1       1.139   1.446   1.091  0.00  0.00    -0.082 A 
ATOM      4  C2  PXY d   1       1.278   1.552   2.403  0.00  0.00     0.003 A 
ATOM      5  C3  PXY d   1       0.230   1.976   3.179  0.00  0.00     0.003 A 
ATOM      6  C4  PXY d   1      -0.955   2.346   2.601  0.00  0.00    -0.082 A 
ATOM      7  C5  PXY d   1      -1.100   2.252   1.262  0.00  0.00     0.003 A 
ATOM      8  C6  PXY d   1      -0.038   1.780   0.496  0.00  0.00     0.003 A 
ENDROOT
TORSDOF 0
ENDMDL
