MODEL 1
REMARK minimizedAffinity 10.9088202
REMARK minimizedRMSD -1
REMARK  0 active torsions:
REMARK  status: ('A' for Active; 'I' for Inactive)
ROOT
ATOM      1  C4' PXY d   1       2.630  -0.117  -2.804  0.00  0.00     0.077 C 
ATOM      2  C1' PXY d   1       2.730   1.941   2.597  0.00  0.00     0.077 C 
ATOM      3  C1  PXY d   1       2.697   1.391   1.185  0.00  0.00    -0.082 A 
ATOM      4  C2  PXY d   1       3.613   1.776   0.311  0.00  0.00     0.003 A 
ATOM      5  C3  PXY d   1       3.580   1.313  -0.979  0.00  0.00     0.003 A 
ATOM      6  C4  PXY d   1       2.630   0.405  -1.364  0.00  0.00    -0.082 A 
ATOM      7  C5  PXY d   1       1.698  -0.001  -0.476  0.00  0.00     0.003 A 
ATOM      8  C6  PXY d   1       1.725   0.513   0.817  0.00  0.00     0.003 A 
ENDROOT
TORSDOF 0
ENDMDL
