MODEL 1
REMARK minimizedAffinity 4.41930294
REMARK minimizedRMSD -1
REMARK  0 active torsions:
REMARK  status: ('A' for Active; 'I' for Inactive)
ROOT
ATOM      1  C4' PXY d   1       2.649   1.653   2.758  0.00  0.00     0.077 C 
ATOM      2  C1' PXY d   1       2.889   0.034  -2.786  0.00  0.00     0.077 C 
ATOM      3  C1  PXY d   1       2.816   0.451  -1.330  0.00  0.00    -0.082 A 
ATOM      4  C2  PXY d   1       3.338   1.606  -0.954  0.00  0.00     0.003 A 
ATOM      5  C3  PXY d   1       3.309   1.984   0.364  0.00  0.00     0.003 A 
ATOM      6  C4  PXY d   1       2.692   1.196   1.297  0.00  0.00    -0.082 A 
ATOM      7  C5  PXY d   1       2.147   0.020   0.919  0.00  0.00     0.003 A 
ATOM      8  C6  PXY d   1       2.223  -0.365  -0.416  0.00  0.00     0.003 A 
ENDROOT
TORSDOF 0
ENDMDL
