MODEL 1
REMARK minimizedAffinity 8.7320919
REMARK minimizedRMSD -1
REMARK  0 active torsions:
REMARK  status: ('A' for Active; 'I' for Inactive)
ROOT
ATOM      1  C4' PXY d   1      -0.842   2.042   2.012  0.00  0.00     0.077 C 
ATOM      2  C1' PXY d   1       3.003  -1.608  -0.293  0.00  0.00     0.077 C 
ATOM      3  C1  PXY d   1       2.005  -0.643   0.315  0.00  0.00    -0.082 A 
ATOM      4  C2  PXY d   1       0.811  -1.081   0.681  0.00  0.00     0.003 A 
ATOM      5  C3  PXY d   1      -0.115  -0.216   1.204  0.00  0.00     0.003 A 
ATOM      6  C4  PXY d   1       0.202   1.101   1.402  0.00  0.00    -0.082 A 
ATOM      7  C5  PXY d   1       1.421   1.554   1.041  0.00  0.00     0.003 A 
ATOM      8  C6  PXY d   1       2.333   0.668   0.475  0.00  0.00     0.003 A 
ENDROOT
TORSDOF 0
ENDMDL
