MODEL 1
REMARK minimizedAffinity 1.07965994
REMARK minimizedRMSD -1
REMARK  0 active torsions:
REMARK  status: ('A' for Active; 'I' for Inactive)
ROOT
ATOM      1  C   UNL d   1       1.124   0.583   1.519  0.00  0.00     0.077 C 
ATOM      2  C1  UNL d   1       1.224   1.172   0.143  0.00  0.00    -0.074 A 
ATOM      3  C2  UNL d   1       1.183   0.356  -0.992  0.00  0.00    -0.005 A 
ATOM      4  C3  UNL d   1       1.267   0.918  -2.266  0.00  0.00     0.006 A 
ATOM      5  C4  UNL d   1       1.393   2.300  -2.417  0.00  0.00    -0.005 A 
ATOM      6  C5  UNL d   1       1.435   3.131  -1.293  0.00  0.00    -0.074 A 
ATOM      7  C6  UNL d   1       1.560   4.619  -1.438  0.00  0.00     0.077 C 
ATOM      8  C7  UNL d   1       1.342   2.559  -0.017  0.00  0.00    -0.001 A 
ENDROOT
TORSDOF 0
ENDMDL
