MODEL 1
REMARK minimizedAffinity -2.01040816
REMARK minimizedRMSD -1
REMARK  0 active torsions:
REMARK  status: ('A' for Active; 'I' for Inactive)
ROOT
ATOM      1  C   UNL d   1       1.652   4.667  -1.414  0.00  0.00     0.077 C 
ATOM      2  C1  UNL d   1       1.382   3.337  -0.777  0.00  0.00    -0.074 A 
ATOM      3  C2  UNL d   1       1.243   3.218   0.609  0.00  0.00    -0.005 A 
ATOM      4  C3  UNL d   1       0.983   1.975   1.186  0.00  0.00     0.006 A 
ATOM      5  C4  UNL d   1       0.859   0.840   0.384  0.00  0.00    -0.005 A 
ATOM      6  C5  UNL d   1       0.994   0.939  -1.004  0.00  0.00    -0.074 A 
ATOM      7  C6  UNL d   1       0.854  -0.269  -1.882  0.00  0.00     0.077 C 
ATOM      8  C7  UNL d   1       1.248   2.193  -1.577  0.00  0.00    -0.001 A 
ENDROOT
TORSDOF 0
ENDMDL
