MODEL 1
REMARK minimizedAffinity 9.61466599
REMARK minimizedRMSD -1
REMARK  0 active torsions:
REMARK  status: ('A' for Active; 'I' for Inactive)
ROOT
ATOM      1  C   UNL d   1       1.850   4.717  -1.161  0.00  0.00     0.077 C 
ATOM      2  C1  UNL d   1       1.582   3.258  -1.377  0.00  0.00    -0.074 A 
ATOM      3  C2  UNL d   1       0.828   2.819  -2.470  0.00  0.00    -0.005 A 
ATOM      4  C3  UNL d   1       0.595   1.457  -2.663  0.00  0.00     0.006 A 
ATOM      5  C4  UNL d   1       1.114   0.522  -1.767  0.00  0.00    -0.005 A 
ATOM      6  C5  UNL d   1       1.871   0.942  -0.669  0.00  0.00    -0.074 A 
ATOM      7  C6  UNL d   1       2.444  -0.051   0.299  0.00  0.00     0.077 C 
ATOM      8  C7  UNL d   1       2.106   2.311  -0.485  0.00  0.00    -0.001 A 
ENDROOT
TORSDOF 0
ENDMDL
