MODEL 1
REMARK minimizedAffinity -1.96492589
REMARK minimizedRMSD -1
REMARK  0 active torsions:
REMARK  status: ('A' for Active; 'I' for Inactive)
ROOT
ATOM      1  C   UNL d   1       1.471   4.043  -1.506  0.00  0.00     0.077 C 
ATOM      2  C1  UNL d   1       1.330   2.615  -1.068  0.00  0.00    -0.074 A 
ATOM      3  C2  UNL d   1       1.000   1.611  -1.984  0.00  0.00    -0.005 A 
ATOM      4  C3  UNL d   1       0.882   0.286  -1.563  0.00  0.00     0.006 A 
ATOM      5  C4  UNL d   1       1.091  -0.047  -0.224  0.00  0.00    -0.005 A 
ATOM      6  C5  UNL d   1       1.422   0.944   0.706  0.00  0.00    -0.074 A 
ATOM      7  C6  UNL d   1       1.659   0.601   2.147  0.00  0.00     0.077 C 
ATOM      8  C7  UNL d   1       1.546   2.271   0.274  0.00  0.00    -0.001 A 
ENDROOT
TORSDOF 0
ENDMDL
