MODEL 1
REMARK minimizedAffinity 7.03597355
REMARK minimizedRMSD -1
REMARK  0 active torsions:
REMARK  status: ('A' for Active; 'I' for Inactive)
ROOT
ATOM      1  C   UNL d   1       1.232   1.034  -1.498  0.00  0.00     0.077 C 
ATOM      2  C1  UNL d   1       1.257   2.357  -0.791  0.00  0.00    -0.074 A 
ATOM      3  C2  UNL d   1       0.974   2.447   0.575  0.00  0.00    -0.005 A 
ATOM      4  C3  UNL d   1       1.010   3.683   1.221  0.00  0.00     0.006 A 
ATOM      5  C4  UNL d   1       1.329   4.839   0.508  0.00  0.00    -0.005 A 
ATOM      6  C5  UNL d   1       1.616   4.768  -0.859  0.00  0.00    -0.074 A 
ATOM      7  C6  UNL d   1       1.970   6.000  -1.638  0.00  0.00     0.077 C 
ATOM      8  C7  UNL d   1       1.584   3.522  -1.499  0.00  0.00    -0.001 A 
ENDROOT
TORSDOF 0
ENDMDL
