MODEL 1
REMARK minimizedAffinity 5.16679239
REMARK minimizedRMSD -1
REMARK  0 active torsions:
REMARK  status: ('A' for Active; 'I' for Inactive)
ROOT
ATOM      1  C   UNL d   1       0.548   0.407  -2.219  0.00  0.00     0.077 C 
ATOM      2  C1  UNL d   1       1.131   0.602  -0.851  0.00  0.00    -0.074 A 
ATOM      3  C2  UNL d   1       1.890  -0.403  -0.244  0.00  0.00    -0.005 A 
ATOM      4  C3  UNL d   1       2.434  -0.204   1.025  0.00  0.00     0.006 A 
ATOM      5  C4  UNL d   1       2.225   1.000   1.698  0.00  0.00    -0.005 A 
ATOM      6  C5  UNL d   1       1.469   2.017   1.106  0.00  0.00    -0.074 A 
ATOM      7  C6  UNL d   1       1.243   3.321   1.812  0.00  0.00     0.077 C 
ATOM      8  C7  UNL d   1       0.932   1.812  -0.172  0.00  0.00    -0.001 A 
ENDROOT
TORSDOF 0
ENDMDL
