MODEL 1
REMARK minimizedAffinity -2.84146523
REMARK minimizedRMSD -1
REMARK  0 active torsions:
REMARK  status: ('A' for Active; 'I' for Inactive)
ROOT
ATOM      1  C   UNL d   1       1.163   1.084   1.929  0.00  0.00     0.077 C 
ATOM      2  C1  UNL d   1       1.260   1.540   0.504  0.00  0.00    -0.074 A 
ATOM      3  C2  UNL d   1       1.017   0.654  -0.552  0.00  0.00    -0.005 A 
ATOM      4  C3  UNL d   1       1.102   1.095  -1.873  0.00  0.00     0.006 A 
ATOM      5  C4  UNL d   1       1.429   2.422  -2.151  0.00  0.00    -0.005 A 
ATOM      6  C5  UNL d   1       1.675   3.322  -1.109  0.00  0.00    -0.074 A 
ATOM      7  C6  UNL d   1       2.018   4.754  -1.390  0.00  0.00     0.077 C 
ATOM      8  C7  UNL d   1       1.581   2.874   0.216  0.00  0.00    -0.001 A 
ENDROOT
TORSDOF 0
ENDMDL
