MODEL 1
REMARK minimizedAffinity 2.6527822
REMARK minimizedRMSD -1
REMARK  0 active torsions:
REMARK  status: ('A' for Active; 'I' for Inactive)
ROOT
ATOM      1  C   UNL d   1       0.743   2.972  -2.322  0.00  0.00     0.077 C 
ATOM      2  C1  UNL d   1       0.940   1.878  -1.315  0.00  0.00    -0.074 A 
ATOM      3  C2  UNL d   1       0.973   0.536  -1.709  0.00  0.00    -0.005 A 
ATOM      4  C3  UNL d   1       1.167  -0.470  -0.763  0.00  0.00     0.006 A 
ATOM      5  C4  UNL d   1       1.329  -0.146   0.584  0.00  0.00    -0.005 A 
ATOM      6  C5  UNL d   1       1.299   1.190   0.997  0.00  0.00    -0.074 A 
ATOM      7  C6  UNL d   1       1.481   1.556   2.440  0.00  0.00     0.077 C 
ATOM      8  C7  UNL d   1       1.111   2.196   0.039  0.00  0.00    -0.001 A 
ENDROOT
TORSDOF 0
ENDMDL
