MODEL 1
REMARK minimizedAffinity -2.67438221
REMARK minimizedRMSD -1
REMARK  0 active torsions:
REMARK  status: ('A' for Active; 'I' for Inactive)
ROOT
ATOM      1  C   UNL d   1       1.986   5.215  -1.199  0.00  0.00     0.077 C 
ATOM      2  C1  UNL d   1       1.631   3.759  -1.160  0.00  0.00    -0.074 A 
ATOM      3  C2  UNL d   1       1.100   3.118  -2.284  0.00  0.00    -0.005 A 
ATOM      4  C3  UNL d   1       0.785   1.760  -2.236  0.00  0.00     0.006 A 
ATOM      5  C4  UNL d   1       0.996   1.030  -1.065  0.00  0.00    -0.005 A 
ATOM      6  C5  UNL d   1       1.527   1.654   0.069  0.00  0.00    -0.074 A 
ATOM      7  C6  UNL d   1       1.770   0.883   1.332  0.00  0.00     0.077 C 
ATOM      8  C7  UNL d   1       1.848   3.017   0.010  0.00  0.00    -0.001 A 
ENDROOT
TORSDOF 0
ENDMDL
