MODEL 1
REMARK minimizedAffinity -2.6880877
REMARK minimizedRMSD -1
REMARK  0 active torsions:
REMARK  status: ('A' for Active; 'I' for Inactive)
ROOT
ATOM      1  C   UNL d   1       0.898   3.762   1.418  0.00  0.00     0.077 C 
ATOM      2  C1  UNL d   1       1.098   2.738   0.340  0.00  0.00    -0.074 A 
ATOM      3  C2  UNL d   1       0.974   3.082  -1.010  0.00  0.00    -0.005 A 
ATOM      4  C3  UNL d   1       1.173   2.122  -2.002  0.00  0.00     0.006 A 
ATOM      5  C4  UNL d   1       1.497   0.810  -1.654  0.00  0.00    -0.005 A 
ATOM      6  C5  UNL d   1       1.626   0.447  -0.310  0.00  0.00    -0.074 A 
ATOM      7  C6  UNL d   1       1.984  -0.956   0.080  0.00  0.00     0.077 C 
ATOM      8  C7  UNL d   1       1.432   1.420   0.681  0.00  0.00    -0.001 A 
ENDROOT
TORSDOF 0
ENDMDL
