MODEL 1
REMARK minimizedAffinity 2.76229572
REMARK minimizedRMSD -1
REMARK  0 active torsions:
REMARK  status: ('A' for Active; 'I' for Inactive)
ROOT
ATOM      1  C   UNL d   1       0.784   2.892  -2.291  0.00  0.00     0.077 C 
ATOM      2  C1  UNL d   1       1.446   2.422  -1.030  0.00  0.00    -0.074 A 
ATOM      3  C2  UNL d   1       1.201   3.058   0.191  0.00  0.00    -0.005 A 
ATOM      4  C3  UNL d   1       1.817   2.604   1.357  0.00  0.00     0.006 A 
ATOM      5  C4  UNL d   1       2.683   1.510   1.314  0.00  0.00    -0.005 A 
ATOM      6  C5  UNL d   1       2.939   0.861   0.102  0.00  0.00    -0.074 A 
ATOM      7  C6  UNL d   1       3.860  -0.322   0.040  0.00  0.00     0.077 C 
ATOM      8  C7  UNL d   1       2.311   1.319  -1.064  0.00  0.00    -0.001 A 
ENDROOT
TORSDOF 0
ENDMDL
