MODEL 1
REMARK minimizedAffinity -0.356431276
REMARK minimizedRMSD -1
REMARK  0 active torsions:
REMARK  status: ('A' for Active; 'I' for Inactive)
ROOT
ATOM      1  C   UNL d   1       0.868   1.843  -3.107  0.00  0.00     0.077 C 
ATOM      2  C1  UNL d   1       0.981   1.536  -1.644  0.00  0.00    -0.074 A 
ATOM      3  C2  UNL d   1       1.254   0.238  -1.201  0.00  0.00    -0.005 A 
ATOM      4  C3  UNL d   1       1.365  -0.030   0.164  0.00  0.00     0.006 A 
ATOM      5  C4  UNL d   1       1.204   0.994   1.097  0.00  0.00    -0.005 A 
ATOM      6  C5  UNL d   1       0.932   2.299   0.673  0.00  0.00    -0.074 A 
ATOM      7  C6  UNL d   1       0.766   3.414   1.662  0.00  0.00     0.077 C 
ATOM      8  C7  UNL d   1       0.828   2.562  -0.700  0.00  0.00    -0.001 A 
ENDROOT
TORSDOF 0
ENDMDL
