MODEL 1
REMARK minimizedAffinity 6.09428453
REMARK minimizedRMSD -1
REMARK  0 active torsions:
REMARK  status: ('A' for Active; 'I' for Inactive)
ROOT
ATOM      1  C   UNL d   1      -1.573   3.595  -3.023  0.00  0.00     0.077 C 
ATOM      2  C1  UNL d   1      -0.435   2.908  -2.329  0.00  0.00    -0.074 A 
ATOM      3  C2  UNL d   1       0.446   3.624  -1.512  0.00  0.00    -0.005 A 
ATOM      4  C3  UNL d   1       1.494   2.969  -0.865  0.00  0.00     0.006 A 
ATOM      5  C4  UNL d   1       1.672   1.595  -1.029  0.00  0.00    -0.005 A 
ATOM      6  C5  UNL d   1       0.801   0.863  -1.841  0.00  0.00    -0.074 A 
ATOM      7  C6  UNL d   1       0.972  -0.617  -2.020  0.00  0.00     0.077 C 
ATOM      8  C7  UNL d   1      -0.255   1.526  -2.482  0.00  0.00    -0.001 A 
ENDROOT
TORSDOF 0
ENDMDL
