MODEL 1
REMARK minimizedAffinity 4.73092985
REMARK minimizedRMSD -1
REMARK  0 active torsions:
REMARK  status: ('A' for Active; 'I' for Inactive)
ROOT
ATOM      1  C   UNL d   1       1.417   4.491  -0.683  0.00  0.00     0.077 C 
ATOM      2  C1  UNL d   1       1.149   3.044  -0.973  0.00  0.00    -0.074 A 
ATOM      3  C2  UNL d   1       0.300   2.665  -2.018  0.00  0.00    -0.005 A 
ATOM      4  C3  UNL d   1       0.068   1.316  -2.282  0.00  0.00     0.006 A 
ATOM      5  C4  UNL d   1       0.682   0.332  -1.505  0.00  0.00    -0.005 A 
ATOM      6  C5  UNL d   1       1.535   0.691  -0.457  0.00  0.00    -0.074 A 
ATOM      7  C6  UNL d   1       2.210  -0.353   0.382  0.00  0.00     0.077 C 
ATOM      8  C7  UNL d   1       1.768   2.050  -0.202  0.00  0.00    -0.001 A 
ENDROOT
TORSDOF 0
ENDMDL
