MODEL 1
REMARK minimizedAffinity 14.6086998
REMARK minimizedRMSD -1
REMARK  2 active torsions:
REMARK  status: ('A' for Active; 'I' for Inactive)
REMARK    1  A    between atoms: C1_2  and  C2_3 
REMARK    2  A    between atoms: C2_3  and  C3_4 
ROOT
ATOM      1  C3  UNL d   1       0.188  -2.656  -5.204  0.00  0.00    -0.075 A 
ATOM      2  C4  UNL d   1      -0.595  -1.593  -4.732  0.00  0.00     0.002 A 
ATOM      3  C5  UNL d   1       0.004  -0.475  -4.151  0.00  0.00     0.002 A 
ATOM      4  C6  UNL d   1       1.390  -0.410  -4.025  0.00  0.00    -0.004 A 
ATOM      5  C7  UNL d   1       2.177  -1.467  -4.476  0.00  0.00     0.002 A 
ATOM      6  C8  UNL d   1       1.580  -2.585  -5.062  0.00  0.00     0.002 A 
ENDROOT
BRANCH   1   7
ATOM      7  C2  UNL d   1      -0.452  -3.856  -5.861  0.00  0.00     0.056 C 
BRANCH   7   8
ATOM      8  C1  UNL d   1      -1.975  -3.752  -5.999  0.00  0.00     0.007 C 
ATOM      9  C   UNL d   1      -2.671  -5.107  -6.000  0.00  0.00     0.009 C 
ENDBRANCH   7   8
ENDBRANCH   1   7
TORSDOF 2
ENDMDL
