MODEL 1
REMARK minimizedAffinity 7.23752642
REMARK minimizedRMSD -1
REMARK  2 active torsions:
REMARK  status: ('A' for Active; 'I' for Inactive)
REMARK    1  A    between atoms: C1_2  and  C2_3 
REMARK    2  A    between atoms: C2_3  and  C3_4 
ROOT
ATOM      1  C3  UNL d   1       0.763  -0.669  -3.311  0.00  0.00    -0.075 A 
ATOM      2  C4  UNL d   1       0.874  -1.232  -2.032  0.00  0.00     0.002 A 
ATOM      3  C5  UNL d   1      -0.145  -2.036  -1.520  0.00  0.00     0.002 A 
ATOM      4  C6  UNL d   1      -1.290  -2.280  -2.276  0.00  0.00    -0.004 A 
ATOM      5  C7  UNL d   1      -1.418  -1.712  -3.541  0.00  0.00     0.002 A 
ATOM      6  C8  UNL d   1      -0.399  -0.910  -4.057  0.00  0.00     0.002 A 
ENDROOT
BRANCH   1   7
ATOM      7  C2  UNL d   1       1.874   0.179  -3.882  0.00  0.00     0.056 C 
BRANCH   7   8
ATOM      8  C1  UNL d   1       3.280  -0.299  -3.503  0.00  0.00     0.007 C 
ATOM      9  C   UNL d   1       3.435  -1.813  -3.558  0.00  0.00     0.009 C 
ENDBRANCH   7   8
ENDBRANCH   1   7
TORSDOF 2
ENDMDL
