MODEL 1
REMARK minimizedAffinity 11.7719011
REMARK minimizedRMSD -1
REMARK  2 active torsions:
REMARK  status: ('A' for Active; 'I' for Inactive)
REMARK    1  A    between atoms: C1_2  and  C2_3 
REMARK    2  A    between atoms: C2_3  and  C3_4 
ROOT
ATOM      1  C3  UNL d   1      -0.152  -1.911  -4.276  0.00  0.00    -0.075 A 
ATOM      2  C4  UNL d   1      -0.314  -0.561  -3.930  0.00  0.00     0.002 A 
ATOM      3  C5  UNL d   1       0.794   0.281  -3.828  0.00  0.00     0.002 A 
ATOM      4  C6  UNL d   1       2.074  -0.215  -4.059  0.00  0.00    -0.004 A 
ATOM      5  C7  UNL d   1       2.248  -1.558  -4.388  0.00  0.00     0.002 A 
ATOM      6  C8  UNL d   1       1.142  -2.402  -4.495  0.00  0.00     0.002 A 
ENDROOT
BRANCH   1   7
ATOM      7  C2  UNL d   1      -1.349  -2.821  -4.418  0.00  0.00     0.056 C 
BRANCH   7   8
ATOM      8  C1  UNL d   1      -1.455  -3.503  -5.785  0.00  0.00     0.007 C 
ATOM      9  C   UNL d   1      -2.587  -4.519  -5.863  0.00  0.00     0.009 C 
ENDBRANCH   7   8
ENDBRANCH   1   7
TORSDOF 2
ENDMDL
