MODEL 1
REMARK minimizedAffinity 5.93598366
REMARK minimizedRMSD -1
REMARK  2 active torsions:
REMARK  status: ('A' for Active; 'I' for Inactive)
REMARK    1  A    between atoms: C1_2  and  C2_3 
REMARK    2  A    between atoms: C2_3  and  C3_4 
ROOT
ATOM      1  C3  UNL d   1      -1.534  -3.468  -3.921  0.00  0.00    -0.075 A 
ATOM      2  C4  UNL d   1      -1.806  -3.420  -5.296  0.00  0.00     0.002 A 
ATOM      3  C5  UNL d   1      -2.120  -4.584  -5.997  0.00  0.00     0.002 A 
ATOM      4  C6  UNL d   1      -2.155  -5.810  -5.337  0.00  0.00    -0.004 A 
ATOM      5  C7  UNL d   1      -1.871  -5.873  -3.974  0.00  0.00     0.002 A 
ATOM      6  C8  UNL d   1      -1.561  -4.708  -3.269  0.00  0.00     0.002 A 
ENDROOT
BRANCH   1   7
ATOM      7  C2  UNL d   1      -1.222  -2.208  -3.150  0.00  0.00     0.056 C 
BRANCH   7   8
ATOM      8  C1  UNL d   1       0.193  -1.669  -3.381  0.00  0.00     0.007 C 
ATOM      9  C   UNL d   1       0.228  -0.436  -4.274  0.00  0.00     0.009 C 
ENDBRANCH   7   8
ENDBRANCH   1   7
TORSDOF 2
ENDMDL
