MODEL 1
REMARK minimizedAffinity 9.45850563
REMARK minimizedRMSD -1
REMARK  2 active torsions:
REMARK  status: ('A' for Active; 'I' for Inactive)
REMARK    1  A    between atoms: C1_2  and  C2_3 
REMARK    2  A    between atoms: C2_3  and  C3_4 
ROOT
ATOM      1  C3  UNL d   1       1.088   0.257   3.293  0.00  0.00    -0.075 A 
ATOM      2  C4  UNL d   1       0.048   1.113   2.905  0.00  0.00     0.002 A 
ATOM      3  C5  UNL d   1      -0.948   0.669   2.035  0.00  0.00     0.002 A 
ATOM      4  C6  UNL d   1      -0.911  -0.630   1.533  0.00  0.00    -0.004 A 
ATOM      5  C7  UNL d   1       0.127  -1.484   1.899  0.00  0.00     0.002 A 
ATOM      6  C8  UNL d   1       1.122  -1.044   2.773  0.00  0.00     0.002 A 
ENDROOT
BRANCH   1   7
ATOM      7  C2  UNL d   1       2.153   0.721   4.258  0.00  0.00     0.056 C 
BRANCH   7   8
ATOM      8  C1  UNL d   1       3.514   0.983   3.606  0.00  0.00     0.007 C 
ATOM      9  C   UNL d   1       4.656   1.063   4.611  0.00  0.00     0.009 C 
ENDBRANCH   7   8
ENDBRANCH   1   7
TORSDOF 2
ENDMDL
