MODEL 1
REMARK minimizedAffinity 8.97956753
REMARK minimizedRMSD -1
REMARK  2 active torsions:
REMARK  status: ('A' for Active; 'I' for Inactive)
REMARK    1  A    between atoms: C1_2  and  C2_3 
REMARK    2  A    between atoms: C2_3  and  C3_4 
ROOT
ATOM      1  C3  UNL d   1       3.960  -3.238   4.875  0.00  0.00    -0.075 A 
ATOM      2  C4  UNL d   1       2.923  -3.630   5.734  0.00  0.00     0.002 A 
ATOM      3  C5  UNL d   1       1.592  -3.376   5.400  0.00  0.00     0.002 A 
ATOM      4  C6  UNL d   1       1.282  -2.720   4.211  0.00  0.00    -0.004 A 
ATOM      5  C7  UNL d   1       2.305  -2.312   3.357  0.00  0.00     0.002 A 
ATOM      6  C8  UNL d   1       3.637  -2.568   3.687  0.00  0.00     0.002 A 
ENDROOT
BRANCH   1   7
ATOM      7  C2  UNL d   1       5.400  -3.536   5.216  0.00  0.00     0.056 C 
BRANCH   7   8
ATOM      8  C1  UNL d   1       5.948  -4.805   4.554  0.00  0.00     0.007 C 
ATOM      9  C   UNL d   1       6.000  -6.000   5.497  0.00  0.00     0.009 C 
ENDBRANCH   7   8
ENDBRANCH   1   7
TORSDOF 2
ENDMDL
