MODEL 1
REMARK minimizedAffinity 4.61889982
REMARK minimizedRMSD -1
REMARK  2 active torsions:
REMARK  status: ('A' for Active; 'I' for Inactive)
REMARK    1  A    between atoms: C1_2  and  C2_3 
REMARK    2  A    between atoms: C2_3  and  C3_4 
ROOT
ATOM      1  C3  UNL d   1      -1.523  -3.118  -4.097  0.00  0.00    -0.075 A 
ATOM      2  C4  UNL d   1      -1.793  -3.914  -2.974  0.00  0.00     0.002 A 
ATOM      3  C5  UNL d   1      -1.728  -5.305  -3.060  0.00  0.00     0.002 A 
ATOM      4  C6  UNL d   1      -1.404  -5.917  -4.269  0.00  0.00    -0.004 A 
ATOM      5  C7  UNL d   1      -1.151  -5.137  -5.395  0.00  0.00     0.002 A 
ATOM      6  C8  UNL d   1      -1.210  -3.745  -5.311  0.00  0.00     0.002 A 
ENDROOT
BRANCH   1   7
ATOM      7  C2  UNL d   1      -1.562  -1.612  -4.004  0.00  0.00     0.056 C 
BRANCH   7   8
ATOM      8  C1  UNL d   1      -0.517  -0.905  -4.873  0.00  0.00     0.007 C 
ATOM      9  C   UNL d   1       0.606  -0.269  -4.064  0.00  0.00     0.009 C 
ENDBRANCH   7   8
ENDBRANCH   1   7
TORSDOF 2
ENDMDL
