MODEL 1
REMARK minimizedAffinity -4.61509895
REMARK minimizedRMSD -1
REMARK  0 active torsions:
REMARK  status: ('A' for Active; 'I' for Inactive)
ROOT
ATOM      1  C   UNL d   1      -0.874   1.206  -0.534  0.00  0.00     0.078 C 
ATOM      2  C1  UNL d   1       0.071   0.144  -0.059  0.00  0.00    -0.077 A 
ATOM      3  C2  UNL d   1       1.457   0.300  -0.190  0.00  0.00    -0.001 A 
ATOM      4  C3  UNL d   1       2.325  -0.701   0.248  0.00  0.00     0.003 A 
ATOM      5  C4  UNL d   1       1.817  -1.867   0.819  0.00  0.00    -0.005 A 
ATOM      6  C5  UNL d   1       0.440  -2.032   0.951  0.00  0.00     0.003 A 
ATOM      7  C6  UNL d   1      -0.429  -1.032   0.514  0.00  0.00    -0.001 A 
ENDROOT
TORSDOF 0
ENDMDL
