MODEL 1
REMARK minimizedAffinity -5.23766804
REMARK minimizedRMSD -1
REMARK  0 active torsions:
REMARK  status: ('A' for Active; 'I' for Inactive)
ROOT
ATOM      1  C   UNL d   1      -0.959   0.888  -0.434  0.00  0.00     0.078 C 
ATOM      2  C1  UNL d   1      -0.060  -0.196   0.080  0.00  0.00    -0.077 A 
ATOM      3  C2  UNL d   1       1.332  -0.051   0.057  0.00  0.00    -0.001 A 
ATOM      4  C3  UNL d   1       2.157  -1.073   0.530  0.00  0.00     0.003 A 
ATOM      5  C4  UNL d   1       1.599  -2.248   1.028  0.00  0.00    -0.005 A 
ATOM      6  C5  UNL d   1       0.214  -2.403   1.052  0.00  0.00     0.003 A 
ATOM      7  C6  UNL d   1      -0.612  -1.383   0.580  0.00  0.00    -0.001 A 
ENDROOT
TORSDOF 0
ENDMDL
