MODEL 1
REMARK minimizedAffinity -5.20748091
REMARK minimizedRMSD -1
REMARK  0 active torsions:
REMARK  status: ('A' for Active; 'I' for Inactive)
ROOT
ATOM      1  C   UNL d   1      -0.305   1.183  -0.367  0.00  0.00     0.078 C 
ATOM      2  C1  UNL d   1       0.351  -0.116  -0.003  0.00  0.00    -0.077 A 
ATOM      3  C2  UNL d   1      -0.358  -1.322  -0.058  0.00  0.00    -0.001 A 
ATOM      4  C3  UNL d   1       0.262  -2.522   0.293  0.00  0.00     0.003 A 
ATOM      5  C4  UNL d   1       1.594  -2.527   0.703  0.00  0.00    -0.005 A 
ATOM      6  C5  UNL d   1       2.307  -1.332   0.764  0.00  0.00     0.003 A 
ATOM      7  C6  UNL d   1       1.688  -0.131   0.413  0.00  0.00    -0.001 A 
ENDROOT
TORSDOF 0
ENDMDL
