MODEL 1
REMARK minimizedAffinity -2.96423793
REMARK minimizedRMSD -1
REMARK  0 active torsions:
REMARK  status: ('A' for Active; 'I' for Inactive)
ROOT
ATOM      1  C   UNL d   1      -0.407   0.977  -1.335  0.00  0.00     0.078 C 
ATOM      2  C1  UNL d   1       0.236  -0.094  -0.506  0.00  0.00    -0.077 A 
ATOM      3  C2  UNL d   1      -0.539  -0.999   0.231  0.00  0.00    -0.001 A 
ATOM      4  C3  UNL d   1       0.074  -1.984   1.007  0.00  0.00     0.003 A 
ATOM      5  C4  UNL d   1       1.464  -2.074   1.054  0.00  0.00    -0.005 A 
ATOM      6  C5  UNL d   1       2.243  -1.178   0.325  0.00  0.00     0.003 A 
ATOM      7  C6  UNL d   1       1.632  -0.191  -0.450  0.00  0.00    -0.001 A 
ENDROOT
TORSDOF 0
ENDMDL
