MODEL 1
REMARK minimizedAffinity -5.36876726
REMARK minimizedRMSD -1
REMARK  0 active torsions:
REMARK  status: ('A' for Active; 'I' for Inactive)
ROOT
ATOM      1  C   UNL d   1       1.660  -2.794   1.144  0.00  0.00     0.078 C 
ATOM      2  C1  UNL d   1       1.146  -1.498   0.591  0.00  0.00    -0.077 A 
ATOM      3  C2  UNL d   1       1.933  -0.717  -0.264  0.00  0.00    -0.001 A 
ATOM      4  C3  UNL d   1       1.446   0.492  -0.764  0.00  0.00     0.003 A 
ATOM      5  C4  UNL d   1       0.171   0.931  -0.412  0.00  0.00    -0.005 A 
ATOM      6  C5  UNL d   1      -0.618   0.162   0.440  0.00  0.00     0.003 A 
ATOM      7  C6  UNL d   1      -0.133  -1.047   0.941  0.00  0.00    -0.001 A 
ENDROOT
TORSDOF 0
ENDMDL
