MODEL 1
REMARK minimizedAffinity -4.63751364
REMARK minimizedRMSD -1
REMARK  0 active torsions:
REMARK  status: ('A' for Active; 'I' for Inactive)
ROOT
ATOM      1  C   UNL d   1       1.809  -2.150   0.622  0.00  0.00     0.078 C 
ATOM      2  C1  UNL d   1       1.144  -0.890   0.155  0.00  0.00    -0.077 A 
ATOM      3  C2  UNL d   1       1.853   0.070  -0.577  0.00  0.00    -0.001 A 
ATOM      4  C3  UNL d   1       1.224   1.244  -0.997  0.00  0.00     0.003 A 
ATOM      5  C4  UNL d   1      -0.116   1.468  -0.689  0.00  0.00    -0.005 A 
ATOM      6  C5  UNL d   1      -0.829   0.520   0.041  0.00  0.00     0.003 A 
ATOM      7  C6  UNL d   1      -0.202  -0.654   0.462  0.00  0.00    -0.001 A 
ENDROOT
TORSDOF 0
ENDMDL
