MODEL 1
REMARK minimizedAffinity -5.08949471
REMARK minimizedRMSD -1
REMARK  0 active torsions:
REMARK  status: ('A' for Active; 'I' for Inactive)
ROOT
ATOM      1  C   UNL d   1       1.569  -3.001   0.331  0.00  0.00     0.078 C 
ATOM      2  C1  UNL d   1       0.918  -1.658   0.180  0.00  0.00    -0.077 A 
ATOM      3  C2  UNL d   1       1.620  -0.574  -0.361  0.00  0.00    -0.001 A 
ATOM      4  C3  UNL d   1       1.005   0.673  -0.486  0.00  0.00     0.003 A 
ATOM      5  C4  UNL d   1      -0.314   0.847  -0.072  0.00  0.00    -0.005 A 
ATOM      6  C5  UNL d   1      -1.020  -0.226   0.469  0.00  0.00     0.003 A 
ATOM      7  C6  UNL d   1      -0.406  -1.473   0.596  0.00  0.00    -0.001 A 
ENDROOT
TORSDOF 0
ENDMDL
