MODEL 1
REMARK minimizedAffinity -3.68049312
REMARK minimizedRMSD -1
REMARK  0 active torsions:
REMARK  status: ('A' for Active; 'I' for Inactive)
ROOT
ATOM      1  C   UNL d   1      -0.366   1.076  -0.439  0.00  0.00     0.078 C 
ATOM      2  C1  UNL d   1       0.333  -0.094   0.186  0.00  0.00    -0.077 A 
ATOM      3  C2  UNL d   1      -0.190  -0.723   1.323  0.00  0.00    -0.001 A 
ATOM      4  C3  UNL d   1       0.476  -1.805   1.900  0.00  0.00     0.003 A 
ATOM      5  C4  UNL d   1       1.670  -2.267   1.349  0.00  0.00    -0.005 A 
ATOM      6  C5  UNL d   1       2.199  -1.646   0.219  0.00  0.00     0.003 A 
ATOM      7  C6  UNL d   1       1.534  -0.564  -0.359  0.00  0.00    -0.001 A 
ENDROOT
TORSDOF 0
ENDMDL
