MODEL 1
REMARK minimizedAffinity -2.8815968
REMARK minimizedRMSD -1
REMARK  0 active torsions:
REMARK  status: ('A' for Active; 'I' for Inactive)
ROOT
ATOM      1  C   UNL d   1       1.779  -2.535   0.690  0.00  0.00     0.078 C 
ATOM      2  C1  UNL d   1       1.104  -1.273   0.243  0.00  0.00    -0.077 A 
ATOM      3  C2  UNL d   1       1.764  -0.354  -0.582  0.00  0.00    -0.001 A 
ATOM      4  C3  UNL d   1       1.127   0.821  -0.982  0.00  0.00     0.003 A 
ATOM      5  C4  UNL d   1      -0.174   1.089  -0.562  0.00  0.00    -0.005 A 
ATOM      6  C5  UNL d   1      -0.839   0.182   0.261  0.00  0.00     0.003 A 
ATOM      7  C6  UNL d   1      -0.203  -0.994   0.662  0.00  0.00    -0.001 A 
ENDROOT
TORSDOF 0
ENDMDL
