MODEL 1
REMARK minimizedAffinity -5.13851881
REMARK minimizedRMSD -1
REMARK  0 active torsions:
REMARK  status: ('A' for Active; 'I' for Inactive)
ROOT
ATOM      1  C   UNL d   1      -0.678   0.821  -0.798  0.00  0.00     0.078 C 
ATOM      2  C1  UNL d   1       0.147  -0.295  -0.230  0.00  0.00    -0.077 A 
ATOM      3  C2  UNL d   1      -0.454  -1.464   0.253  0.00  0.00    -0.001 A 
ATOM      4  C3  UNL d   1       0.326  -2.490   0.787  0.00  0.00     0.003 A 
ATOM      5  C4  UNL d   1       1.712  -2.357   0.846  0.00  0.00    -0.005 A 
ATOM      6  C5  UNL d   1       2.319  -1.197   0.371  0.00  0.00     0.003 A 
ATOM      7  C6  UNL d   1       1.541  -0.169  -0.164  0.00  0.00    -0.001 A 
ENDROOT
TORSDOF 0
ENDMDL
