MODEL 1
REMARK minimizedAffinity -2.67643666
REMARK minimizedRMSD -1
REMARK  0 active torsions:
REMARK  status: ('A' for Active; 'I' for Inactive)
ROOT
ATOM      1  C   UNL d   1      -0.726   1.178   0.138  0.00  0.00     0.078 C 
ATOM      2  C1  UNL d   1      -1.345   1.527  -1.183  0.00  0.00    -0.077 A 
ATOM      3  C2  UNL d   1      -2.726   1.412  -1.384  0.00  0.00    -0.001 A 
ATOM      4  C3  UNL d   1      -3.288   1.731  -2.622  0.00  0.00     0.003 A 
ATOM      5  C4  UNL d   1      -2.476   2.166  -3.667  0.00  0.00    -0.005 A 
ATOM      6  C5  UNL d   1      -1.101   2.282  -3.477  0.00  0.00     0.003 A 
ATOM      7  C6  UNL d   1      -0.537   1.963  -2.240  0.00  0.00    -0.001 A 
ENDROOT
TORSDOF 0
ENDMDL
