MODEL 1
REMARK minimizedAffinity -2.40186238
REMARK minimizedRMSD -1
REMARK  0 active torsions:
REMARK  status: ('A' for Active; 'I' for Inactive)
ROOT
ATOM      1  C   UNL d   1      -1.131   1.106   0.357  0.00  0.00     0.078 C 
ATOM      2  C1  UNL d   1      -0.234  -0.091   0.250  0.00  0.00    -0.077 A 
ATOM      3  C2  UNL d   1      -0.758  -1.389   0.270  0.00  0.00    -0.001 A 
ATOM      4  C3  UNL d   1       0.090  -2.495   0.179  0.00  0.00     0.003 A 
ATOM      5  C4  UNL d   1       1.467  -2.313   0.070  0.00  0.00    -0.005 A 
ATOM      6  C5  UNL d   1       1.998  -1.025   0.052  0.00  0.00     0.003 A 
ATOM      7  C6  UNL d   1       1.152   0.082   0.142  0.00  0.00    -0.001 A 
ENDROOT
TORSDOF 0
ENDMDL
