MODEL 1
REMARK minimizedAffinity -4.75120115
REMARK minimizedRMSD -1
REMARK  0 active torsions:
REMARK  status: ('A' for Active; 'I' for Inactive)
ROOT
ATOM      1  C   UNL d   1      -1.722   0.163   1.108  0.00  0.00     0.078 C 
ATOM      2  C1  UNL d   1      -0.538  -0.739   0.930  0.00  0.00    -0.077 A 
ATOM      3  C2  UNL d   1      -0.544  -2.045   1.434  0.00  0.00    -0.001 A 
ATOM      4  C3  UNL d   1       0.570  -2.871   1.269  0.00  0.00     0.003 A 
ATOM      5  C4  UNL d   1       1.697  -2.399   0.601  0.00  0.00    -0.005 A 
ATOM      6  C5  UNL d   1       1.713  -1.100   0.097  0.00  0.00     0.003 A 
ATOM      7  C6  UNL d   1       0.601  -0.273   0.261  0.00  0.00    -0.001 A 
ENDROOT
TORSDOF 0
ENDMDL
