MODEL 1
REMARK minimizedAffinity -5.80908203
REMARK minimizedRMSD -1
REMARK  0 active torsions:
REMARK  status: ('A' for Active; 'I' for Inactive)
ROOT
ATOM      1  C   UNL d   1       1.155  -2.813   0.615  0.00  0.00     0.078 C 
ATOM      2  C1  UNL d   1       0.486  -1.474   0.530  0.00  0.00    -0.077 A 
ATOM      3  C2  UNL d   1      -0.710  -1.220   1.213  0.00  0.00    -0.001 A 
ATOM      4  C3  UNL d   1      -1.327   0.028   1.117  0.00  0.00     0.003 A 
ATOM      5  C4  UNL d   1      -0.756   1.033   0.337  0.00  0.00    -0.005 A 
ATOM      6  C5  UNL d   1       0.432   0.789  -0.348  0.00  0.00     0.003 A 
ATOM      7  C6  UNL d   1       1.051  -0.459  -0.253  0.00  0.00    -0.001 A 
ENDROOT
TORSDOF 0
ENDMDL
