MODEL 1
REMARK minimizedAffinity -3.66620255
REMARK minimizedRMSD -1
REMARK  0 active torsions:
REMARK  status: ('A' for Active; 'I' for Inactive)
ROOT
ATOM      1  C   UNL d   1       1.380  -3.271   0.570  0.00  0.00     0.078 C 
ATOM      2  C1  UNL d   1       1.058  -1.859   0.181  0.00  0.00    -0.077 A 
ATOM      3  C2  UNL d   1       2.070  -0.964  -0.187  0.00  0.00    -0.001 A 
ATOM      4  C3  UNL d   1       1.756   0.351  -0.537  0.00  0.00     0.003 A 
ATOM      5  C4  UNL d   1       0.431   0.781  -0.523  0.00  0.00    -0.005 A 
ATOM      6  C5  UNL d   1      -0.582  -0.102  -0.156  0.00  0.00     0.003 A 
ATOM      7  C6  UNL d   1      -0.271  -1.416   0.195  0.00  0.00    -0.001 A 
ENDROOT
TORSDOF 0
ENDMDL
