MODEL 1
REMARK minimizedAffinity -1.96015942
REMARK minimizedRMSD -1
REMARK  0 active torsions:
REMARK  status: ('A' for Active; 'I' for Inactive)
ROOT
ATOM      1  C1  BNZ d   1      -1.086   2.936  -3.307  0.00  0.00     0.000 A 
ATOM      2  C2  BNZ d   1      -1.432   3.000  -1.983  0.00  0.00     0.000 A 
ATOM      3  C3  BNZ d   1      -1.958   1.912  -1.344  0.00  0.00     0.000 A 
ATOM      4  C4  BNZ d   1      -2.174   0.776  -2.037  0.00  0.00     0.000 A 
ATOM      5  C5  BNZ d   1      -1.839   0.699  -3.375  0.00  0.00     0.000 A 
ATOM      6  C6  BNZ d   1      -1.274   1.783  -4.005  0.00  0.00     0.000 A 
ENDROOT
TORSDOF 0
ENDMDL
