MODEL 1
REMARK minimizedAffinity -2.84939075
REMARK minimizedRMSD -1
REMARK  0 active torsions:
REMARK  status: ('A' for Active; 'I' for Inactive)
ROOT
ATOM      1  C1  BNZ d   1      -0.303  -0.308   1.044  0.00  0.00     0.000 A 
ATOM      2  C2  BNZ d   1       0.326  -0.173  -0.164  0.00  0.00     0.000 A 
ATOM      3  C3  BNZ d   1       1.417  -0.935  -0.475  0.00  0.00     0.000 A 
ATOM      4  C4  BNZ d   1       1.901  -1.802   0.438  0.00  0.00     0.000 A 
ATOM      5  C5  BNZ d   1       1.284  -1.943   1.664  0.00  0.00     0.000 A 
ATOM      6  C6  BNZ d   1       0.163  -1.202   1.959  0.00  0.00     0.000 A 
ENDROOT
TORSDOF 0
ENDMDL
