MODEL 1
REMARK minimizedAffinity -0.124492347
REMARK minimizedRMSD -1
REMARK  0 active torsions:
REMARK  status: ('A' for Active; 'I' for Inactive)
ROOT
ATOM      1  C1  BNZ d   1      -0.283   1.428  -0.407  0.00  0.00     0.000 A 
ATOM      2  C2  BNZ d   1       0.826   0.703  -0.752  0.00  0.00     0.000 A 
ATOM      3  C3  BNZ d   1       1.147  -0.445  -0.083  0.00  0.00     0.000 A 
ATOM      4  C4  BNZ d   1       0.383  -0.843   0.955  0.00  0.00     0.000 A 
ATOM      5  C5  BNZ d   1      -0.733  -0.118   1.320  0.00  0.00     0.000 A 
ATOM      6  C6  BNZ d   1      -1.075   1.016   0.619  0.00  0.00     0.000 A 
ENDROOT
TORSDOF 0
ENDMDL
