MODEL 1
REMARK minimizedAffinity -4.12715626
REMARK minimizedRMSD -1
REMARK  0 active torsions:
REMARK  status: ('A' for Active; 'I' for Inactive)
ROOT
ATOM      1  C1  BNZ d   1       1.877  -1.749   0.781  0.00  0.00     0.000 A 
ATOM      2  C2  BNZ d   1       1.330  -0.884  -0.129  0.00  0.00     0.000 A 
ATOM      3  C3  BNZ d   1       0.155  -0.238   0.137  0.00  0.00     0.000 A 
ATOM      4  C4  BNZ d   1      -0.491  -0.488   1.295  0.00  0.00     0.000 A 
ATOM      5  C5  BNZ d   1       0.043  -1.364   2.218  0.00  0.00     0.000 A 
ATOM      6  C6  BNZ d   1       1.246  -1.983   1.963  0.00  0.00     0.000 A 
ENDROOT
TORSDOF 0
ENDMDL
