MODEL 1
REMARK minimizedAffinity -3.0301733
REMARK minimizedRMSD -1
REMARK  0 active torsions:
REMARK  status: ('A' for Active; 'I' for Inactive)
ROOT
ATOM      1  C1  BNZ d   1       0.778   0.424  -0.573  0.00  0.00     0.000 A 
ATOM      2  C2  BNZ d   1       2.026  -0.139  -0.557  0.00  0.00     0.000 A 
ATOM      3  C3  BNZ d   1       2.363  -1.066   0.390  0.00  0.00     0.000 A 
ATOM      4  C4  BNZ d   1       1.468  -1.397   1.342  0.00  0.00     0.000 A 
ATOM      5  C5  BNZ d   1       0.208  -0.831   1.345  0.00  0.00     0.000 A 
ATOM      6  C6  BNZ d   1      -0.141   0.072   0.367  0.00  0.00     0.000 A 
ENDROOT
TORSDOF 0
ENDMDL
