MODEL 1
REMARK minimizedAffinity -1.96051824
REMARK minimizedRMSD -1
REMARK  0 active torsions:
REMARK  status: ('A' for Active; 'I' for Inactive)
ROOT
ATOM      1  C1  BNZ d   1      -1.877   2.631  -3.315  0.00  0.00     0.000 A 
ATOM      2  C2  BNZ d   1      -1.021   2.664  -2.246  0.00  0.00     0.000 A 
ATOM      3  C3  BNZ d   1      -1.267   1.915  -1.130  0.00  0.00     0.000 A 
ATOM      4  C4  BNZ d   1      -2.387   1.167  -1.066  0.00  0.00     0.000 A 
ATOM      5  C5  BNZ d   1      -3.264   1.130  -2.131  0.00  0.00     0.000 A 
ATOM      6  C6  BNZ d   1      -2.994   1.855  -3.269  0.00  0.00     0.000 A 
ENDROOT
TORSDOF 0
ENDMDL
