MODEL 1
REMARK minimizedAffinity -3.36924076
REMARK minimizedRMSD -1
REMARK  0 active torsions:
REMARK  status: ('A' for Active; 'I' for Inactive)
ROOT
ATOM      1  C1  BNZ d   1       0.155   0.507  -0.131  0.00  0.00     0.000 A 
ATOM      2  C2  BNZ d   1       1.335  -0.179  -0.247  0.00  0.00     0.000 A 
ATOM      3  C3  BNZ d   1       1.622  -1.224   0.585  0.00  0.00     0.000 A 
ATOM      4  C4  BNZ d   1       0.748  -1.557   1.557  0.00  0.00     0.000 A 
ATOM      5  C5  BNZ d   1      -0.442  -0.869   1.693  0.00  0.00     0.000 A 
ATOM      6  C6  BNZ d   1      -0.744   0.158   0.829  0.00  0.00     0.000 A 
ENDROOT
TORSDOF 0
ENDMDL
