MODEL 1
REMARK minimizedAffinity 1.28636563
REMARK minimizedRMSD -1
REMARK  0 active torsions:
REMARK  status: ('A' for Active; 'I' for Inactive)
ROOT
ATOM      1  C1  BNZ d   1       0.703  -2.504   1.221  0.00  0.00     0.000 A 
ATOM      2  C2  BNZ d   1       0.582  -1.234   1.718  0.00  0.00     0.000 A 
ATOM      3  C3  BNZ d   1       1.434  -0.242   1.319  0.00  0.00     0.000 A 
ATOM      4  C4  BNZ d   1       2.429  -0.530   0.456  0.00  0.00     0.000 A 
ATOM      5  C5  BNZ d   1       2.570  -1.808  -0.048  0.00  0.00     0.000 A 
ATOM      6  C6  BNZ d   1       1.687  -2.795   0.326  0.00  0.00     0.000 A 
ENDROOT
TORSDOF 0
ENDMDL
