MODEL 1
REMARK minimizedAffinity -1.61840177
REMARK minimizedRMSD -1
REMARK  0 active torsions:
REMARK  status: ('A' for Active; 'I' for Inactive)
ROOT
ATOM      1  C1  BNZ d   1      -1.212   2.274  -3.697  0.00  0.00     0.000 A 
ATOM      2  C2  BNZ d   1      -0.749   2.439  -2.418  0.00  0.00     0.000 A 
ATOM      3  C3  BNZ d   1      -1.332   1.781  -1.372  0.00  0.00     0.000 A 
ATOM      4  C4  BNZ d   1      -2.402   0.991  -1.599  0.00  0.00     0.000 A 
ATOM      5  C5  BNZ d   1      -2.886   0.821  -2.881  0.00  0.00     0.000 A 
ATOM      6  C6  BNZ d   1      -2.272   1.455  -3.937  0.00  0.00     0.000 A 
ENDROOT
TORSDOF 0
ENDMDL
