MODEL 1
REMARK minimizedAffinity -2.42865777
REMARK minimizedRMSD -1
REMARK  0 active torsions:
REMARK  status: ('A' for Active; 'I' for Inactive)
ROOT
ATOM      1  C1  BNZ d   1      -2.185   1.097  -4.013  0.00  0.00     0.000 A 
ATOM      2  C2  BNZ d   1      -3.063   0.822  -2.999  0.00  0.00     0.000 A 
ATOM      3  C3  BNZ d   1      -2.871   1.338  -1.748  0.00  0.00     0.000 A 
ATOM      4  C4  BNZ d   1      -1.781   2.094  -1.503  0.00  0.00     0.000 A 
ATOM      5  C5  BNZ d   1      -0.882   2.372  -2.513  0.00  0.00     0.000 A 
ATOM      6  C6  BNZ d   1      -1.099   1.884  -3.780  0.00  0.00     0.000 A 
ENDROOT
TORSDOF 0
ENDMDL
