MODEL 1
REMARK minimizedAffinity -3.59847546
REMARK minimizedRMSD -1
REMARK  0 active torsions:
REMARK  status: ('A' for Active; 'I' for Inactive)
ROOT
ATOM      1  C1  BNZ d   1       0.081  -0.480   0.807  0.00  0.00     0.000 A 
ATOM      2  C2  BNZ d   1      -0.533  -0.758   1.999  0.00  0.00     0.000 A 
ATOM      3  C3  BNZ d   1       0.070  -1.561   2.926  0.00  0.00     0.000 A 
ATOM      4  C4  BNZ d   1       1.266  -2.117   2.645  0.00  0.00     0.000 A 
ATOM      5  C5  BNZ d   1       1.893  -1.854   1.443  0.00  0.00     0.000 A 
ATOM      6  C6  BNZ d   1       1.301  -1.014   0.528  0.00  0.00     0.000 A 
ENDROOT
TORSDOF 0
ENDMDL
