MODEL 1
REMARK minimizedAffinity -2.27124047
REMARK minimizedRMSD -1
REMARK  0 active torsions:
REMARK  status: ('A' for Active; 'I' for Inactive)
ROOT
ATOM      1  C1  BNZ d   1      -2.346   1.184  -0.894  0.00  0.00     0.000 A 
ATOM      2  C2  BNZ d   1      -3.313   1.069  -1.857  0.00  0.00     0.000 A 
ATOM      3  C3  BNZ d   1      -3.207   1.745  -3.040  0.00  0.00     0.000 A 
ATOM      4  C4  BNZ d   1      -2.157   2.567  -3.242  0.00  0.00     0.000 A 
ATOM      5  C5  BNZ d   1      -1.179   2.702  -2.278  0.00  0.00     0.000 A 
ATOM      6  C6  BNZ d   1      -1.268   1.989  -1.104  0.00  0.00     0.000 A 
ENDROOT
TORSDOF 0
ENDMDL
