MODEL 1
REMARK minimizedAffinity -0.284402728
REMARK minimizedRMSD -1
REMARK  0 active torsions:
REMARK  status: ('A' for Active; 'I' for Inactive)
ROOT
ATOM      1  C1  BNZ d   1      -2.574   1.132  -1.639  0.00  0.00     0.000 A 
ATOM      2  C2  BNZ d   1      -2.674   1.036  -3.001  0.00  0.00     0.000 A 
ATOM      3  C3  BNZ d   1      -1.747   1.625  -3.814  0.00  0.00     0.000 A 
ATOM      4  C4  BNZ d   1      -0.746   2.343  -3.267  0.00  0.00     0.000 A 
ATOM      5  C5  BNZ d   1      -0.636   2.458  -1.895  0.00  0.00     0.000 A 
ATOM      6  C6  BNZ d   1      -1.549   1.830  -1.078  0.00  0.00     0.000 A 
ENDROOT
TORSDOF 0
ENDMDL
