MODEL 1
REMARK minimizedAffinity -4.99068785
REMARK minimizedRMSD -1
REMARK  0 active torsions:
REMARK  status: ('A' for Active; 'I' for Inactive)
ROOT
ATOM      1  C1  BNZ d   1      -0.110  -1.393   1.293  0.00  0.00     0.000 A 
ATOM      2  C2  BNZ d   1      -0.501  -0.252   0.646  0.00  0.00     0.000 A 
ATOM      3  C3  BNZ d   1       0.370   0.433  -0.155  0.00  0.00     0.000 A 
ATOM      4  C4  BNZ d   1       1.641  -0.001  -0.275  0.00  0.00     0.000 A 
ATOM      5  C5  BNZ d   1       2.054  -1.145   0.379  0.00  0.00     0.000 A 
ATOM      6  C6  BNZ d   1       1.163  -1.853   1.153  0.00  0.00     0.000 A 
ENDROOT
TORSDOF 0
ENDMDL
