MODEL 1
REMARK minimizedAffinity -3.83191895
REMARK minimizedRMSD -1
REMARK  0 active torsions:
REMARK  status: ('A' for Active; 'I' for Inactive)
ROOT
ATOM      1  C1  BNZ d   1      -2.485   0.282  -2.556  0.00  0.00     0.000 A 
ATOM      2  C2  BNZ d   1      -1.691  -0.239  -1.569  0.00  0.00     0.000 A 
ATOM      3  C3  BNZ d   1      -0.956   0.579  -0.757  0.00  0.00     0.000 A 
ATOM      4  C4  BNZ d   1      -0.985   1.912  -0.958  0.00  0.00     0.000 A 
ATOM      5  C5  BNZ d   1      -1.773   2.452  -1.955  0.00  0.00     0.000 A 
ATOM      6  C6  BNZ d   1      -2.542   1.629  -2.745  0.00  0.00     0.000 A 
ENDROOT
TORSDOF 0
ENDMDL
