MODEL 1
REMARK minimizedAffinity -4.00008726
REMARK minimizedRMSD -1
REMARK  0 active torsions:
REMARK  status: ('A' for Active; 'I' for Inactive)
ROOT
ATOM      1  C1  BNZ d   1       0.138   1.252  -0.352  0.00  0.00     0.000 A 
ATOM      2  C2  BNZ d   1       1.376   1.192  -0.934  0.00  0.00     0.000 A 
ATOM      3  C3  BNZ d   1       2.145   0.067  -0.830  0.00  0.00     0.000 A 
ATOM      4  C4  BNZ d   1       1.694  -0.980  -0.110  0.00  0.00     0.000 A 
ATOM      5  C5  BNZ d   1       0.452  -0.932   0.491  0.00  0.00     0.000 A 
ATOM      6  C6  BNZ d   1      -0.336   0.188   0.351  0.00  0.00     0.000 A 
ENDROOT
TORSDOF 0
ENDMDL
