MODEL 1
REMARK minimizedAffinity -1.99103069
REMARK minimizedRMSD -1
REMARK  0 active torsions:
REMARK  status: ('A' for Active; 'I' for Inactive)
ROOT
ATOM      1  C1  BNZ d   1      -1.201   2.628  -2.317  0.00  0.00     0.000 A 
ATOM      2  C2  BNZ d   1      -0.581   2.216  -1.167  0.00  0.00     0.000 A 
ATOM      3  C3  BNZ d   1      -0.985   1.079  -0.524  0.00  0.00     0.000 A 
ATOM      4  C4  BNZ d   1      -2.031   0.379  -1.008  0.00  0.00     0.000 A 
ATOM      5  C5  BNZ d   1      -2.672   0.788  -2.161  0.00  0.00     0.000 A 
ATOM      6  C6  BNZ d   1      -2.238   1.911  -2.827  0.00  0.00     0.000 A 
ENDROOT
TORSDOF 0
ENDMDL
