MODEL 1
REMARK minimizedAffinity 4.62096977
REMARK minimizedRMSD -1
REMARK  0 active torsions:
REMARK  status: ('A' for Active; 'I' for Inactive)
ROOT
ATOM      1  C   UNL d   1      -0.181  -5.995  -3.026  0.00  0.00    -0.002 A 
ATOM      2  C1  UNL d   1      -0.718  -5.997  -4.306  0.00  0.00     0.010 A 
ATOM      3  C2  UNL d   1      -2.101  -6.000  -4.495  0.00  0.00     0.041 A 
ATOM      4  C3  UNL d   1      -2.944  -5.998  -3.366  0.00  0.00    -0.075 A 
ATOM      5  S   UNL d   1      -4.668  -6.000  -3.356  0.00  0.00     0.015 SA
ATOM      6  C4  UNL d   1      -4.732  -5.996  -1.653  0.00  0.00     0.022 A 
ATOM      7  C5  UNL d   1      -3.478  -5.994  -1.090  0.00  0.00     0.026 A 
ATOM      8  C6  UNL d   1      -2.426  -5.994  -2.068  0.00  0.00    -0.082 A 
ATOM      9  C7  UNL d   1      -1.020  -5.993  -1.909  0.00  0.00     0.045 A 
ENDROOT
TORSDOF 0
ENDMDL
