MODEL 1
REMARK minimizedAffinity 11.9114714
REMARK minimizedRMSD -1
REMARK  0 active torsions:
REMARK  status: ('A' for Active; 'I' for Inactive)
ROOT
ATOM      1  C   UNL d   1      -0.696  -5.928  -1.375  0.00  0.00    -0.002 A 
ATOM      2  C1  UNL d   1      -1.931  -5.926  -2.008  0.00  0.00     0.010 A 
ATOM      3  C2  UNL d   1      -2.014  -5.942  -3.401  0.00  0.00     0.041 A 
ATOM      4  C3  UNL d   1      -0.825  -5.963  -4.155  0.00  0.00    -0.075 A 
ATOM      5  S   UNL d   1      -0.684  -5.986  -5.874  0.00  0.00     0.015 SA
ATOM      6  C4  UNL d   1       1.019  -6.000  -5.808  0.00  0.00     0.022 A 
ATOM      7  C5  UNL d   1       1.486  -5.987  -4.515  0.00  0.00     0.026 A 
ATOM      8  C6  UNL d   1       0.431  -5.966  -3.541  0.00  0.00    -0.082 A 
ATOM      9  C7  UNL d   1       0.482  -5.949  -2.126  0.00  0.00     0.045 A 
ENDROOT
TORSDOF 0
ENDMDL
