MODEL 1
REMARK minimizedAffinity 3.14930797
REMARK minimizedRMSD -1
REMARK  0 active torsions:
REMARK  status: ('A' for Active; 'I' for Inactive)
ROOT
ATOM      1  C   UNL d   1      -0.601  -5.981  -5.990  0.00  0.00    -0.002 A 
ATOM      2  C1  UNL d   1       0.562  -5.986  -5.232  0.00  0.00     0.010 A 
ATOM      3  C2  UNL d   1       0.501  -5.991  -3.837  0.00  0.00     0.041 A 
ATOM      4  C3  UNL d   1      -0.761  -5.992  -3.210  0.00  0.00    -0.075 A 
ATOM      5  S   UNL d   1      -1.080  -5.998  -1.516  0.00  0.00     0.015 SA
ATOM      6  C4  UNL d   1      -2.767  -5.994  -1.758  0.00  0.00     0.022 A 
ATOM      7  C5  UNL d   1      -3.096  -5.988  -3.092  0.00  0.00     0.026 A 
ATOM      8  C6  UNL d   1      -1.946  -5.987  -3.952  0.00  0.00    -0.082 A 
ATOM      9  C7  UNL d   1      -1.851  -5.981  -5.364  0.00  0.00     0.045 A 
ENDROOT
TORSDOF 0
ENDMDL
