MODEL 1
REMARK minimizedAffinity 6.60688782
REMARK minimizedRMSD -1
REMARK  0 active torsions:
REMARK  status: ('A' for Active; 'I' for Inactive)
ROOT
ATOM      1  C   UNL d   1       2.446   0.651   0.211  0.00  0.00    -0.002 A 
ATOM      2  C1  UNL d   1       1.133   0.968  -0.104  0.00  0.00     0.010 A 
ATOM      3  C2  UNL d   1       0.116   0.024   0.059  0.00  0.00     0.041 A 
ATOM      4  C3  UNL d   1       0.445  -1.254   0.550  0.00  0.00    -0.075 A 
ATOM      5  S   UNL d   1      -0.634  -2.569   0.831  0.00  0.00     0.015 SA
ATOM      6  C4  UNL d   1       0.623  -3.582   1.377  0.00  0.00     0.022 A 
ATOM      7  C5  UNL d   1       1.843  -2.949   1.352  0.00  0.00     0.026 A 
ATOM      8  C6  UNL d   1       1.761  -1.597   0.875  0.00  0.00    -0.082 A 
ATOM      9  C7  UNL d   1       2.769  -0.619   0.698  0.00  0.00     0.045 A 
ENDROOT
TORSDOF 0
ENDMDL
