MODEL 1
REMARK minimizedAffinity 2.86248183
REMARK minimizedRMSD -1
REMARK  0 active torsions:
REMARK  status: ('A' for Active; 'I' for Inactive)
ROOT
ATOM      1  C   UNL d   1      -1.694  -5.991  -3.453  0.00  0.00    -0.002 A 
ATOM      2  C1  UNL d   1      -1.181  -5.985  -2.164  0.00  0.00     0.010 A 
ATOM      3  C2  UNL d   1      -2.035  -5.981  -1.059  0.00  0.00     0.041 A 
ATOM      4  C3  UNL d   1      -3.427  -5.986  -1.274  0.00  0.00    -0.075 A 
ATOM      5  S   UNL d   1      -4.664  -5.984  -0.073  0.00  0.00     0.015 SA
ATOM      6  C4  UNL d   1      -5.904  -5.994  -1.243  0.00  0.00     0.022 A 
ATOM      7  C5  UNL d   1      -5.404  -5.998  -2.524  0.00  0.00     0.026 A 
ATOM      8  C6  UNL d   1      -3.968  -5.994  -2.563  0.00  0.00    -0.082 A 
ATOM      9  C7  UNL d   1      -3.076  -5.997  -3.662  0.00  0.00     0.045 A 
ENDROOT
TORSDOF 0
ENDMDL
