MODEL 1
REMARK minimizedAffinity 4.94237709
REMARK minimizedRMSD -1
REMARK  0 active torsions:
REMARK  status: ('A' for Active; 'I' for Inactive)
ROOT
ATOM      1  C   UNL d   1      -0.047  -5.995  -5.465  0.00  0.00    -0.002 A 
ATOM      2  C1  UNL d   1       0.511  -5.997  -4.194  0.00  0.00     0.010 A 
ATOM      3  C2  UNL d   1      -0.304  -5.998  -3.061  0.00  0.00     0.041 A 
ATOM      4  C3  UNL d   1      -1.703  -5.998  -3.227  0.00  0.00    -0.075 A 
ATOM      5  S   UNL d   1      -2.898  -6.000  -1.984  0.00  0.00     0.015 SA
ATOM      6  C4  UNL d   1      -4.177  -5.998  -3.111  0.00  0.00     0.022 A 
ATOM      7  C5  UNL d   1      -3.721  -5.996  -4.408  0.00  0.00     0.026 A 
ATOM      8  C6  UNL d   1      -2.288  -5.996  -4.497  0.00  0.00    -0.082 A 
ATOM      9  C7  UNL d   1      -1.435  -5.995  -5.626  0.00  0.00     0.045 A 
ENDROOT
TORSDOF 0
ENDMDL
