MODEL 1
REMARK minimizedAffinity 4.25035191
REMARK minimizedRMSD -1
REMARK  0 active torsions:
REMARK  status: ('A' for Active; 'I' for Inactive)
ROOT
ATOM      1  C   UNL d   1      -2.320  -5.823  -2.438  0.00  0.00    -0.002 A 
ATOM      2  C1  UNL d   1      -2.906  -5.988  -3.686  0.00  0.00     0.010 A 
ATOM      3  C2  UNL d   1      -2.123  -5.998  -4.842  0.00  0.00     0.041 A 
ATOM      4  C3  UNL d   1      -0.728  -5.838  -4.722  0.00  0.00    -0.075 A 
ATOM      5  S   UNL d   1       0.429  -5.819  -6.000  0.00  0.00     0.015 SA
ATOM      6  C4  UNL d   1       1.728  -5.591  -4.920  0.00  0.00     0.022 A 
ATOM      7  C5  UNL d   1       1.307  -5.529  -3.613  0.00  0.00     0.026 A 
ATOM      8  C6  UNL d   1      -0.116  -5.671  -3.477  0.00  0.00    -0.082 A 
ATOM      9  C7  UNL d   1      -0.936  -5.665  -2.323  0.00  0.00     0.045 A 
ENDROOT
TORSDOF 0
ENDMDL
