MODEL 1
REMARK minimizedAffinity 10.0700378
REMARK minimizedRMSD -1
REMARK  0 active torsions:
REMARK  status: ('A' for Active; 'I' for Inactive)
ROOT
ATOM      1  C   UNL d   1       1.649  -5.999  -5.073  0.00  0.00    -0.002 A 
ATOM      2  C1  UNL d   1       0.529  -5.998  -5.892  0.00  0.00     0.010 A 
ATOM      3  C2  UNL d   1      -0.754  -5.999  -5.340  0.00  0.00     0.041 A 
ATOM      4  C3  UNL d   1      -0.893  -5.999  -3.939  0.00  0.00    -0.075 A 
ATOM      5  S   UNL d   1      -2.364  -5.999  -3.040  0.00  0.00     0.015 SA
ATOM      6  C4  UNL d   1      -1.540  -5.999  -1.548  0.00  0.00     0.022 A 
ATOM      7  C5  UNL d   1      -0.175  -5.999  -1.713  0.00  0.00     0.026 A 
ATOM      8  C6  UNL d   1       0.220  -5.998  -3.093  0.00  0.00    -0.082 A 
ATOM      9  C7  UNL d   1       1.507  -5.998  -3.683  0.00  0.00     0.045 A 
ENDROOT
TORSDOF 0
ENDMDL
