MODEL 1
REMARK minimizedAffinity 0.847456098
REMARK minimizedRMSD -1
REMARK  0 active torsions:
REMARK  status: ('A' for Active; 'I' for Inactive)
ROOT
ATOM      1  C   UNL d   1       0.012  -5.425  -1.251  0.00  0.00    -0.002 A 
ATOM      2  C1  UNL d   1       1.367  -5.251  -1.496  0.00  0.00     0.010 A 
ATOM      3  C2  UNL d   1       1.869  -5.325  -2.796  0.00  0.00     0.041 A 
ATOM      4  C3  UNL d   1       0.977  -5.578  -3.857  0.00  0.00    -0.075 A 
ATOM      5  S   UNL d   1       1.365  -5.711  -5.532  0.00  0.00     0.015 SA
ATOM      6  C4  UNL d   1      -0.259  -6.000  -5.962  0.00  0.00     0.022 A 
ATOM      7  C5  UNL d   1      -1.090  -5.999  -4.867  0.00  0.00     0.026 A 
ATOM      8  C6  UNL d   1      -0.391  -5.755  -3.636  0.00  0.00    -0.082 A 
ATOM      9  C7  UNL d   1      -0.869  -5.675  -2.306  0.00  0.00     0.045 A 
ENDROOT
TORSDOF 0
ENDMDL
