MODEL 1
REMARK minimizedAffinity -2.89616537
REMARK minimizedRMSD -1
REMARK  1 active torsions:
REMARK  status: ('A' for Active; 'I' for Inactive)
REMARK    1  A    between atoms: C1_2  and  C2_3 
ROOT
ATOM      1  C2  UNL d   1      -1.149   0.149  -0.442  0.00  0.00    -0.081 A 
ATOM      2  C3  UNL d   1      -0.030   0.874  -0.014  0.00  0.00     0.006 A 
ATOM      3  C4  UNL d   1       1.205   0.241   0.143  0.00  0.00     0.002 A 
ATOM      4  C5  UNL d   1       1.345  -1.123  -0.133  0.00  0.00    -0.080 A 
ATOM      5  C6  UNL d   1       2.672  -1.808   0.003  0.00  0.00     0.076 C 
ATOM      6  C7  UNL d   1       0.223  -1.851  -0.544  0.00  0.00     0.002 A 
ATOM      7  C8  UNL d   1      -1.013  -1.220  -0.700  0.00  0.00     0.006 A 
ENDROOT
BRANCH   1   8
ATOM      8  C1  UNL d   1      -2.468   0.841  -0.675  0.00  0.00     0.054 C 
ATOM      9  C   UNL d   1      -3.408   0.652   0.507  0.00  0.00     0.018 C 
ENDBRANCH   1   8
TORSDOF 1
ENDMDL
