MODEL 1
REMARK minimizedAffinity -2.30921292
REMARK minimizedRMSD -1
REMARK  1 active torsions:
REMARK  status: ('A' for Active; 'I' for Inactive)
REMARK    1  A    between atoms: C1_2  and  C2_3 
ROOT
ATOM      1  C2  UNL d   1      -1.587   0.423   1.383  0.00  0.00    -0.081 A 
ATOM      2  C3  UNL d   1      -0.837  -0.425   2.207  0.00  0.00     0.006 A 
ATOM      3  C4  UNL d   1       0.374  -0.959   1.758  0.00  0.00     0.002 A 
ATOM      4  C5  UNL d   1       0.857  -0.649   0.483  0.00  0.00    -0.080 A 
ATOM      5  C6  UNL d   1       2.170  -1.192   0.001  0.00  0.00     0.076 C 
ATOM      6  C7  UNL d   1       0.099   0.184  -0.347  0.00  0.00     0.002 A 
ATOM      7  C8  UNL d   1      -1.111   0.718   0.100  0.00  0.00     0.006 A 
ENDROOT
BRANCH   1   8
ATOM      8  C1  UNL d   1      -2.860   1.053   1.887  0.00  0.00     0.054 C 
ATOM      9  C   UNL d   1      -3.884  -0.005   2.277  0.00  0.00     0.018 C 
ENDBRANCH   1   8
TORSDOF 1
ENDMDL
