MODEL 1
REMARK minimizedAffinity -5.15167427
REMARK minimizedRMSD -1
REMARK  1 active torsions:
REMARK  status: ('A' for Active; 'I' for Inactive)
REMARK    1  A    between atoms: C1_2  and  C2_3 
ROOT
ATOM      1  C2  UNL d   1      -0.370   0.208  -0.045  0.00  0.00    -0.081 A 
ATOM      2  C3  UNL d   1      -0.050  -1.153   0.028  0.00  0.00     0.006 A 
ATOM      3  C4  UNL d   1       1.254  -1.558   0.324  0.00  0.00     0.002 A 
ATOM      4  C5  UNL d   1       2.256  -0.611   0.559  0.00  0.00    -0.080 A 
ATOM      5  C6  UNL d   1       3.652  -1.033   0.907  0.00  0.00     0.076 C 
ATOM      6  C7  UNL d   1       1.940   0.749   0.469  0.00  0.00     0.002 A 
ATOM      7  C8  UNL d   1       0.637   1.155   0.173  0.00  0.00     0.006 A 
ENDROOT
BRANCH   1   8
ATOM      8  C1  UNL d   1      -1.789   0.649  -0.300  0.00  0.00     0.054 C 
ATOM      9  C   UNL d   1      -2.527   0.918   1.004  0.00  0.00     0.018 C 
ENDBRANCH   1   8
TORSDOF 1
ENDMDL
