MODEL 1
REMARK minimizedAffinity -4.74764776
REMARK minimizedRMSD -1
REMARK  1 active torsions:
REMARK  status: ('A' for Active; 'I' for Inactive)
REMARK    1  A    between atoms: C1_2  and  C2_3 
ROOT
ATOM      1  C2  UNL d   1       1.273  -1.038  -0.051  0.00  0.00    -0.081 A 
ATOM      2  C3  UNL d   1       0.378  -0.614  -1.041  0.00  0.00     0.006 A 
ATOM      3  C4  UNL d   1      -0.843  -0.033  -0.689  0.00  0.00     0.002 A 
ATOM      4  C5  UNL d   1      -1.186   0.140   0.656  0.00  0.00    -0.080 A 
ATOM      5  C6  UNL d   1      -2.480   0.789   1.046  0.00  0.00     0.076 C 
ATOM      6  C7  UNL d   1      -0.300  -0.301   1.645  0.00  0.00     0.002 A 
ATOM      7  C8  UNL d   1       0.921  -0.882   1.294  0.00  0.00     0.006 A 
ENDROOT
BRANCH   1   8
ATOM      8  C1  UNL d   1       2.618  -1.606  -0.427  0.00  0.00     0.054 C 
ATOM      9  C   UNL d   1       3.728  -1.007   0.425  0.00  0.00     0.018 C 
ENDBRANCH   1   8
TORSDOF 1
ENDMDL
