MODEL 1
REMARK minimizedAffinity -1.96833599
REMARK minimizedRMSD -1
REMARK  1 active torsions:
REMARK  status: ('A' for Active; 'I' for Inactive)
REMARK    1  A    between atoms: C1_2  and  C2_3 
ROOT
ATOM      1  C2  UNL d   1      -0.806   0.797  -0.341  0.00  0.00    -0.081 A 
ATOM      2  C3  UNL d   1      -0.579  -0.584  -0.299  0.00  0.00     0.006 A 
ATOM      3  C4  UNL d   1       0.631  -1.089   0.182  0.00  0.00     0.002 A 
ATOM      4  C5  UNL d   1       1.631  -0.223   0.636  0.00  0.00    -0.080 A 
ATOM      5  C6  UNL d   1       2.923  -0.753   1.183  0.00  0.00     0.076 C 
ATOM      6  C7  UNL d   1       1.412   1.158   0.578  0.00  0.00     0.002 A 
ATOM      7  C8  UNL d   1       0.202   1.663   0.096  0.00  0.00     0.006 A 
ENDROOT
BRANCH   1   8
ATOM      8  C1  UNL d   1      -2.135   1.342  -0.799  0.00  0.00     0.054 C 
ATOM      9  C   UNL d   1      -3.226   1.076   0.229  0.00  0.00     0.018 C 
ENDBRANCH   1   8
TORSDOF 1
ENDMDL
