MODEL 1
REMARK minimizedAffinity -4.75863409
REMARK minimizedRMSD -1
REMARK  1 active torsions:
REMARK  status: ('A' for Active; 'I' for Inactive)
REMARK    1  A    between atoms: C1_2  and  C2_3 
ROOT
ATOM      1  C2  UNL d   1      -1.301   0.195   0.030  0.00  0.00    -0.081 A 
ATOM      2  C3  UNL d   1      -1.223  -1.180  -0.221  0.00  0.00     0.006 A 
ATOM      3  C4  UNL d   1       0.017  -1.824  -0.258  0.00  0.00     0.002 A 
ATOM      4  C5  UNL d   1       1.197  -1.105  -0.037  0.00  0.00    -0.080 A 
ATOM      5  C6  UNL d   1       2.531  -1.789  -0.044  0.00  0.00     0.076 C 
ATOM      6  C7  UNL d   1       1.119   0.272   0.196  0.00  0.00     0.002 A 
ATOM      7  C8  UNL d   1      -0.119   0.916   0.233  0.00  0.00     0.006 A 
ENDROOT
BRANCH   1   8
ATOM      8  C1  UNL d   1      -2.640   0.880   0.135  0.00  0.00     0.054 C 
ATOM      9  C   UNL d   1      -3.125   0.929   1.576  0.00  0.00     0.018 C 
ENDBRANCH   1   8
TORSDOF 1
ENDMDL
