MODEL 1
REMARK minimizedAffinity -4.41781712
REMARK minimizedRMSD -1
REMARK  0 active torsions:
REMARK  status: ('A' for Active; 'I' for Inactive)
ROOT
ATOM      1  N1  IND d   1       1.203   0.777   0.786  0.00  0.00    -0.196 N 
ATOM      2  C2  IND d   1       1.843   1.899   1.232  0.00  0.00     0.054 A 
ATOM      3  C3  IND d   1       0.953   2.892   1.454  0.00  0.00    -0.031 A 
ATOM      4  C4  IND d   1      -1.613   2.863   1.248  0.00  0.00     0.051 A 
ATOM      5  C5  IND d   1      -2.653   2.075   0.841  0.00  0.00    -0.031 A 
ATOM      6  C6  IND d   1      -2.456   0.786   0.389  0.00  0.00     0.015 A 
ATOM      7  C7  IND d   1      -1.209   0.232   0.336  0.00  0.00    -0.016 A 
ATOM      8  C8  IND d   1      -0.150   1.032   0.742  0.00  0.00    -0.047 A 
ATOM      9  C9  IND d   1      -0.339   2.355   1.162  0.00  0.00    -0.096 A 
ATOM     10  HN1 IND d   1       1.582   0.036   0.569  0.00  0.00     0.298 HD
ENDROOT
TORSDOF 0
ENDMDL
