MODEL 1
REMARK minimizedAffinity 9.7101965
REMARK minimizedRMSD -1
REMARK  0 active torsions:
REMARK  status: ('A' for Active; 'I' for Inactive)
ROOT
ATOM      1  N1  IND d   1      -1.119  -0.866   1.527  0.00  0.00    -0.196 N 
ATOM      2  C2  IND d   1      -1.476   0.375   1.077  0.00  0.00     0.054 A 
ATOM      3  C3  IND d   1      -0.415   0.995   0.514  0.00  0.00    -0.031 A 
ATOM      4  C4  IND d   1       1.977   0.122   0.134  0.00  0.00     0.051 A 
ATOM      5  C5  IND d   1       2.792  -0.941   0.407  0.00  0.00    -0.031 A 
ATOM      6  C6  IND d   1       2.335  -2.057   1.078  0.00  0.00     0.015 A 
ATOM      7  C7  IND d   1       1.037  -2.156   1.493  0.00  0.00    -0.016 A 
ATOM      8  C8  IND d   1       0.209  -1.076   1.224  0.00  0.00    -0.047 A 
ATOM      9  C9  IND d   1       0.678   0.077   0.581  0.00  0.00    -0.096 A 
ATOM     10  HN1 IND d   1      -1.636  -1.421   1.931  0.00  0.00     0.298 HD
ENDROOT
TORSDOF 0
ENDMDL
