MODEL 1
REMARK minimizedAffinity 10.069581
REMARK minimizedRMSD -1
REMARK  0 active torsions:
REMARK  status: ('A' for Active; 'I' for Inactive)
ROOT
ATOM      1  N1  IND d   1      -0.568   1.244   0.746  0.00  0.00    -0.196 N 
ATOM      2  C2  IND d   1      -1.583   0.597   1.395  0.00  0.00     0.054 A 
ATOM      3  C3  IND d   1      -1.219  -0.670   1.691  0.00  0.00    -0.031 A 
ATOM      4  C4  IND d   1       1.029  -1.862   1.297  0.00  0.00     0.051 A 
ATOM      5  C5  IND d   1       2.249  -1.691   0.706  0.00  0.00    -0.031 A 
ATOM      6  C6  IND d   1       2.601  -0.508   0.088  0.00  0.00     0.015 A 
ATOM      7  C7  IND d   1       1.746   0.557   0.048  0.00  0.00    -0.016 A 
ATOM      8  C8  IND d   1       0.503   0.384   0.641  0.00  0.00    -0.047 A 
ATOM      9  C9  IND d   1       0.125  -0.828   1.232  0.00  0.00    -0.096 A 
ATOM     10  HN1 IND d   1      -0.594   2.052   0.453  0.00  0.00     0.298 HD
ENDROOT
TORSDOF 0
ENDMDL
