MODEL 1
REMARK minimizedAffinity 5.24758673
REMARK minimizedRMSD -1
REMARK  0 active torsions:
REMARK  status: ('A' for Active; 'I' for Inactive)
ROOT
ATOM      1  N1  IND d   1      -0.046   0.375  -4.888  0.00  0.00    -0.196 N 
ATOM      2  C2  IND d   1      -0.579   1.312  -5.728  0.00  0.00     0.054 A 
ATOM      3  C3  IND d   1       0.333   2.273  -6.000  0.00  0.00    -0.031 A 
ATOM      4  C4  IND d   1       2.790   2.453  -5.255  0.00  0.00     0.051 A 
ATOM      5  C5  IND d   1       3.719   1.854  -4.452  0.00  0.00    -0.031 A 
ATOM      6  C6  IND d   1       3.436   0.706  -3.740  0.00  0.00     0.015 A 
ATOM      7  C7  IND d   1       2.211   0.106  -3.815  0.00  0.00    -0.016 A 
ATOM      8  C8  IND d   1       1.263   0.716  -4.625  0.00  0.00    -0.047 A 
ATOM      9  C9  IND d   1       1.531   1.904  -5.315  0.00  0.00    -0.096 A 
ATOM     10  HN1 IND d   1      -0.458  -0.312  -4.576  0.00  0.00     0.298 HD
ENDROOT
TORSDOF 0
ENDMDL
