MODEL 1
REMARK minimizedAffinity -3.77349734
REMARK minimizedRMSD -1
REMARK  0 active torsions:
REMARK  status: ('A' for Active; 'I' for Inactive)
ROOT
ATOM      1  N1  IND d   1      -0.516   0.936   0.633  0.00  0.00    -0.196 N 
ATOM      2  C2  IND d   1      -1.698   1.587   0.416  0.00  0.00     0.054 A 
ATOM      3  C3  IND d   1      -1.477   2.904   0.202  0.00  0.00    -0.031 A 
ATOM      4  C4  IND d   1       0.750   4.186   0.061  0.00  0.00     0.051 A 
ATOM      5  C5  IND d   1       2.098   4.027   0.227  0.00  0.00    -0.031 A 
ATOM      6  C6  IND d   1       2.654   2.803   0.540  0.00  0.00     0.015 A 
ATOM      7  C7  IND d   1       1.881   1.687   0.689  0.00  0.00    -0.016 A 
ATOM      8  C8  IND d   1       0.512   1.846   0.528  0.00  0.00    -0.047 A 
ATOM      9  C9  IND d   1      -0.062   3.094   0.252  0.00  0.00    -0.096 A 
ATOM     10  HN1 IND d   1      -0.430   0.098   0.806  0.00  0.00     0.298 HD
ENDROOT
TORSDOF 0
ENDMDL
