MODEL 1
REMARK minimizedAffinity -4.04013014
REMARK minimizedRMSD -1
REMARK  0 active torsions:
REMARK  status: ('A' for Active; 'I' for Inactive)
ROOT
ATOM      1  N1  IND d   1       1.055  -0.312  -0.030  0.00  0.00    -0.196 N 
ATOM      2  C2  IND d   1      -0.233  -0.739   0.137  0.00  0.00     0.054 A 
ATOM      3  C3  IND d   1      -1.056   0.315   0.335  0.00  0.00    -0.031 A 
ATOM      4  C4  IND d   1      -0.521   2.833   0.323  0.00  0.00     0.051 A 
ATOM      5  C5  IND d   1       0.523   3.712   0.247  0.00  0.00    -0.031 A 
ATOM      6  C6  IND d   1       1.823   3.286   0.068  0.00  0.00     0.015 A 
ATOM      7  C7  IND d   1       2.128   1.960  -0.053  0.00  0.00    -0.016 A 
ATOM      8  C8  IND d   1       1.072   1.064   0.031  0.00  0.00    -0.047 A 
ATOM      9  C9  IND d   1      -0.245   1.488   0.255  0.00  0.00    -0.096 A 
ATOM     10  HN1 IND d   1       1.739  -0.818  -0.153  0.00  0.00     0.298 HD
ENDROOT
TORSDOF 0
ENDMDL
