MODEL 1
REMARK minimizedAffinity 7.96242952
REMARK minimizedRMSD -1
REMARK  0 active torsions:
REMARK  status: ('A' for Active; 'I' for Inactive)
ROOT
ATOM      1  N1  IND d   1       1.433   1.291   0.989  0.00  0.00    -0.196 N 
ATOM      2  C2  IND d   1       2.028   0.238   0.351  0.00  0.00     0.054 A 
ATOM      3  C3  IND d   1       1.098  -0.527  -0.263  0.00  0.00    -0.031 A 
ATOM      4  C4  IND d   1      -1.447  -0.183  -0.437  0.00  0.00     0.051 A 
ATOM      5  C5  IND d   1      -2.459   0.618   0.014  0.00  0.00    -0.031 A 
ATOM      6  C6  IND d   1      -2.221   1.707   0.827  0.00  0.00     0.015 A 
ATOM      7  C7  IND d   1      -0.954   2.045   1.212  0.00  0.00    -0.016 A 
ATOM      8  C8  IND d   1       0.076   1.230   0.762  0.00  0.00    -0.047 A 
ATOM      9  C9  IND d   1      -0.165   0.098  -0.028  0.00  0.00    -0.096 A 
ATOM     10  HN1 IND d   1       1.838   1.890   1.454  0.00  0.00     0.298 HD
ENDROOT
TORSDOF 0
ENDMDL
