MODEL 1
REMARK minimizedAffinity 9.98238373
REMARK minimizedRMSD -1
REMARK  0 active torsions:
REMARK  status: ('A' for Active; 'I' for Inactive)
ROOT
ATOM      1  N1  IND d   1       2.362   0.328   0.991  0.00  0.00    -0.196 N 
ATOM      2  C2  IND d   1       3.153   1.322   1.495  0.00  0.00     0.054 A 
ATOM      3  C3  IND d   1       2.392   2.336   1.966  0.00  0.00    -0.031 A 
ATOM      4  C4  IND d   1      -0.172   2.528   2.103  0.00  0.00     0.051 A 
ATOM      5  C5  IND d   1      -1.321   1.887   1.735  0.00  0.00    -0.031 A 
ATOM      6  C6  IND d   1      -1.302   0.667   1.090  0.00  0.00     0.015 A 
ATOM      7  C7  IND d   1      -0.126   0.035   0.797  0.00  0.00    -0.016 A 
ATOM      8  C8  IND d   1       1.043   0.687   1.163  0.00  0.00    -0.047 A 
ATOM      9  C9  IND d   1       1.030   1.945   1.779  0.00  0.00    -0.096 A 
ATOM     10  HN1 IND d   1       2.641  -0.399   0.627  0.00  0.00     0.298 HD
ENDROOT
TORSDOF 0
ENDMDL
