MODEL 1
REMARK minimizedAffinity -4.19201469
REMARK minimizedRMSD -1
REMARK  0 active torsions:
REMARK  status: ('A' for Active; 'I' for Inactive)
ROOT
ATOM      1  N1  IND d   1       0.567  -1.265   0.227  0.00  0.00    -0.196 N 
ATOM      2  C2  IND d   1      -0.775  -1.224  -0.032  0.00  0.00     0.054 A 
ATOM      3  C3  IND d   1      -1.247   0.032   0.131  0.00  0.00    -0.031 A 
ATOM      4  C4  IND d   1       0.022   2.193   0.718  0.00  0.00     0.051 A 
ATOM      5  C5  IND d   1       1.257   2.652   1.081  0.00  0.00    -0.031 A 
ATOM      6  C6  IND d   1       2.348   1.812   1.176  0.00  0.00     0.015 A 
ATOM      7  C7  IND d   1       2.246   0.478   0.900  0.00  0.00    -0.016 A 
ATOM      8  C8  IND d   1       0.992   0.007   0.539  0.00  0.00    -0.047 A 
ATOM      9  C9  IND d   1      -0.128   0.847   0.482  0.00  0.00    -0.096 A 
ATOM     10  HN1 IND d   1       1.062  -1.968   0.199  0.00  0.00     0.298 HD
ENDROOT
TORSDOF 0
ENDMDL
