MODEL 1
REMARK minimizedAffinity -4.86681986
REMARK minimizedRMSD -1
REMARK  0 active torsions:
REMARK  status: ('A' for Active; 'I' for Inactive)
ROOT
ATOM      1  N1  IND d   1       0.842  -1.515  -1.120  0.00  0.00    -0.196 N 
ATOM      2  C2  IND d   1       0.724  -1.071   0.167  0.00  0.00     0.054 A 
ATOM      3  C3  IND d   1      -0.213  -1.787   0.828  0.00  0.00    -0.031 A 
ATOM      4  C4  IND d   1      -1.602  -3.799   0.023  0.00  0.00     0.051 A 
ATOM      5  C5  IND d   1      -1.870  -4.547  -1.089  0.00  0.00    -0.031 A 
ATOM      6  C6  IND d   1      -1.233  -4.320  -2.292  0.00  0.00     0.015 A 
ATOM      7  C7  IND d   1      -0.291  -3.339  -2.425  0.00  0.00    -0.016 A 
ATOM      8  C8  IND d   1      -0.022  -2.573  -1.300  0.00  0.00    -0.047 A 
ATOM      9  C9  IND d   1      -0.696  -2.771  -0.088  0.00  0.00    -0.096 A 
ATOM     10  HN1 IND d   1       1.368  -1.189  -1.717  0.00  0.00     0.298 HD
ENDROOT
TORSDOF 0
ENDMDL
