MODEL 1
REMARK minimizedAffinity -1.81883585
REMARK minimizedRMSD -1
REMARK  0 active torsions:
REMARK  status: ('A' for Active; 'I' for Inactive)
ROOT
ATOM      1  N1  IND d   1      -3.643   2.168  -2.931  0.00  0.00    -0.196 N 
ATOM      2  C2  IND d   1      -3.941   3.290  -3.654  0.00  0.00     0.054 A 
ATOM      3  C3  IND d   1      -4.829   4.059  -2.984  0.00  0.00    -0.031 A 
ATOM      4  C4  IND d   1      -5.849   3.720  -0.645  0.00  0.00     0.051 A 
ATOM      5  C5  IND d   1      -5.908   2.824   0.385  0.00  0.00    -0.031 A 
ATOM      6  C6  IND d   1      -5.197   1.641   0.363  0.00  0.00     0.015 A 
ATOM      7  C7  IND d   1      -4.390   1.314  -0.689  0.00  0.00    -0.016 A 
ATOM      8  C8  IND d   1      -4.334   2.218  -1.740  0.00  0.00    -0.047 A 
ATOM      9  C9  IND d   1      -5.086   3.400  -1.743  0.00  0.00    -0.096 A 
ATOM     10  HN1 IND d   1      -3.114   1.538  -3.179  0.00  0.00     0.298 HD
ENDROOT
TORSDOF 0
ENDMDL
