MODEL 1
REMARK minimizedAffinity 1.44620204
REMARK minimizedRMSD -1
REMARK  0 active torsions:
REMARK  status: ('A' for Active; 'I' for Inactive)
ROOT
ATOM      1  N1  IND d   1       2.227   4.742  -1.738  0.00  0.00    -0.196 N 
ATOM      2  C2  IND d   1       1.809   5.813  -0.998  0.00  0.00     0.054 A 
ATOM      3  C3  IND d   1       1.430   5.412   0.236  0.00  0.00    -0.031 A 
ATOM      4  C4  IND d   1       1.507   3.064   1.289  0.00  0.00     0.051 A 
ATOM      5  C5  IND d   1       1.778   1.758   0.991  0.00  0.00    -0.031 A 
ATOM      6  C6  IND d   1       2.224   1.373  -0.257  0.00  0.00     0.015 A 
ATOM      7  C7  IND d   1       2.428   2.285  -1.254  0.00  0.00    -0.016 A 
ATOM      8  C8  IND d   1       2.147   3.611  -0.957  0.00  0.00    -0.047 A 
ATOM      9  C9  IND d   1       1.653   4.002   0.295  0.00  0.00    -0.096 A 
ATOM     10  HN1 IND d   1       2.494   4.771  -2.555  0.00  0.00     0.298 HD
ENDROOT
TORSDOF 0
ENDMDL
