MODEL 1
REMARK minimizedAffinity 0.994949937
REMARK minimizedRMSD -1
REMARK  0 active torsions:
REMARK  status: ('A' for Active; 'I' for Inactive)
ROOT
ATOM      1  N1  IND d   1       2.242   4.582  -1.314  0.00  0.00    -0.196 N 
ATOM      2  C2  IND d   1       1.636   5.627  -0.673  0.00  0.00     0.054 A 
ATOM      3  C3  IND d   1       1.160   5.229   0.528  0.00  0.00    -0.031 A 
ATOM      4  C4  IND d   1       1.353   2.938   1.687  0.00  0.00     0.051 A 
ATOM      5  C5  IND d   1       1.787   1.659   1.479  0.00  0.00    -0.031 A 
ATOM      6  C6  IND d   1       2.411   1.282   0.307  0.00  0.00     0.015 A 
ATOM      7  C7  IND d   1       2.634   2.177  -0.701  0.00  0.00    -0.016 A 
ATOM      8  C8  IND d   1       2.188   3.475  -0.496  0.00  0.00    -0.047 A 
ATOM      9  C9  IND d   1       1.516   3.853   0.674  0.00  0.00    -0.096 A 
ATOM     10  HN1 IND d   1       2.597   4.612  -2.096  0.00  0.00     0.298 HD
ENDROOT
TORSDOF 0
ENDMDL
