MODEL 1
REMARK minimizedAffinity -4.6528759
REMARK minimizedRMSD -1
REMARK  0 active torsions:
REMARK  status: ('A' for Active; 'I' for Inactive)
ROOT
ATOM      1  C2' OXE d   1      -0.346   1.628   3.276  0.00  0.00     0.078 C 
ATOM      2  C1' OXE d   1       1.974   0.454   2.217  0.00  0.00     0.078 C 
ATOM      3  C1  OXE d   1       0.722   0.423   1.375  0.00  0.00    -0.078 A 
ATOM      4  C2  OXE d   1      -0.420   0.958   1.921  0.00  0.00    -0.078 A 
ATOM      5  C3  OXE d   1      -1.588   1.003   1.166  0.00  0.00     0.003 A 
ATOM      6  C4  OXE d   1      -1.651   0.372  -0.082  0.00  0.00    -0.002 A 
ATOM      7  C5  OXE d   1      -0.509  -0.214  -0.640  0.00  0.00    -0.002 A 
ATOM      8  C6  OXE d   1       0.693  -0.160   0.056  0.00  0.00     0.003 A 
ENDROOT
TORSDOF 0
ENDMDL
