MODEL 1
REMARK minimizedAffinity -3.42006612
REMARK minimizedRMSD -1
REMARK  0 active torsions:
REMARK  status: ('A' for Active; 'I' for Inactive)
ROOT
ATOM      1  C2' OXE d   1      -2.556  -0.357  -0.066  0.00  0.00     0.078 C 
ATOM      2  C1' OXE d   1      -1.336   0.735   2.214  0.00  0.00     0.078 C 
ATOM      3  C1  OXE d   1      -0.463  -0.016   1.241  0.00  0.00    -0.078 A 
ATOM      4  C2  OXE d   1      -1.076  -0.587   0.152  0.00  0.00    -0.078 A 
ATOM      5  C3  OXE d   1      -0.308  -1.244  -0.806  0.00  0.00     0.003 A 
ATOM      6  C4  OXE d   1       1.059  -1.460  -0.592  0.00  0.00    -0.002 A 
ATOM      7  C5  OXE d   1       1.696  -0.921   0.531  0.00  0.00    -0.002 A 
ATOM      8  C6  OXE d   1       0.959  -0.162   1.433  0.00  0.00     0.003 A 
ENDROOT
TORSDOF 0
ENDMDL
