MODEL 1
REMARK minimizedAffinity -2.85592103
REMARK minimizedRMSD -1
REMARK  0 active torsions:
REMARK  status: ('A' for Active; 'I' for Inactive)
ROOT
ATOM      1  C2' OXE d   1      -2.133  -0.740  -0.287  0.00  0.00     0.078 C 
ATOM      2  C1' OXE d   1       0.567  -0.562  -1.035  0.00  0.00     0.078 C 
ATOM      3  C1  OXE d   1       0.124   0.203   0.187  0.00  0.00    -0.078 A 
ATOM      4  C2  OXE d   1      -1.209   0.147   0.519  0.00  0.00    -0.078 A 
ATOM      5  C3  OXE d   1      -1.661   0.790   1.668  0.00  0.00     0.003 A 
ATOM      6  C4  OXE d   1      -0.802   1.617   2.402  0.00  0.00    -0.002 A 
ATOM      7  C5  OXE d   1       0.550   1.719   2.059  0.00  0.00    -0.002 A 
ATOM      8  C6  OXE d   1       1.037   0.987   0.982  0.00  0.00     0.003 A 
ENDROOT
TORSDOF 0
ENDMDL
