MODEL 1
REMARK minimizedAffinity -2.00646544
REMARK minimizedRMSD -1
REMARK  0 active torsions:
REMARK  status: ('A' for Active; 'I' for Inactive)
ROOT
ATOM      1  C2' OXE d   1       2.830   0.126   1.978  0.00  0.00     0.078 C 
ATOM      2  C1' OXE d   1       0.656   1.901   1.911  0.00  0.00     0.078 C 
ATOM      3  C1  OXE d   1       0.634   0.725   0.967  0.00  0.00    -0.078 A 
ATOM      4  C2  OXE d   1       1.723  -0.113   0.974  0.00  0.00    -0.078 A 
ATOM      5  C3  OXE d   1       1.729  -1.243   0.162  0.00  0.00     0.003 A 
ATOM      6  C4  OXE d   1       0.706  -1.451  -0.771  0.00  0.00    -0.002 A 
ATOM      7  C5  OXE d   1      -0.394  -0.588  -0.822  0.00  0.00    -0.002 A 
ATOM      8  C6  OXE d   1      -0.466   0.478   0.067  0.00  0.00     0.003 A 
ENDROOT
TORSDOF 0
ENDMDL
