MODEL 1
REMARK minimizedAffinity 2.27511477
REMARK minimizedRMSD -1
REMARK  0 active torsions:
REMARK  status: ('A' for Active; 'I' for Inactive)
ROOT
ATOM      1  C   UNL d   1       5.245   5.235   5.994  0.00  0.00     0.020 A 
ATOM      2  C1  UNL d   1       5.686   3.913   5.993  0.00  0.00     0.020 A 
ATOM      3  C2  UNL d   1       4.759   2.868   5.994  0.00  0.00     0.034 A 
ATOM      4  C3  UNL d   1       3.387   3.145   5.996  0.00  0.00     0.017 A 
ATOM      5  C4  UNL d   1       2.946   4.473   5.997  0.00  0.00     0.017 A 
ATOM      6  C5  UNL d   1       3.878   5.515   5.996  0.00  0.00     0.034 A 
ATOM      7 Cl   UNL d   1       1.269   4.893   6.000  0.00  0.00    -0.070 Cl
ATOM      8 Cl1  UNL d   1       2.297   1.804   5.997  0.00  0.00    -0.070 Cl
ENDROOT
TORSDOF 0
ENDMDL
