MODEL 1
REMARK minimizedAffinity -3.24924541
REMARK minimizedRMSD -1
REMARK  0 active torsions:
REMARK  status: ('A' for Active; 'I' for Inactive)
ROOT
ATOM      1  C   UNL d   1       5.882   2.763   4.503  0.00  0.00     0.020 A 
ATOM      2  C1  UNL d   1       5.527   4.111   4.509  0.00  0.00     0.020 A 
ATOM      3  C2  UNL d   1       4.269   4.500   4.975  0.00  0.00     0.034 A 
ATOM      4  C3  UNL d   1       3.361   3.539   5.436  0.00  0.00     0.017 A 
ATOM      5  C4  UNL d   1       3.719   2.186   5.429  0.00  0.00     0.017 A 
ATOM      6  C5  UNL d   1       4.979   1.803   4.961  0.00  0.00     0.034 A 
ATOM      7 Cl   UNL d   1       2.653   0.943   5.981  0.00  0.00    -0.070 Cl
ATOM      8 Cl1  UNL d   1       1.824   4.091   5.998  0.00  0.00    -0.070 Cl
ENDROOT
TORSDOF 0
ENDMDL
