MODEL 1
REMARK minimizedAffinity -0.779190242
REMARK minimizedRMSD -1
REMARK  0 active torsions:
REMARK  status: ('A' for Active; 'I' for Inactive)
ROOT
ATOM      1  C   UNL d   1       1.478   4.820   5.821  0.00  0.00     0.020 A 
ATOM      2  C1  UNL d   1       2.259   5.975   5.774  0.00  0.00     0.020 A 
ATOM      3  C2  UNL d   1       3.651   5.877   5.794  0.00  0.00     0.034 A 
ATOM      4  C3  UNL d   1       4.269   4.623   5.862  0.00  0.00     0.017 A 
ATOM      5  C4  UNL d   1       3.484   3.464   5.909  0.00  0.00     0.017 A 
ATOM      6  C5  UNL d   1       2.090   3.568   5.889  0.00  0.00     0.034 A 
ATOM      7 Cl   UNL d   1       4.174   1.882   5.993  0.00  0.00    -0.070 Cl
ATOM      8 Cl1  UNL d   1       5.996   4.577   5.882  0.00  0.00    -0.070 Cl
ENDROOT
TORSDOF 0
ENDMDL
