MODEL 1
REMARK minimizedAffinity 4.67524529
REMARK minimizedRMSD -1
REMARK  0 active torsions:
REMARK  status: ('A' for Active; 'I' for Inactive)
ROOT
ATOM      1  C   UNL d   1      -1.398  -4.193   4.654  0.00  0.00     0.020 A 
ATOM      2  C1  UNL d   1      -0.638  -4.882   5.598  0.00  0.00     0.020 A 
ATOM      3  C2  UNL d   1       0.601  -4.378   6.000  0.00  0.00     0.034 A 
ATOM      4  C3  UNL d   1       1.083  -3.182   5.457  0.00  0.00     0.017 A 
ATOM      5  C4  UNL d   1       0.320  -2.491   4.509  0.00  0.00     0.017 A 
ATOM      6  C5  UNL d   1      -0.920  -3.000   4.111  0.00  0.00     0.034 A 
ATOM      7 Cl   UNL d   1       0.848  -1.008   3.795  0.00  0.00    -0.070 Cl
ATOM      8 Cl1  UNL d   1       2.623  -2.616   6.000  0.00  0.00    -0.070 Cl
ENDROOT
TORSDOF 0
ENDMDL
