MODEL 1
REMARK minimizedAffinity 4.74563503
REMARK minimizedRMSD -1
REMARK  0 active torsions:
REMARK  status: ('A' for Active; 'I' for Inactive)
ROOT
ATOM      1  C   UNL d   1      -5.999   1.894  -0.210  0.00  0.00     0.020 A 
ATOM      2  C1  UNL d   1      -5.617   3.023  -0.933  0.00  0.00     0.020 A 
ATOM      3  C2  UNL d   1      -4.639   3.880  -0.424  0.00  0.00     0.034 A 
ATOM      4  C3  UNL d   1      -4.041   3.611   0.812  0.00  0.00     0.017 A 
ATOM      5  C4  UNL d   1      -4.425   2.477   1.537  0.00  0.00     0.017 A 
ATOM      6  C5  UNL d   1      -5.404   1.621   1.023  0.00  0.00     0.034 A 
ATOM      7 Cl   UNL d   1      -3.731   2.078   3.069  0.00  0.00    -0.070 Cl
ATOM      8 Cl1  UNL d   1      -2.839   4.714   1.381  0.00  0.00    -0.070 Cl
ENDROOT
TORSDOF 0
ENDMDL
