MODEL 1
REMARK minimizedAffinity 11.1935043
REMARK minimizedRMSD -1
REMARK  0 active torsions:
REMARK  status: ('A' for Active; 'I' for Inactive)
ROOT
ATOM      1  C   UNL d   1       4.572   1.961   3.137  0.00  0.00     0.020 A 
ATOM      2  C1  UNL d   1       5.654   2.718   2.691  0.00  0.00     0.020 A 
ATOM      3  C2  UNL d   1       5.920   3.963   3.266  0.00  0.00     0.034 A 
ATOM      4  C3  UNL d   1       5.103   4.453   4.291  0.00  0.00     0.017 A 
ATOM      5  C4  UNL d   1       4.017   3.692   4.739  0.00  0.00     0.017 A 
ATOM      6  C5  UNL d   1       3.756   2.447   4.159  0.00  0.00     0.034 A 
ATOM      7 Cl   UNL d   1       2.965   4.231   6.000  0.00  0.00    -0.070 Cl
ATOM      8 Cl1  UNL d   1       5.491   6.000   4.957  0.00  0.00    -0.070 Cl
ENDROOT
TORSDOF 0
ENDMDL
