MODEL 1
REMARK minimizedAffinity 3.8511095
REMARK minimizedRMSD -1
REMARK  0 active torsions:
REMARK  status: ('A' for Active; 'I' for Inactive)
ROOT
ATOM      1  C   UNL d   1       3.929   2.061   5.716  0.00  0.00     0.020 A 
ATOM      2  C1  UNL d   1       2.549   2.064   5.915  0.00  0.00     0.020 A 
ATOM      3  C2  UNL d   1       1.858   3.274   5.999  0.00  0.00     0.034 A 
ATOM      4  C3  UNL d   1       2.547   4.487   5.886  0.00  0.00     0.017 A 
ATOM      5  C4  UNL d   1       3.932   4.484   5.687  0.00  0.00     0.017 A 
ATOM      6  C5  UNL d   1       4.619   3.269   5.603  0.00  0.00     0.034 A 
ATOM      7 Cl   UNL d   1       4.851   5.940   5.537  0.00  0.00    -0.070 Cl
ATOM      8 Cl1  UNL d   1       1.629   5.946   6.000  0.00  0.00    -0.070 Cl
ENDROOT
TORSDOF 0
ENDMDL
