MODEL 1
REMARK minimizedAffinity 13.4098511
REMARK minimizedRMSD -1
REMARK  0 active torsions:
REMARK  status: ('A' for Active; 'I' for Inactive)
ROOT
ATOM      1  C   UNL d   1       4.686   0.822   5.999  0.00  0.00     0.020 A 
ATOM      2  C1  UNL d   1       3.291   0.808   5.998  0.00  0.00     0.020 A 
ATOM      3  C2  UNL d   1       2.580   2.009   5.997  0.00  0.00     0.034 A 
ATOM      4  C3  UNL d   1       3.263   3.231   5.997  0.00  0.00     0.017 A 
ATOM      5  C4  UNL d   1       4.663   3.245   5.998  0.00  0.00     0.017 A 
ATOM      6  C5  UNL d   1       5.370   2.039   5.999  0.00  0.00     0.034 A 
ATOM      7 Cl   UNL d   1       5.575   4.713   5.999  0.00  0.00    -0.070 Cl
ATOM      8 Cl1  UNL d   1       2.320   4.679   5.995  0.00  0.00    -0.070 Cl
ENDROOT
TORSDOF 0
ENDMDL
