MODEL 1
REMARK minimizedAffinity 6.51910019
REMARK minimizedRMSD -1
REMARK  0 active torsions:
REMARK  status: ('A' for Active; 'I' for Inactive)
ROOT
ATOM      1  C   UNL d   1       3.917   2.469   4.461  0.00  0.00     0.020 A 
ATOM      2  C1  UNL d   1       5.008   3.337   4.499  0.00  0.00     0.020 A 
ATOM      3  C2  UNL d   1       5.636   3.721   3.312  0.00  0.00     0.034 A 
ATOM      4  C3  UNL d   1       5.175   3.236   2.083  0.00  0.00     0.017 A 
ATOM      5  C4  UNL d   1       4.081   2.364   2.046  0.00  0.00     0.017 A 
ATOM      6  C5  UNL d   1       3.455   1.984   3.237  0.00  0.00     0.034 A 
ATOM      7 Cl   UNL d   1       3.455   1.724   0.567  0.00  0.00    -0.070 Cl
ATOM      8 Cl1  UNL d   1       6.000   3.752   0.655  0.00  0.00    -0.070 Cl
ENDROOT
TORSDOF 0
ENDMDL
