MODEL 1
REMARK minimizedAffinity -3.99612904
REMARK minimizedRMSD -1
REMARK  1 active torsions:
REMARK  status: ('A' for Active; 'I' for Inactive)
REMARK    1  A    between atoms: C3_4  and  O_7 
ROOT
ATOM      1  C   UNL d   1      -0.044  -0.613   0.587  0.00  0.00    -0.033 A 
ATOM      2  C1  UNL d   1      -1.108   0.286   0.685  0.00  0.00     0.039 A 
ATOM      3  C2  UNL d   1      -0.882   1.656   0.544  0.00  0.00    -0.080 A 
ATOM      4  C3  UNL d   1       0.411   2.114   0.304  0.00  0.00     0.150 A 
ATOM      5  C4  UNL d   1       1.475   1.224   0.201  0.00  0.00    -0.007 A 
ATOM      6  C5  UNL d   1       1.247  -0.144   0.343  0.00  0.00     0.039 A 
ENDROOT
BRANCH   4   7
ATOM      7  O   UNL d   1       0.682   3.443   0.165  0.00  0.00    -0.526 OA
ATOM      8  H5  UNL d   1      -0.144   3.940   0.288  0.00  0.00     0.418 HD
ENDBRANCH   4   7
TORSDOF 1
ENDMDL
