MODEL 1
REMARK minimizedAffinity -2.96376157
REMARK minimizedRMSD -1
REMARK  1 active torsions:
REMARK  status: ('A' for Active; 'I' for Inactive)
REMARK    1  A    between atoms: C3_4  and  O_7 
ROOT
ATOM      1  C   UNL d   1       0.942  -0.569   0.031  0.00  0.00    -0.033 A 
ATOM      2  C1  UNL d   1       1.972   0.358  -0.143  0.00  0.00     0.039 A 
ATOM      3  C2  UNL d   1       1.677   1.717  -0.265  0.00  0.00    -0.080 A 
ATOM      4  C3  UNL d   1       0.351   2.136  -0.210  0.00  0.00     0.150 A 
ATOM      5  C4  UNL d   1      -0.680   1.219  -0.033  0.00  0.00    -0.007 A 
ATOM      6  C5  UNL d   1      -0.384  -0.138   0.088  0.00  0.00     0.039 A 
ENDROOT
BRANCH   4   7
ATOM      7  O   UNL d   1       0.014   3.452  -0.329  0.00  0.00    -0.526 OA
ATOM      8  H5  UNL d   1       0.825   3.965  -0.476  0.00  0.00     0.418 HD
ENDBRANCH   4   7
TORSDOF 1
ENDMDL
