MODEL 1
REMARK minimizedAffinity -3.50381589
REMARK minimizedRMSD -1
REMARK  1 active torsions:
REMARK  status: ('A' for Active; 'I' for Inactive)
REMARK    1  A    between atoms: C3_4  and  O_7 
ROOT
ATOM      1  C   UNL d   1       0.894   3.364   0.936  0.00  0.00    -0.033 A 
ATOM      2  C1  UNL d   1       2.005   2.520   0.880  0.00  0.00     0.039 A 
ATOM      3  C2  UNL d   1       1.842   1.168   0.574  0.00  0.00    -0.080 A 
ATOM      4  C3  UNL d   1       0.565   0.672   0.325  0.00  0.00     0.150 A 
ATOM      5  C4  UNL d   1      -0.546   1.508   0.376  0.00  0.00    -0.007 A 
ATOM      6  C5  UNL d   1      -0.381   2.858   0.683  0.00  0.00     0.039 A 
ENDROOT
BRANCH   4   7
ATOM      7  O   UNL d   1       0.356  -0.641   0.027  0.00  0.00    -0.526 OA
ATOM      8  H5  UNL d   1       1.211  -1.103   0.056  0.00  0.00     0.418 HD
ENDBRANCH   4   7
TORSDOF 1
ENDMDL
