MODEL 1
REMARK minimizedAffinity -4.41768026
REMARK minimizedRMSD -1
REMARK  1 active torsions:
REMARK  status: ('A' for Active; 'I' for Inactive)
REMARK    1  A    between atoms: C3_4  and  O_7 
ROOT
ATOM      1  C   UNL d   1      -0.024  -0.058   0.175  0.00  0.00    -0.033 A 
ATOM      2  C1  UNL d   1      -0.844   0.712   1.002  0.00  0.00     0.039 A 
ATOM      3  C2  UNL d   1      -0.736   2.104   0.996  0.00  0.00    -0.080 A 
ATOM      4  C3  UNL d   1       0.193   2.713   0.158  0.00  0.00     0.150 A 
ATOM      5  C4  UNL d   1       1.011   1.953  -0.672  0.00  0.00    -0.007 A 
ATOM      6  C5  UNL d   1       0.902   0.563  -0.664  0.00  0.00     0.039 A 
ENDROOT
BRANCH   4   7
ATOM      7  O   UNL d   1       0.339   4.068   0.120  0.00  0.00    -0.526 OA
ATOM      8  H5  UNL d   1      -0.271   4.461   0.767  0.00  0.00     0.418 HD
ENDBRANCH   4   7
TORSDOF 1
ENDMDL
