MODEL 1
REMARK minimizedAffinity -5.14105701
REMARK minimizedRMSD -1
REMARK  1 active torsions:
REMARK  status: ('A' for Active; 'I' for Inactive)
REMARK    1  A    between atoms: C3_4  and  O_7 
ROOT
ATOM      1  C   UNL d   1      -0.226   1.209  -0.192  0.00  0.00    -0.033 A 
ATOM      2  C1  UNL d   1       0.236   2.491   0.112  0.00  0.00     0.039 A 
ATOM      3  C2  UNL d   1      -0.337   3.211   1.161  0.00  0.00    -0.080 A 
ATOM      4  C3  UNL d   1      -1.370   2.640   1.899  0.00  0.00     0.150 A 
ATOM      5  C4  UNL d   1      -1.833   1.361   1.604  0.00  0.00    -0.007 A 
ATOM      6  C5  UNL d   1      -1.260   0.644   0.556  0.00  0.00     0.039 A 
ENDROOT
BRANCH   4   7
ATOM      7  O   UNL d   1      -1.964   3.306   2.929  0.00  0.00    -0.526 OA
ATOM      8  H5  UNL d   1      -1.561   4.188   2.998  0.00  0.00     0.418 HD
ENDBRANCH   4   7
TORSDOF 1
ENDMDL
