MODEL 1
REMARK minimizedAffinity -4.24587679
REMARK minimizedRMSD -1
REMARK  1 active torsions:
REMARK  status: ('A' for Active; 'I' for Inactive)
REMARK    1  A    between atoms: C3_4  and  O_7 
ROOT
ATOM      1  C   UNL d   1      -0.721   0.127   0.371  0.00  0.00    -0.033 A 
ATOM      2  C1  UNL d   1      -1.430   1.201   0.911  0.00  0.00     0.039 A 
ATOM      3  C2  UNL d   1      -1.011   2.510   0.667  0.00  0.00    -0.080 A 
ATOM      4  C3  UNL d   1       0.117   2.731  -0.119  0.00  0.00     0.150 A 
ATOM      5  C4  UNL d   1       0.826   1.666  -0.664  0.00  0.00    -0.007 A 
ATOM      6  C5  UNL d   1       0.406   0.359  -0.418  0.00  0.00     0.039 A 
ENDROOT
BRANCH   4   7
ATOM      7  O   UNL d   1       0.568   3.991  -0.381  0.00  0.00    -0.526 OA
ATOM      8  H5  UNL d   1      -0.004   4.625   0.084  0.00  0.00     0.418 HD
ENDBRANCH   4   7
TORSDOF 1
ENDMDL
