MODEL 1
REMARK minimizedAffinity -2.90621662
REMARK minimizedRMSD -1
REMARK  1 active torsions:
REMARK  status: ('A' for Active; 'I' for Inactive)
REMARK    1  A    between atoms: C3_4  and  O_7 
ROOT
ATOM      1  C   UNL d   1       0.560  -1.902  -1.606  0.00  0.00    -0.033 A 
ATOM      2  C1  UNL d   1       0.088  -2.573  -2.736  0.00  0.00     0.039 A 
ATOM      3  C2  UNL d   1      -1.205  -3.097  -2.749  0.00  0.00    -0.080 A 
ATOM      4  C3  UNL d   1      -2.016  -2.944  -1.628  0.00  0.00     0.150 A 
ATOM      5  C4  UNL d   1      -1.554  -2.274  -0.500  0.00  0.00    -0.007 A 
ATOM      6  C5  UNL d   1      -0.262  -1.752  -0.488  0.00  0.00     0.039 A 
ENDROOT
BRANCH   4   7
ATOM      7  O   UNL d   1      -3.285  -3.443  -1.592  0.00  0.00    -0.526 OA
ATOM      8  H5  UNL d   1      -3.457  -3.905  -2.430  0.00  0.00     0.418 HD
ENDBRANCH   4   7
TORSDOF 1
ENDMDL
