MODEL 1
REMARK minimizedAffinity -4.89954042
REMARK minimizedRMSD -1
REMARK  1 active torsions:
REMARK  status: ('A' for Active; 'I' for Inactive)
REMARK    1  A    between atoms: C3_4  and  O_7 
ROOT
ATOM      1  C   UNL d   1      -0.401  -0.522   0.379  0.00  0.00    -0.033 A 
ATOM      2  C1  UNL d   1       0.783  -0.095  -0.225  0.00  0.00     0.039 A 
ATOM      3  C2  UNL d   1       0.953   1.249  -0.561  0.00  0.00    -0.080 A 
ATOM      4  C3  UNL d   1      -0.068   2.156  -0.287  0.00  0.00     0.150 A 
ATOM      5  C4  UNL d   1      -1.248   1.738   0.319  0.00  0.00    -0.007 A 
ATOM      6  C5  UNL d   1      -1.416   0.395   0.653  0.00  0.00     0.039 A 
ENDROOT
BRANCH   4   7
ATOM      7  O   UNL d   1       0.050   3.477  -0.600  0.00  0.00    -0.526 OA
ATOM      8  H5  UNL d   1       0.906   3.614  -1.039  0.00  0.00     0.418 HD
ENDBRANCH   4   7
TORSDOF 1
ENDMDL
