MODEL 1
REMARK minimizedAffinity 4.75046062
REMARK minimizedRMSD -1
REMARK  1 active torsions:
REMARK  status: ('A' for Active; 'I' for Inactive)
REMARK    1  A    between atoms: C3_4  and  O_7 
ROOT
ATOM      1  C   UNL d   1      -1.744   2.592   1.141  0.00  0.00    -0.033 A 
ATOM      2  C1  UNL d   1      -1.258   2.975  -0.111  0.00  0.00     0.039 A 
ATOM      3  C2  UNL d   1       0.116   2.959  -0.362  0.00  0.00    -0.080 A 
ATOM      4  C3  UNL d   1       0.990   2.558   0.644  0.00  0.00     0.150 A 
ATOM      5  C4  UNL d   1       0.512   2.171   1.891  0.00  0.00    -0.007 A 
ATOM      6  C5  UNL d   1      -0.860   2.189   2.141  0.00  0.00     0.039 A 
ENDROOT
BRANCH   4   7
ATOM      7  O   UNL d   1       2.339   2.530   0.446  0.00  0.00    -0.526 OA
ATOM      8  H5  UNL d   1       2.525   2.851  -0.452  0.00  0.00     0.418 HD
ENDBRANCH   4   7
TORSDOF 1
ENDMDL
