MODEL 1
REMARK minimizedAffinity 2.07151294
REMARK minimizedRMSD -1
REMARK  1 active torsions:
REMARK  status: ('A' for Active; 'I' for Inactive)
REMARK    1  A    between atoms: C3_4  and  O_7 
ROOT
ATOM      1  C   UNL d   1       3.398   1.740   0.942  0.00  0.00    -0.033 A 
ATOM      2  C1  UNL d   1       2.949   3.004   1.331  0.00  0.00     0.039 A 
ATOM      3  C2  UNL d   1       1.604   3.346   1.181  0.00  0.00    -0.080 A 
ATOM      4  C3  UNL d   1       0.719   2.415   0.643  0.00  0.00     0.150 A 
ATOM      5  C4  UNL d   1       1.158   1.153   0.258  0.00  0.00    -0.007 A 
ATOM      6  C5  UNL d   1       2.502   0.814   0.407  0.00  0.00     0.039 A 
ENDROOT
BRANCH   4   7
ATOM      7  O   UNL d   1      -0.603   2.705   0.473  0.00  0.00    -0.526 OA
ATOM      8  H5  UNL d   1      -0.756   3.621   0.756  0.00  0.00     0.418 HD
ENDBRANCH   4   7
TORSDOF 1
ENDMDL
