MODEL 1
REMARK minimizedAffinity -2.79250479
REMARK minimizedRMSD -1
REMARK  1 active torsions:
REMARK  status: ('A' for Active; 'I' for Inactive)
REMARK    1  A    between atoms: C3_4  and  O_7 
ROOT
ATOM      1  C   UNL d   1      -1.089  -0.174   0.586  0.00  0.00    -0.033 A 
ATOM      2  C1  UNL d   1      -0.858   1.203   0.606  0.00  0.00     0.039 A 
ATOM      3  C2  UNL d   1       0.446   1.693   0.688  0.00  0.00    -0.080 A 
ATOM      4  C3  UNL d   1       1.510   0.798   0.747  0.00  0.00     0.150 A 
ATOM      5  C4  UNL d   1       1.289  -0.575   0.723  0.00  0.00    -0.007 A 
ATOM      6  C5  UNL d   1      -0.015  -1.063   0.643  0.00  0.00     0.039 A 
ENDROOT
BRANCH   4   7
ATOM      7  O   UNL d   1       2.801   1.229   0.832  0.00  0.00    -0.526 OA
ATOM      8  H5  UNL d   1       2.799   2.200   0.868  0.00  0.00     0.418 HD
ENDBRANCH   4   7
TORSDOF 1
ENDMDL
