MODEL 1
REMARK minimizedAffinity 0.354589403
REMARK minimizedRMSD -1
REMARK  1 active torsions:
REMARK  status: ('A' for Active; 'I' for Inactive)
REMARK    1  A    between atoms: C3_4  and  O_7 
ROOT
ATOM      1  C   UNL d   1       1.160   2.622  -0.111  0.00  0.00    -0.033 A 
ATOM      2  C1  UNL d   1       0.503   1.969   0.934  0.00  0.00     0.039 A 
ATOM      3  C2  UNL d   1      -0.892   1.907   0.953  0.00  0.00    -0.080 A 
ATOM      4  C3  UNL d   1      -1.617   2.500  -0.077  0.00  0.00     0.150 A 
ATOM      5  C4  UNL d   1      -0.969   3.148  -1.123  0.00  0.00    -0.007 A 
ATOM      6  C5  UNL d   1       0.424   3.210  -1.140  0.00  0.00     0.039 A 
ENDROOT
BRANCH   4   7
ATOM      7  O   UNL d   1      -2.979   2.469  -0.098  0.00  0.00    -0.526 OA
ATOM      8  H5  UNL d   1      -3.290   2.013   0.702  0.00  0.00     0.418 HD
ENDBRANCH   4   7
TORSDOF 1
ENDMDL
