MODEL 1
REMARK minimizedAffinity -5.10474539
REMARK minimizedRMSD -1
REMARK  1 active torsions:
REMARK  status: ('A' for Active; 'I' for Inactive)
REMARK    1  A    between atoms: C3_4  and  O_7 
ROOT
ATOM      1  C   UNL d   1       1.055   3.240   0.199  0.00  0.00    -0.033 A 
ATOM      2  C1  UNL d   1       2.081   2.297   0.280  0.00  0.00     0.039 A 
ATOM      3  C2  UNL d   1       1.777   0.935   0.345  0.00  0.00    -0.080 A 
ATOM      4  C3  UNL d   1       0.445   0.531   0.327  0.00  0.00     0.150 A 
ATOM      5  C4  UNL d   1      -0.582   1.465   0.243  0.00  0.00    -0.007 A 
ATOM      6  C5  UNL d   1      -0.276   2.824   0.179  0.00  0.00     0.039 A 
ENDROOT
BRANCH   4   7
ATOM      7  O   UNL d   1       0.099  -0.786   0.393  0.00  0.00    -0.526 OA
ATOM      8  H5  UNL d   1       0.911  -1.313   0.477  0.00  0.00     0.418 HD
ENDBRANCH   4   7
TORSDOF 1
ENDMDL
