MODEL 1
REMARK minimizedAffinity -1.97026551
REMARK minimizedRMSD -1
REMARK  1 active torsions:
REMARK  status: ('A' for Active; 'I' for Inactive)
REMARK    1  A    between atoms: C3_4  and  O_7 
ROOT
ATOM      1  C   UNL d   1       1.416   2.463   0.066  0.00  0.00    -0.033 A 
ATOM      2  C1  UNL d   1       0.914   3.301  -0.931  0.00  0.00     0.039 A 
ATOM      3  C2  UNL d   1      -0.465   3.450  -1.092  0.00  0.00    -0.080 A 
ATOM      4  C3  UNL d   1      -1.330   2.756  -0.250  0.00  0.00     0.150 A 
ATOM      5  C4  UNL d   1      -0.837   1.922   0.748  0.00  0.00    -0.007 A 
ATOM      6  C5  UNL d   1       0.540   1.774   0.907  0.00  0.00     0.039 A 
ENDROOT
BRANCH   4   7
ATOM      7  O   UNL d   1      -2.683   2.865  -0.372  0.00  0.00    -0.526 OA
ATOM      8  H5  UNL d   1      -2.878   3.453  -1.122  0.00  0.00     0.418 HD
ENDBRANCH   4   7
TORSDOF 1
ENDMDL
