MODEL 1
REMARK minimizedAffinity -4.00366688
REMARK minimizedRMSD -1
REMARK  1 active torsions:
REMARK  status: ('A' for Active; 'I' for Inactive)
REMARK    1  A    between atoms: C3_4  and  O_7 
ROOT
ATOM      1  C   UNL d   1      -1.458  -3.734  -1.807  0.00  0.00    -0.033 A 
ATOM      2  C1  UNL d   1      -0.251  -3.551  -2.484  0.00  0.00     0.039 A 
ATOM      3  C2  UNL d   1       0.757  -2.767  -1.919  0.00  0.00    -0.080 A 
ATOM      4  C3  UNL d   1       0.546  -2.174  -0.677  0.00  0.00     0.150 A 
ATOM      5  C4  UNL d   1      -0.653  -2.356   0.005  0.00  0.00    -0.007 A 
ATOM      6  C5  UNL d   1      -1.658  -3.138  -0.562  0.00  0.00     0.039 A 
ENDROOT
BRANCH   4   7
ATOM      7  O   UNL d   1       1.498  -1.397  -0.087  0.00  0.00    -0.526 OA
ATOM      8  H5  UNL d   1       2.261  -1.337  -0.686  0.00  0.00     0.418 HD
ENDBRANCH   4   7
TORSDOF 1
ENDMDL
