MODEL 1
REMARK minimizedAffinity -4.85780048
REMARK minimizedRMSD -1
REMARK  1 active torsions:
REMARK  status: ('A' for Active; 'I' for Inactive)
REMARK    1  A    between atoms: C3_4  and  O_7 
ROOT
ATOM      1  C   UNL d   1       1.711   0.456   0.300  0.00  0.00    -0.033 A 
ATOM      2  C1  UNL d   1       0.334   0.603   0.129  0.00  0.00     0.039 A 
ATOM      3  C2  UNL d   1      -0.217   1.873  -0.054  0.00  0.00    -0.080 A 
ATOM      4  C3  UNL d   1       0.619   2.985  -0.065  0.00  0.00     0.150 A 
ATOM      5  C4  UNL d   1       1.993   2.846   0.102  0.00  0.00    -0.007 A 
ATOM      6  C5  UNL d   1       2.541   1.577   0.285  0.00  0.00     0.039 A 
ENDROOT
BRANCH   4   7
ATOM      7  O   UNL d   1       0.127   4.245  -0.235  0.00  0.00    -0.526 OA
ATOM      8  H5  UNL d   1      -0.840   4.190  -0.309  0.00  0.00     0.418 HD
ENDBRANCH   4   7
TORSDOF 1
ENDMDL
