MODEL 1
REMARK minimizedAffinity -2.9171288
REMARK minimizedRMSD -1
REMARK  1 active torsions:
REMARK  status: ('A' for Active; 'I' for Inactive)
REMARK    1  A    between atoms: C3_4  and  O_7 
ROOT
ATOM      1  C   UNL d   1       1.307  -0.917   0.401  0.00  0.00    -0.033 A 
ATOM      2  C1  UNL d   1      -0.026  -0.519   0.278  0.00  0.00     0.039 A 
ATOM      3  C2  UNL d   1      -0.348   0.838   0.210  0.00  0.00    -0.080 A 
ATOM      4  C3  UNL d   1       0.670   1.785   0.265  0.00  0.00     0.150 A 
ATOM      5  C4  UNL d   1       2.000   1.396   0.384  0.00  0.00    -0.007 A 
ATOM      6  C5  UNL d   1       2.320   0.041   0.452  0.00  0.00     0.039 A 
ENDROOT
BRANCH   4   7
ATOM      7  O   UNL d   1       0.404   3.121   0.207  0.00  0.00    -0.526 OA
ATOM      8  H5  UNL d   1      -0.559   3.241   0.155  0.00  0.00     0.418 HD
ENDBRANCH   4   7
TORSDOF 1
ENDMDL
