MODEL 1
REMARK minimizedAffinity 0.814846337
REMARK minimizedRMSD -1
REMARK  1 active torsions:
REMARK  status: ('A' for Active; 'I' for Inactive)
REMARK    1  A    between atoms: C1_2  and  C2_3 
ROOT
ATOM      1  C2  UNL d   1      -1.121  -0.490   0.829  0.00  0.00    -0.081 A 
ATOM      2  C3  UNL d   1      -0.576  -1.492   0.017  0.00  0.00     0.006 A 
ATOM      3  C4  UNL d   1       0.800  -1.735   0.020  0.00  0.00     0.002 A 
ATOM      4  C5  UNL d   1       1.651  -0.988   0.840  0.00  0.00    -0.080 A 
ATOM      5  C6  UNL d   1       3.126  -1.259   0.875  0.00  0.00     0.076 C 
ATOM      6  C7  UNL d   1       1.109   0.025   1.638  0.00  0.00     0.002 A 
ATOM      7  C8  UNL d   1      -0.266   0.270   1.636  0.00  0.00     0.006 A 
ENDROOT
BRANCH   1   8
ATOM      8  C1  UNL d   1      -2.611  -0.268   0.877  0.00  0.00     0.054 C 
ATOM      9  C   UNL d   1      -3.023   0.911   0.007  0.00  0.00     0.018 C 
ENDBRANCH   1   8
TORSDOF 1
ENDMDL
