MODEL 1
REMARK minimizedAffinity -3.33575869
REMARK minimizedRMSD -1
REMARK  1 active torsions:
REMARK  status: ('A' for Active; 'I' for Inactive)
REMARK    1  A    between atoms: C1_2  and  C2_3 
ROOT
ATOM      1  C2  UNL d   1      -1.526   0.203   1.295  0.00  0.00    -0.081 A 
ATOM      2  C3  UNL d   1      -0.139   0.257   1.478  0.00  0.00     0.006 A 
ATOM      3  C4  UNL d   1       0.679  -0.767   0.995  0.00  0.00     0.002 A 
ATOM      4  C5  UNL d   1       0.125  -1.856   0.314  0.00  0.00    -0.080 A 
ATOM      5  C6  UNL d   1       0.995  -2.947  -0.237  0.00  0.00     0.076 C 
ATOM      6  C7  UNL d   1      -1.262  -1.919   0.146  0.00  0.00     0.002 A 
ATOM      7  C8  UNL d   1      -2.081  -0.896   0.630  0.00  0.00     0.006 A 
ENDROOT
BRANCH   1   8
ATOM      8  C1  UNL d   1      -2.405   1.337   1.759  0.00  0.00     0.054 C 
ATOM      9  C   UNL d   1      -3.594   1.531   0.830  0.00  0.00     0.018 C 
ENDBRANCH   1   8
TORSDOF 1
ENDMDL
