MODEL 1
REMARK minimizedAffinity 2.28847814
REMARK minimizedRMSD -1
REMARK  1 active torsions:
REMARK  status: ('A' for Active; 'I' for Inactive)
REMARK    1  A    between atoms: C1_2  and  C2_3 
ROOT
ATOM      1  C2  UNL d   1      -0.357  -2.359   0.334  0.00  0.00    -0.081 A 
ATOM      2  C3  UNL d   1      -1.659  -1.849   0.263  0.00  0.00     0.006 A 
ATOM      3  C4  UNL d   1      -1.995  -0.673   0.938  0.00  0.00     0.002 A 
ATOM      4  C5  UNL d   1      -1.035   0.016   1.686  0.00  0.00    -0.080 A 
ATOM      5  C6  UNL d   1      -1.375   1.296   2.390  0.00  0.00     0.076 C 
ATOM      6  C7  UNL d   1       0.261  -0.503   1.771  0.00  0.00     0.002 A 
ATOM      7  C8  UNL d   1       0.598  -1.680   1.097  0.00  0.00     0.006 A 
ENDROOT
BRANCH   1   8
ATOM      8  C1  UNL d   1       0.026  -3.592  -0.445  0.00  0.00     0.054 C 
ATOM      9  C   UNL d   1       1.534  -3.686  -0.627  0.00  0.00     0.018 C 
ENDBRANCH   1   8
TORSDOF 1
ENDMDL
