MODEL 1
REMARK minimizedAffinity 2.04786205
REMARK minimizedRMSD -1
REMARK  1 active torsions:
REMARK  status: ('A' for Active; 'I' for Inactive)
REMARK    1  A    between atoms: C1_2  and  C2_3 
ROOT
ATOM      1  C2  UNL d   1      -0.144  -0.098   1.240  0.00  0.00    -0.081 A 
ATOM      2  C3  UNL d   1      -1.064  -1.079   0.852  0.00  0.00     0.006 A 
ATOM      3  C4  UNL d   1      -0.635  -2.228   0.184  0.00  0.00     0.002 A 
ATOM      4  C5  UNL d   1       0.722  -2.419  -0.101  0.00  0.00    -0.080 A 
ATOM      5  C6  UNL d   1       1.200  -3.662  -0.791  0.00  0.00     0.076 C 
ATOM      6  C7  UNL d   1       1.639  -1.430   0.271  0.00  0.00     0.002 A 
ATOM      7  C8  UNL d   1       1.210  -0.281   0.938  0.00  0.00     0.006 A 
ENDROOT
BRANCH   1   8
ATOM      8  C1  UNL d   1      -0.595   1.112   2.018  0.00  0.00     0.054 C 
ATOM      9  C   UNL d   1      -1.386   0.711   3.255  0.00  0.00     0.018 C 
ENDBRANCH   1   8
TORSDOF 1
ENDMDL
