MODEL 1
REMARK minimizedAffinity -1.60782528
REMARK minimizedRMSD -1
REMARK  1 active torsions:
REMARK  status: ('A' for Active; 'I' for Inactive)
REMARK    1  A    between atoms: C1_2  and  C2_3 
ROOT
ATOM      1  C2  UNL d   1       1.854  -2.944  -0.231  0.00  0.00    -0.081 A 
ATOM      2  C3  UNL d   1       2.097  -1.569  -0.341  0.00  0.00     0.006 A 
ATOM      3  C4  UNL d   1       1.169  -0.645   0.142  0.00  0.00     0.002 A 
ATOM      4  C5  UNL d   1      -0.014  -1.078   0.751  0.00  0.00    -0.080 A 
ATOM      5  C6  UNL d   1      -1.005  -0.096   1.301  0.00  0.00     0.076 C 
ATOM      6  C7  UNL d   1      -0.266  -2.451   0.845  0.00  0.00     0.002 A 
ATOM      7  C8  UNL d   1       0.662  -3.376   0.361  0.00  0.00     0.006 A 
ENDROOT
BRANCH   1   8
ATOM      8  C1  UNL d   1       2.882  -3.944  -0.693  0.00  0.00     0.054 C 
ATOM      9  C   UNL d   1       4.268  -3.318  -0.768  0.00  0.00     0.018 C 
ENDBRANCH   1   8
TORSDOF 1
ENDMDL
