MODEL 1
REMARK minimizedAffinity 3.94348121
REMARK minimizedRMSD -1
REMARK  1 active torsions:
REMARK  status: ('A' for Active; 'I' for Inactive)
REMARK    1  A    between atoms: C1_2  and  C2_3 
ROOT
ATOM      1  C2  UNL d   1       2.850  -0.809   1.646  0.00  0.00    -0.081 A 
ATOM      2  C3  UNL d   1       1.835  -0.407   2.523  0.00  0.00     0.006 A 
ATOM      3  C4  UNL d   1       0.495  -0.480   2.136  0.00  0.00     0.002 A 
ATOM      4  C5  UNL d   1       0.147  -0.964   0.870  0.00  0.00    -0.080 A 
ATOM      5  C6  UNL d   1      -1.289  -1.077   0.453  0.00  0.00     0.076 C 
ATOM      6  C7  UNL d   1       1.162  -1.350  -0.012  0.00  0.00     0.002 A 
ATOM      7  C8  UNL d   1       2.502  -1.276   0.374  0.00  0.00     0.006 A 
ENDROOT
BRANCH   1   8
ATOM      8  C1  UNL d   1       4.292  -0.792   2.085  0.00  0.00     0.054 C 
ATOM      9  C   UNL d   1       5.205  -1.355   1.005  0.00  0.00     0.018 C 
ENDBRANCH   1   8
TORSDOF 1
ENDMDL
