MODEL 1
REMARK minimizedAffinity 7.79335499
REMARK minimizedRMSD -1
REMARK  1 active torsions:
REMARK  status: ('A' for Active; 'I' for Inactive)
REMARK    1  A    between atoms: C1_2  and  C2_3 
ROOT
ATOM      1  C2  UNL d   1       0.659  -2.075   0.287  0.00  0.00    -0.081 A 
ATOM      2  C3  UNL d   1       0.346  -3.351  -0.196  0.00  0.00     0.006 A 
ATOM      3  C4  UNL d   1       1.359  -4.221  -0.607  0.00  0.00     0.002 A 
ATOM      4  C5  UNL d   1       2.701  -3.833  -0.535  0.00  0.00    -0.080 A 
ATOM      5  C6  UNL d   1       3.799  -4.768  -0.944  0.00  0.00     0.076 C 
ATOM      6  C7  UNL d   1       3.013  -2.551  -0.069  0.00  0.00     0.002 A 
ATOM      7  C8  UNL d   1       2.000  -1.680   0.341  0.00  0.00     0.006 A 
ENDROOT
BRANCH   1   8
ATOM      8  C1  UNL d   1      -0.426  -1.158   0.791  0.00  0.00     0.054 C 
ATOM      9  C   UNL d   1       0.049  -0.341   1.984  0.00  0.00     0.018 C 
ENDBRANCH   1   8
TORSDOF 1
ENDMDL
