MODEL 1
REMARK minimizedAffinity -0.770773828
REMARK minimizedRMSD -1
REMARK  1 active torsions:
REMARK  status: ('A' for Active; 'I' for Inactive)
REMARK    1  A    between atoms: C1_2  and  C2_3 
ROOT
ATOM      1  C2  UNL d   1      -0.298  -1.020   1.367  0.00  0.00    -0.081 A 
ATOM      2  C3  UNL d   1       0.819  -0.194   1.546  0.00  0.00     0.006 A 
ATOM      3  C4  UNL d   1       2.059  -0.554   1.012  0.00  0.00     0.002 A 
ATOM      4  C5  UNL d   1       2.201  -1.740   0.284  0.00  0.00    -0.080 A 
ATOM      5  C6  UNL d   1       3.519  -2.123  -0.320  0.00  0.00     0.076 C 
ATOM      6  C7  UNL d   1       1.089  -2.574   0.120  0.00  0.00     0.002 A 
ATOM      7  C8  UNL d   1      -0.150  -2.215   0.655  0.00  0.00     0.006 A 
ENDROOT
BRANCH   1   8
ATOM      8  C1  UNL d   1      -1.650  -0.603   1.886  0.00  0.00     0.054 C 
ATOM      9  C   UNL d   1      -1.988   0.821   1.470  0.00  0.00     0.018 C 
ENDBRANCH   1   8
TORSDOF 1
ENDMDL
