MODEL 1
REMARK minimizedAffinity -4.72768974
REMARK minimizedRMSD -1
REMARK  1 active torsions:
REMARK  status: ('A' for Active; 'I' for Inactive)
REMARK    1  A    between atoms: C1_2  and  C2_3 
ROOT
ATOM      1  C2  UNL d   1      -2.198   0.155   0.911  0.00  0.00    -0.081 A 
ATOM      2  C3  UNL d   1      -1.198  -0.018   1.875  0.00  0.00     0.006 A 
ATOM      3  C4  UNL d   1      -0.372  -1.144   1.844  0.00  0.00     0.002 A 
ATOM      4  C5  UNL d   1      -0.526  -2.110   0.843  0.00  0.00    -0.080 A 
ATOM      5  C6  UNL d   1       0.375  -3.308   0.780  0.00  0.00     0.076 C 
ATOM      6  C7  UNL d   1      -1.536  -1.945  -0.110  0.00  0.00     0.002 A 
ATOM      7  C8  UNL d   1      -2.363  -0.820  -0.079  0.00  0.00     0.006 A 
ENDROOT
BRANCH   1   8
ATOM      8  C1  UNL d   1      -3.048   1.400   0.904  0.00  0.00     0.054 C 
ATOM      9  C   UNL d   1      -3.972   1.432  -0.305  0.00  0.00     0.018 C 
ENDBRANCH   1   8
TORSDOF 1
ENDMDL
