MODEL 1
REMARK minimizedAffinity 12.4777336
REMARK minimizedRMSD -1
REMARK  1 active torsions:
REMARK  status: ('A' for Active; 'I' for Inactive)
REMARK    1  A    between atoms: C1_2  and  C2_3 
ROOT
ATOM      1  C2  UNL d   1       4.201  -4.723  -0.446  0.00  0.00    -0.081 A 
ATOM      2  C3  UNL d   1       4.198  -3.349  -0.174  0.00  0.00     0.006 A 
ATOM      3  C4  UNL d   1       2.994  -2.668   0.021  0.00  0.00     0.002 A 
ATOM      4  C5  UNL d   1       1.774  -3.350  -0.045  0.00  0.00    -0.080 A 
ATOM      5  C6  UNL d   1       0.476  -2.637   0.193  0.00  0.00     0.076 C 
ATOM      6  C7  UNL d   1       1.776  -4.719  -0.334  0.00  0.00     0.002 A 
ATOM      7  C8  UNL d   1       2.979  -5.400  -0.529  0.00  0.00     0.006 A 
ENDROOT
BRANCH   1   8
ATOM      8  C1  UNL d   1       5.500  -5.472  -0.593  0.00  0.00     0.054 C 
ATOM      9  C   UNL d   1       5.994  -5.992   0.750  0.00  0.00     0.018 C 
ENDBRANCH   1   8
TORSDOF 1
ENDMDL
