MODEL 1
REMARK minimizedAffinity -4.11881399
REMARK minimizedRMSD -1
REMARK  2 active torsions:
REMARK  status: ('A' for Active; 'I' for Inactive)
REMARK    1  A    between atoms: C1_2  and  C2_3 
REMARK    2  A    between atoms: C2_3  and  C3_4 
ROOT
ATOM      1  C3  UNL d   1       0.562  -0.217  -0.546  0.00  0.00    -0.075 A 
ATOM      2  C4  UNL d   1      -0.253   0.876  -0.874  0.00  0.00     0.002 A 
ATOM      3  C5  UNL d   1      -1.153   1.393   0.057  0.00  0.00     0.002 A 
ATOM      4  C6  UNL d   1      -1.257   0.820   1.323  0.00  0.00    -0.004 A 
ATOM      5  C7  UNL d   1      -0.464  -0.276   1.654  0.00  0.00     0.002 A 
ATOM      6  C8  UNL d   1       0.441  -0.793   0.726  0.00  0.00     0.002 A 
ENDROOT
BRANCH   1   7
ATOM      7  C2  UNL d   1       1.559  -0.763  -1.540  0.00  0.00     0.056 C 
BRANCH   7   8
ATOM      8  C1  UNL d   1       1.395  -2.259  -1.830  0.00  0.00     0.007 C 
ATOM      9  C   UNL d   1       0.542  -2.542  -3.060  0.00  0.00     0.009 C 
ENDBRANCH   7   8
ENDBRANCH   1   7
TORSDOF 2
ENDMDL
