MODEL 1
REMARK minimizedAffinity -4.3863616
REMARK minimizedRMSD -1
REMARK  2 active torsions:
REMARK  status: ('A' for Active; 'I' for Inactive)
REMARK    1  A    between atoms: C1_2  and  C2_3 
REMARK    2  A    between atoms: C2_3  and  C3_4 
ROOT
ATOM      1  C3  UNL d   1       0.038  -0.029  -0.330  0.00  0.00    -0.075 A 
ATOM      2  C4  UNL d   1      -0.322  -0.647   0.876  0.00  0.00     0.002 A 
ATOM      3  C5  UNL d   1      -1.177  -0.007   1.773  0.00  0.00     0.002 A 
ATOM      4  C6  UNL d   1      -1.674   1.262   1.482  0.00  0.00    -0.004 A 
ATOM      5  C7  UNL d   1      -1.310   1.893   0.294  0.00  0.00     0.002 A 
ATOM      6  C8  UNL d   1      -0.458   1.252  -0.607  0.00  0.00     0.002 A 
ENDROOT
BRANCH   1   7
ATOM      7  C2  UNL d   1       0.939  -0.729  -1.318  0.00  0.00     0.056 C 
BRANCH   7   8
ATOM      8  C1  UNL d   1       0.736  -2.247  -1.381  0.00  0.00     0.007 C 
ATOM      9  C   UNL d   1       0.180  -2.723  -2.717  0.00  0.00     0.009 C 
ENDBRANCH   7   8
ENDBRANCH   1   7
TORSDOF 2
ENDMDL
