MODEL 1
REMARK minimizedAffinity -6.39744139
REMARK minimizedRMSD -1
REMARK  2 active torsions:
REMARK  status: ('A' for Active; 'I' for Inactive)
REMARK    1  A    between atoms: C1_2  and  C2_3 
REMARK    2  A    between atoms: C2_3  and  C3_4 
ROOT
ATOM      1  C3  UNL d   1      -0.443  -0.168  -0.166  0.00  0.00    -0.075 A 
ATOM      2  C4  UNL d   1      -0.603  -0.525   1.180  0.00  0.00     0.002 A 
ATOM      3  C5  UNL d   1      -1.381   0.259   2.033  0.00  0.00     0.002 A 
ATOM      4  C6  UNL d   1      -1.999   1.413   1.553  0.00  0.00    -0.004 A 
ATOM      5  C7  UNL d   1      -1.832   1.785   0.221  0.00  0.00     0.002 A 
ATOM      6  C8  UNL d   1      -1.058   1.000  -0.635  0.00  0.00     0.002 A 
ENDROOT
BRANCH   1   7
ATOM      7  C2  UNL d   1       0.374  -1.028  -1.101  0.00  0.00     0.056 C 
BRANCH   7   8
ATOM      8  C1  UNL d   1      -0.463  -1.965  -1.979  0.00  0.00     0.007 C 
ATOM      9  C   UNL d   1       0.338  -3.124  -2.554  0.00  0.00     0.009 C 
ENDBRANCH   7   8
ENDBRANCH   1   7
TORSDOF 2
ENDMDL
