MODEL 1
REMARK minimizedAffinity -4.34941101
REMARK minimizedRMSD -1
REMARK  2 active torsions:
REMARK  status: ('A' for Active; 'I' for Inactive)
REMARK    1  A    between atoms: C1_2  and  C2_3 
REMARK    2  A    between atoms: C2_3  and  C3_4 
ROOT
ATOM      1  C3  UNL d   1      -0.442   0.304   0.375  0.00  0.00    -0.075 A 
ATOM      2  C4  UNL d   1      -0.366   0.726   1.710  0.00  0.00     0.002 A 
ATOM      3  C5  UNL d   1      -1.394   1.483   2.274  0.00  0.00     0.002 A 
ATOM      4  C6  UNL d   1      -2.503   1.836   1.509  0.00  0.00    -0.004 A 
ATOM      5  C7  UNL d   1      -2.582   1.436   0.176  0.00  0.00     0.002 A 
ATOM      6  C8  UNL d   1      -1.557   0.675  -0.389  0.00  0.00     0.002 A 
ENDROOT
BRANCH   1   7
ATOM      7  C2  UNL d   1       0.653  -0.540  -0.232  0.00  0.00     0.056 C 
BRANCH   7   8
ATOM      8  C1  UNL d   1       0.243  -1.261  -1.520  0.00  0.00     0.007 C 
ATOM      9  C   UNL d   1       0.742  -2.698  -1.589  0.00  0.00     0.009 C 
ENDBRANCH   7   8
ENDBRANCH   1   7
TORSDOF 2
ENDMDL
