MODEL 1
REMARK minimizedAffinity -1.40629995
REMARK minimizedRMSD -1
REMARK  2 active torsions:
REMARK  status: ('A' for Active; 'I' for Inactive)
REMARK    1  A    between atoms: C1_2  and  C2_3 
REMARK    2  A    between atoms: C2_3  and  C3_4 
ROOT
ATOM      1  C3  UNL d   1       0.355  -0.094  -0.095  0.00  0.00    -0.075 A 
ATOM      2  C4  UNL d   1      -0.366   1.063  -0.421  0.00  0.00     0.002 A 
ATOM      3  C5  UNL d   1      -1.113   1.729   0.551  0.00  0.00     0.002 A 
ATOM      4  C6  UNL d   1      -1.157   1.242   1.855  0.00  0.00    -0.004 A 
ATOM      5  C7  UNL d   1      -0.458   0.083   2.186  0.00  0.00     0.002 A 
ATOM      6  C8  UNL d   1       0.294  -0.582   1.217  0.00  0.00     0.002 A 
ENDROOT
BRANCH   1   7
ATOM      7  C2  UNL d   1       1.190  -0.803  -1.135  0.00  0.00     0.056 C 
BRANCH   7   8
ATOM      8  C1  UNL d   1       1.307  -2.315  -0.917  0.00  0.00     0.007 C 
ATOM      9  C   UNL d   1       0.882  -3.132  -2.130  0.00  0.00     0.009 C 
ENDBRANCH   7   8
ENDBRANCH   1   7
TORSDOF 2
ENDMDL
