MODEL 1
REMARK minimizedAffinity -3.22484207
REMARK minimizedRMSD -1
REMARK  2 active torsions:
REMARK  status: ('A' for Active; 'I' for Inactive)
REMARK    1  A    between atoms: C1_2  and  C2_3 
REMARK    2  A    between atoms: C2_3  and  C3_4 
ROOT
ATOM      1  C3  UNL d   1      -0.479   0.314  -0.082  0.00  0.00    -0.075 A 
ATOM      2  C4  UNL d   1      -0.125   0.553   1.254  0.00  0.00     0.002 A 
ATOM      3  C5  UNL d   1      -0.953   1.310   2.082  0.00  0.00     0.002 A 
ATOM      4  C6  UNL d   1      -2.139   1.846   1.584  0.00  0.00    -0.004 A 
ATOM      5  C7  UNL d   1      -2.493   1.629   0.255  0.00  0.00     0.002 A 
ATOM      6  C8  UNL d   1      -1.668   0.868  -0.575  0.00  0.00     0.002 A 
ENDROOT
BRANCH   1   7
ATOM      7  C2  UNL d   1       0.399  -0.529  -0.975  0.00  0.00     0.056 C 
BRANCH   7   8
ATOM      8  C1  UNL d   1      -0.363  -1.269  -2.080  0.00  0.00     0.007 C 
ATOM      9  C   UNL d   1      -0.007  -2.747  -2.168  0.00  0.00     0.009 C 
ENDBRANCH   7   8
ENDBRANCH   1   7
TORSDOF 2
ENDMDL
