MODEL 1
REMARK minimizedAffinity -5.60009384
REMARK minimizedRMSD -1
REMARK  2 active torsions:
REMARK  status: ('A' for Active; 'I' for Inactive)
REMARK    1  A    between atoms: C1_2  and  C2_3 
REMARK    2  A    between atoms: C2_3  and  C3_4 
ROOT
ATOM      1  C3  UNL d   1       0.376   0.112  -0.194  0.00  0.00    -0.075 A 
ATOM      2  C4  UNL d   1       0.077  -0.478   1.043  0.00  0.00     0.002 A 
ATOM      3  C5  UNL d   1      -0.842   0.117   1.908  0.00  0.00     0.002 A 
ATOM      4  C6  UNL d   1      -1.464   1.312   1.553  0.00  0.00    -0.004 A 
ATOM      5  C7  UNL d   1      -1.161   1.916   0.334  0.00  0.00     0.002 A 
ATOM      6  C8  UNL d   1      -0.246   1.320  -0.535  0.00  0.00     0.002 A 
ENDROOT
BRANCH   1   7
ATOM      7  C2  UNL d   1       1.347  -0.543  -1.147  0.00  0.00     0.056 C 
BRANCH   7   8
ATOM      8  C1  UNL d   1       1.232  -2.069  -1.205  0.00  0.00     0.007 C 
ATOM      9  C   UNL d   1       0.616  -2.576  -2.503  0.00  0.00     0.009 C 
ENDBRANCH   7   8
ENDBRANCH   1   7
TORSDOF 2
ENDMDL
