MODEL 1
REMARK minimizedAffinity -3.23533678
REMARK minimizedRMSD -1
REMARK  2 active torsions:
REMARK  status: ('A' for Active; 'I' for Inactive)
REMARK    1  A    between atoms: C1_2  and  C2_3 
REMARK    2  A    between atoms: C2_3  and  C3_4 
ROOT
ATOM      1  C3  UNL d   1       0.338   0.049  -0.199  0.00  0.00    -0.075 A 
ATOM      2  C4  UNL d   1      -0.147  -0.658   0.911  0.00  0.00     0.002 A 
ATOM      3  C5  UNL d   1      -1.098  -0.084   1.756  0.00  0.00     0.002 A 
ATOM      4  C6  UNL d   1      -1.567   1.204   1.508  0.00  0.00    -0.004 A 
ATOM      5  C7  UNL d   1      -1.080   1.921   0.418  0.00  0.00     0.002 A 
ATOM      6  C8  UNL d   1      -0.132   1.348  -0.431  0.00  0.00     0.002 A 
ENDROOT
BRANCH   1   7
ATOM      7  C2  UNL d   1       1.345  -0.578  -1.133  0.00  0.00     0.056 C 
BRANCH   7   8
ATOM      8  C1  UNL d   1       1.252  -2.105  -1.218  0.00  0.00     0.007 C 
ATOM      9  C   UNL d   1       0.828  -2.606  -2.592  0.00  0.00     0.009 C 
ENDBRANCH   7   8
ENDBRANCH   1   7
TORSDOF 2
ENDMDL
