MODEL 1
REMARK minimizedAffinity -5.33723211
REMARK minimizedRMSD -1
REMARK  2 active torsions:
REMARK  status: ('A' for Active; 'I' for Inactive)
REMARK    1  A    between atoms: C1_2  and  C2_3 
REMARK    2  A    between atoms: C2_3  and  C3_4 
ROOT
ATOM      1  C3  UNL d   1       0.297  -0.945  -0.430  0.00  0.00    -0.075 A 
ATOM      2  C4  UNL d   1       0.181  -1.399   0.891  0.00  0.00     0.002 A 
ATOM      3  C5  UNL d   1      -0.529  -0.658   1.836  0.00  0.00     0.002 A 
ATOM      4  C6  UNL d   1      -1.121   0.551   1.475  0.00  0.00    -0.004 A 
ATOM      5  C7  UNL d   1      -0.998   1.020   0.169  0.00  0.00     0.002 A 
ATOM      6  C8  UNL d   1      -0.292   0.278  -0.779  0.00  0.00     0.002 A 
ENDROOT
BRANCH   1   7
ATOM      7  C2  UNL d   1       1.039  -1.757  -1.465  0.00  0.00     0.056 C 
BRANCH   7   8
ATOM      8  C1  UNL d   1       0.128  -2.449  -2.484  0.00  0.00     0.007 C 
ATOM      9  C   UNL d   1      -0.374  -3.809  -2.016  0.00  0.00     0.009 C 
ENDBRANCH   7   8
ENDBRANCH   1   7
TORSDOF 2
ENDMDL
