MODEL 1
REMARK minimizedAffinity -5.85849905
REMARK minimizedRMSD -1
REMARK  2 active torsions:
REMARK  status: ('A' for Active; 'I' for Inactive)
REMARK    1  A    between atoms: C1_2  and  C2_3 
REMARK    2  A    between atoms: C2_3  and  C3_4 
ROOT
ATOM      1  C3  UNL d   1       0.022  -0.026   0.109  0.00  0.00    -0.075 A 
ATOM      2  C4  UNL d   1      -0.008  -0.160   1.505  0.00  0.00     0.002 A 
ATOM      3  C5  UNL d   1      -0.834   0.656   2.278  0.00  0.00     0.002 A 
ATOM      4  C6  UNL d   1      -1.632   1.622   1.668  0.00  0.00    -0.004 A 
ATOM      5  C7  UNL d   1      -1.598   1.775   0.283  0.00  0.00     0.002 A 
ATOM      6  C8  UNL d   1      -0.776   0.956  -0.493  0.00  0.00     0.002 A 
ENDROOT
BRANCH   1   7
ATOM      7  C2  UNL d   1       0.891  -0.927  -0.735  0.00  0.00     0.056 C 
BRANCH   7   8
ATOM      8  C1  UNL d   1       0.192  -1.480  -1.981  0.00  0.00     0.007 C 
ATOM      9  C   UNL d   1       0.556  -2.928  -2.281  0.00  0.00     0.009 C 
ENDBRANCH   7   8
ENDBRANCH   1   7
TORSDOF 2
ENDMDL
