MODEL 1
REMARK minimizedAffinity -4.49304199
REMARK minimizedRMSD -1
REMARK  2 active torsions:
REMARK  status: ('A' for Active; 'I' for Inactive)
REMARK    1  A    between atoms: C1_2  and  C2_3 
REMARK    2  A    between atoms: C2_3  and  C3_4 
ROOT
ATOM      1  C3  UNL d   1       0.284  -0.114  -0.169  0.00  0.00    -0.075 A 
ATOM      2  C4  UNL d   1       0.359  -0.291   1.220  0.00  0.00     0.002 A 
ATOM      3  C5  UNL d   1      -0.515   0.389   2.069  0.00  0.00     0.002 A 
ATOM      4  C6  UNL d   1      -1.467   1.259   1.542  0.00  0.00    -0.004 A 
ATOM      5  C7  UNL d   1      -1.539   1.456   0.165  0.00  0.00     0.002 A 
ATOM      6  C8  UNL d   1      -0.668   0.774  -0.687  0.00  0.00     0.002 A 
ENDROOT
BRANCH   1   7
ATOM      7  C2  UNL d   1       1.208  -0.869  -1.094  0.00  0.00     0.056 C 
BRANCH   7   8
ATOM      8  C1  UNL d   1       0.709  -2.268  -1.470  0.00  0.00     0.007 C 
ATOM      9  C   UNL d   1       0.337  -2.398  -2.941  0.00  0.00     0.009 C 
ENDBRANCH   7   8
ENDBRANCH   1   7
TORSDOF 2
ENDMDL
