MODEL 1
REMARK minimizedAffinity -4.69208765
REMARK minimizedRMSD -1
REMARK  2 active torsions:
REMARK  status: ('A' for Active; 'I' for Inactive)
REMARK    1  A    between atoms: C1_2  and  C2_3 
REMARK    2  A    between atoms: C2_3  and  C3_4 
ROOT
ATOM      1  C3  UNL d   1       0.192  -0.542  -0.068  0.00  0.00    -0.075 A 
ATOM      2  C4  UNL d   1      -0.149  -0.770   1.273  0.00  0.00     0.002 A 
ATOM      3  C5  UNL d   1      -0.981   0.120   1.954  0.00  0.00     0.002 A 
ATOM      4  C6  UNL d   1      -1.472   1.252   1.308  0.00  0.00    -0.004 A 
ATOM      5  C7  UNL d   1      -1.126   1.498  -0.019  0.00  0.00     0.002 A 
ATOM      6  C8  UNL d   1      -0.298   0.607  -0.704  0.00  0.00     0.002 A 
ENDROOT
BRANCH   1   7
ATOM      7  C2  UNL d   1       1.067  -1.516  -0.819  0.00  0.00     0.056 C 
BRANCH   7   8
ATOM      8  C1  UNL d   1       0.345  -2.795  -1.255  0.00  0.00     0.007 C 
ATOM      9  C   UNL d   1      -0.056  -2.786  -2.725  0.00  0.00     0.009 C 
ENDBRANCH   7   8
ENDBRANCH   1   7
TORSDOF 2
ENDMDL
