MODEL 1
REMARK minimizedAffinity -5.31101465
REMARK minimizedRMSD -1
REMARK  2 active torsions:
REMARK  status: ('A' for Active; 'I' for Inactive)
REMARK    1  A    between atoms: C1_2  and  C2_3 
REMARK    2  A    between atoms: C2_3  and  C3_4 
ROOT
ATOM      1  C3  UNL d   1       0.337  -0.515  -0.226  0.00  0.00    -0.075 A 
ATOM      2  C4  UNL d   1      -0.090  -0.591   1.108  0.00  0.00     0.002 A 
ATOM      3  C5  UNL d   1      -0.950   0.375   1.632  0.00  0.00     0.002 A 
ATOM      4  C6  UNL d   1      -1.385   1.431   0.835  0.00  0.00    -0.004 A 
ATOM      5  C7  UNL d   1      -0.954   1.525  -0.487  0.00  0.00     0.002 A 
ATOM      6  C8  UNL d   1      -0.097   0.558  -1.015  0.00  0.00     0.002 A 
ENDROOT
BRANCH   1   7
ATOM      7  C2  UNL d   1       1.244  -1.573  -0.808  0.00  0.00     0.056 C 
BRANCH   7   8
ATOM      8  C1  UNL d   1       0.501  -2.781  -1.388  0.00  0.00     0.007 C 
ATOM      9  C   UNL d   1       0.092  -2.593  -2.843  0.00  0.00     0.009 C 
ENDBRANCH   7   8
ENDBRANCH   1   7
TORSDOF 2
ENDMDL
