MODEL 1
REMARK minimizedAffinity 7.10553932
REMARK minimizedRMSD -1
REMARK  0 active torsions:
REMARK  status: ('A' for Active; 'I' for Inactive)
ROOT
ATOM      1  C   UNL d   1      -0.068   2.218   4.593  0.00  0.00     0.172 C 
ATOM      2  N   UNL d   1       0.224   1.126   3.694  0.00  0.00    -0.070 N 
ATOM      3  C1  UNL d   1       1.012   0.044   3.982  0.00  0.00    -0.004 A 
ATOM      4  C2  UNL d   1       1.039  -0.767   2.868  0.00  0.00    -0.047 A 
ATOM      5  C3  UNL d   1       0.240  -0.150   1.876  0.00  0.00    -0.047 A 
ATOM      6  C4  UNL d   1      -0.252   1.020   2.414  0.00  0.00    -0.004 A 
ENDROOT
TORSDOF 0
ENDMDL
