MODEL 1
REMARK minimizedAffinity 4.97822523
REMARK minimizedRMSD -1
REMARK  0 active torsions:
REMARK  status: ('A' for Active; 'I' for Inactive)
ROOT
ATOM      1  C   UNL d   1       4.399  -0.432  -5.236  0.00  0.00     0.172 C 
ATOM      2  N   UNL d   1       4.733   0.941  -5.533  0.00  0.00    -0.070 N 
ATOM      3  C1  UNL d   1       6.000   1.449  -5.644  0.00  0.00    -0.004 A 
ATOM      4  C2  UNL d   1       5.892   2.792  -5.934  0.00  0.00    -0.047 A 
ATOM      5  C3  UNL d   1       4.513   3.102  -5.998  0.00  0.00    -0.047 A 
ATOM      6  C4  UNL d   1       3.818   1.938  -5.746  0.00  0.00    -0.004 A 
ENDROOT
TORSDOF 0
ENDMDL
