MODEL 1
REMARK minimizedAffinity 5.35014725
REMARK minimizedRMSD -1
REMARK  0 active torsions:
REMARK  status: ('A' for Active; 'I' for Inactive)
ROOT
ATOM      1  C   UNL d   1       0.343   2.716   5.217  0.00  0.00     0.172 C 
ATOM      2  N   UNL d   1       0.256   1.638   4.260  0.00  0.00    -0.070 N 
ATOM      3  C1  UNL d   1       0.985   0.479   4.296  0.00  0.00    -0.004 A 
ATOM      4  C2  UNL d   1       0.611  -0.288   3.213  0.00  0.00    -0.047 A 
ATOM      5  C3  UNL d   1      -0.375   0.436   2.502  0.00  0.00    -0.047 A 
ATOM      6  C4  UNL d   1      -0.575   1.624   3.172  0.00  0.00    -0.004 A 
ENDROOT
TORSDOF 0
ENDMDL
