MODEL 1
REMARK minimizedAffinity 6.88340807
REMARK minimizedRMSD -1
REMARK  0 active torsions:
REMARK  status: ('A' for Active; 'I' for Inactive)
ROOT
ATOM      1  C   UNL d   1       0.589   2.622   5.997  0.00  0.00     0.172 C 
ATOM      2  N   UNL d   1       2.015   2.575   5.768  0.00  0.00    -0.070 N 
ATOM      3  C1  UNL d   1       2.883   3.622   5.929  0.00  0.00    -0.004 A 
ATOM      4  C2  UNL d   1       4.148   3.173   5.614  0.00  0.00    -0.047 A 
ATOM      5  C3  UNL d   1       4.034   1.810   5.250  0.00  0.00    -0.047 A 
ATOM      6  C4  UNL d   1       2.703   1.466   5.355  0.00  0.00    -0.004 A 
ENDROOT
TORSDOF 0
ENDMDL
