MODEL 1
REMARK minimizedAffinity 8.87734795
REMARK minimizedRMSD -1
REMARK  0 active torsions:
REMARK  status: ('A' for Active; 'I' for Inactive)
ROOT
ATOM      1  C   UNL d   1       2.010  -2.363  -4.986  0.00  0.00     0.172 C 
ATOM      2  N   UNL d   1       3.432  -2.416  -4.744  0.00  0.00    -0.070 N 
ATOM      3  C1  UNL d   1       4.410  -2.206  -5.679  0.00  0.00    -0.004 A 
ATOM      4  C2  UNL d   1       5.630  -2.345  -5.053  0.00  0.00    -0.047 A 
ATOM      5  C3  UNL d   1       5.376  -2.650  -3.694  0.00  0.00    -0.047 A 
ATOM      6  C4  UNL d   1       4.008  -2.688  -3.531  0.00  0.00    -0.004 A 
ENDROOT
TORSDOF 0
ENDMDL
