MODEL 1
REMARK minimizedAffinity 9.02968884
REMARK minimizedRMSD -1
REMARK  0 active torsions:
REMARK  status: ('A' for Active; 'I' for Inactive)
ROOT
ATOM      1  C   UNL d   1      -0.176   2.875   5.992  0.00  0.00     0.172 C 
ATOM      2  N   UNL d   1       0.192   1.897   4.996  0.00  0.00    -0.070 N 
ATOM      3  C1  UNL d   1       1.042   0.841   5.190  0.00  0.00    -0.004 A 
ATOM      4  C2  UNL d   1       1.131   0.147   4.002  0.00  0.00    -0.047 A 
ATOM      5  C3  UNL d   1       0.307   0.810   3.062  0.00  0.00    -0.047 A 
ATOM      6  C4  UNL d   1      -0.263   1.889   3.704  0.00  0.00    -0.004 A 
ENDROOT
TORSDOF 0
ENDMDL
