MODEL 1
REMARK minimizedAffinity 2.72405148
REMARK minimizedRMSD -1
REMARK  0 active torsions:
REMARK  status: ('A' for Active; 'I' for Inactive)
ROOT
ATOM      1  C   UNL d   1       5.036   2.482   3.512  0.00  0.00     0.172 C 
ATOM      2  N   UNL d   1       5.174   3.913   3.375  0.00  0.00    -0.070 N 
ATOM      3  C1  UNL d   1       4.508   4.697   2.471  0.00  0.00    -0.004 A 
ATOM      4  C2  UNL d   1       4.914   6.000   2.662  0.00  0.00    -0.047 A 
ATOM      5  C3  UNL d   1       5.857   6.000   3.717  0.00  0.00    -0.047 A 
ATOM      6  C4  UNL d   1       5.999   4.695   4.140  0.00  0.00    -0.004 A 
ENDROOT
TORSDOF 0
ENDMDL
