MODEL 1
REMARK minimizedAffinity 13.4730158
REMARK minimizedRMSD -1
REMARK  0 active torsions:
REMARK  status: ('A' for Active; 'I' for Inactive)
ROOT
ATOM      1  C   UNL d   1       5.999   3.537  -5.976  0.00  0.00     0.172 C 
ATOM      2  N   UNL d   1       5.529   2.248  -5.527  0.00  0.00    -0.070 N 
ATOM      3  C1  UNL d   1       4.569   2.036  -4.573  0.00  0.00    -0.004 A 
ATOM      4  C2  UNL d   1       4.408   0.675  -4.432  0.00  0.00    -0.047 A 
ATOM      5  C3  UNL d   1       5.302   0.047  -5.332  0.00  0.00    -0.047 A 
ATOM      6  C4  UNL d   1       5.983   1.044  -5.996  0.00  0.00    -0.004 A 
ENDROOT
TORSDOF 0
ENDMDL
