MODEL 1
REMARK minimizedAffinity 4.12691116
REMARK minimizedRMSD -1
REMARK  0 active torsions:
REMARK  status: ('A' for Active; 'I' for Inactive)
ROOT
ATOM      1  C   UNL d   1       0.738  -0.258  -4.888  0.00  0.00     0.172 C 
ATOM      2  N   UNL d   1      -0.373  -0.768  -4.121  0.00  0.00    -0.070 N 
ATOM      3  C1  UNL d   1      -0.309  -1.229  -2.833  0.00  0.00    -0.004 A 
ATOM      4  C2  UNL d   1      -1.577  -1.623  -2.462  0.00  0.00    -0.047 A 
ATOM      5  C3  UNL d   1      -2.432  -1.392  -3.566  0.00  0.00    -0.047 A 
ATOM      6  C4  UNL d   1      -1.661  -0.862  -4.579  0.00  0.00    -0.004 A 
ENDROOT
TORSDOF 0
ENDMDL
