MODEL 1
REMARK minimizedAffinity -3.60693288
REMARK minimizedRMSD -1
REMARK  0 active torsions:
REMARK  status: ('A' for Active; 'I' for Inactive)
ROOT
ATOM      1  C4' PXY d   1      -3.684  -0.704   0.085  0.00  0.00     0.077 C 
ATOM      2  C1' PXY d   1       1.965   0.238  -0.693  0.00  0.00     0.077 C 
ATOM      3  C1  PXY d   1       0.481  -0.002  -0.499  0.00  0.00    -0.082 A 
ATOM      4  C2  PXY d   1       0.020  -0.312   0.701  0.00  0.00     0.003 A 
ATOM      5  C3  PXY d   1      -1.315  -0.564   0.888  0.00  0.00     0.003 A 
ATOM      6  C4  PXY d   1      -2.195  -0.444  -0.155  0.00  0.00    -0.082 A 
ATOM      7  C5  PXY d   1      -1.733  -0.117  -1.381  0.00  0.00     0.003 A 
ATOM      8  C6  PXY d   1      -0.369   0.094  -1.558  0.00  0.00     0.003 A 
ENDROOT
TORSDOF 0
ENDMDL
