MODEL 1
REMARK minimizedAffinity -4.36901855
REMARK minimizedRMSD -1
REMARK  0 active torsions:
REMARK  status: ('A' for Active; 'I' for Inactive)
ROOT
ATOM      1  C4' PXY d   1       1.916   1.603   1.191  0.00  0.00     0.077 C 
ATOM      2  C1' PXY d   1      -2.952  -1.028  -0.484  0.00  0.00     0.077 C 
ATOM      3  C1  PXY d   1      -1.669  -0.343  -0.055  0.00  0.00    -0.082 A 
ATOM      4  C2  PXY d   1      -1.479  -0.049   1.221  0.00  0.00     0.003 A 
ATOM      5  C3  PXY d   1      -0.339   0.599   1.621  0.00  0.00     0.003 A 
ATOM      6  C4  PXY d   1       0.640   0.903   0.714  0.00  0.00    -0.082 A 
ATOM      7  C5  PXY d   1       0.459   0.597  -0.588  0.00  0.00     0.003 A 
ATOM      8  C6  PXY d   1      -0.724  -0.024  -0.980  0.00  0.00     0.003 A 
ENDROOT
TORSDOF 0
ENDMDL
