MODEL 1
REMARK minimizedAffinity -3.80682778
REMARK minimizedRMSD -1
REMARK  0 active torsions:
REMARK  status: ('A' for Active; 'I' for Inactive)
ROOT
ATOM      1  C4' PXY d   1       1.778   1.185   0.697  0.00  0.00     0.077 C 
ATOM      2  C1' PXY d   1      -3.299  -1.367  -0.363  0.00  0.00     0.077 C 
ATOM      3  C1  PXY d   1      -1.964  -0.700  -0.097  0.00  0.00    -0.082 A 
ATOM      4  C2  PXY d   1      -1.522  -0.593   1.145  0.00  0.00     0.003 A 
ATOM      5  C3  PXY d   1      -0.331   0.035   1.406  0.00  0.00     0.003 A 
ATOM      6  C4  PXY d   1       0.440   0.512   0.380  0.00  0.00    -0.082 A 
ATOM      7  C5  PXY d   1       0.001   0.397  -0.891  0.00  0.00     0.003 A 
ATOM      8  C6  PXY d   1      -1.229  -0.208  -1.131  0.00  0.00     0.003 A 
ENDROOT
TORSDOF 0
ENDMDL
