MODEL 1
REMARK minimizedAffinity -3.8513999
REMARK minimizedRMSD -1
REMARK  0 active torsions:
REMARK  status: ('A' for Active; 'I' for Inactive)
ROOT
ATOM      1  C4' PXY d   1       1.922   1.282  -0.016  0.00  0.00     0.077 C 
ATOM      2  C1' PXY d   1      -3.354  -1.081  -0.034  0.00  0.00     0.077 C 
ATOM      3  C1  PXY d   1      -1.970  -0.462  -0.043  0.00  0.00    -0.082 A 
ATOM      4  C2  PXY d   1      -1.216  -0.530   1.043  0.00  0.00     0.003 A 
ATOM      5  C3  PXY d   1       0.025   0.051   1.063  0.00  0.00     0.003 A 
ATOM      6  C4  PXY d   1       0.522   0.663  -0.056  0.00  0.00    -0.082 A 
ATOM      7  C5  PXY d   1      -0.236   0.728  -1.171  0.00  0.00     0.003 A 
ATOM      8  C6  PXY d   1      -1.510   0.167  -1.158  0.00  0.00     0.003 A 
ENDROOT
TORSDOF 0
ENDMDL
