MODEL 1
REMARK minimizedAffinity -4.06699324
REMARK minimizedRMSD -1
REMARK  0 active torsions:
REMARK  status: ('A' for Active; 'I' for Inactive)
ROOT
ATOM      1  C4' PXY d   1      -3.360  -0.809  -0.902  0.00  0.00     0.077 C 
ATOM      2  C1' PXY d   1       2.110   0.556   0.377  0.00  0.00     0.077 C 
ATOM      3  C1  PXY d   1       0.675   0.208   0.034  0.00  0.00    -0.082 A 
ATOM      4  C2  PXY d   1      -0.043  -0.516   0.877  0.00  0.00     0.003 A 
ATOM      5  C3  PXY d   1      -1.332  -0.867   0.568  0.00  0.00     0.003 A 
ATOM      6  C4  PXY d   1      -1.910  -0.427  -0.593  0.00  0.00    -0.082 A 
ATOM      7  C5  PXY d   1      -1.188   0.322  -1.454  0.00  0.00     0.003 A 
ATOM      8  C6  PXY d   1       0.132   0.632  -1.140  0.00  0.00     0.003 A 
ENDROOT
TORSDOF 0
ENDMDL
