MODEL 1
REMARK minimizedAffinity -5.53479815
REMARK minimizedRMSD -1
REMARK  0 active torsions:
REMARK  status: ('A' for Active; 'I' for Inactive)
ROOT
ATOM      1  C4' PXY d   1       1.881   0.847  -0.062  0.00  0.00     0.077 C 
ATOM      2  C1' PXY d   1      -3.613  -0.854  -0.636  0.00  0.00     0.077 C 
ATOM      3  C1  PXY d   1      -2.171  -0.409  -0.498  0.00  0.00    -0.082 A 
ATOM      4  C2  PXY d   1      -1.544  -0.570   0.656  0.00  0.00     0.003 A 
ATOM      5  C3  PXY d   1      -0.249  -0.144   0.807  0.00  0.00     0.003 A 
ATOM      6  C4  PXY d   1       0.428   0.404  -0.249  0.00  0.00    -0.082 A 
ATOM      7  C5  PXY d   1      -0.202   0.562  -1.433  0.00  0.00     0.003 A 
ATOM      8  C6  PXY d   1      -1.529   0.160  -1.554  0.00  0.00     0.003 A 
ENDROOT
TORSDOF 0
ENDMDL
