MODEL 1
REMARK minimizedAffinity 1.27004862
REMARK minimizedRMSD -1
REMARK  0 active torsions:
REMARK  status: ('A' for Active; 'I' for Inactive)
ROOT
ATOM      1  C4' PXY d   1      -2.983  -1.506  -0.092  0.00  0.00     0.077 C 
ATOM      2  C1' PXY d   1       2.400   0.551   0.360  0.00  0.00     0.077 C 
ATOM      3  C1  PXY d   1       0.992   0.001   0.248  0.00  0.00    -0.082 A 
ATOM      4  C2  PXY d   1       0.211   0.398  -0.743  0.00  0.00     0.003 A 
ATOM      5  C3  PXY d   1      -1.076  -0.065  -0.841  0.00  0.00     0.003 A 
ATOM      6  C4  PXY d   1      -1.551  -0.984   0.055  0.00  0.00    -0.082 A 
ATOM      7  C5  PXY d   1      -0.757  -1.403   1.063  0.00  0.00     0.003 A 
ATOM      8  C6  PXY d   1       0.532  -0.890   1.169  0.00  0.00     0.003 A 
ENDROOT
TORSDOF 0
ENDMDL
