MODEL 1
REMARK minimizedAffinity 4.23504353
REMARK minimizedRMSD -1
REMARK  0 active torsions:
REMARK  status: ('A' for Active; 'I' for Inactive)
ROOT
ATOM      1  C4' PXY d   1      -2.431  -2.370  -3.556  0.00  0.00     0.077 C 
ATOM      2  C1' PXY d   1      -0.571   0.426   1.149  0.00  0.00     0.077 C 
ATOM      3  C1  PXY d   1      -1.064  -0.317  -0.077  0.00  0.00    -0.082 A 
ATOM      4  C2  PXY d   1      -0.431  -0.170  -1.229  0.00  0.00     0.003 A 
ATOM      5  C3  PXY d   1      -0.883  -0.808  -2.356  0.00  0.00     0.003 A 
ATOM      6  C4  PXY d   1      -1.963  -1.648  -2.290  0.00  0.00    -0.082 A 
ATOM      7  C5  PXY d   1      -2.608  -1.811  -1.115  0.00  0.00     0.003 A 
ATOM      8  C6  PXY d   1      -2.158  -1.122   0.007  0.00  0.00     0.003 A 
ENDROOT
TORSDOF 0
ENDMDL
