MODEL 1
REMARK minimizedAffinity -3.56060171
REMARK minimizedRMSD -1
REMARK  0 active torsions:
REMARK  status: ('A' for Active; 'I' for Inactive)
ROOT
ATOM      1  C4' PXY d   1      -1.502  -0.351  -0.326  0.00  0.00     0.077 C 
ATOM      2  C1' PXY d   1       3.503   2.206   1.027  0.00  0.00     0.077 C 
ATOM      3  C1  PXY d   1       2.196   1.529   0.662  0.00  0.00    -0.082 A 
ATOM      4  C2  PXY d   1       1.050   2.072   1.041  0.00  0.00     0.003 A 
ATOM      5  C3  PXY d   1      -0.139   1.457   0.747  0.00  0.00     0.003 A 
ATOM      6  C4  PXY d   1      -0.159   0.302   0.012  0.00  0.00    -0.082 A 
ATOM      7  C5  PXY d   1       1.005  -0.252  -0.388  0.00  0.00     0.003 A 
ATOM      8  C6  PXY d   1       2.204   0.366  -0.044  0.00  0.00     0.003 A 
ENDROOT
TORSDOF 0
ENDMDL
