MODEL 1
REMARK minimizedAffinity -0.400815725
REMARK minimizedRMSD -1
REMARK  0 active torsions:
REMARK  status: ('A' for Active; 'I' for Inactive)
ROOT
ATOM      1  C4' PXY d   1       5.868   3.982  -3.646  0.00  0.00     0.077 C 
ATOM      2  C1' PXY d   1       2.970   3.274   1.305  0.00  0.00     0.077 C 
ATOM      3  C1  PXY d   1       3.724   3.471   0.005  0.00  0.00    -0.082 A 
ATOM      4  C2  PXY d   1       4.172   2.417  -0.658  0.00  0.00     0.003 A 
ATOM      5  C3  PXY d   1       4.884   2.579  -1.819  0.00  0.00     0.003 A 
ATOM      6  C4  PXY d   1       5.094   3.830  -2.334  0.00  0.00    -0.082 A 
ATOM      7  C5  PXY d   1       4.631   4.910  -1.670  0.00  0.00     0.003 A 
ATOM      8  C6  PXY d   1       3.946   4.726  -0.472  0.00  0.00     0.003 A 
ENDROOT
TORSDOF 0
ENDMDL
