MODEL 1
REMARK minimizedAffinity -3.13337708
REMARK minimizedRMSD -1
REMARK  0 active torsions:
REMARK  status: ('A' for Active; 'I' for Inactive)
ROOT
ATOM      1  C4' PXY d   1      -2.453  -2.150  -3.912  0.00  0.00     0.077 C 
ATOM      2  C1' PXY d   1       0.268   0.392   0.510  0.00  0.00     0.077 C 
ATOM      3  C1  PXY d   1      -0.452  -0.283  -0.641  0.00  0.00    -0.082 A 
ATOM      4  C2  PXY d   1       0.050  -0.202  -1.863  0.00  0.00     0.003 A 
ATOM      5  C3  PXY d   1      -0.605  -0.779  -2.921  0.00  0.00     0.003 A 
ATOM      6  C4  PXY d   1      -1.756  -1.492  -2.718  0.00  0.00    -0.082 A 
ATOM      7  C5  PXY d   1      -2.268  -1.589  -1.473  0.00  0.00     0.003 A 
ATOM      8  C6  PXY d   1      -1.610  -0.961  -0.419  0.00  0.00     0.003 A 
ENDROOT
TORSDOF 0
ENDMDL
