MODEL 1
REMARK minimizedAffinity -3.4331522
REMARK minimizedRMSD -1
REMARK  0 active torsions:
REMARK  status: ('A' for Active; 'I' for Inactive)
ROOT
ATOM      1  C4' PXY d   1       3.255   1.816   0.009  0.00  0.00     0.077 C 
ATOM      2  C1' PXY d   1      -1.514  -1.263   1.100  0.00  0.00     0.077 C 
ATOM      3  C1  PXY d   1      -0.256  -0.465   0.819  0.00  0.00    -0.082 A 
ATOM      4  C2  PXY d   1      -0.333   0.848   0.677  0.00  0.00     0.003 A 
ATOM      5  C3  PXY d   1       0.790   1.582   0.391  0.00  0.00     0.003 A 
ATOM      6  C4  PXY d   1       2.012   0.971   0.302  0.00  0.00    -0.082 A 
ATOM      7  C5  PXY d   1       2.101  -0.367   0.457  0.00  0.00     0.003 A 
ATOM      8  C6  PXY d   1       0.943  -1.099   0.705  0.00  0.00     0.003 A 
ENDROOT
TORSDOF 0
ENDMDL
