MODEL 1
REMARK minimizedAffinity -5.87639904
REMARK minimizedRMSD -1
REMARK  0 active torsions:
REMARK  status: ('A' for Active; 'I' for Inactive)
ROOT
ATOM      1  C4' PXY d   1       1.874   0.712   0.358  0.00  0.00     0.077 C 
ATOM      2  C1' PXY d   1      -3.477  -1.161  -0.770  0.00  0.00     0.077 C 
ATOM      3  C1  PXY d   1      -2.070  -0.672  -0.487  0.00  0.00    -0.082 A 
ATOM      4  C2  PXY d   1      -1.593  -0.731   0.746  0.00  0.00     0.003 A 
ATOM      5  C3  PXY d   1      -0.335  -0.264   1.026  0.00  0.00     0.003 A 
ATOM      6  C4  PXY d   1       0.463   0.221   0.024  0.00  0.00    -0.082 A 
ATOM      7  C5  PXY d   1      -0.013   0.275  -1.238  0.00  0.00     0.003 A 
ATOM      8  C6  PXY d   1      -1.307  -0.167  -1.494  0.00  0.00     0.003 A 
ENDROOT
TORSDOF 0
ENDMDL
