MODEL 1
REMARK minimizedAffinity -1.04305565
REMARK minimizedRMSD -1
REMARK  0 active torsions:
REMARK  status: ('A' for Active; 'I' for Inactive)
ROOT
ATOM      1  C4' PXY d   1       2.731  -0.341  -0.028  0.00  0.00     0.077 C 
ATOM      2  C1' PXY d   1      -2.922  -0.059   1.145  0.00  0.00     0.077 C 
ATOM      3  C1  PXY d   1      -1.437  -0.136   0.850  0.00  0.00    -0.082 A 
ATOM      4  C2  PXY d   1      -0.939   0.530  -0.179  0.00  0.00     0.003 A 
ATOM      5  C3  PXY d   1       0.396   0.446  -0.480  0.00  0.00     0.003 A 
ATOM      6  C4  PXY d   1       1.240  -0.285   0.313  0.00  0.00    -0.082 A 
ATOM      7  C5  PXY d   1       0.742  -0.958   1.372  0.00  0.00     0.003 A 
ATOM      8  C6  PXY d   1      -0.624  -0.893   1.635  0.00  0.00     0.003 A 
ENDROOT
TORSDOF 0
ENDMDL
