MODEL 1
REMARK minimizedAffinity -5.29882145
REMARK minimizedRMSD -1
REMARK  0 active torsions:
REMARK  status: ('A' for Active; 'I' for Inactive)
ROOT
ATOM      1  C4' PXY d   1      -3.365  -0.703  -0.243  0.00  0.00     0.077 C 
ATOM      2  C1' PXY d   1       2.269   0.004   0.838  0.00  0.00     0.077 C 
ATOM      3  C1  PXY d   1       0.791  -0.171   0.548  0.00  0.00    -0.082 A 
ATOM      4  C2  PXY d   1       0.039  -0.870   1.381  0.00  0.00     0.003 A 
ATOM      5  C3  PXY d   1      -1.293  -1.065   1.117  0.00  0.00     0.003 A 
ATOM      6  C4  PXY d   1      -1.871  -0.493   0.015  0.00  0.00    -0.082 A 
ATOM      7  C5  PXY d   1      -1.112   0.231  -0.834  0.00  0.00     0.003 A 
ATOM      8  C6  PXY d   1       0.246   0.382  -0.570  0.00  0.00     0.003 A 
ENDROOT
TORSDOF 0
ENDMDL
