MODEL 1
REMARK minimizedAffinity -4.32241678
REMARK minimizedRMSD -1
REMARK  0 active torsions:
REMARK  status: ('A' for Active; 'I' for Inactive)
ROOT
ATOM      1  C4' PXY d   1      -3.424  -0.809   0.116  0.00  0.00     0.077 C 
ATOM      2  C1' PXY d   1       2.262   0.090  -0.410  0.00  0.00     0.077 C 
ATOM      3  C1  PXY d   1       0.773  -0.155  -0.263  0.00  0.00    -0.082 A 
ATOM      4  C2  PXY d   1      -0.042   0.157  -1.257  0.00  0.00     0.003 A 
ATOM      5  C3  PXY d   1      -1.395  -0.028  -1.129  0.00  0.00     0.003 A 
ATOM      6  C4  PXY d   1      -1.913  -0.587   0.008  0.00  0.00    -0.082 A 
ATOM      7  C5  PXY d   1      -1.086  -0.918   1.023  0.00  0.00     0.003 A 
ATOM      8  C6  PXY d   1       0.279  -0.684   0.889  0.00  0.00     0.003 A 
ENDROOT
TORSDOF 0
ENDMDL
