MODEL 1
REMARK minimizedAffinity -3.49354219
REMARK minimizedRMSD -1
REMARK  0 active torsions:
REMARK  status: ('A' for Active; 'I' for Inactive)
ROOT
ATOM      1  C4' PXY d   1      -3.218  -0.770  -1.029  0.00  0.00     0.077 C 
ATOM      2  C1' PXY d   1       2.052   1.093   0.442  0.00  0.00     0.077 C 
ATOM      3  C1  PXY d   1       0.671   0.610   0.045  0.00  0.00    -0.082 A 
ATOM      4  C2  PXY d   1      -0.222   0.339   0.982  0.00  0.00     0.003 A 
ATOM      5  C3  PXY d   1      -1.465  -0.129   0.642  0.00  0.00     0.003 A 
ATOM      6  C4  PXY d   1      -1.815  -0.271  -0.674  0.00  0.00    -0.082 A 
ATOM      7  C5  PXY d   1      -0.912   0.013  -1.637  0.00  0.00     0.003 A 
ATOM      8  C6  PXY d   1       0.358   0.448  -1.269  0.00  0.00     0.003 A 
ENDROOT
TORSDOF 0
ENDMDL
