MODEL 1
REMARK minimizedAffinity -2.66606307
REMARK minimizedRMSD -1
REMARK  0 active torsions:
REMARK  status: ('A' for Active; 'I' for Inactive)
ROOT
ATOM      1  C4' PXY d   1      -1.113  -0.287  -1.664  0.00  0.00     0.077 C 
ATOM      2  C1' PXY d   1       2.565   2.345   1.936  0.00  0.00     0.077 C 
ATOM      3  C1  PXY d   1       1.599   1.645   1.000  0.00  0.00    -0.082 A 
ATOM      4  C2  PXY d   1       1.648   1.895  -0.298  0.00  0.00     0.003 A 
ATOM      5  C3  PXY d   1       0.761   1.295  -1.154  0.00  0.00     0.003 A 
ATOM      6  C4  PXY d   1      -0.151   0.389  -0.683  0.00  0.00    -0.082 A 
ATOM      7  C5  PXY d   1      -0.201   0.121   0.639  0.00  0.00     0.003 A 
ATOM      8  C6  PXY d   1       0.681   0.772   1.496  0.00  0.00     0.003 A 
ENDROOT
TORSDOF 0
ENDMDL
