MODEL 1
REMARK minimizedAffinity -2.12853932
REMARK minimizedRMSD -1
REMARK  0 active torsions:
REMARK  status: ('A' for Active; 'I' for Inactive)
ROOT
ATOM      1  C4' PXY d   1      -1.046  -0.199  -0.827  0.00  0.00     0.077 C 
ATOM      2  C1' PXY d   1       3.208   2.640   1.866  0.00  0.00     0.077 C 
ATOM      3  C1  PXY d   1       2.101   1.888   1.154  0.00  0.00    -0.082 A 
ATOM      4  C2  PXY d   1       0.950   2.492   0.913  0.00  0.00     0.003 A 
ATOM      5  C3  PXY d   1      -0.074   1.816   0.299  0.00  0.00     0.003 A 
ATOM      6  C4  PXY d   1       0.103   0.525  -0.120  0.00  0.00    -0.082 A 
ATOM      7  C5  PXY d   1       1.279  -0.096   0.113  0.00  0.00     0.003 A 
ATOM      8  C6  PXY d   1       2.290   0.595   0.775  0.00  0.00     0.003 A 
ENDROOT
TORSDOF 0
ENDMDL
