MODEL 1
REMARK minimizedAffinity -3.49317718
REMARK minimizedRMSD -1
REMARK  0 active torsions:
REMARK  status: ('A' for Active; 'I' for Inactive)
ROOT
ATOM      1  C4' PXY d   1      -3.621  -1.169  -0.406  0.00  0.00     0.077 C 
ATOM      2  C1' PXY d   1       1.899   0.461   0.136  0.00  0.00     0.077 C 
ATOM      3  C1  PXY d   1       0.450   0.042  -0.017  0.00  0.00    -0.082 A 
ATOM      4  C2  PXY d   1      -0.207  -0.433   1.029  0.00  0.00     0.003 A 
ATOM      5  C3  PXY d   1      -1.508  -0.847   0.902  0.00  0.00     0.003 A 
ATOM      6  C4  PXY d   1      -2.160  -0.724  -0.296  0.00  0.00    -0.082 A 
ATOM      7  C5  PXY d   1      -1.500  -0.231  -1.365  0.00  0.00     0.003 A 
ATOM      8  C6  PXY d   1      -0.167   0.145  -1.225  0.00  0.00     0.003 A 
ENDROOT
TORSDOF 0
ENDMDL
