MODEL 1
REMARK minimizedAffinity -0.676549494
REMARK minimizedRMSD -1
REMARK  2 active torsions:
REMARK  status: ('A' for Active; 'I' for Inactive)
REMARK    1  A    between atoms: C2'_3  and  C1'_4 
REMARK    2  A    between atoms: C1'_4  and  C1_5 
ROOT
ATOM      1  C1  I4B d   1       2.194  -1.817   2.775  0.00  0.00    -0.075 A 
ATOM      2  C2  I4B d   1       3.335  -1.870   3.535  0.00  0.00     0.003 A 
ATOM      3  C3  I4B d   1       3.482  -2.864   4.532  0.00  0.00     0.002 A 
ATOM      4  C4  I4B d   1       2.449  -3.748   4.768  0.00  0.00    -0.004 A 
ATOM      5  C5  I4B d   1       1.302  -3.707   3.981  0.00  0.00     0.002 A 
ATOM      6  C6  I4B d   1       1.178  -2.744   2.970  0.00  0.00     0.003 A 
ENDROOT
BRANCH   1   7
ATOM      7  C1' I4B d   1       2.058  -0.733   1.753  0.00  0.00     0.060 C 
BRANCH   7   8
ATOM      8  C2' I4B d   1       3.070   0.346   2.079  0.00  0.00    -0.013 C 
ATOM      9  C4' I4B d   1       3.699   0.900   0.828  0.00  0.00     0.013 C 
ATOM     10  C3' I4B d   1       2.368   1.421   2.853  0.00  0.00     0.013 C 
ENDBRANCH   7   8
ENDBRANCH   1   7
TORSDOF 2
ENDMDL
