MODEL 1
REMARK minimizedAffinity 12.8003912
REMARK minimizedRMSD -1
REMARK  2 active torsions:
REMARK  status: ('A' for Active; 'I' for Inactive)
REMARK    1  A    between atoms: C2'_3  and  C1'_4 
REMARK    2  A    between atoms: C1'_4  and  C1_5 
ROOT
ATOM      1  C1  I4B d   1       3.743  -2.193   5.096  0.00  0.00    -0.075 A 
ATOM      2  C2  I4B d   1       3.730  -3.564   5.157  0.00  0.00     0.003 A 
ATOM      3  C3  I4B d   1       4.863  -4.267   5.634  0.00  0.00     0.002 A 
ATOM      4  C4  I4B d   1       5.997  -3.566   5.991  0.00  0.00    -0.004 A 
ATOM      5  C5  I4B d   1       6.000  -2.175   5.951  0.00  0.00     0.002 A 
ATOM      6  C6  I4B d   1       4.862  -1.483   5.513  0.00  0.00     0.003 A 
ENDROOT
BRANCH   1   7
ATOM      7  C1' I4B d   1       2.542  -1.484   4.556  0.00  0.00     0.060 C 
BRANCH   7   8
ATOM      8  C2' I4B d   1       1.937  -2.351   3.471  0.00  0.00    -0.013 C 
ATOM      9  C4' I4B d   1       0.842  -3.227   4.020  0.00  0.00     0.013 C 
ATOM     10  C3' I4B d   1       1.418  -1.448   2.392  0.00  0.00     0.013 C 
ENDBRANCH   7   8
ENDBRANCH   1   7
TORSDOF 2
ENDMDL
