MODEL 1
REMARK minimizedAffinity 16.8580647
REMARK minimizedRMSD -1
REMARK  2 active torsions:
REMARK  status: ('A' for Active; 'I' for Inactive)
REMARK    1  A    between atoms: C2'_3  and  C1'_4 
REMARK    2  A    between atoms: C1'_4  and  C1_5 
ROOT
ATOM      1  C1  I4B d   1       0.867  -1.225   1.228  0.00  0.00    -0.075 A 
ATOM      2  C2  I4B d   1      -0.431  -0.838   1.004  0.00  0.00     0.003 A 
ATOM      3  C3  I4B d   1      -1.133  -1.318  -0.128  0.00  0.00     0.002 A 
ATOM      4  C4  I4B d   1      -0.486  -2.137  -1.032  0.00  0.00    -0.004 A 
ATOM      5  C5  I4B d   1       0.822  -2.546  -0.791  0.00  0.00     0.002 A 
ATOM      6  C6  I4B d   1       1.500  -2.098   0.352  0.00  0.00     0.003 A 
ENDROOT
BRANCH   1   7
ATOM      7  C1' I4B d   1       1.589  -0.673   2.416  0.00  0.00     0.060 C 
BRANCH   7   8
ATOM      8  C2' I4B d   1       2.153  -1.839   3.203  0.00  0.00    -0.013 C 
ATOM      9  C4' I4B d   1       3.659  -1.837   3.176  0.00  0.00     0.013 C 
ATOM     10  C3' I4B d   1       1.636  -1.743   4.607  0.00  0.00     0.013 C 
ENDBRANCH   7   8
ENDBRANCH   1   7
TORSDOF 2
ENDMDL
