MODEL 1
REMARK minimizedAffinity 12.7974768
REMARK minimizedRMSD -1
REMARK  2 active torsions:
REMARK  status: ('A' for Active; 'I' for Inactive)
REMARK    1  A    between atoms: C2'_3  and  C1'_4 
REMARK    2  A    between atoms: C1'_4  and  C1_5 
ROOT
ATOM      1  C1  I4B d   1       1.556  -1.715   2.746  0.00  0.00    -0.075 A 
ATOM      2  C2  I4B d   1       2.385  -2.563   2.055  0.00  0.00     0.003 A 
ATOM      3  C3  I4B d   1       2.447  -3.936   2.398  0.00  0.00     0.002 A 
ATOM      4  C4  I4B d   1       1.706  -4.404   3.464  0.00  0.00    -0.004 A 
ATOM      5  C5  I4B d   1       0.849  -3.547   4.149  0.00  0.00     0.002 A 
ATOM      6  C6  I4B d   1       0.763  -2.197   3.780  0.00  0.00     0.003 A 
ENDROOT
BRANCH   1   7
ATOM      7  C1' I4B d   1       1.539  -0.265   2.378  0.00  0.00     0.060 C 
BRANCH   7   8
ATOM      8  C2' I4B d   1       2.771   0.382   2.978  0.00  0.00    -0.013 C 
ATOM      9  C4' I4B d   1       3.203   1.581   2.175  0.00  0.00     0.013 C 
ATOM     10  C3' I4B d   1       2.449   0.765   4.392  0.00  0.00     0.013 C 
ENDBRANCH   7   8
ENDBRANCH   1   7
TORSDOF 2
ENDMDL
