MODEL 1
REMARK minimizedAffinity 13.9944029
REMARK minimizedRMSD -1
REMARK  2 active torsions:
REMARK  status: ('A' for Active; 'I' for Inactive)
REMARK    1  A    between atoms: C2'_3  and  C1'_4 
REMARK    2  A    between atoms: C1'_4  and  C1_5 
ROOT
ATOM      1  C1  I4B d   1      -0.269  -1.858  -0.857  0.00  0.00    -0.075 A 
ATOM      2  C2  I4B d   1      -1.056  -0.881  -1.414  0.00  0.00     0.003 A 
ATOM      3  C3  I4B d   1      -2.415  -1.144  -1.712  0.00  0.00     0.002 A 
ATOM      4  C4  I4B d   1      -2.929  -2.405  -1.484  0.00  0.00    -0.004 A 
ATOM      5  C5  I4B d   1      -2.136  -3.387  -0.898  0.00  0.00     0.002 A 
ATOM      6  C6  I4B d   1      -0.801  -3.108  -0.571  0.00  0.00     0.003 A 
ENDROOT
BRANCH   1   7
ATOM      7  C1' I4B d   1       1.171  -1.556  -0.586  0.00  0.00     0.060 C 
BRANCH   7   8
ATOM      8  C2' I4B d   1       1.969  -1.949  -1.812  0.00  0.00    -0.013 C 
ATOM      9  C4' I4B d   1       2.956  -0.876  -2.188  0.00  0.00     0.013 C 
ATOM     10  C3' I4B d   1       2.664  -3.244  -1.516  0.00  0.00     0.013 C 
ENDBRANCH   7   8
ENDBRANCH   1   7
TORSDOF 2
ENDMDL
