MODEL 1
REMARK minimizedAffinity 7.66595745
REMARK minimizedRMSD -1
REMARK  2 active torsions:
REMARK  status: ('A' for Active; 'I' for Inactive)
REMARK    1  A    between atoms: C2'_3  and  C1'_4 
REMARK    2  A    between atoms: C1'_4  and  C1_5 
ROOT
ATOM      1  C1  I4B d   1       3.531  -2.114   4.355  0.00  0.00    -0.075 A 
ATOM      2  C2  I4B d   1       4.681  -1.575   3.834  0.00  0.00     0.003 A 
ATOM      3  C3  I4B d   1       5.940  -1.911   4.388  0.00  0.00     0.002 A 
ATOM      4  C4  I4B d   1       5.999  -2.743   5.487  0.00  0.00    -0.004 A 
ATOM      5  C5  I4B d   1       4.834  -3.306   6.000  0.00  0.00     0.002 A 
ATOM      6  C6  I4B d   1       3.593  -3.000   5.423  0.00  0.00     0.003 A 
ENDROOT
BRANCH   1   7
ATOM      7  C1' I4B d   1       2.216  -1.712   3.766  0.00  0.00     0.060 C 
BRANCH   7   8
ATOM      8  C2' I4B d   1       2.492  -0.918   2.506  0.00  0.00    -0.013 C 
ATOM      9  C4' I4B d   1       1.439  -1.172   1.460  0.00  0.00     0.013 C 
ATOM     10  C3' I4B d   1       2.547   0.534   2.877  0.00  0.00     0.013 C 
ENDBRANCH   7   8
ENDBRANCH   1   7
TORSDOF 2
ENDMDL
