MODEL 1
REMARK minimizedAffinity 11.4656076
REMARK minimizedRMSD -1
REMARK  2 active torsions:
REMARK  status: ('A' for Active; 'I' for Inactive)
REMARK    1  A    between atoms: C2'_3  and  C1'_4 
REMARK    2  A    between atoms: C1'_4  and  C1_5 
ROOT
ATOM      1  C1  I4B d   1       3.474  -1.960   4.116  0.00  0.00    -0.075 A 
ATOM      2  C2  I4B d   1       4.598  -1.703   3.370  0.00  0.00     0.003 A 
ATOM      3  C3  I4B d   1       5.884  -1.884   3.933  0.00  0.00     0.002 A 
ATOM      4  C4  I4B d   1       6.000  -2.273   5.252  0.00  0.00    -0.004 A 
ATOM      5  C5  I4B d   1       4.860  -2.555   6.000  0.00  0.00     0.002 A 
ATOM      6  C6  I4B d   1       3.589  -2.410   5.424  0.00  0.00     0.003 A 
ENDROOT
BRANCH   1   7
ATOM      7  C1' I4B d   1       2.131  -1.727   3.500  0.00  0.00     0.060 C 
BRANCH   7   8
ATOM      8  C2' I4B d   1       2.313  -0.787   2.325  0.00  0.00    -0.013 C 
ATOM      9  C4' I4B d   1       1.047  -0.670   1.519  0.00  0.00     0.013 C 
ATOM     10  C3' I4B d   1       2.739   0.547   2.861  0.00  0.00     0.013 C 
ENDBRANCH   7   8
ENDBRANCH   1   7
TORSDOF 2
ENDMDL
