MODEL 1
REMARK minimizedAffinity -3.49501157
REMARK minimizedRMSD -1
REMARK  1 active torsions:
REMARK  status: ('A' for Active; 'I' for Inactive)
REMARK    1  A    between atoms: N_2  and  C1_3 
ROOT
ATOM      1  C1  UNL d   1      -1.228   0.107  -1.528  0.00  0.00     0.143 A 
ATOM      2  C2  UNL d   1      -0.018   0.343  -2.190  0.00  0.00    -0.057 A 
ATOM      3  C3  UNL d   1       1.172   0.544  -1.479  0.00  0.00     0.033 A 
ATOM      4  C4  UNL d   1       1.167   0.543  -0.088  0.00  0.00    -0.042 A 
ATOM      5  C5  UNL d   1      -0.029   0.336   0.591  0.00  0.00     0.033 A 
ATOM      6  C6  UNL d   1      -1.212   0.129  -0.124  0.00  0.00    -0.057 A 
ENDROOT
BRANCH   1   7
ATOM      7  N   UNL d   1      -2.461  -0.002  -2.175  0.00  0.00    -0.732 N 
ATOM      8  C   UNL d   1      -2.593  -0.795  -3.379  0.00  0.00     0.284 C 
ATOM      9  H3  UNL d   1      -3.234  -0.105  -1.523  0.00  0.00     0.395 HD
ENDBRANCH   1   7
TORSDOF 1
ENDMDL
