MODEL 1
REMARK minimizedAffinity -4.67621279
REMARK minimizedRMSD -1
REMARK  1 active torsions:
REMARK  status: ('A' for Active; 'I' for Inactive)
REMARK    1  A    between atoms: N_2  and  C1_3 
ROOT
ATOM      1  C1  UNL d   1       0.040   0.275  -0.187  0.00  0.00     0.143 A 
ATOM      2  C2  UNL d   1       0.676   1.521  -0.201  0.00  0.00    -0.057 A 
ATOM      3  C3  UNL d   1       2.052   1.637   0.030  0.00  0.00     0.033 A 
ATOM      4  C4  UNL d   1       2.814   0.507   0.308  0.00  0.00    -0.042 A 
ATOM      5  C5  UNL d   1       2.199  -0.739   0.352  0.00  0.00     0.033 A 
ATOM      6  C6  UNL d   1       0.826  -0.849   0.115  0.00  0.00    -0.057 A 
ENDROOT
BRANCH   1   7
ATOM      7  N   UNL d   1      -1.341   0.105  -0.311  0.00  0.00    -0.732 N 
ATOM      8  C   UNL d   1      -1.997   0.307  -1.585  0.00  0.00     0.284 C 
ATOM      9  H3  UNL d   1      -1.681  -0.700   0.209  0.00  0.00     0.395 HD
ENDBRANCH   1   7
TORSDOF 1
ENDMDL
