MODEL 1
REMARK minimizedAffinity -4.1318903
REMARK minimizedRMSD -1
REMARK  1 active torsions:
REMARK  status: ('A' for Active; 'I' for Inactive)
REMARK    1  A    between atoms: N_2  and  C1_3 
ROOT
ATOM      1  C1  UNL d   1      -0.122   0.073  -0.355  0.00  0.00     0.143 A 
ATOM      2  C2  UNL d   1       0.837   1.073  -0.159  0.00  0.00    -0.057 A 
ATOM      3  C3  UNL d   1       2.147   0.758   0.222  0.00  0.00     0.033 A 
ATOM      4  C4  UNL d   1       2.515  -0.565   0.442  0.00  0.00    -0.042 A 
ATOM      5  C5  UNL d   1       1.572  -1.574   0.277  0.00  0.00     0.033 A 
ATOM      6  C6  UNL d   1       0.267  -1.253  -0.110  0.00  0.00    -0.057 A 
ENDROOT
BRANCH   1   7
ATOM      7  N   UNL d   1      -1.466   0.329  -0.637  0.00  0.00    -0.732 N 
ATOM      8  C   UNL d   1      -2.095  -0.243  -1.808  0.00  0.00     0.284 C 
ATOM      9  H3  UNL d   1      -2.048   0.313   0.197  0.00  0.00     0.395 HD
ENDBRANCH   1   7
TORSDOF 1
ENDMDL
