MODEL 1
REMARK minimizedAffinity -1.90956354
REMARK minimizedRMSD -1
REMARK  1 active torsions:
REMARK  status: ('A' for Active; 'I' for Inactive)
REMARK    1  A    between atoms: N_2  and  C1_3 
ROOT
ATOM      1  C1  UNL d   1      -0.364   0.448  -0.252  0.00  0.00     0.143 A 
ATOM      2  C2  UNL d   1       0.372   1.622  -0.057  0.00  0.00    -0.057 A 
ATOM      3  C3  UNL d   1       1.718   1.580   0.326  0.00  0.00     0.033 A 
ATOM      4  C4  UNL d   1       2.346   0.360   0.550  0.00  0.00    -0.042 A 
ATOM      5  C5  UNL d   1       1.628  -0.819   0.387  0.00  0.00     0.033 A 
ATOM      6  C6  UNL d   1       0.285  -0.771  -0.003  0.00  0.00    -0.057 A 
ENDROOT
BRANCH   1   7
ATOM      7  N   UNL d   1      -1.731   0.425  -0.537  0.00  0.00    -0.732 N 
ATOM      8  C   UNL d   1      -2.202   0.111  -1.869  0.00  0.00     0.284 C 
ATOM      9  H3  UNL d   1      -2.276  -0.003   0.208  0.00  0.00     0.395 HD
ENDBRANCH   1   7
TORSDOF 1
ENDMDL
