MODEL 1
REMARK minimizedAffinity 11.9723425
REMARK minimizedRMSD -1
REMARK  1 active torsions:
REMARK  status: ('A' for Active; 'I' for Inactive)
REMARK    1  A    between atoms: N_2  and  C1_3 
ROOT
ATOM      1  C1  UNL d   1      -3.935   3.574  -2.574  0.00  0.00     0.143 A 
ATOM      2  C2  UNL d   1      -3.977   4.959  -2.384  0.00  0.00    -0.057 A 
ATOM      3  C3  UNL d   1      -4.990   5.557  -1.625  0.00  0.00     0.033 A 
ATOM      4  C4  UNL d   1      -6.000   4.780  -1.066  0.00  0.00    -0.042 A 
ATOM      5  C5  UNL d   1      -5.992   3.404  -1.263  0.00  0.00     0.033 A 
ATOM      6  C6  UNL d   1      -4.974   2.812  -2.016  0.00  0.00    -0.057 A 
ENDROOT
BRANCH   1   7
ATOM      7  N   UNL d   1      -3.010   2.930  -3.400  0.00  0.00    -0.732 N 
ATOM      8  C   UNL d   1      -2.933   1.485  -3.433  0.00  0.00     0.284 C 
ATOM      9  H3  UNL d   1      -2.930   3.372  -4.312  0.00  0.00     0.395 HD
ENDBRANCH   1   7
TORSDOF 1
ENDMDL
