MODEL 1
REMARK minimizedAffinity -3.3932066
REMARK minimizedRMSD -1
REMARK  1 active torsions:
REMARK  status: ('A' for Active; 'I' for Inactive)
REMARK    1  A    between atoms: N_2  and  C1_3 
ROOT
ATOM      1  C1  UNL d   1       0.508   0.405  -0.076  0.00  0.00     0.143 A 
ATOM      2  C2  UNL d   1       1.783   0.975  -0.164  0.00  0.00    -0.057 A 
ATOM      3  C3  UNL d   1       2.929   0.247   0.179  0.00  0.00     0.033 A 
ATOM      4  C4  UNL d   1       2.817  -1.058   0.645  0.00  0.00    -0.042 A 
ATOM      5  C5  UNL d   1       1.558  -1.637   0.765  0.00  0.00     0.033 A 
ATOM      6  C6  UNL d   1       0.418  -0.907   0.415  0.00  0.00    -0.057 A 
ENDROOT
BRANCH   1   7
ATOM      7  N   UNL d   1      -0.676   1.109  -0.308  0.00  0.00    -0.732 N 
ATOM      8  C   UNL d   1      -1.570   0.716  -1.375  0.00  0.00     0.284 C 
ATOM      9  H3  UNL d   1      -1.148   1.370   0.555  0.00  0.00     0.395 HD
ENDBRANCH   1   7
TORSDOF 1
ENDMDL
