MODEL 1
REMARK minimizedAffinity -4.86290836
REMARK minimizedRMSD -1
REMARK  1 active torsions:
REMARK  status: ('A' for Active; 'I' for Inactive)
REMARK    1  A    between atoms: N_2  and  C1_3 
ROOT
ATOM      1  C1  UNL d   1       0.127  -0.268   0.226  0.00  0.00     0.143 A 
ATOM      2  C2  UNL d   1       0.848  -1.452   0.037  0.00  0.00    -0.057 A 
ATOM      3  C3  UNL d   1       2.234  -1.497   0.229  0.00  0.00     0.033 A 
ATOM      4  C4  UNL d   1       2.930  -0.347   0.586  0.00  0.00    -0.042 A 
ATOM      5  C5  UNL d   1       2.238   0.847   0.755  0.00  0.00     0.033 A 
ATOM      6  C6  UNL d   1       0.853   0.884   0.568  0.00  0.00    -0.057 A 
ENDROOT
BRANCH   1   7
ATOM      7  N   UNL d   1      -1.237  -0.136  -0.045  0.00  0.00    -0.732 N 
ATOM      8  C   UNL d   1      -1.745  -0.331  -1.387  0.00  0.00     0.284 C 
ATOM      9  H3  UNL d   1      -1.819  -0.544   0.683  0.00  0.00     0.395 HD
ENDBRANCH   1   7
TORSDOF 1
ENDMDL
