MODEL 1
REMARK minimizedAffinity 6.37905121
REMARK minimizedRMSD -1
REMARK  1 active torsions:
REMARK  status: ('A' for Active; 'I' for Inactive)
REMARK    1  A    between atoms: C1_2  and  C2_3 
ROOT
ATOM      1  C2  UNL d   1       3.216   2.331   1.639  0.00  0.00    -0.077 A 
ATOM      2  C3  UNL d   1       2.554   2.962   0.576  0.00  0.00     0.002 A 
ATOM      3  C4  UNL d   1       2.425   2.319  -0.657  0.00  0.00     0.002 A 
ATOM      4  C5  UNL d   1       2.952   1.041  -0.837  0.00  0.00    -0.004 A 
ATOM      5  C6  UNL d   1       3.613   0.407   0.214  0.00  0.00     0.002 A 
ATOM      6  C7  UNL d   1       3.744   1.048   1.446  0.00  0.00     0.002 A 
ENDROOT
BRANCH   1   7
ATOM      7  C1  UNL d   1       3.313   3.003   2.984  0.00  0.00     0.055 C 
ATOM      8  C   UNL d   1       2.119   3.914   3.235  0.00  0.00     0.019 C 
ENDBRANCH   1   7
TORSDOF 1
ENDMDL
