MODEL 1
REMARK minimizedAffinity -1.14717817
REMARK minimizedRMSD -1
REMARK  1 active torsions:
REMARK  status: ('A' for Active; 'I' for Inactive)
REMARK    1  A    between atoms: C1_2  and  C2_3 
ROOT
ATOM      1  C2  UNL d   1      -4.167   5.813   2.820  0.00  0.00    -0.077 A 
ATOM      2  C3  UNL d   1      -3.260   5.906   3.884  0.00  0.00     0.002 A 
ATOM      3  C4  UNL d   1      -3.720   6.000   5.199  0.00  0.00     0.002 A 
ATOM      4  C5  UNL d   1      -5.088   5.998   5.461  0.00  0.00    -0.004 A 
ATOM      5  C6  UNL d   1      -5.999   5.909   4.410  0.00  0.00     0.002 A 
ATOM      6  C7  UNL d   1      -5.541   5.816   3.095  0.00  0.00     0.002 A 
ENDROOT
BRANCH   1   7
ATOM      7  C1  UNL d   1      -3.672   5.662   1.405  0.00  0.00     0.055 C 
ATOM      8  C   UNL d   1      -4.776   5.952   0.398  0.00  0.00     0.019 C 
ENDBRANCH   1   7
TORSDOF 1
ENDMDL
