MODEL 1
REMARK minimizedAffinity 7.77183867
REMARK minimizedRMSD -1
REMARK  1 active torsions:
REMARK  status: ('A' for Active; 'I' for Inactive)
REMARK    1  A    between atoms: C1_2  and  C2_3 
ROOT
ATOM      1  C2  UNL d   1       3.463   1.572  -0.112  0.00  0.00    -0.077 A 
ATOM      2  C3  UNL d   1       4.630   0.910  -0.520  0.00  0.00     0.002 A 
ATOM      3  C4  UNL d   1       5.885   1.403  -0.157  0.00  0.00     0.002 A 
ATOM      4  C5  UNL d   1       5.985   2.556   0.618  0.00  0.00    -0.004 A 
ATOM      5  C6  UNL d   1       4.830   3.223   1.027  0.00  0.00     0.002 A 
ATOM      6  C7  UNL d   1       3.575   2.733   0.664  0.00  0.00     0.002 A 
ENDROOT
BRANCH   1   7
ATOM      7  C1  UNL d   1       2.107   1.015  -0.461  0.00  0.00     0.055 C 
ATOM      8  C   UNL d   1       2.017  -0.468  -0.132  0.00  0.00     0.019 C 
ENDBRANCH   1   7
TORSDOF 1
ENDMDL
