MODEL 1
REMARK minimizedAffinity 0.463494092
REMARK minimizedRMSD -1
REMARK  1 active torsions:
REMARK  status: ('A' for Active; 'I' for Inactive)
REMARK    1  A    between atoms: C1_2  and  C2_3 
ROOT
ATOM      1  C2  UNL d   1      -4.090   5.962   4.083  0.00  0.00    -0.077 A 
ATOM      2  C3  UNL d   1      -2.819   5.985   3.492  0.00  0.00     0.002 A 
ATOM      3  C4  UNL d   1      -2.687   6.000   2.103  0.00  0.00     0.002 A 
ATOM      4  C5  UNL d   1      -3.820   5.996   1.293  0.00  0.00    -0.004 A 
ATOM      5  C6  UNL d   1      -5.089   5.971   1.871  0.00  0.00     0.002 A 
ATOM      6  C7  UNL d   1      -5.223   5.955   3.260  0.00  0.00     0.002 A 
ENDROOT
BRANCH   1   7
ATOM      7  C1  UNL d   1      -4.236   5.995   5.582  0.00  0.00     0.055 C 
ATOM      8  C   UNL d   1      -5.700   5.963   5.997  0.00  0.00     0.019 C 
ENDBRANCH   1   7
TORSDOF 1
ENDMDL
