MODEL 1
REMARK minimizedAffinity 2.62754679
REMARK minimizedRMSD -1
REMARK  1 active torsions:
REMARK  status: ('A' for Active; 'I' for Inactive)
REMARK    1  A    between atoms: C1_2  and  C2_3 
ROOT
ATOM      1  C2  UNL d   1       3.026   1.178  -0.018  0.00  0.00    -0.077 A 
ATOM      2  C3  UNL d   1       4.183   1.932  -0.260  0.00  0.00     0.002 A 
ATOM      3  C4  UNL d   1       4.606   2.891   0.662  0.00  0.00     0.002 A 
ATOM      4  C5  UNL d   1       3.882   3.101   1.834  0.00  0.00    -0.004 A 
ATOM      5  C6  UNL d   1       2.730   2.357   2.083  0.00  0.00     0.002 A 
ATOM      6  C7  UNL d   1       2.304   1.399   1.161  0.00  0.00     0.002 A 
ENDROOT
BRANCH   1   7
ATOM      7  C1  UNL d   1       2.595   0.109  -0.988  0.00  0.00     0.055 C 
ATOM      8  C   UNL d   1       2.283  -1.197  -0.271  0.00  0.00     0.019 C 
ENDBRANCH   1   7
TORSDOF 1
ENDMDL
