MODEL 1
REMARK minimizedAffinity 0.096792683
REMARK minimizedRMSD -1
REMARK  1 active torsions:
REMARK  status: ('A' for Active; 'I' for Inactive)
REMARK    1  A    between atoms: C1_2  and  C2_3 
ROOT
ATOM      1  C2  UNL d   1      -5.183   5.779   3.429  0.00  0.00    -0.077 A 
ATOM      2  C3  UNL d   1      -3.794   5.934   3.318  0.00  0.00     0.002 A 
ATOM      3  C4  UNL d   1      -3.181   5.933   2.064  0.00  0.00     0.002 A 
ATOM      4  C5  UNL d   1      -3.950   5.782   0.911  0.00  0.00    -0.004 A 
ATOM      5  C6  UNL d   1      -5.332   5.625   1.011  0.00  0.00     0.002 A 
ATOM      6  C7  UNL d   1      -5.946   5.624   2.264  0.00  0.00     0.002 A 
ENDROOT
BRANCH   1   7
ATOM      7  C1  UNL d   1      -5.852   5.829   4.778  0.00  0.00     0.055 C 
ATOM      8  C   UNL d   1      -4.832   5.998   5.895  0.00  0.00     0.019 C 
ENDBRANCH   1   7
TORSDOF 1
ENDMDL
