MODEL 1
REMARK minimizedAffinity 12.8446827
REMARK minimizedRMSD -1
REMARK  0 active torsions:
REMARK  status: ('A' for Active; 'I' for Inactive)
ROOT
ATOM      1  C   UNL d   1       1.864  -1.250   2.292  0.00  0.00    -0.002 A 
ATOM      2  C1  UNL d   1       2.323  -0.575   1.170  0.00  0.00     0.010 A 
ATOM      3  C2  UNL d   1       1.424  -0.029   0.252  0.00  0.00     0.041 A 
ATOM      4  C3  UNL d   1       0.042  -0.174   0.483  0.00  0.00    -0.075 A 
ATOM      5  S   UNL d   1      -1.244   0.412  -0.504  0.00  0.00     0.015 SA
ATOM      6  C4  UNL d   1      -2.434  -0.220   0.540  0.00  0.00     0.022 A 
ATOM      7  C5  UNL d   1      -1.881  -0.866   1.621  0.00  0.00     0.026 A 
ATOM      8  C6  UNL d   1      -0.445  -0.850   1.606  0.00  0.00    -0.082 A 
ATOM      9  C7  UNL d   1       0.492  -1.392   2.518  0.00  0.00     0.045 A 
ENDROOT
TORSDOF 0
ENDMDL
