MODEL 1
REMARK minimizedAffinity 7.21338367
REMARK minimizedRMSD -1
REMARK  0 active torsions:
REMARK  status: ('A' for Active; 'I' for Inactive)
ROOT
ATOM      1  C   UNL d   1       1.246  -2.838   2.586  0.00  0.00    -0.002 A 
ATOM      2  C1  UNL d   1       1.923  -1.845   3.280  0.00  0.00     0.010 A 
ATOM      3  C2  UNL d   1       2.018  -0.553   2.759  0.00  0.00     0.041 A 
ATOM      4  C3  UNL d   1       1.415  -0.273   1.517  0.00  0.00    -0.075 A 
ATOM      5  S   UNL d   1       1.402   1.237   0.684  0.00  0.00     0.015 SA
ATOM      6  C4  UNL d   1       0.497   0.600  -0.612  0.00  0.00     0.022 A 
ATOM      7  C5  UNL d   1       0.204  -0.731  -0.431  0.00  0.00     0.026 A 
ATOM      8  C6  UNL d   1       0.727  -1.256   0.799  0.00  0.00    -0.082 A 
ATOM      9  C7  UNL d   1       0.649  -2.556   1.354  0.00  0.00     0.045 A 
ENDROOT
TORSDOF 0
ENDMDL
