MODEL 1
REMARK minimizedAffinity 6.95440292
REMARK minimizedRMSD -1
REMARK  0 active torsions:
REMARK  status: ('A' for Active; 'I' for Inactive)
ROOT
ATOM      1  C   UNL d   1      -3.765  -2.598  -0.727  0.00  0.00    -0.002 A 
ATOM      2  C1  UNL d   1      -3.317  -1.995   0.440  0.00  0.00     0.010 A 
ATOM      3  C2  UNL d   1      -3.687  -0.685   0.750  0.00  0.00     0.041 A 
ATOM      4  C3  UNL d   1      -4.524   0.015  -0.141  0.00  0.00    -0.075 A 
ATOM      5  S   UNL d   1      -5.107   1.629   0.031  0.00  0.00     0.015 SA
ATOM      6  C4  UNL d   1      -5.965   1.556  -1.440  0.00  0.00     0.022 A 
ATOM      7  C5  UNL d   1      -5.820   0.338  -2.061  0.00  0.00     0.026 A 
ATOM      8  C6  UNL d   1      -4.988  -0.570  -1.322  0.00  0.00    -0.082 A 
ATOM      9  C7  UNL d   1      -4.595  -1.900  -1.608  0.00  0.00     0.045 A 
ENDROOT
TORSDOF 0
ENDMDL
