MODEL 1
REMARK minimizedAffinity 6.85858727
REMARK minimizedRMSD -1
REMARK  0 active torsions:
REMARK  status: ('A' for Active; 'I' for Inactive)
ROOT
ATOM      1  C   UNL d   1       3.050   0.639  -0.215  0.00  0.00    -0.002 A 
ATOM      2  C1  UNL d   1       1.772   0.404  -0.700  0.00  0.00     0.010 A 
ATOM      3  C2  UNL d   1       0.844  -0.312   0.059  0.00  0.00     0.041 A 
ATOM      4  C3  UNL d   1       1.226  -0.791   1.327  0.00  0.00    -0.075 A 
ATOM      5  S   UNL d   1       0.257  -1.691   2.434  0.00  0.00     0.015 SA
ATOM      6  C4  UNL d   1       1.518  -1.784   3.577  0.00  0.00     0.022 A 
ATOM      7  C5  UNL d   1       2.657  -1.150   3.142  0.00  0.00     0.026 A 
ATOM      8  C6  UNL d   1       2.508  -0.566   1.838  0.00  0.00    -0.082 A 
ATOM      9  C7  UNL d   1       3.426   0.162   1.044  0.00  0.00     0.045 A 
ENDROOT
TORSDOF 0
ENDMDL
