MODEL 1
REMARK minimizedAffinity 8.46556473
REMARK minimizedRMSD -1
REMARK  0 active torsions:
REMARK  status: ('A' for Active; 'I' for Inactive)
ROOT
ATOM      1  C   UNL d   1      -2.741  -5.987  -3.331  0.00  0.00    -0.002 A 
ATOM      2  C1  UNL d   1      -2.585  -5.999  -4.710  0.00  0.00     0.010 A 
ATOM      3  C2  UNL d   1      -1.310  -5.998  -5.280  0.00  0.00     0.041 A 
ATOM      4  C3  UNL d   1      -0.184  -5.987  -4.433  0.00  0.00    -0.075 A 
ATOM      5  S   UNL d   1       1.473  -5.985  -4.907  0.00  0.00     0.015 SA
ATOM      6  C4  UNL d   1       2.013  -5.970  -3.291  0.00  0.00     0.022 A 
ATOM      7  C5  UNL d   1       0.967  -5.966  -2.398  0.00  0.00     0.026 A 
ATOM      8  C6  UNL d   1      -0.316  -5.976  -3.042  0.00  0.00    -0.082 A 
ATOM      9  C7  UNL d   1      -1.622  -5.976  -2.494  0.00  0.00     0.045 A 
ENDROOT
TORSDOF 0
ENDMDL
