MODEL 1
REMARK minimizedAffinity 4.84302711
REMARK minimizedRMSD -1
REMARK  0 active torsions:
REMARK  status: ('A' for Active; 'I' for Inactive)
ROOT
ATOM      1  C   UNL d   1      -2.563  -5.990  -2.393  0.00  0.00    -0.002 A 
ATOM      2  C1  UNL d   1      -1.422  -5.965  -1.604  0.00  0.00     0.010 A 
ATOM      3  C2  UNL d   1      -0.154  -5.952  -2.188  0.00  0.00     0.041 A 
ATOM      4  C3  UNL d   1      -0.051  -5.962  -3.593  0.00  0.00    -0.075 A 
ATOM      5  S   UNL d   1       1.396  -5.947  -4.530  0.00  0.00     0.015 SA
ATOM      6  C4  UNL d   1       0.533  -5.973  -6.000  0.00  0.00     0.022 A 
ATOM      7  C5  UNL d   1      -0.827  -5.992  -5.800  0.00  0.00     0.026 A 
ATOM      8  C6  UNL d   1      -1.186  -5.985  -4.409  0.00  0.00    -0.082 A 
ATOM      9  C7  UNL d   1      -2.457  -6.000  -3.786  0.00  0.00     0.045 A 
ENDROOT
TORSDOF 0
ENDMDL
