MODEL 1
REMARK minimizedAffinity -1.12389219
REMARK minimizedRMSD -1
REMARK  0 active torsions:
REMARK  status: ('A' for Active; 'I' for Inactive)
ROOT
ATOM      1  C   UNL d   1      -2.031  -5.975  -1.731  0.00  0.00    -0.002 A 
ATOM      2  C1  UNL d   1      -2.831  -5.992  -2.864  0.00  0.00     0.010 A 
ATOM      3  C2  UNL d   1      -2.259  -6.000  -4.138  0.00  0.00     0.041 A 
ATOM      4  C3  UNL d   1      -0.855  -5.992  -4.254  0.00  0.00    -0.075 A 
ATOM      5  S   UNL d   1       0.068  -6.000  -5.710  0.00  0.00     0.015 SA
ATOM      6  C4  UNL d   1       1.546  -5.982  -4.861  0.00  0.00     0.022 A 
ATOM      7  C5  UNL d   1       1.359  -5.969  -3.500  0.00  0.00     0.026 A 
ATOM      8  C6  UNL d   1      -0.028  -5.975  -3.127  0.00  0.00    -0.082 A 
ATOM      9  C7  UNL d   1      -0.639  -5.967  -1.850  0.00  0.00     0.045 A 
ENDROOT
TORSDOF 0
ENDMDL
