MODEL 1
REMARK minimizedAffinity 0.771759689
REMARK minimizedRMSD -1
REMARK  0 active torsions:
REMARK  status: ('A' for Active; 'I' for Inactive)
ROOT
ATOM      1  C   UNL d   1       0.564  -5.998  -5.300  0.00  0.00    -0.002 A 
ATOM      2  C1  UNL d   1       1.121  -5.998  -4.029  0.00  0.00     0.010 A 
ATOM      3  C2  UNL d   1       0.305  -5.997  -2.896  0.00  0.00     0.041 A 
ATOM      4  C3  UNL d   1      -1.094  -5.998  -3.064  0.00  0.00    -0.075 A 
ATOM      5  S   UNL d   1      -2.289  -5.999  -1.821  0.00  0.00     0.015 SA
ATOM      6  C4  UNL d   1      -3.567  -6.000  -2.949  0.00  0.00     0.022 A 
ATOM      7  C5  UNL d   1      -3.111  -6.000  -4.246  0.00  0.00     0.026 A 
ATOM      8  C6  UNL d   1      -1.678  -5.999  -4.333  0.00  0.00    -0.082 A 
ATOM      9  C7  UNL d   1      -0.824  -5.999  -5.462  0.00  0.00     0.045 A 
ENDROOT
TORSDOF 0
ENDMDL
