MODEL 1
REMARK minimizedAffinity 2.80121183
REMARK minimizedRMSD -1
REMARK  0 active torsions:
REMARK  status: ('A' for Active; 'I' for Inactive)
ROOT
ATOM      1  C   UNL d   1      -3.701  -5.991  -3.688  0.00  0.00    -0.002 A 
ATOM      2  C1  UNL d   1      -3.408  -5.989  -2.331  0.00  0.00     0.010 A 
ATOM      3  C2  UNL d   1      -2.083  -5.990  -1.890  0.00  0.00     0.041 A 
ATOM      4  C3  UNL d   1      -1.047  -5.990  -2.845  0.00  0.00    -0.075 A 
ATOM      5  S   UNL d   1       0.649  -5.990  -2.538  0.00  0.00     0.015 SA
ATOM      6  C4  UNL d   1       1.026  -5.991  -4.200  0.00  0.00     0.022 A 
ATOM      7  C5  UNL d   1      -0.103  -5.992  -4.985  0.00  0.00     0.026 A 
ATOM      8  C6  UNL d   1      -1.317  -5.991  -4.217  0.00  0.00    -0.082 A 
ATOM      9  C7  UNL d   1      -2.670  -5.992  -4.632  0.00  0.00     0.045 A 
ENDROOT
TORSDOF 0
ENDMDL
