MODEL 1
REMARK minimizedAffinity 9.64912224
REMARK minimizedRMSD -1
REMARK  0 active torsions:
REMARK  status: ('A' for Active; 'I' for Inactive)
ROOT
ATOM      1  C   UNL d   1      -3.393   0.184   1.345  0.00  0.00    -0.002 A 
ATOM      2  C1  UNL d   1      -2.707  -0.858   0.738  0.00  0.00     0.010 A 
ATOM      3  C2  UNL d   1      -3.081  -1.313  -0.528  0.00  0.00     0.041 A 
ATOM      4  C3  UNL d   1      -4.166  -0.697  -1.180  0.00  0.00    -0.075 A 
ATOM      5  S   UNL d   1      -4.802  -1.087  -2.735  0.00  0.00     0.015 SA
ATOM      6  C4  UNL d   1      -6.000   0.122  -2.630  0.00  0.00     0.022 A 
ATOM      7  C5  UNL d   1      -5.931   0.815  -1.445  0.00  0.00     0.026 A 
ATOM      8  C6  UNL d   1      -4.873   0.355  -0.590  0.00  0.00    -0.082 A 
ATOM      9  C7  UNL d   1      -4.470   0.793   0.694  0.00  0.00     0.045 A 
ENDROOT
TORSDOF 0
ENDMDL
