MODEL 1
REMARK minimizedAffinity 5.57844305
REMARK minimizedRMSD -1
REMARK  1 active torsions:
REMARK  status: ('A' for Active; 'I' for Inactive)
REMARK    1  A    between atoms: C1_2  and  C2_3 
ROOT
ATOM      1  C2  UNL d   1       3.066  -5.984  -4.082  0.00  0.00    -0.073 A 
ATOM      2  C3  UNL d   1       1.971  -5.983  -3.210  0.00  0.00    -0.002 A 
ATOM      3  C4  UNL d   1       2.169  -5.995  -1.829  0.00  0.00     0.004 A 
ATOM      4  C5  UNL d   1       3.462  -6.000  -1.305  0.00  0.00    -0.004 A 
ATOM      5  C6  UNL d   1       4.569  -5.988  -2.160  0.00  0.00    -0.075 A 
ATOM      6  C7  UNL d   1       5.966  -5.996  -1.613  0.00  0.00     0.076 C 
ATOM      7  C8  UNL d   1       4.362  -5.980  -3.546  0.00  0.00     0.001 A 
ENDROOT
BRANCH   1   8
ATOM      8  C1  UNL d   1       2.857  -5.965  -5.574  0.00  0.00     0.053 C 
ATOM      9  C   UNL d   1       1.383  -5.909  -5.942  0.00  0.00     0.018 C 
ENDBRANCH   1   8
TORSDOF 1
ENDMDL
