MODEL 1
REMARK minimizedAffinity 7.54796648
REMARK minimizedRMSD -1
REMARK  1 active torsions:
REMARK  status: ('A' for Active; 'I' for Inactive)
REMARK    1  A    between atoms: C1_2  and  C2_3 
ROOT
ATOM      1  C2  UNL d   1      -5.861   3.554  -2.273  0.00  0.00    -0.073 A 
ATOM      2  C3  UNL d   1      -6.000   4.946  -2.324  0.00  0.00    -0.002 A 
ATOM      3  C4  UNL d   1      -5.987   5.699  -1.149  0.00  0.00     0.004 A 
ATOM      4  C5  UNL d   1      -5.830   5.070   0.086  0.00  0.00    -0.004 A 
ATOM      5  C6  UNL d   1      -5.678   3.681   0.156  0.00  0.00    -0.075 A 
ATOM      6  C7  UNL d   1      -5.510   2.989   1.477  0.00  0.00     0.076 C 
ATOM      7  C8  UNL d   1      -5.694   2.932  -1.028  0.00  0.00     0.001 A 
ENDROOT
BRANCH   1   8
ATOM      8  C1  UNL d   1      -5.867   2.738  -3.540  0.00  0.00     0.053 C 
ATOM      9  C   UNL d   1      -4.520   2.083  -3.802  0.00  0.00     0.018 C 
ENDBRANCH   1   8
TORSDOF 1
ENDMDL
