MODEL 1
REMARK minimizedAffinity 2.02700567
REMARK minimizedRMSD -1
REMARK  1 active torsions:
REMARK  status: ('A' for Active; 'I' for Inactive)
REMARK    1  A    between atoms: C1_2  and  C2_3 
ROOT
ATOM      1  C2  UNL d   1       2.464  -1.872   2.822  0.00  0.00    -0.073 A 
ATOM      2  C3  UNL d   1       1.726  -2.998   3.204  0.00  0.00    -0.002 A 
ATOM      3  C4  UNL d   1       2.371  -4.114   3.739  0.00  0.00     0.004 A 
ATOM      4  C5  UNL d   1       3.756  -4.114   3.904  0.00  0.00    -0.004 A 
ATOM      5  C6  UNL d   1       4.509  -2.993   3.540  0.00  0.00    -0.075 A 
ATOM      6  C7  UNL d   1       6.000  -2.977   3.709  0.00  0.00     0.076 C 
ATOM      7  C8  UNL d   1       3.855  -1.877   3.000  0.00  0.00     0.001 A 
ENDROOT
BRANCH   1   8
ATOM      8  C1  UNL d   1       1.773  -0.662   2.250  0.00  0.00     0.053 C 
ATOM      9  C   UNL d   1       2.739   0.252   1.513  0.00  0.00     0.018 C 
ENDBRANCH   1   8
TORSDOF 1
ENDMDL
