MODEL 1
REMARK minimizedAffinity 11.146431
REMARK minimizedRMSD -1
REMARK  1 active torsions:
REMARK  status: ('A' for Active; 'I' for Inactive)
REMARK    1  A    between atoms: C1_2  and  C2_3 
ROOT
ATOM      1  C2  UNL d   1       3.381  -3.447  -1.893  0.00  0.00    -0.073 A 
ATOM      2  C3  UNL d   1       4.109  -4.355  -2.669  0.00  0.00    -0.002 A 
ATOM      3  C4  UNL d   1       4.418  -5.621  -2.169  0.00  0.00     0.004 A 
ATOM      4  C5  UNL d   1       3.996  -5.994  -0.893  0.00  0.00    -0.004 A 
ATOM      5  C6  UNL d   1       3.257  -5.105  -0.107  0.00  0.00    -0.075 A 
ATOM      6  C7  UNL d   1       2.798  -5.490   1.269  0.00  0.00     0.076 C 
ATOM      7  C8  UNL d   1       2.953  -3.835  -0.614  0.00  0.00     0.001 A 
ENDROOT
BRANCH   1   8
ATOM      8  C1  UNL d   1       3.039  -2.082  -2.431  0.00  0.00     0.053 C 
ATOM      9  C   UNL d   1       4.280  -1.236  -2.667  0.00  0.00     0.018 C 
ENDBRANCH   1   8
TORSDOF 1
ENDMDL
