MODEL 1
REMARK minimizedAffinity -2.80688047
REMARK minimizedRMSD -1
REMARK  1 active torsions:
REMARK  status: ('A' for Active; 'I' for Inactive)
REMARK    1  A    between atoms: C1_2  and  C2_3 
ROOT
ATOM      1  C2  UNL d   1       3.528  -1.773   1.921  0.00  0.00    -0.073 A 
ATOM      2  C3  UNL d   1       3.009  -3.006   1.509  0.00  0.00    -0.002 A 
ATOM      3  C4  UNL d   1       1.949  -3.592   2.201  0.00  0.00     0.004 A 
ATOM      4  C5  UNL d   1       1.392  -2.949   3.306  0.00  0.00    -0.004 A 
ATOM      5  C6  UNL d   1       1.888  -1.711   3.727  0.00  0.00    -0.075 A 
ATOM      6  C7  UNL d   1       1.302  -1.008   4.915  0.00  0.00     0.076 C 
ATOM      7  C8  UNL d   1       2.956  -1.130   3.028  0.00  0.00     0.001 A 
ENDROOT
BRANCH   1   8
ATOM      8  C1  UNL d   1       4.669  -1.134   1.173  0.00  0.00     0.053 C 
ATOM      9  C   UNL d   1       6.000  -1.799   1.486  0.00  0.00     0.018 C 
ENDBRANCH   1   8
TORSDOF 1
ENDMDL
