MODEL 1
REMARK minimizedAffinity -0.913824975
REMARK minimizedRMSD -1
REMARK  1 active torsions:
REMARK  status: ('A' for Active; 'I' for Inactive)
REMARK    1  A    between atoms: C1_2  and  C2_3 
ROOT
ATOM      1  C2  UNL d   1       3.480  -2.577   3.791  0.00  0.00    -0.073 A 
ATOM      2  C3  UNL d   1       2.595  -3.503   4.356  0.00  0.00    -0.002 A 
ATOM      3  C4  UNL d   1       1.304  -3.646   3.846  0.00  0.00     0.004 A 
ATOM      4  C5  UNL d   1       0.888  -2.871   2.763  0.00  0.00    -0.004 A 
ATOM      5  C6  UNL d   1       1.761  -1.949   2.178  0.00  0.00    -0.075 A 
ATOM      6  C7  UNL d   1       1.328  -1.107   1.015  0.00  0.00     0.076 C 
ATOM      7  C8  UNL d   1       3.055  -1.810   2.698  0.00  0.00     0.001 A 
ENDROOT
BRANCH   1   8
ATOM      8  C1  UNL d   1       4.877  -2.424   4.335  0.00  0.00     0.053 C 
ATOM      9  C   UNL d   1       5.902  -2.234   3.227  0.00  0.00     0.018 C 
ENDBRANCH   1   8
TORSDOF 1
ENDMDL
