MODEL 1
REMARK minimizedAffinity 13.884017
REMARK minimizedRMSD -1
REMARK  0 active torsions:
REMARK  status: ('A' for Active; 'I' for Inactive)
ROOT
ATOM      1  O1  BZF d   1       0.171   0.146   4.125  0.00  0.00    -0.204 OA
ATOM      2  C2  BZF d   1       0.329  -0.005   2.761  0.00  0.00     0.174 A 
ATOM      3  C3  BZF d   1       1.324   0.784   2.305  0.00  0.00    -0.012 A 
ATOM      4  C3A BZF d   1       1.879   1.402   3.470  0.00  0.00    -0.107 A 
ATOM      5  C4  BZF d   1       2.905   2.280   3.669  0.00  0.00     0.055 A 
ATOM      6  C5  BZF d   1       3.144   2.745   4.923  0.00  0.00    -0.016 A 
ATOM      7  C6  BZF d   1       2.374   2.356   6.000  0.00  0.00     0.022 A 
ATOM      8  C7  BZF d   1       1.348   1.483   5.854  0.00  0.00     0.029 A 
ATOM      9  C7A BZF d   1       1.125   0.986   4.593  0.00  0.00     0.058 A 
ENDROOT
TORSDOF 0
ENDMDL
