MODEL 1
REMARK minimizedAffinity 11.1835775
REMARK minimizedRMSD -1
REMARK  0 active torsions:
REMARK  status: ('A' for Active; 'I' for Inactive)
ROOT
ATOM      1  O1  BZF d   1      -0.753  -5.014   4.477  0.00  0.00    -0.204 OA
ATOM      2  C2  BZF d   1      -0.453  -5.999   5.399  0.00  0.00     0.174 A 
ATOM      3  C3  BZF d   1       0.728  -5.748   6.000  0.00  0.00    -0.012 A 
ATOM      4  C3A BZF d   1       1.151  -4.482   5.484  0.00  0.00    -0.107 A 
ATOM      5  C4  BZF d   1       2.242  -3.693   5.711  0.00  0.00     0.055 A 
ATOM      6  C5  BZF d   1       2.393  -2.551   4.990  0.00  0.00    -0.016 A 
ATOM      7  C6  BZF d   1       1.477  -2.171   4.032  0.00  0.00     0.022 A 
ATOM      8  C7  BZF d   1       0.376  -2.919   3.774  0.00  0.00     0.029 A 
ATOM      9  C7A BZF d   1       0.204  -4.057   4.524  0.00  0.00     0.058 A 
ENDROOT
TORSDOF 0
ENDMDL
