MODEL 1
REMARK minimizedAffinity 15.7458
REMARK minimizedRMSD -1
REMARK  0 active torsions:
REMARK  status: ('A' for Active; 'I' for Inactive)
ROOT
ATOM      1  O1  BZF d   1      -5.998   5.025   5.985  0.00  0.00    -0.204 OA
ATOM      2  C2  BZF d   1      -5.858   5.976   4.992  0.00  0.00     0.174 A 
ATOM      3  C3  BZF d   1      -5.646   5.391   3.795  0.00  0.00    -0.012 A 
ATOM      4  C3A BZF d   1      -5.747   3.985   4.041  0.00  0.00    -0.107 A 
ATOM      5  C4  BZF d   1      -5.647   2.883   3.241  0.00  0.00     0.055 A 
ATOM      6  C5  BZF d   1      -5.722   1.648   3.805  0.00  0.00    -0.016 A 
ATOM      7  C6  BZF d   1      -5.890   1.480   5.164  0.00  0.00     0.022 A 
ATOM      8  C7  BZF d   1      -6.000   2.543   5.997  0.00  0.00     0.029 A 
ATOM      9  C7A BZF d   1      -5.957   3.792   5.426  0.00  0.00     0.058 A 
ENDROOT
TORSDOF 0
ENDMDL
