MODEL 1
REMARK minimizedAffinity 14.1482811
REMARK minimizedRMSD -1
REMARK  0 active torsions:
REMARK  status: ('A' for Active; 'I' for Inactive)
ROOT
ATOM      1  O1  BZF d   1       5.964   5.388   0.154  0.00  0.00    -0.204 OA
ATOM      2  C2  BZF d   1       5.994   5.870  -1.140  0.00  0.00     0.174 A 
ATOM      3  C3  BZF d   1       5.800   4.873  -2.027  0.00  0.00    -0.012 A 
ATOM      4  C3A BZF d   1       5.548   3.709  -1.234  0.00  0.00    -0.107 A 
ATOM      5  C4  BZF d   1       5.268   2.408  -1.540  0.00  0.00     0.055 A 
ATOM      6  C5  BZF d   1       5.147   1.504  -0.532  0.00  0.00    -0.016 A 
ATOM      7  C6  BZF d   1       5.305   1.865   0.790  0.00  0.00     0.022 A 
ATOM      8  C7  BZF d   1       5.579   3.144   1.143  0.00  0.00     0.029 A 
ATOM      9  C7A BZF d   1       5.668   4.067   0.129  0.00  0.00     0.058 A 
ENDROOT
TORSDOF 0
ENDMDL
