MODEL 1
REMARK minimizedAffinity 2.98895478
REMARK minimizedRMSD -1
REMARK  0 active torsions:
REMARK  status: ('A' for Active; 'I' for Inactive)
ROOT
ATOM      1  O1  BZF d   1      -3.013   0.589   0.138  0.00  0.00    -0.204 OA
ATOM      2  C2  BZF d   1      -1.893   1.342   0.435  0.00  0.00     0.174 A 
ATOM      3  C3  BZF d   1      -2.058   2.621   0.040  0.00  0.00    -0.012 A 
ATOM      4  C3A BZF d   1      -3.398   2.691  -0.458  0.00  0.00    -0.107 A 
ATOM      5  C4  BZF d   1      -4.154   3.702  -0.978  0.00  0.00     0.055 A 
ATOM      6  C5  BZF d   1      -5.403   3.423  -1.438  0.00  0.00    -0.016 A 
ATOM      7  C6  BZF d   1      -5.923   2.147  -1.398  0.00  0.00     0.022 A 
ATOM      8  C7  BZF d   1      -5.212   1.112  -0.886  0.00  0.00     0.029 A 
ATOM      9  C7A BZF d   1      -3.963   1.397  -0.390  0.00  0.00     0.058 A 
ENDROOT
TORSDOF 0
ENDMDL
