MODEL 1
REMARK minimizedAffinity 19.485918
REMARK minimizedRMSD -1
REMARK  0 active torsions:
REMARK  status: ('A' for Active; 'I' for Inactive)
ROOT
ATOM      1  O1  BZF d   1      -1.960   1.916  -5.333  0.00  0.00    -0.204 OA
ATOM      2  C2  BZF d   1      -3.173   2.283  -5.885  0.00  0.00     0.174 A 
ATOM      3  C3  BZF d   1      -4.194   1.697  -5.227  0.00  0.00    -0.012 A 
ATOM      4  C3A BZF d   1      -3.586   0.989  -4.142  0.00  0.00    -0.107 A 
ATOM      5  C4  BZF d   1      -4.082   0.224  -3.126  0.00  0.00     0.055 A 
ATOM      6  C5  BZF d   1      -3.216  -0.386  -2.275  0.00  0.00    -0.016 A 
ATOM      7  C6  BZF d   1      -1.849  -0.257  -2.414  0.00  0.00     0.022 A 
ATOM      8  C7  BZF d   1      -1.311   0.496  -3.404  0.00  0.00     0.029 A 
ATOM      9  C7A BZF d   1      -2.184   1.140  -4.246  0.00  0.00     0.058 A 
ENDROOT
TORSDOF 0
ENDMDL
