MODEL 1
REMARK minimizedAffinity 9.75387096
REMARK minimizedRMSD -1
REMARK  0 active torsions:
REMARK  status: ('A' for Active; 'I' for Inactive)
ROOT
ATOM      1  O1  BZF d   1      -4.147   3.822  -4.523  0.00  0.00    -0.204 OA
ATOM      2  C2  BZF d   1      -5.097   4.292  -3.636  0.00  0.00     0.174 A 
ATOM      3  C3  BZF d   1      -6.000   3.332  -3.349  0.00  0.00    -0.012 A 
ATOM      4  C3A BZF d   1      -5.536   2.163  -4.031  0.00  0.00    -0.107 A 
ATOM      5  C4  BZF d   1      -6.000   0.882  -4.119  0.00  0.00     0.055 A 
ATOM      6  C5  BZF d   1      -5.354   0.000  -4.927  0.00  0.00    -0.016 A 
ATOM      7  C6  BZF d   1      -4.248   0.367  -5.664  0.00  0.00     0.022 A 
ATOM      8  C7  BZF d   1      -3.748   1.625  -5.606  0.00  0.00     0.029 A 
ATOM      9  C7A BZF d   1      -4.378   2.510  -4.765  0.00  0.00     0.058 A 
ENDROOT
TORSDOF 0
ENDMDL
