MODEL 1
REMARK minimizedAffinity 9.47825718
REMARK minimizedRMSD -1
REMARK  0 active torsions:
REMARK  status: ('A' for Active; 'I' for Inactive)
ROOT
ATOM      1  O1  BZF d   1       3.083  -0.615  -1.786  0.00  0.00    -0.204 OA
ATOM      2  C2  BZF d   1       2.423  -1.398  -0.858  0.00  0.00     0.174 A 
ATOM      3  C3  BZF d   1       2.923  -1.198   0.378  0.00  0.00    -0.012 A 
ATOM      4  C3A BZF d   1       3.899  -0.163   0.226  0.00  0.00    -0.107 A 
ATOM      5  C4  BZF d   1       4.726   0.483   1.100  0.00  0.00     0.055 A 
ATOM      6  C5  BZF d   1       5.612   1.394   0.620  0.00  0.00    -0.016 A 
ATOM      7  C6  BZF d   1       5.702   1.680  -0.727  0.00  0.00     0.022 A 
ATOM      8  C7  BZF d   1       4.899   1.069  -1.631  0.00  0.00     0.029 A 
ATOM      9  C7A BZF d   1       3.980   0.172  -1.145  0.00  0.00     0.058 A 
ENDROOT
TORSDOF 0
ENDMDL
