MODEL 1
REMARK minimizedAffinity 16.2072182
REMARK minimizedRMSD -1
REMARK  0 active torsions:
REMARK  status: ('A' for Active; 'I' for Inactive)
ROOT
ATOM      1  O1  BZF d   1       2.970   0.175   0.642  0.00  0.00    -0.204 OA
ATOM      2  C2  BZF d   1       2.214  -0.383  -0.371  0.00  0.00     0.174 A 
ATOM      3  C3  BZF d   1       2.738  -0.088  -1.578  0.00  0.00    -0.012 A 
ATOM      4  C3A BZF d   1       3.947   0.625  -1.299  0.00  0.00    -0.107 A 
ATOM      5  C4  BZF d   1       4.919   1.171  -2.088  0.00  0.00     0.055 A 
ATOM      6  C5  BZF d   1       5.931   1.865  -1.504  0.00  0.00    -0.016 A 
ATOM      7  C6  BZF d   1       6.000   2.037  -0.138  0.00  0.00     0.022 A 
ATOM      8  C7  BZF d   1       5.061   1.510   0.687  0.00  0.00     0.029 A 
ATOM      9  C7A BZF d   1       4.055   0.781   0.103  0.00  0.00     0.058 A 
ENDROOT
TORSDOF 0
ENDMDL
