MODEL 1
REMARK minimizedAffinity 12.0353127
REMARK minimizedRMSD -1
REMARK  0 active torsions:
REMARK  status: ('A' for Active; 'I' for Inactive)
ROOT
ATOM      1  O1  BZF d   1       0.564  -4.074  -1.008  0.00  0.00    -0.204 OA
ATOM      2  C2  BZF d   1      -0.206  -5.102  -1.515  0.00  0.00     0.174 A 
ATOM      3  C3  BZF d   1       0.097  -5.334  -2.809  0.00  0.00    -0.012 A 
ATOM      4  C3A BZF d   1       1.185  -4.453  -3.104  0.00  0.00    -0.107 A 
ATOM      5  C4  BZF d   1       1.933  -4.228  -4.224  0.00  0.00     0.055 A 
ATOM      6  C5  BZF d   1       2.873  -3.247  -4.204  0.00  0.00    -0.016 A 
ATOM      7  C6  BZF d   1       3.087  -2.469  -3.085  0.00  0.00     0.022 A 
ATOM      8  C7  BZF d   1       2.373  -2.658  -1.949  0.00  0.00     0.029 A 
ATOM      9  C7A BZF d   1       1.445  -3.671  -1.955  0.00  0.00     0.058 A 
ENDROOT
TORSDOF 0
ENDMDL
