MODEL 1
REMARK minimizedAffinity 20.1846523
REMARK minimizedRMSD -1
REMARK  0 active torsions:
REMARK  status: ('A' for Active; 'I' for Inactive)
ROOT
ATOM      1  O1  BZF d   1       4.661   1.135   0.551  0.00  0.00    -0.204 OA
ATOM      2  C2  BZF d   1       5.874   1.410  -0.051  0.00  0.00     0.174 A 
ATOM      3  C3  BZF d   1       5.973   0.777  -1.237  0.00  0.00    -0.012 A 
ATOM      4  C3A BZF d   1       4.708   0.136  -1.429  0.00  0.00    -0.107 A 
ATOM      5  C4  BZF d   1       4.188  -0.634  -2.430  0.00  0.00     0.055 A 
ATOM      6  C5  BZF d   1       2.947  -1.166  -2.276  0.00  0.00    -0.016 A 
ATOM      7  C6  BZF d   1       2.201  -0.953  -1.135  0.00  0.00     0.022 A 
ATOM      8  C7  BZF d   1       2.674  -0.193  -0.117  0.00  0.00     0.029 A 
ATOM      9  C7A BZF d   1       3.914   0.374  -0.283  0.00  0.00     0.058 A 
ENDROOT
TORSDOF 0
ENDMDL
