MODEL 1
REMARK minimizedAffinity 0.79115063
REMARK minimizedRMSD -1
REMARK  0 active torsions:
REMARK  status: ('A' for Active; 'I' for Inactive)
ROOT
ATOM      1  C   UNL d   1      -1.369   1.532   2.316  0.00  0.00    -0.002 A 
ATOM      2  C1  UNL d   1      -0.009   1.643   2.566  0.00  0.00     0.010 A 
ATOM      3  C2  UNL d   1       0.921   1.058   1.704  0.00  0.00     0.041 A 
ATOM      4  C3  UNL d   1       0.457   0.355   0.575  0.00  0.00    -0.075 A 
ATOM      5  S   UNL d   1       1.412  -0.442  -0.619  0.00  0.00     0.015 SA
ATOM      6  C4  UNL d   1       0.036  -0.947  -1.489  0.00  0.00     0.022 A 
ATOM      7  C5  UNL d   1      -1.132  -0.528  -0.897  0.00  0.00     0.026 A 
ATOM      8  C6  UNL d   1      -0.909   0.230   0.302  0.00  0.00    -0.082 A 
ATOM      9  C7  UNL d   1      -1.826   0.833   1.195  0.00  0.00     0.045 A 
ENDROOT
TORSDOF 0
ENDMDL
