MODEL 1
REMARK minimizedAffinity -2.98060632
REMARK minimizedRMSD -1
REMARK  0 active torsions:
REMARK  status: ('A' for Active; 'I' for Inactive)
ROOT
ATOM      1  C   UNL d   1      -1.479   2.384   1.800  0.00  0.00    -0.002 A 
ATOM      2  C1  UNL d   1      -1.577   1.089   2.289  0.00  0.00     0.010 A 
ATOM      3  C2  UNL d   1      -1.113   0.009   1.535  0.00  0.00     0.041 A 
ATOM      4  C3  UNL d   1      -0.541   0.255   0.271  0.00  0.00    -0.075 A 
ATOM      5  S   UNL d   1       0.095  -0.912  -0.826  0.00  0.00     0.015 SA
ATOM      6  C4  UNL d   1       0.513   0.281  -1.969  0.00  0.00     0.022 A 
ATOM      7  C5  UNL d   1       0.182   1.545  -1.540  0.00  0.00     0.026 A 
ATOM      8  C6  UNL d   1      -0.431   1.551  -0.242  0.00  0.00    -0.082 A 
ATOM      9  C7  UNL d   1      -0.912   2.624   0.546  0.00  0.00     0.045 A 
ENDROOT
TORSDOF 0
ENDMDL
