MODEL 1
REMARK minimizedAffinity -3.46470881
REMARK minimizedRMSD -1
REMARK  0 active torsions:
REMARK  status: ('A' for Active; 'I' for Inactive)
ROOT
ATOM      1  C   UNL d   1      -1.071   1.665   2.285  0.00  0.00    -0.002 A 
ATOM      2  C1  UNL d   1      -2.019   1.317   1.333  0.00  0.00     0.010 A 
ATOM      3  C2  UNL d   1      -1.690   0.454   0.286  0.00  0.00     0.041 A 
ATOM      4  C3  UNL d   1      -0.380  -0.060   0.212  0.00  0.00    -0.075 A 
ATOM      5  S   UNL d   1       0.250  -1.133  -0.981  0.00  0.00     0.015 SA
ATOM      6  C4  UNL d   1       1.792  -1.156  -0.255  0.00  0.00     0.022 A 
ATOM      7  C5  UNL d   1       1.842  -0.368   0.871  0.00  0.00     0.026 A 
ATOM      8  C6  UNL d   1       0.592   0.276   1.159  0.00  0.00    -0.082 A 
ATOM      9  C7  UNL d   1       0.227   1.153   2.208  0.00  0.00     0.045 A 
ENDROOT
TORSDOF 0
ENDMDL
