MODEL 1
REMARK minimizedAffinity -3.43093824
REMARK minimizedRMSD -1
REMARK  0 active torsions:
REMARK  status: ('A' for Active; 'I' for Inactive)
ROOT
ATOM      1  C1  DEN d   1       1.913  -0.768   1.395  0.00  0.00     0.130 A 
ATOM      2  C2  DEN d   1       1.184  -1.081   2.622  0.00  0.00    -0.031 A 
ATOM      3  C3  DEN d   1      -0.239  -0.757   2.402  0.00  0.00     0.027 A 
ATOM      4  C4  DEN d   1      -1.381   0.190   0.292  0.00  0.00     0.027 A 
ATOM      5  C5  DEN d   1      -1.172   0.627  -0.997  0.00  0.00    -0.003 A 
ATOM      6  C6  DEN d   1       0.075   0.662  -1.563  0.00  0.00     0.001 A 
ATOM      7  C7  DEN d   1       1.155   0.209  -0.853  0.00  0.00     0.017 A 
ATOM      8  C8  DEN d   1       0.953  -0.226   0.450  0.00  0.00    -0.094 A 
ATOM      9  C9  DEN d   1      -0.317  -0.265   1.000  0.00  0.00    -0.072 A 
ENDROOT
TORSDOF 0
ENDMDL
