MODEL 1
REMARK minimizedAffinity -4.66736889
REMARK minimizedRMSD -1
REMARK  0 active torsions:
REMARK  status: ('A' for Active; 'I' for Inactive)
ROOT
ATOM      1  C1  DEN d   1       2.412  -1.472  -0.160  0.00  0.00     0.130 A 
ATOM      2  C2  DEN d   1       1.985  -1.504  -1.556  0.00  0.00    -0.031 A 
ATOM      3  C3  DEN d   1       0.583  -1.043  -1.616  0.00  0.00     0.027 A 
ATOM      4  C4  DEN d   1      -0.958  -0.282   0.307  0.00  0.00     0.027 A 
ATOM      5  C5  DEN d   1      -1.045  -0.094   1.669  0.00  0.00    -0.003 A 
ATOM      6  C6  DEN d   1      -0.005  -0.382   2.513  0.00  0.00     0.001 A 
ATOM      7  C7  DEN d   1       1.183  -0.831   1.999  0.00  0.00     0.017 A 
ATOM      8  C8  DEN d   1       1.275  -1.030   0.628  0.00  0.00    -0.094 A 
ATOM      9  C9  DEN d   1       0.217  -0.722  -0.210  0.00  0.00    -0.072 A 
ENDROOT
TORSDOF 0
ENDMDL
