MODEL 1
REMARK minimizedAffinity -3.14858794
REMARK minimizedRMSD -1
REMARK  0 active torsions:
REMARK  status: ('A' for Active; 'I' for Inactive)
ROOT
ATOM      1  C1  DEN d   1      -1.191  -0.168   0.668  0.00  0.00     0.130 A 
ATOM      2  C2  DEN d   1      -0.777   0.482  -0.572  0.00  0.00    -0.031 A 
ATOM      3  C3  DEN d   1       0.682   0.300  -0.718  0.00  0.00     0.027 A 
ATOM      4  C4  DEN d   1       2.329  -0.923   0.846  0.00  0.00     0.027 A 
ATOM      5  C5  DEN d   1       2.446  -1.623   2.026  0.00  0.00    -0.003 A 
ATOM      6  C6  DEN d   1       1.374  -1.856   2.847  0.00  0.00     0.001 A 
ATOM      7  C7  DEN d   1       0.129  -1.423   2.476  0.00  0.00     0.017 A 
ATOM      8  C8  DEN d   1       0.003  -0.710   1.290  0.00  0.00    -0.094 A 
ATOM      9  C9  DEN d   1       1.097  -0.496   0.469  0.00  0.00    -0.072 A 
ENDROOT
TORSDOF 0
ENDMDL
