MODEL 1
REMARK minimizedAffinity -2.62767649
REMARK minimizedRMSD -1
REMARK  0 active torsions:
REMARK  status: ('A' for Active; 'I' for Inactive)
ROOT
ATOM      1  C1  DEN d   1      -1.218   3.585  -1.174  0.00  0.00     0.130 A 
ATOM      2  C2  DEN d   1      -1.456   3.670  -2.612  0.00  0.00    -0.031 A 
ATOM      3  C3  DEN d   1      -1.211   2.335  -3.194  0.00  0.00     0.027 A 
ATOM      4  C4  DEN d   1      -0.495   0.156  -2.014  0.00  0.00     0.027 A 
ATOM      5  C5  DEN d   1      -0.160  -0.406  -0.802  0.00  0.00    -0.003 A 
ATOM      6  C6  DEN d   1      -0.122   0.325   0.356  0.00  0.00     0.001 A 
ATOM      7  C7  DEN d   1      -0.468   1.650   0.335  0.00  0.00     0.017 A 
ATOM      8  C8  DEN d   1      -0.799   2.226  -0.885  0.00  0.00    -0.094 A 
ATOM      9  C9  DEN d   1      -0.844   1.467  -2.043  0.00  0.00    -0.072 A 
ENDROOT
TORSDOF 0
ENDMDL
