MODEL 1
REMARK minimizedAffinity -3.27790833
REMARK minimizedRMSD -1
REMARK  0 active torsions:
REMARK  status: ('A' for Active; 'I' for Inactive)
ROOT
ATOM      1  C1  DEN d   1      -0.185   0.291  -2.279  0.00  0.00     0.130 A 
ATOM      2  C2  DEN d   1      -1.115   1.168  -1.574  0.00  0.00    -0.031 A 
ATOM      3  C3  DEN d   1      -0.766   1.146  -0.139  0.00  0.00     0.027 A 
ATOM      4  C4  DEN d   1       1.120  -0.151   1.052  0.00  0.00     0.027 A 
ATOM      5  C5  DEN d   1       2.160  -1.035   0.872  0.00  0.00    -0.003 A 
ATOM      6  C6  DEN d   1       2.468  -1.562  -0.354  0.00  0.00     0.001 A 
ATOM      7  C7  DEN d   1       1.756  -1.173  -1.458  0.00  0.00     0.017 A 
ATOM      8  C8  DEN d   1       0.701  -0.287  -1.284  0.00  0.00    -0.094 A 
ATOM      9  C9  DEN d   1       0.413   0.243  -0.038  0.00  0.00    -0.072 A 
ENDROOT
TORSDOF 0
ENDMDL
