MODEL 1
REMARK minimizedAffinity -5.1250267
REMARK minimizedRMSD -1
REMARK  0 active torsions:
REMARK  status: ('A' for Active; 'I' for Inactive)
ROOT
ATOM      1  C1  DEN d   1      -1.052  -0.134   0.700  0.00  0.00     0.130 A 
ATOM      2  C2  DEN d   1      -0.874   0.126  -0.726  0.00  0.00    -0.031 A 
ATOM      3  C3  DEN d   1       0.478  -0.326  -1.108  0.00  0.00     0.027 A 
ATOM      4  C4  DEN d   1       2.304  -1.404   0.361  0.00  0.00     0.027 A 
ATOM      5  C5  DEN d   1       2.621  -1.815   1.637  0.00  0.00    -0.003 A 
ATOM      6  C6  DEN d   1       1.756  -1.665   2.688  0.00  0.00     0.001 A 
ATOM      7  C7  DEN d   1       0.513  -1.131   2.473  0.00  0.00     0.017 A 
ATOM      8  C8  DEN d   1       0.189  -0.707   1.191  0.00  0.00    -0.094 A 
ATOM      9  C9  DEN d   1       1.073  -0.878   0.139  0.00  0.00    -0.072 A 
ENDROOT
TORSDOF 0
ENDMDL
