MODEL 1
REMARK minimizedAffinity 0.614917278
REMARK minimizedRMSD -1
REMARK  0 active torsions:
REMARK  status: ('A' for Active; 'I' for Inactive)
ROOT
ATOM      1  C1  DEN d   1      -1.758  -0.072   0.058  0.00  0.00     0.130 A 
ATOM      2  C2  DEN d   1      -1.353   0.699  -1.114  0.00  0.00    -0.031 A 
ATOM      3  C3  DEN d   1       0.117   0.833  -1.087  0.00  0.00     0.027 A 
ATOM      4  C4  DEN d   1       1.798  -0.077   0.645  0.00  0.00     0.027 A 
ATOM      5  C5  DEN d   1       1.927  -0.782   1.821  0.00  0.00    -0.003 A 
ATOM      6  C6  DEN d   1       0.843  -1.267   2.504  0.00  0.00     0.001 A 
ATOM      7  C7  DEN d   1      -0.415  -1.091   1.993  0.00  0.00     0.017 A 
ATOM      8  C8  DEN d   1      -0.554  -0.375   0.811  0.00  0.00    -0.094 A 
ATOM      9  C9  DEN d   1       0.555   0.097   0.129  0.00  0.00    -0.072 A 
ENDROOT
TORSDOF 0
ENDMDL
