MODEL 1
REMARK minimizedAffinity 2.89013147
REMARK minimizedRMSD -1
REMARK  0 active torsions:
REMARK  status: ('A' for Active; 'I' for Inactive)
ROOT
ATOM      1  C4' PXY d   1       3.116   6.000  -5.989  0.00  0.00     0.077 C 
ATOM      2  C1' PXY d   1       2.594   0.243  -5.976  0.00  0.00     0.077 C 
ATOM      3  C1  PXY d   1       2.719   1.754  -5.985  0.00  0.00    -0.082 A 
ATOM      4  C2  PXY d   1       3.919   2.311  -5.998  0.00  0.00     0.003 A 
ATOM      5  C3  PXY d   1       4.050   3.676  -5.974  0.00  0.00     0.003 A 
ATOM      6  C4  PXY d   1       2.942   4.479  -5.990  0.00  0.00    -0.082 A 
ATOM      7  C5  PXY d   1       1.714   3.918  -5.987  0.00  0.00     0.003 A 
ATOM      8  C6  PXY d   1       1.602   2.531  -5.970  0.00  0.00     0.003 A 
ENDROOT
TORSDOF 0
ENDMDL
