MODEL 1
REMARK minimizedAffinity 5.26935148
REMARK minimizedRMSD -1
REMARK  0 active torsions:
REMARK  status: ('A' for Active; 'I' for Inactive)
ROOT
ATOM      1  C4' PXY d   1      -1.533  -2.223  -2.881  0.00  0.00     0.077 C 
ATOM      2  C1' PXY d   1      -1.280  -2.220   2.894  0.00  0.00     0.077 C 
ATOM      3  C1  PXY d   1      -1.359  -2.222   1.381  0.00  0.00    -0.082 A 
ATOM      4  C2  PXY d   1      -0.288  -2.538   0.670  0.00  0.00     0.003 A 
ATOM      5  C3  PXY d   1      -0.334  -2.514  -0.700  0.00  0.00     0.003 A 
ATOM      6  C4  PXY d   1      -1.502  -2.216  -1.350  0.00  0.00    -0.082 A 
ATOM      7  C5  PXY d   1      -2.601  -1.904  -0.632  0.00  0.00     0.003 A 
ATOM      8  C6  PXY d   1      -2.523  -1.893   0.758  0.00  0.00     0.003 A 
ENDROOT
TORSDOF 0
ENDMDL
