MODEL 1
REMARK minimizedAffinity 9.28654099
REMARK minimizedRMSD -1
REMARK  0 active torsions:
REMARK  status: ('A' for Active; 'I' for Inactive)
ROOT
ATOM      1  C4' PXY d   1       0.279  -1.875  -5.998  0.00  0.00     0.077 C 
ATOM      2  C1' PXY d   1      -3.905  -4.570  -3.056  0.00  0.00     0.077 C 
ATOM      3  C1  PXY d   1      -2.809  -3.872  -3.837  0.00  0.00    -0.082 A 
ATOM      4  C2  PXY d   1      -1.928  -3.119  -3.198  0.00  0.00     0.003 A 
ATOM      5  C3  PXY d   1      -0.950  -2.455  -3.893  0.00  0.00     0.003 A 
ATOM      6  C4  PXY d   1      -0.839  -2.606  -5.249  0.00  0.00    -0.082 A 
ATOM      7  C5  PXY d   1      -1.727  -3.381  -5.907  0.00  0.00     0.003 A 
ATOM      8  C6  PXY d   1      -2.738  -4.013  -5.189  0.00  0.00     0.003 A 
ENDROOT
TORSDOF 0
ENDMDL
