MODEL 1
REMARK minimizedAffinity 13.1794109
REMARK minimizedRMSD -1
REMARK  0 active torsions:
REMARK  status: ('A' for Active; 'I' for Inactive)
ROOT
ATOM      1  C4' PXY d   1      -2.413  -3.238  -6.000  0.00  0.00     0.077 C 
ATOM      2  C1' PXY d   1      -2.413  -2.124  -0.328  0.00  0.00     0.077 C 
ATOM      3  C1  PXY d   1      -2.415  -2.429  -1.813  0.00  0.00    -0.082 A 
ATOM      4  C2  PXY d   1      -1.843  -1.583  -2.654  0.00  0.00     0.003 A 
ATOM      5  C3  PXY d   1      -1.863  -1.827  -4.004  0.00  0.00     0.003 A 
ATOM      6  C4  PXY d   1      -2.427  -2.975  -4.491  0.00  0.00    -0.082 A 
ATOM      7  C5  PXY d   1      -3.003  -3.849  -3.638  0.00  0.00     0.003 A 
ATOM      8  C6  PXY d   1      -3.008  -3.562  -2.276  0.00  0.00     0.003 A 
ENDROOT
TORSDOF 0
ENDMDL
