MODEL 1
REMARK minimizedAffinity 8.83064747
REMARK minimizedRMSD -1
REMARK  0 active torsions:
REMARK  status: ('A' for Active; 'I' for Inactive)
ROOT
ATOM      1  C4' PXY d   1      -1.334  -2.249  -2.720  0.00  0.00     0.077 C 
ATOM      2  C1' PXY d   1      -1.540  -1.870   3.044  0.00  0.00     0.077 C 
ATOM      3  C1  PXY d   1      -1.473  -1.969   1.533  0.00  0.00    -0.082 A 
ATOM      4  C2  PXY d   1      -2.497  -1.556   0.804  0.00  0.00     0.003 A 
ATOM      5  C3  PXY d   1      -2.466  -1.668  -0.562  0.00  0.00     0.003 A 
ATOM      6  C4  PXY d   1      -1.354  -2.159  -1.192  0.00  0.00    -0.082 A 
ATOM      7  C5  PXY d   1      -0.301  -2.573  -0.456  0.00  0.00     0.003 A 
ATOM      8  C6  PXY d   1      -0.368  -2.489   0.932  0.00  0.00     0.003 A 
ENDROOT
TORSDOF 0
ENDMDL
