MODEL 1
REMARK minimizedAffinity 3.8915081
REMARK minimizedRMSD -1
REMARK  0 active torsions:
REMARK  status: ('A' for Active; 'I' for Inactive)
ROOT
ATOM      1  C4' PXY d   1      -1.019  -2.351   2.976  0.00  0.00     0.077 C 
ATOM      2  C1' PXY d   1      -1.349  -1.922  -2.779  0.00  0.00     0.077 C 
ATOM      3  C1  PXY d   1      -1.254  -2.044  -1.271  0.00  0.00    -0.082 A 
ATOM      4  C2  PXY d   1      -2.272  -1.662  -0.518  0.00  0.00     0.003 A 
ATOM      5  C3  PXY d   1      -2.191  -1.735   0.848  0.00  0.00     0.003 A 
ATOM      6  C4  PXY d   1      -1.075  -2.255   1.449  0.00  0.00    -0.082 A 
ATOM      7  C5  PXY d   1      -0.036  -2.656   0.687  0.00  0.00     0.003 A 
ATOM      8  C6  PXY d   1      -0.122  -2.535  -0.697  0.00  0.00     0.003 A 
ENDROOT
TORSDOF 0
ENDMDL
