MODEL 1
REMARK minimizedAffinity 9.51422119
REMARK minimizedRMSD -1
REMARK  0 active torsions:
REMARK  status: ('A' for Active; 'I' for Inactive)
ROOT
ATOM      1  C4' PXY d   1       1.891   1.245   2.134  0.00  0.00     0.077 C 
ATOM      2  C1' PXY d   1      -2.502  -2.247   3.521  0.00  0.00     0.077 C 
ATOM      3  C1  PXY d   1      -1.355  -1.322   3.165  0.00  0.00    -0.082 A 
ATOM      4  C2  PXY d   1      -0.706  -1.494   2.025  0.00  0.00     0.003 A 
ATOM      5  C3  PXY d   1       0.354  -0.686   1.702  0.00  0.00     0.003 A 
ATOM      6  C4  PXY d   1       0.720   0.341   2.530  0.00  0.00    -0.082 A 
ATOM      7  C5  PXY d   1       0.056   0.529   3.690  0.00  0.00     0.003 A 
ATOM      8  C6  PXY d   1      -0.991  -0.328   4.019  0.00  0.00     0.003 A 
ENDROOT
TORSDOF 0
ENDMDL
