MODEL 1
REMARK minimizedAffinity -0.7954849
REMARK minimizedRMSD -1
REMARK  0 active torsions:
REMARK  status: ('A' for Active; 'I' for Inactive)
ROOT
ATOM      1  C4' PXY d   1       3.747   3.816  -2.260  0.00  0.00     0.077 C 
ATOM      2  C1' PXY d   1       5.999   0.027  -6.000  0.00  0.00     0.077 C 
ATOM      3  C1  PXY d   1       5.411   1.012  -5.009  0.00  0.00    -0.082 A 
ATOM      4  C2  PXY d   1       4.517   1.897  -5.419  0.00  0.00     0.003 A 
ATOM      5  C3  PXY d   1       3.998   2.816  -4.544  0.00  0.00     0.003 A 
ATOM      6  C4  PXY d   1       4.360   2.796  -3.223  0.00  0.00    -0.082 A 
ATOM      7  C5  PXY d   1       5.264   1.889  -2.795  0.00  0.00     0.003 A 
ATOM      8  C6  PXY d   1       5.809   0.991  -3.708  0.00  0.00     0.003 A 
ENDROOT
TORSDOF 0
ENDMDL
