MODEL 1
REMARK minimizedAffinity 6.78580284
REMARK minimizedRMSD -1
REMARK  0 active torsions:
REMARK  status: ('A' for Active; 'I' for Inactive)
ROOT
ATOM      1  C4' PXY d   1       2.034   2.273   0.525  0.00  0.00     0.077 C 
ATOM      2  C1' PXY d   1       2.177   4.440  -4.832  0.00  0.00     0.077 C 
ATOM      3  C1  PXY d   1       2.127   3.876  -3.426  0.00  0.00    -0.082 A 
ATOM      4  C2  PXY d   1       3.252   3.701  -2.751  0.00  0.00     0.003 A 
ATOM      5  C3  PXY d   1       3.228   3.162  -1.491  0.00  0.00     0.003 A 
ATOM      6  C4  PXY d   1       2.036   2.849  -0.894  0.00  0.00    -0.082 A 
ATOM      7  C5  PXY d   1       0.883   3.035  -1.572  0.00  0.00     0.003 A 
ATOM      8  C6  PXY d   1       0.932   3.545  -2.866  0.00  0.00     0.003 A 
ENDROOT
TORSDOF 0
ENDMDL
