MODEL 1
REMARK minimizedAffinity 8.82725906
REMARK minimizedRMSD -1
REMARK  0 active torsions:
REMARK  status: ('A' for Active; 'I' for Inactive)
ROOT
ATOM      1  C4' PXY d   1      -1.701  -1.971   2.809  0.00  0.00     0.077 C 
ATOM      2  C1' PXY d   1      -1.233  -1.786  -2.950  0.00  0.00     0.077 C 
ATOM      3  C1  PXY d   1      -1.347  -1.845  -1.439  0.00  0.00    -0.082 A 
ATOM      4  C2  PXY d   1      -2.414  -1.337  -0.844  0.00  0.00     0.003 A 
ATOM      5  C3  PXY d   1      -2.519  -1.353   0.523  0.00  0.00     0.003 A 
ATOM      6  C4  PXY d   1      -1.547  -1.943   1.286  0.00  0.00    -0.082 A 
ATOM      7  C5  PXY d   1      -0.460  -2.473   0.685  0.00  0.00     0.003 A 
ATOM      8  C6  PXY d   1      -0.353  -2.409  -0.701  0.00  0.00     0.003 A 
ENDROOT
TORSDOF 0
ENDMDL
