MODEL 1
REMARK minimizedAffinity 10.2341833
REMARK minimizedRMSD -1
REMARK  0 active torsions:
REMARK  status: ('A' for Active; 'I' for Inactive)
ROOT
ATOM      1  C4' PXY d   1      -1.563  -1.851  -0.645  0.00  0.00     0.077 C 
ATOM      2  C1' PXY d   1      -2.589  -3.777  -5.998  0.00  0.00     0.077 C 
ATOM      3  C1  PXY d   1      -2.331  -3.276  -4.591  0.00  0.00    -0.082 A 
ATOM      4  C2  PXY d   1      -1.490  -2.274  -4.396  0.00  0.00     0.003 A 
ATOM      5  C3  PXY d   1      -1.221  -1.830  -3.127  0.00  0.00     0.003 A 
ATOM      6  C4  PXY d   1      -1.861  -2.383  -2.050  0.00  0.00    -0.082 A 
ATOM      7  C5  PXY d   1      -2.729  -3.399  -2.241  0.00  0.00     0.003 A 
ATOM      8  C6  PXY d   1      -2.956  -3.862  -3.534  0.00  0.00     0.003 A 
ENDROOT
TORSDOF 0
ENDMDL
