MODEL 1
REMARK minimizedAffinity 12.0370207
REMARK minimizedRMSD -1
REMARK  0 active torsions:
REMARK  status: ('A' for Active; 'I' for Inactive)
ROOT
ATOM      1  C4' PXY d   1       2.676   3.589  -5.997  0.00  0.00     0.077 C 
ATOM      2  C1' PXY d   1       5.986  -1.146  -5.827  0.00  0.00     0.077 C 
ATOM      3  C1  PXY d   1       5.109   0.089  -5.877  0.00  0.00    -0.082 A 
ATOM      4  C2  PXY d   1       5.666   1.288  -5.854  0.00  0.00     0.003 A 
ATOM      5  C3  PXY d   1       4.886   2.416  -5.866  0.00  0.00     0.003 A 
ATOM      6  C4  PXY d   1       3.523   2.315  -5.957  0.00  0.00    -0.082 A 
ATOM      7  C5  PXY d   1       2.948   1.094  -5.993  0.00  0.00     0.003 A 
ATOM      8  C6  PXY d   1       3.755  -0.038  -5.937  0.00  0.00     0.003 A 
ENDROOT
TORSDOF 0
ENDMDL
