MODEL 1
REMARK minimizedAffinity 5.78030777
REMARK minimizedRMSD -1
REMARK  0 active torsions:
REMARK  status: ('A' for Active; 'I' for Inactive)
ROOT
ATOM      1  C4' PXY d   1      -1.919  -2.184   3.154  0.00  0.00     0.077 C 
ATOM      2  C1' PXY d   1      -1.848  -1.861  -2.617  0.00  0.00     0.077 C 
ATOM      3  C1  PXY d   1      -1.857  -1.956  -1.104  0.00  0.00    -0.082 A 
ATOM      4  C2  PXY d   1      -2.922  -1.552  -0.430  0.00  0.00     0.003 A 
ATOM      5  C3  PXY d   1      -2.935  -1.601   0.940  0.00  0.00     0.003 A 
ATOM      6  C4  PXY d   1      -1.868  -2.117   1.626  0.00  0.00    -0.082 A 
ATOM      7  C5  PXY d   1      -0.782  -2.540   0.945  0.00  0.00     0.003 A 
ATOM      8  C6  PXY d   1      -0.773  -2.444  -0.444  0.00  0.00     0.003 A 
ENDROOT
TORSDOF 0
ENDMDL
