MODEL 1
REMARK minimizedAffinity -3.75499511
REMARK minimizedRMSD -1
REMARK  0 active torsions:
REMARK  status: ('A' for Active; 'I' for Inactive)
ROOT
ATOM      1  C4' PXY d   1       5.999   5.963  -5.291  0.00  0.00     0.077 C 
ATOM      2  C1' PXY d   1       0.879   3.374  -6.000  0.00  0.00     0.077 C 
ATOM      3  C1  PXY d   1       2.227   4.041  -5.811  0.00  0.00    -0.082 A 
ATOM      4  C2  PXY d   1       2.283   5.326  -5.501  0.00  0.00     0.003 A 
ATOM      5  C3  PXY d   1       3.494   5.953  -5.358  0.00  0.00     0.003 A 
ATOM      6  C4  PXY d   1       4.660   5.245  -5.481  0.00  0.00    -0.082 A 
ATOM      7  C5  PXY d   1       4.611   3.931  -5.787  0.00  0.00     0.003 A 
ATOM      8  C6  PXY d   1       3.372   3.323  -5.969  0.00  0.00     0.003 A 
ENDROOT
TORSDOF 0
ENDMDL
