MODEL 1
REMARK minimizedAffinity -1.41165769
REMARK minimizedRMSD -1
REMARK  0 active torsions:
REMARK  status: ('A' for Active; 'I' for Inactive)
ROOT
ATOM      1  C4' PXY d   1       6.000   5.145  -5.943  0.00  0.00     0.077 C 
ATOM      2  C1' PXY d   1       0.395   3.731  -6.000  0.00  0.00     0.077 C 
ATOM      3  C1  PXY d   1       1.868   4.090  -5.980  0.00  0.00    -0.082 A 
ATOM      4  C2  PXY d   1       2.231   5.363  -5.957  0.00  0.00     0.003 A 
ATOM      5  C3  PXY d   1       3.558   5.706  -5.971  0.00  0.00     0.003 A 
ATOM      6  C4  PXY d   1       4.524   4.736  -5.954  0.00  0.00    -0.082 A 
ATOM      7  C5  PXY d   1       4.162   3.436  -5.967  0.00  0.00     0.003 A 
ATOM      8  C6  PXY d   1       2.810   3.109  -5.994  0.00  0.00     0.003 A 
ENDROOT
TORSDOF 0
ENDMDL
