MODEL 1
REMARK minimizedAffinity -0.993466616
REMARK minimizedRMSD -1
REMARK  0 active torsions:
REMARK  status: ('A' for Active; 'I' for Inactive)
ROOT
ATOM      1  C4' PXY d   1       6.000   0.267  -5.228  0.00  0.00     0.077 C 
ATOM      2  C1' PXY d   1       1.678   4.105  -5.243  0.00  0.00     0.077 C 
ATOM      3  C1  PXY d   1       2.820   3.108  -5.235  0.00  0.00    -0.082 A 
ATOM      4  C2  PXY d   1       2.752   2.031  -6.000  0.00  0.00     0.003 A 
ATOM      5  C3  PXY d   1       3.761   1.102  -5.981  0.00  0.00     0.003 A 
ATOM      6  C4  PXY d   1       4.875   1.305  -5.211  0.00  0.00    -0.082 A 
ATOM      7  C5  PXY d   1       4.956   2.407  -4.436  0.00  0.00     0.003 A 
ATOM      8  C6  PXY d   1       3.903   3.317  -4.438  0.00  0.00     0.003 A 
ENDROOT
TORSDOF 0
ENDMDL
