MODEL 1
REMARK minimizedAffinity -3.45177603
REMARK minimizedRMSD -1
REMARK  0 active torsions:
REMARK  status: ('A' for Active; 'I' for Inactive)
ROOT
ATOM      1  C4' PXY d   1       3.424   6.000  -5.598  0.00  0.00     0.077 C 
ATOM      2  C1' PXY d   1       5.886   0.803  -5.012  0.00  0.00     0.077 C 
ATOM      3  C1  PXY d   1       5.230   2.160  -5.171  0.00  0.00    -0.082 A 
ATOM      4  C2  PXY d   1       5.981   3.249  -5.215  0.00  0.00     0.003 A 
ATOM      5  C3  PXY d   1       5.402   4.487  -5.327  0.00  0.00     0.003 A 
ATOM      6  C4  PXY d   1       4.044   4.608  -5.448  0.00  0.00    -0.082 A 
ATOM      7  C5  PXY d   1       3.271   3.501  -5.414  0.00  0.00     0.003 A 
ATOM      8  C6  PXY d   1       3.876   2.257  -5.259  0.00  0.00     0.003 A 
ENDROOT
TORSDOF 0
ENDMDL
