MODEL 1
REMARK minimizedAffinity -1.26643074
REMARK minimizedRMSD -1
REMARK  0 active torsions:
REMARK  status: ('A' for Active; 'I' for Inactive)
ROOT
ATOM      1  C4' PXY d   1       5.999  -0.409   2.563  0.00  0.00     0.077 C 
ATOM      2  C1' PXY d   1       1.859   3.285   0.938  0.00  0.00     0.077 C 
ATOM      3  C1  PXY d   1       2.954   2.322   1.357  0.00  0.00    -0.082 A 
ATOM      4  C2  PXY d   1       2.634   1.103   1.760  0.00  0.00     0.003 A 
ATOM      5  C3  PXY d   1       3.608   0.231   2.172  0.00  0.00     0.003 A 
ATOM      6  C4  PXY d   1       4.928   0.593   2.122  0.00  0.00    -0.082 A 
ATOM      7  C5  PXY d   1       5.263   1.831   1.702  0.00  0.00     0.003 A 
ATOM      8  C6  PXY d   1       4.256   2.715   1.326  0.00  0.00     0.003 A 
ENDROOT
TORSDOF 0
ENDMDL
