MODEL 1
REMARK minimizedAffinity 1.41196513
REMARK minimizedRMSD -1
REMARK  0 active torsions:
REMARK  status: ('A' for Active; 'I' for Inactive)
ROOT
ATOM      1  C4' PXY d   1       4.638  -0.416  -3.387  0.00  0.00     0.077 C 
ATOM      2  C1' PXY d   1       5.999   4.557  -6.000  0.00  0.00     0.077 C 
ATOM      3  C1  PXY d   1       5.652   3.255  -5.306  0.00  0.00    -0.082 A 
ATOM      4  C2  PXY d   1       5.035   2.299  -5.981  0.00  0.00     0.003 A 
ATOM      5  C3  PXY d   1       4.685   1.127  -5.360  0.00  0.00     0.003 A 
ATOM      6  C4  PXY d   1       5.017   0.911  -4.050  0.00  0.00    -0.082 A 
ATOM      7  C5  PXY d   1       5.656   1.878  -3.357  0.00  0.00     0.003 A 
ATOM      8  C6  PXY d   1       5.966   3.076  -3.994  0.00  0.00     0.003 A 
ENDROOT
TORSDOF 0
ENDMDL
