MODEL 1
REMARK minimizedAffinity 4.89918756
REMARK minimizedRMSD -1
REMARK  1 active torsions:
REMARK  status: ('A' for Active; 'I' for Inactive)
REMARK    1  A    between atoms: C1_2  and  C2_3 
ROOT
ATOM      1  C2  UNL d   1       1.657   2.993   0.245  0.00  0.00    -0.076 A 
ATOM      2  C3  UNL d   1       2.919   3.519  -0.078  0.00  0.00     0.004 A 
ATOM      3  C4  UNL d   1       3.039   4.701  -0.807  0.00  0.00    -0.003 A 
ATOM      4  C5  UNL d   1       1.898   5.377  -1.224  0.00  0.00     0.000 A 
ATOM      5  C6  UNL d   1       0.637   4.879  -0.898  0.00  0.00     0.000 A 
ATOM      6  C7  UNL d   1       0.499   3.697  -0.150  0.00  0.00    -0.073 A 
ATOM      7  C8  UNL d   1      -0.886   3.202   0.169  0.00  0.00     0.078 C 
ENDROOT
BRANCH   1   8
ATOM      8  C1  UNL d   1       1.589   1.693   1.014  0.00  0.00     0.053 C 
ATOM      9  C   UNL d   1       2.926   0.971   1.056  0.00  0.00     0.018 C 
ENDBRANCH   1   8
TORSDOF 1
ENDMDL
