MODEL 1
REMARK minimizedAffinity 10.4686098
REMARK minimizedRMSD -1
REMARK  1 active torsions:
REMARK  status: ('A' for Active; 'I' for Inactive)
REMARK    1  A    between atoms: C1_2  and  C2_3 
ROOT
ATOM      1  C2  UNL d   1       0.328  -1.032   0.091  0.00  0.00    -0.076 A 
ATOM      2  C3  UNL d   1       1.540  -1.737   0.197  0.00  0.00     0.004 A 
ATOM      3  C4  UNL d   1       2.420  -1.496   1.250  0.00  0.00    -0.003 A 
ATOM      4  C5  UNL d   1       2.103  -0.546   2.215  0.00  0.00     0.000 A 
ATOM      5  C6  UNL d   1       0.898   0.150   2.135  0.00  0.00     0.000 A 
ATOM      6  C7  UNL d   1      -0.008  -0.092   1.088  0.00  0.00    -0.073 A 
ATOM      7  C8  UNL d   1      -1.291   0.692   1.048  0.00  0.00     0.078 C 
ENDROOT
BRANCH   1   8
ATOM      8  C1  UNL d   1      -0.574  -1.316  -1.089  0.00  0.00     0.053 C 
ATOM      9  C   UNL d   1      -1.578  -2.422  -0.801  0.00  0.00     0.018 C 
ENDBRANCH   1   8
TORSDOF 1
ENDMDL
