MODEL 1
REMARK minimizedAffinity 6.27820301
REMARK minimizedRMSD -1
REMARK  1 active torsions:
REMARK  status: ('A' for Active; 'I' for Inactive)
REMARK    1  A    between atoms: C1_2  and  C2_3 
ROOT
ATOM      1  C2  UNL d   1       2.363  -2.268   4.401  0.00  0.00    -0.076 A 
ATOM      2  C3  UNL d   1       1.190  -3.043   4.408  0.00  0.00     0.004 A 
ATOM      3  C4  UNL d   1       1.231  -4.403   4.708  0.00  0.00    -0.003 A 
ATOM      4  C5  UNL d   1       2.445  -5.011   5.007  0.00  0.00     0.000 A 
ATOM      5  C6  UNL d   1       3.616  -4.254   5.022  0.00  0.00     0.000 A 
ATOM      6  C7  UNL d   1       3.590  -2.877   4.737  0.00  0.00    -0.073 A 
ATOM      7  C8  UNL d   1       4.884  -2.111   4.762  0.00  0.00     0.078 C 
ENDROOT
BRANCH   1   8
ATOM      8  C1  UNL d   1       2.261  -0.803   4.041  0.00  0.00     0.053 C 
ATOM      9  C   UNL d   1       1.857  -0.586   2.591  0.00  0.00     0.018 C 
ENDBRANCH   1   8
TORSDOF 1
ENDMDL
