MODEL 1
REMARK minimizedAffinity 10.6996565
REMARK minimizedRMSD -1
REMARK  1 active torsions:
REMARK  status: ('A' for Active; 'I' for Inactive)
REMARK    1  A    between atoms: C1_2  and  C2_3 
ROOT
ATOM      1  C2  UNL d   1       2.287  -0.141   3.637  0.00  0.00    -0.076 A 
ATOM      2  C3  UNL d   1       2.475   0.071   2.260  0.00  0.00     0.004 A 
ATOM      3  C4  UNL d   1       2.668   1.354   1.752  0.00  0.00    -0.003 A 
ATOM      4  C5  UNL d   1       2.677   2.447   2.612  0.00  0.00     0.000 A 
ATOM      5  C6  UNL d   1       2.509   2.253   3.983  0.00  0.00     0.000 A 
ATOM      6  C7  UNL d   1       2.329   0.964   4.513  0.00  0.00    -0.073 A 
ATOM      7  C8  UNL d   1       2.147   0.814   5.999  0.00  0.00     0.078 C 
ENDROOT
BRANCH   1   8
ATOM      8  C1  UNL d   1       2.055  -1.553   4.127  0.00  0.00     0.053 C 
ATOM      9  C   UNL d   1       3.349  -2.261   4.496  0.00  0.00     0.018 C 
ENDBRANCH   1   8
TORSDOF 1
ENDMDL
