MODEL 1
REMARK minimizedAffinity 9.3055439
REMARK minimizedRMSD -1
REMARK  1 active torsions:
REMARK  status: ('A' for Active; 'I' for Inactive)
REMARK    1  A    between atoms: C1_2  and  C2_3 
ROOT
ATOM      1  C2  UNL d   1       3.875  -2.169   4.598  0.00  0.00    -0.076 A 
ATOM      2  C3  UNL d   1       2.482  -2.016   4.712  0.00  0.00     0.004 A 
ATOM      3  C4  UNL d   1       1.733  -1.463   3.675  0.00  0.00    -0.003 A 
ATOM      4  C5  UNL d   1       2.365  -1.055   2.505  0.00  0.00     0.000 A 
ATOM      5  C6  UNL d   1       3.744  -1.216   2.368  0.00  0.00     0.000 A 
ATOM      6  C7  UNL d   1       4.511  -1.786   3.398  0.00  0.00    -0.073 A 
ATOM      7  C8  UNL d   1       5.995  -1.930   3.198  0.00  0.00     0.078 C 
ENDROOT
BRANCH   1   8
ATOM      8  C1  UNL d   1       4.638  -2.750   5.767  0.00  0.00     0.053 C 
ATOM      9  C   UNL d   1       5.968  -2.050   6.000  0.00  0.00     0.018 C 
ENDBRANCH   1   8
TORSDOF 1
ENDMDL
