MODEL 1
REMARK minimizedAffinity -0.429879397
REMARK minimizedRMSD -1
REMARK  1 active torsions:
REMARK  status: ('A' for Active; 'I' for Inactive)
REMARK    1  A    between atoms: C1_2  and  C2_3 
ROOT
ATOM      1  C2  UNL d   1       4.484  -1.899   5.049  0.00  0.00    -0.076 A 
ATOM      2  C3  UNL d   1       3.210  -1.639   5.584  0.00  0.00     0.004 A 
ATOM      3  C4  UNL d   1       2.136  -1.321   4.755  0.00  0.00    -0.003 A 
ATOM      4  C5  UNL d   1       2.317  -1.258   3.378  0.00  0.00     0.000 A 
ATOM      5  C6  UNL d   1       3.569  -1.530   2.829  0.00  0.00     0.000 A 
ATOM      6  C7  UNL d   1       4.660  -1.868   3.649  0.00  0.00    -0.073 A 
ATOM      7  C8  UNL d   1       5.990  -2.146   3.003  0.00  0.00     0.078 C 
ENDROOT
BRANCH   1   8
ATOM      8  C1  UNL d   1       5.618  -2.212   5.998  0.00  0.00     0.053 C 
ATOM      9  C   UNL d   1       5.987  -3.688   6.000  0.00  0.00     0.018 C 
ENDBRANCH   1   8
TORSDOF 1
ENDMDL
