MODEL 1
REMARK minimizedAffinity 10.0540628
REMARK minimizedRMSD -1
REMARK  1 active torsions:
REMARK  status: ('A' for Active; 'I' for Inactive)
REMARK    1  A    between atoms: C1_2  and  C2_3 
ROOT
ATOM      1  C2  UNL d   1       0.869   3.166   1.608  0.00  0.00    -0.076 A 
ATOM      2  C3  UNL d   1       1.295   2.952   2.930  0.00  0.00     0.004 A 
ATOM      3  C4  UNL d   1       2.542   2.391   3.200  0.00  0.00    -0.003 A 
ATOM      4  C5  UNL d   1       3.384   2.035   2.152  0.00  0.00     0.000 A 
ATOM      5  C6  UNL d   1       2.984   2.256   0.834  0.00  0.00     0.000 A 
ATOM      6  C7  UNL d   1       1.737   2.836   0.545  0.00  0.00    -0.073 A 
ATOM      7  C8  UNL d   1       1.355   3.046  -0.894  0.00  0.00     0.078 C 
ENDROOT
BRANCH   1   8
ATOM      8  C1  UNL d   1      -0.505   3.753   1.376  0.00  0.00     0.053 C 
ATOM      9  C   UNL d   1      -0.525   5.266   1.526  0.00  0.00     0.018 C 
ENDBRANCH   1   8
TORSDOF 1
ENDMDL
