MODEL 1
REMARK minimizedAffinity -4.87544537
REMARK minimizedRMSD -1
REMARK  0 active torsions:
REMARK  status: ('A' for Active; 'I' for Inactive)
ROOT
ATOM      1  C   UNL d   1      -0.993  -0.603   1.208  0.00  0.00     0.020 A 
ATOM      2  C1  UNL d   1       0.300  -0.612   1.729  0.00  0.00     0.020 A 
ATOM      3  C2  UNL d   1       1.364  -1.068   0.948  0.00  0.00     0.034 A 
ATOM      4  C3  UNL d   1       1.137  -1.517  -0.358  0.00  0.00     0.017 A 
ATOM      5  C4  UNL d   1      -0.161  -1.507  -0.880  0.00  0.00     0.017 A 
ATOM      6  C5  UNL d   1      -1.223  -1.050  -0.094  0.00  0.00     0.034 A 
ATOM      7 Cl   UNL d   1      -0.520  -2.045  -2.483  0.00  0.00    -0.070 Cl
ATOM      8 Cl1  UNL d   1       2.500  -2.067  -1.267  0.00  0.00    -0.070 Cl
ENDROOT
TORSDOF 0
ENDMDL
