MODEL 1
REMARK minimizedAffinity 0.308888823
REMARK minimizedRMSD -1
REMARK  0 active torsions:
REMARK  status: ('A' for Active; 'I' for Inactive)
ROOT
ATOM      1  C   UNL d   1      -4.395   1.136   0.565  0.00  0.00     0.020 A 
ATOM      2  C1  UNL d   1      -4.292   1.141   1.956  0.00  0.00     0.020 A 
ATOM      3  C2  UNL d   1      -3.242   0.464   2.581  0.00  0.00     0.034 A 
ATOM      4  C3  UNL d   1      -2.292  -0.222   1.815  0.00  0.00     0.017 A 
ATOM      5  C4  UNL d   1      -2.397  -0.226   0.419  0.00  0.00     0.017 A 
ATOM      6  C5  UNL d   1      -3.450   0.454  -0.201  0.00  0.00     0.034 A 
ATOM      7 Cl   UNL d   1      -1.263  -1.050  -0.592  0.00  0.00    -0.070 Cl
ATOM      8 Cl1  UNL d   1      -1.021  -1.037   2.654  0.00  0.00    -0.070 Cl
ENDROOT
TORSDOF 0
ENDMDL
