MODEL 1
REMARK minimizedAffinity -4.43468142
REMARK minimizedRMSD -1
REMARK  0 active torsions:
REMARK  status: ('A' for Active; 'I' for Inactive)
ROOT
ATOM      1  C   UNL d   1      -2.216   0.773   2.436  0.00  0.00     0.020 A 
ATOM      2  C1  UNL d   1      -2.811   0.576   1.190  0.00  0.00     0.020 A 
ATOM      3  C2  UNL d   1      -2.116  -0.097   0.183  0.00  0.00     0.034 A 
ATOM      4  C3  UNL d   1      -0.822  -0.575   0.420  0.00  0.00     0.017 A 
ATOM      5  C4  UNL d   1      -0.226  -0.377   1.671  0.00  0.00     0.017 A 
ATOM      6  C5  UNL d   1      -0.926   0.297   2.675  0.00  0.00     0.034 A 
ATOM      7 Cl   UNL d   1       1.367  -0.939   2.038  0.00  0.00    -0.070 Cl
ATOM      8 Cl1  UNL d   1      -0.021  -1.399  -0.871  0.00  0.00    -0.070 Cl
ENDROOT
TORSDOF 0
ENDMDL
