MODEL 1
REMARK minimizedAffinity -5.17674398
REMARK minimizedRMSD -1
REMARK  0 active torsions:
REMARK  status: ('A' for Active; 'I' for Inactive)
ROOT
ATOM      1  C   UNL d   1      -0.531  -1.254  -1.051  0.00  0.00     0.020 A 
ATOM      2  C1  UNL d   1       0.423  -1.088  -0.048  0.00  0.00     0.020 A 
ATOM      3  C2  UNL d   1       0.069  -0.477   1.157  0.00  0.00     0.034 A 
ATOM      4  C3  UNL d   1      -1.241  -0.030   1.362  0.00  0.00     0.017 A 
ATOM      5  C4  UNL d   1      -2.198  -0.198   0.354  0.00  0.00     0.017 A 
ATOM      6  C5  UNL d   1      -1.838  -0.810  -0.850  0.00  0.00     0.034 A 
ATOM      7 Cl   UNL d   1      -3.835   0.328   0.533  0.00  0.00    -0.070 Cl
ATOM      8 Cl1  UNL d   1      -1.609   0.716   2.877  0.00  0.00    -0.070 Cl
ENDROOT
TORSDOF 0
ENDMDL
