MODEL 1
REMARK minimizedAffinity -4.56962633
REMARK minimizedRMSD -1
REMARK  0 active torsions:
REMARK  status: ('A' for Active; 'I' for Inactive)
ROOT
ATOM      1  C   UNL d   1      -2.253   0.072   2.440  0.00  0.00     0.020 A 
ATOM      2  C1  UNL d   1      -2.852   0.107   1.182  0.00  0.00     0.020 A 
ATOM      3  C2  UNL d   1      -2.140  -0.317   0.058  0.00  0.00     0.034 A 
ATOM      4  C3  UNL d   1      -0.825  -0.779   0.190  0.00  0.00     0.017 A 
ATOM      5  C4  UNL d   1      -0.225  -0.813   1.454  0.00  0.00     0.017 A 
ATOM      6  C5  UNL d   1      -0.942  -0.387   2.576  0.00  0.00     0.034 A 
ATOM      7 Cl   UNL d   1       1.393  -1.369   1.696  0.00  0.00    -0.070 Cl
ATOM      8 Cl1  UNL d   1      -0.005  -1.288  -1.243  0.00  0.00    -0.070 Cl
ENDROOT
TORSDOF 0
ENDMDL
