MODEL 1
REMARK minimizedAffinity 1.07962978
REMARK minimizedRMSD -1
REMARK  0 active torsions:
REMARK  status: ('A' for Active; 'I' for Inactive)
ROOT
ATOM      1  C   UNL d   1       1.034  -2.145  -2.603  0.00  0.00     0.020 A 
ATOM      2  C1  UNL d   1      -0.329  -1.977  -2.842  0.00  0.00     0.020 A 
ATOM      3  C2  UNL d   1      -0.764  -1.021  -3.762  0.00  0.00     0.034 A 
ATOM      4  C3  UNL d   1       0.165  -0.229  -4.446  0.00  0.00     0.017 A 
ATOM      5  C4  UNL d   1       1.534  -0.398  -4.206  0.00  0.00     0.017 A 
ATOM      6  C5  UNL d   1       1.964  -1.357  -3.283  0.00  0.00     0.034 A 
ATOM      7 Cl   UNL d   1       2.740   0.542  -5.012  0.00  0.00    -0.070 Cl
ATOM      8 Cl1  UNL d   1      -0.443   0.934  -5.570  0.00  0.00    -0.070 Cl
ENDROOT
TORSDOF 0
ENDMDL
