MODEL 1
REMARK minimizedAffinity -4.90209818
REMARK minimizedRMSD -1
REMARK  0 active torsions:
REMARK  status: ('A' for Active; 'I' for Inactive)
ROOT
ATOM      1  C   UNL d   1      -2.423  -0.057   1.704  0.00  0.00     0.020 A 
ATOM      2  C1  UNL d   1      -2.099  -0.350   0.380  0.00  0.00     0.020 A 
ATOM      3  C2  UNL d   1      -0.843  -0.873   0.067  0.00  0.00     0.034 A 
ATOM      4  C3  UNL d   1       0.095  -1.105   1.080  0.00  0.00     0.017 A 
ATOM      5  C4  UNL d   1      -0.231  -0.811   2.409  0.00  0.00     0.017 A 
ATOM      6  C5  UNL d   1      -1.490  -0.287   2.716  0.00  0.00     0.034 A 
ATOM      7 Cl   UNL d   1       0.874  -1.070   3.713  0.00  0.00    -0.070 Cl
ATOM      8 Cl1  UNL d   1       1.629  -1.755   0.621  0.00  0.00    -0.070 Cl
ENDROOT
TORSDOF 0
ENDMDL
