MODEL 1
REMARK minimizedAffinity -2.55198503
REMARK minimizedRMSD -1
REMARK  0 active torsions:
REMARK  status: ('A' for Active; 'I' for Inactive)
ROOT
ATOM      1  C   UNL d   1      -2.951  -0.341   0.889  0.00  0.00     0.020 A 
ATOM      2  C1  UNL d   1      -2.494   0.241   2.071  0.00  0.00     0.020 A 
ATOM      3  C2  UNL d   1      -1.175   0.042   2.483  0.00  0.00     0.034 A 
ATOM      4  C3  UNL d   1      -0.307  -0.741   1.713  0.00  0.00     0.017 A 
ATOM      5  C4  UNL d   1      -0.767  -1.325   0.526  0.00  0.00     0.017 A 
ATOM      6  C5  UNL d   1      -2.089  -1.122   0.119  0.00  0.00     0.034 A 
ATOM      7 Cl   UNL d   1       0.245  -2.303  -0.477  0.00  0.00    -0.070 Cl
ATOM      8 Cl1  UNL d   1       1.311  -0.944   2.282  0.00  0.00    -0.070 Cl
ENDROOT
TORSDOF 0
ENDMDL
