MODEL 1
REMARK minimizedAffinity -3.03424692
REMARK minimizedRMSD -1
REMARK  0 active torsions:
REMARK  status: ('A' for Active; 'I' for Inactive)
ROOT
ATOM      1  C   UNL d   1      -3.171   0.156   1.235  0.00  0.00     0.020 A 
ATOM      2  C1  UNL d   1      -2.540  -0.227   0.052  0.00  0.00     0.020 A 
ATOM      3  C2  UNL d   1      -1.227  -0.702   0.083  0.00  0.00     0.034 A 
ATOM      4  C3  UNL d   1      -0.540  -0.795   1.299  0.00  0.00     0.017 A 
ATOM      5  C4  UNL d   1      -1.175  -0.411   2.486  0.00  0.00     0.017 A 
ATOM      6  C5  UNL d   1      -2.490   0.064   2.449  0.00  0.00     0.034 A 
ATOM      7 Cl   UNL d   1      -0.393  -0.497   4.025  0.00  0.00    -0.070 Cl
ATOM      8 Cl1  UNL d   1       1.081  -1.391   1.263  0.00  0.00    -0.070 Cl
ENDROOT
TORSDOF 0
ENDMDL
