MODEL 1
REMARK minimizedAffinity -2.51865435
REMARK minimizedRMSD -1
REMARK  1 active torsions:
REMARK  status: ('A' for Active; 'I' for Inactive)
REMARK    1  A    between atoms: C1_2  and  C2_3 
ROOT
ATOM      1  C2  UNL d   1      -0.370   2.705  -0.562  0.00  0.00    -0.073 A 
ATOM      2  C3  UNL d   1      -1.162   3.827  -0.828  0.00  0.00    -0.002 A 
ATOM      3  C4  UNL d   1      -2.210   4.169   0.028  0.00  0.00     0.004 A 
ATOM      4  C5  UNL d   1      -2.471   3.398   1.161  0.00  0.00    -0.004 A 
ATOM      5  C6  UNL d   1      -1.683   2.280   1.450  0.00  0.00    -0.075 A 
ATOM      6  C7  UNL d   1      -1.952   1.439   2.663  0.00  0.00     0.076 C 
ATOM      7  C8  UNL d   1      -0.634   1.941   0.584  0.00  0.00     0.001 A 
ENDROOT
BRANCH   1   8
ATOM      8  C1  UNL d   1       0.766   2.335  -1.481  0.00  0.00     0.053 C 
ATOM      9  C   UNL d   1       1.097   0.853  -1.410  0.00  0.00     0.018 C 
ENDBRANCH   1   8
TORSDOF 1
ENDMDL
