MODEL 1
REMARK minimizedAffinity -4.03906965
REMARK minimizedRMSD -1
REMARK  1 active torsions:
REMARK  status: ('A' for Active; 'I' for Inactive)
REMARK    1  A    between atoms: C1_2  and  C2_3 
ROOT
ATOM      1  C2  UNL d   1      -0.118   2.028  -1.187  0.00  0.00    -0.073 A 
ATOM      2  C3  UNL d   1      -0.569   3.264  -1.665  0.00  0.00    -0.002 A 
ATOM      3  C4  UNL d   1      -1.327   4.102  -0.847  0.00  0.00     0.004 A 
ATOM      4  C5  UNL d   1      -1.636   3.718   0.458  0.00  0.00    -0.004 A 
ATOM      5  C6  UNL d   1      -1.184   2.493   0.958  0.00  0.00    -0.075 A 
ATOM      6  C7  UNL d   1      -1.510   2.064   2.359  0.00  0.00     0.076 C 
ATOM      7  C8  UNL d   1      -0.425   1.655   0.129  0.00  0.00     0.001 A 
ENDROOT
BRANCH   1   8
ATOM      8  C1  UNL d   1       0.707   1.122  -2.064  0.00  0.00     0.053 C 
ATOM      9  C   UNL d   1      -0.064  -0.118  -2.487  0.00  0.00     0.018 C 
ENDBRANCH   1   8
TORSDOF 1
ENDMDL
