MODEL 1
REMARK minimizedAffinity 3.02675366
REMARK minimizedRMSD -1
REMARK  1 active torsions:
REMARK  status: ('A' for Active; 'I' for Inactive)
REMARK    1  A    between atoms: C1_2  and  C2_3 
ROOT
ATOM      1  C2  UNL d   1      -0.361   1.247  -0.873  0.00  0.00    -0.073 A 
ATOM      2  C3  UNL d   1      -1.185   0.678  -1.851  0.00  0.00    -0.002 A 
ATOM      3  C4  UNL d   1      -0.864  -0.560  -2.410  0.00  0.00     0.004 A 
ATOM      4  C5  UNL d   1       0.278  -1.243  -1.993  0.00  0.00    -0.004 A 
ATOM      5  C6  UNL d   1       1.107  -0.697  -1.008  0.00  0.00    -0.075 A 
ATOM      6  C7  UNL d   1       2.340  -1.419  -0.549  0.00  0.00     0.076 C 
ATOM      7  C8  UNL d   1       0.779   0.548  -0.453  0.00  0.00     0.001 A 
ENDROOT
BRANCH   1   8
ATOM      8  C1  UNL d   1      -0.708   2.580  -0.262  0.00  0.00     0.053 C 
ATOM      9  C   UNL d   1      -1.116   2.450   1.197  0.00  0.00     0.018 C 
ENDBRANCH   1   8
TORSDOF 1
ENDMDL
