MODEL 1
REMARK minimizedAffinity -2.39336586
REMARK minimizedRMSD -1
REMARK  1 active torsions:
REMARK  status: ('A' for Active; 'I' for Inactive)
REMARK    1  A    between atoms: C1_2  and  C2_3 
ROOT
ATOM      1  C2  UNL d   1       0.732   1.375  -0.947  0.00  0.00    -0.073 A 
ATOM      2  C3  UNL d   1       1.207   2.372  -1.806  0.00  0.00    -0.002 A 
ATOM      3  C4  UNL d   1       0.928   3.715  -1.550  0.00  0.00     0.004 A 
ATOM      4  C5  UNL d   1       0.177   4.075  -0.431  0.00  0.00    -0.004 A 
ATOM      5  C6  UNL d   1      -0.297   3.094   0.446  0.00  0.00    -0.075 A 
ATOM      6  C7  UNL d   1      -1.108   3.464   1.653  0.00  0.00     0.076 C 
ATOM      7  C8  UNL d   1      -0.014   1.747   0.181  0.00  0.00     0.001 A 
ENDROOT
BRANCH   1   8
ATOM      8  C1  UNL d   1       1.037  -0.076  -1.216  0.00  0.00     0.053 C 
ATOM      9  C   UNL d   1       0.145  -0.654  -2.304  0.00  0.00     0.018 C 
ENDBRANCH   1   8
TORSDOF 1
ENDMDL
