MODEL 1
REMARK minimizedAffinity -0.004034766
REMARK minimizedRMSD -1
REMARK  1 active torsions:
REMARK  status: ('A' for Active; 'I' for Inactive)
REMARK    1  A    between atoms: C1_2  and  C2_3 
ROOT
ATOM      1  C2  UNL d   1       0.547   1.308  -1.018  0.00  0.00    -0.073 A 
ATOM      2  C3  UNL d   1       0.864   2.558  -1.562  0.00  0.00    -0.002 A 
ATOM      3  C4  UNL d   1       0.454   3.729  -0.924  0.00  0.00     0.004 A 
ATOM      4  C5  UNL d   1      -0.270   3.663   0.266  0.00  0.00    -0.004 A 
ATOM      5  C6  UNL d   1      -0.587   2.423   0.832  0.00  0.00    -0.075 A 
ATOM      6  C7  UNL d   1      -1.367   2.335   2.110  0.00  0.00     0.076 C 
ATOM      7  C8  UNL d   1      -0.173   1.252   0.183  0.00  0.00     0.001 A 
ENDROOT
BRANCH   1   8
ATOM      8  C1  UNL d   1       0.994   0.040  -1.701  0.00  0.00     0.053 C 
ATOM      9  C   UNL d   1      -0.115  -0.577  -2.538  0.00  0.00     0.018 C 
ENDBRANCH   1   8
TORSDOF 1
ENDMDL
