MODEL 1
REMARK minimizedAffinity 3.16325521
REMARK minimizedRMSD -1
REMARK  1 active torsions:
REMARK  status: ('A' for Active; 'I' for Inactive)
REMARK    1  A    between atoms: C1_2  and  C2_3 
ROOT
ATOM      1  C2  UNL d   1      -0.427   1.634   0.981  0.00  0.00    -0.073 A 
ATOM      2  C3  UNL d   1      -0.493   2.393  -0.193  0.00  0.00    -0.002 A 
ATOM      3  C4  UNL d   1       0.363   2.117  -1.260  0.00  0.00     0.004 A 
ATOM      4  C5  UNL d   1       1.288   1.077  -1.166  0.00  0.00    -0.004 A 
ATOM      5  C6  UNL d   1       1.362   0.300  -0.005  0.00  0.00    -0.075 A 
ATOM      6  C7  UNL d   1       2.353  -0.820   0.112  0.00  0.00     0.076 C 
ATOM      7  C8  UNL d   1       0.500   0.586   1.063  0.00  0.00     0.001 A 
ENDROOT
BRANCH   1   8
ATOM      8  C1  UNL d   1      -1.354   1.924   2.133  0.00  0.00     0.053 C 
ATOM      9  C   UNL d   1      -2.190   0.712   2.512  0.00  0.00     0.018 C 
ENDBRANCH   1   8
TORSDOF 1
ENDMDL
