MODEL 1
REMARK minimizedAffinity 2.63860154
REMARK minimizedRMSD -1
REMARK  1 active torsions:
REMARK  status: ('A' for Active; 'I' for Inactive)
REMARK    1  A    between atoms: C1_2  and  C2_3 
ROOT
ATOM      1  C2  UNL d   1      -0.653   2.220   1.087  0.00  0.00    -0.073 A 
ATOM      2  C3  UNL d   1      -0.436   3.520   0.616  0.00  0.00    -0.002 A 
ATOM      3  C4  UNL d   1      -0.020   3.733  -0.699  0.00  0.00     0.004 A 
ATOM      4  C5  UNL d   1       0.175   2.651  -1.557  0.00  0.00    -0.004 A 
ATOM      5  C6  UNL d   1      -0.049   1.345  -1.108  0.00  0.00    -0.075 A 
ATOM      6  C7  UNL d   1       0.159   0.170  -2.019  0.00  0.00     0.076 C 
ATOM      7  C8  UNL d   1      -0.463   1.140   0.214  0.00  0.00     0.001 A 
ENDROOT
BRANCH   1   8
ATOM      8  C1  UNL d   1      -1.108   1.986   2.505  0.00  0.00     0.053 C 
ATOM      9  C   UNL d   1      -0.062   2.420   3.518  0.00  0.00     0.018 C 
ENDBRANCH   1   8
TORSDOF 1
ENDMDL
