MODEL 1
REMARK minimizedAffinity 1.38781691
REMARK minimizedRMSD -1
REMARK  1 active torsions:
REMARK  status: ('A' for Active; 'I' for Inactive)
REMARK    1  A    between atoms: C1_2  and  C2_3 
ROOT
ATOM      1  C2  UNL d   1       0.304   2.039  -0.834  0.00  0.00    -0.073 A 
ATOM      2  C3  UNL d   1       0.155   3.420  -1.004  0.00  0.00    -0.002 A 
ATOM      3  C4  UNL d   1      -0.724   4.140  -0.194  0.00  0.00     0.004 A 
ATOM      4  C5  UNL d   1      -1.456   3.489   0.799  0.00  0.00    -0.004 A 
ATOM      5  C6  UNL d   1      -1.313   2.111   0.993  0.00  0.00    -0.075 A 
ATOM      6  C7  UNL d   1      -2.095   1.396   2.054  0.00  0.00     0.076 C 
ATOM      7  C8  UNL d   1      -0.430   1.395   0.173  0.00  0.00     0.001 A 
ENDROOT
BRANCH   1   8
ATOM      8  C1  UNL d   1       1.256   1.258  -1.702  0.00  0.00     0.053 C 
ATOM      9  C   UNL d   1       1.775   0.012  -1.002  0.00  0.00     0.018 C 
ENDBRANCH   1   8
TORSDOF 1
ENDMDL
