MODEL 1
REMARK minimizedAffinity 8.07898045
REMARK minimizedRMSD -1
REMARK  1 active torsions:
REMARK  status: ('A' for Active; 'I' for Inactive)
REMARK    1  A    between atoms: C1_2  and  C2_3 
ROOT
ATOM      1  C2  UNL d   1      -1.431  -0.666   2.955  0.00  0.00    -0.073 A 
ATOM      2  C3  UNL d   1      -2.012   0.480   2.400  0.00  0.00    -0.002 A 
ATOM      3  C4  UNL d   1      -1.231   1.391   1.688  0.00  0.00     0.004 A 
ATOM      4  C5  UNL d   1       0.134   1.163   1.516  0.00  0.00    -0.004 A 
ATOM      5  C6  UNL d   1       0.731   0.017   2.053  0.00  0.00    -0.075 A 
ATOM      6  C7  UNL d   1       2.198  -0.242   1.880  0.00  0.00     0.076 C 
ATOM      7  C8  UNL d   1      -0.059  -0.891   2.770  0.00  0.00     0.001 A 
ENDROOT
BRANCH   1   8
ATOM      8  C1  UNL d   1      -2.271  -1.656   3.720  0.00  0.00     0.053 C 
ATOM      9  C   UNL d   1      -1.546  -2.976   3.930  0.00  0.00     0.018 C 
ENDBRANCH   1   8
TORSDOF 1
ENDMDL
