MODEL 1
REMARK minimizedAffinity 8.51355171
REMARK minimizedRMSD -1
REMARK  1 active torsions:
REMARK  status: ('A' for Active; 'I' for Inactive)
REMARK    1  A    between atoms: C1_2  and  C2_3 
ROOT
ATOM      1  C2  UNL d   1      -0.497   2.335   1.279  0.00  0.00    -0.073 A 
ATOM      2  C3  UNL d   1      -1.633   1.518   1.263  0.00  0.00    -0.002 A 
ATOM      3  C4  UNL d   1      -1.941   0.717   2.364  0.00  0.00     0.004 A 
ATOM      4  C5  UNL d   1      -1.121   0.730   3.493  0.00  0.00    -0.004 A 
ATOM      5  C6  UNL d   1       0.012   1.549   3.532  0.00  0.00    -0.075 A 
ATOM      6  C7  UNL d   1       0.905   1.573   4.738  0.00  0.00     0.076 C 
ATOM      7  C8  UNL d   1       0.316   2.348   2.422  0.00  0.00     0.001 A 
ENDROOT
BRANCH   1   8
ATOM      8  C1  UNL d   1      -0.164   3.206   0.095  0.00  0.00     0.053 C 
ATOM      9  C   UNL d   1       0.005   2.395  -1.180  0.00  0.00     0.018 C 
ENDBRANCH   1   8
TORSDOF 1
ENDMDL
