MODEL 1
REMARK minimizedAffinity -5.21539831
REMARK minimizedRMSD -1
REMARK  3 active torsions:
REMARK  status: ('A' for Active; 'I' for Inactive)
REMARK    1  A    between atoms: C3'_2  and  C2'_3 
REMARK    2  A    between atoms: C2'_3  and  C1'_4 
REMARK    3  A    between atoms: C1'_4  and  C1_5 
ROOT
ATOM      1  C1  N4B d   1       1.230   1.345  -0.173  0.00  0.00    -0.075 A 
ATOM      2  C2  N4B d   1       1.986   1.052  -1.330  0.00  0.00     0.002 A 
ATOM      3  C3  N4B d   1       1.866  -0.174  -1.936  0.00  0.00     0.002 A 
ATOM      4  C4  N4B d   1       1.014  -1.126  -1.395  0.00  0.00    -0.004 A 
ATOM      5  C5  N4B d   1       0.269  -0.827  -0.293  0.00  0.00     0.002 A 
ATOM      6  C6  N4B d   1       0.376   0.403   0.325  0.00  0.00     0.002 A 
ENDROOT
BRANCH   1   7
ATOM      7  C1' N4B d   1       1.391   2.641   0.574  0.00  0.00     0.057 C 
BRANCH   7   8
ATOM      8  C2' N4B d   1       1.124   2.400   2.057  0.00  0.00     0.009 C 
BRANCH   8   9
ATOM      9  C3' N4B d   1       2.402   2.114   2.826  0.00  0.00     0.004 C 
ATOM     10  C4' N4B d   1       2.405   0.757   3.463  0.00  0.00     0.003 C 
ENDBRANCH   8   9
ENDBRANCH   7   8
ENDBRANCH   1   7
TORSDOF 3
ENDMDL
