MODEL 1
REMARK minimizedAffinity -3.38138914
REMARK minimizedRMSD -1
REMARK  3 active torsions:
REMARK  status: ('A' for Active; 'I' for Inactive)
REMARK    1  A    between atoms: C3'_2  and  C2'_3 
REMARK    2  A    between atoms: C2'_3  and  C1'_4 
REMARK    3  A    between atoms: C1'_4  and  C1_5 
ROOT
ATOM      1  C1  N4B d   1       0.866   1.201   1.444  0.00  0.00    -0.075 A 
ATOM      2  C2  N4B d   1       1.479   1.833   0.339  0.00  0.00     0.002 A 
ATOM      3  C3  N4B d   1       1.449   1.235  -0.897  0.00  0.00     0.002 A 
ATOM      4  C4  N4B d   1       0.832   0.002  -1.047  0.00  0.00    -0.004 A 
ATOM      5  C5  N4B d   1       0.221  -0.589   0.019  0.00  0.00     0.002 A 
ATOM      6  C6  N4B d   1       0.239   0.002   1.266  0.00  0.00     0.002 A 
ENDROOT
BRANCH   1   7
ATOM      7  C1' N4B d   1       0.947   1.776   2.832  0.00  0.00     0.057 C 
BRANCH   7   8
ATOM      8  C2' N4B d   1       2.232   1.293   3.500  0.00  0.00     0.009 C 
BRANCH   8   9
ATOM      9  C3' N4B d   1       3.302   2.371   3.519  0.00  0.00     0.004 C 
ATOM     10  C4' N4B d   1       2.753   3.739   3.241  0.00  0.00     0.003 C 
ENDBRANCH   8   9
ENDBRANCH   7   8
ENDBRANCH   1   7
TORSDOF 3
ENDMDL
