MODEL 1
REMARK minimizedAffinity -5.15827703
REMARK minimizedRMSD -1
REMARK  3 active torsions:
REMARK  status: ('A' for Active; 'I' for Inactive)
REMARK    1  A    between atoms: C3'_2  and  C2'_3 
REMARK    2  A    between atoms: C2'_3  and  C1'_4 
REMARK    3  A    between atoms: C1'_4  and  C1_5 
ROOT
ATOM      1  C1  N4B d   1       1.137   0.651  -0.202  0.00  0.00    -0.075 A 
ATOM      2  C2  N4B d   1       1.810   0.954  -1.406  0.00  0.00     0.002 A 
ATOM      3  C3  N4B d   1       1.916   0.003  -2.390  0.00  0.00     0.002 A 
ATOM      4  C4  N4B d   1       1.377  -1.259  -2.187  0.00  0.00    -0.004 A 
ATOM      5  C5  N4B d   1       0.706  -1.535  -1.032  0.00  0.00     0.002 A 
ATOM      6  C6  N4B d   1       0.588  -0.587  -0.035  0.00  0.00     0.002 A 
ENDROOT
BRANCH   1   7
ATOM      7  C1' N4B d   1       1.069   1.630   0.938  0.00  0.00     0.057 C 
BRANCH   7   8
ATOM      8  C2' N4B d   1       0.990   0.862   2.254  0.00  0.00     0.009 C 
BRANCH   8   9
ATOM      9  C3' N4B d   1       1.886   1.468   3.321  0.00  0.00     0.004 C 
ATOM     10  C4' N4B d   1       2.444   2.802   2.922  0.00  0.00     0.003 C 
ENDBRANCH   8   9
ENDBRANCH   7   8
ENDBRANCH   1   7
TORSDOF 3
ENDMDL
