MODEL 1
REMARK minimizedAffinity -5.42627335
REMARK minimizedRMSD -1
REMARK  3 active torsions:
REMARK  status: ('A' for Active; 'I' for Inactive)
REMARK    1  A    between atoms: C3'_2  and  C2'_3 
REMARK    2  A    between atoms: C2'_3  and  C1'_4 
REMARK    3  A    between atoms: C1'_4  and  C1_5 
ROOT
ATOM      1  C1  N4B d   1       1.525   1.676  -0.263  0.00  0.00    -0.075 A 
ATOM      2  C2  N4B d   1       0.249   1.088  -0.399  0.00  0.00     0.002 A 
ATOM      3  C3  N4B d   1      -0.004   0.230  -1.442  0.00  0.00     0.002 A 
ATOM      4  C4  N4B d   1       0.993  -0.037  -2.367  0.00  0.00    -0.004 A 
ATOM      5  C5  N4B d   1       2.231   0.515  -2.214  0.00  0.00     0.002 A 
ATOM      6  C6  N4B d   1       2.501   1.375  -1.168  0.00  0.00     0.002 A 
ENDROOT
BRANCH   1   7
ATOM      7  C1' N4B d   1       1.824   2.686   0.812  0.00  0.00     0.057 C 
BRANCH   7   8
ATOM      8  C2' N4B d   1       1.902   1.975   2.160  0.00  0.00     0.009 C 
BRANCH   8   9
ATOM      9  C3' N4B d   1       2.840   2.683   3.122  0.00  0.00     0.004 C 
ATOM     10  C4' N4B d   1       2.911   4.161   2.882  0.00  0.00     0.003 C 
ENDBRANCH   8   9
ENDBRANCH   7   8
ENDBRANCH   1   7
TORSDOF 3
ENDMDL
