MODEL 1
REMARK minimizedAffinity -1.74191332
REMARK minimizedRMSD -1
REMARK  3 active torsions:
REMARK  status: ('A' for Active; 'I' for Inactive)
REMARK    1  A    between atoms: C3'_2  and  C2'_3 
REMARK    2  A    between atoms: C2'_3  and  C1'_4 
REMARK    3  A    between atoms: C1'_4  and  C1_5 
ROOT
ATOM      1  C1  N4B d   1      -1.014  -0.226   0.983  0.00  0.00    -0.075 A 
ATOM      2  C2  N4B d   1      -0.460  -1.512   1.166  0.00  0.00     0.002 A 
ATOM      3  C3  N4B d   1       0.377  -2.040   0.214  0.00  0.00     0.002 A 
ATOM      4  C4  N4B d   1       0.659  -1.311  -0.932  0.00  0.00    -0.004 A 
ATOM      5  C5  N4B d   1       0.141  -0.059  -1.088  0.00  0.00     0.002 A 
ATOM      6  C6  N4B d   1      -0.699   0.486  -0.138  0.00  0.00     0.002 A 
ENDROOT
BRANCH   1   7
ATOM      7  C1' N4B d   1      -2.002   0.358   1.955  0.00  0.00     0.057 C 
BRANCH   7   8
ATOM      8  C2' N4B d   1      -3.417   0.040   1.482  0.00  0.00     0.009 C 
BRANCH   8   9
ATOM      9  C3' N4B d   1      -4.382   1.177   1.771  0.00  0.00     0.004 C 
ATOM     10  C4' N4B d   1      -3.703   2.384   2.346  0.00  0.00     0.003 C 
ENDBRANCH   8   9
ENDBRANCH   7   8
ENDBRANCH   1   7
TORSDOF 3
ENDMDL
