MODEL 1
REMARK minimizedAffinity -3.54911709
REMARK minimizedRMSD -1
REMARK  3 active torsions:
REMARK  status: ('A' for Active; 'I' for Inactive)
REMARK    1  A    between atoms: C3'_2  and  C2'_3 
REMARK    2  A    between atoms: C2'_3  and  C1'_4 
REMARK    3  A    between atoms: C1'_4  and  C1_5 
ROOT
ATOM      1  C1  N4B d   1      -0.099   0.074   0.249  0.00  0.00    -0.075 A 
ATOM      2  C2  N4B d   1       0.033  -1.236  -0.262  0.00  0.00     0.002 A 
ATOM      3  C3  N4B d   1       0.894  -1.483  -1.303  0.00  0.00     0.002 A 
ATOM      4  C4  N4B d   1       1.617  -0.438  -1.859  0.00  0.00    -0.004 A 
ATOM      5  C5  N4B d   1       1.502   0.820  -1.343  0.00  0.00     0.002 A 
ATOM      6  C6  N4B d   1       0.644   1.082  -0.294  0.00  0.00     0.002 A 
ENDROOT
BRANCH   1   7
ATOM      7  C1' N4B d   1      -1.091   0.409   1.329  0.00  0.00     0.057 C 
BRANCH   7   8
ATOM      8  C2' N4B d   1      -2.352   0.982   0.690  0.00  0.00     0.009 C 
BRANCH   8   9
ATOM      9  C3' N4B d   1      -3.575   0.781   1.568  0.00  0.00     0.004 C 
ATOM     10  C4' N4B d   1      -4.671   0.027   0.875  0.00  0.00     0.003 C 
ENDBRANCH   8   9
ENDBRANCH   7   8
ENDBRANCH   1   7
TORSDOF 3
ENDMDL
