MODEL 1
REMARK minimizedAffinity -0.000105104657
REMARK minimizedRMSD -1
REMARK  3 active torsions:
REMARK  status: ('A' for Active; 'I' for Inactive)
REMARK    1  A    between atoms: C3'_2  and  C2'_3 
REMARK    2  A    between atoms: C2'_3  and  C1'_4 
REMARK    3  A    between atoms: C1'_4  and  C1_5 
ROOT
ATOM      1  C1  N4B d   1      -0.601  -0.123   0.188  0.00  0.00    -0.075 A 
ATOM      2  C2  N4B d   1      -0.412  -1.516   0.325  0.00  0.00     0.002 A 
ATOM      3  C3  N4B d   1       0.264  -2.215  -0.645  0.00  0.00     0.002 A 
ATOM      4  C4  N4B d   1       0.741  -1.549  -1.764  0.00  0.00    -0.004 A 
ATOM      5  C5  N4B d   1       0.577  -0.200  -1.875  0.00  0.00     0.002 A 
ATOM      6  C6  N4B d   1      -0.097   0.517  -0.907  0.00  0.00     0.002 A 
ENDROOT
BRANCH   1   7
ATOM      7  C1' N4B d   1      -1.408   0.670   1.180  0.00  0.00     0.057 C 
BRANCH   7   8
ATOM      8  C2' N4B d   1      -2.728   1.082   0.536  0.00  0.00     0.009 C 
BRANCH   8   9
ATOM      9  C3' N4B d   1      -3.918   0.762   1.424  0.00  0.00     0.004 C 
ATOM     10  C4' N4B d   1      -4.945  -0.087   0.736  0.00  0.00     0.003 C 
ENDBRANCH   8   9
ENDBRANCH   7   8
ENDBRANCH   1   7
TORSDOF 3
ENDMDL
