MODEL 1
REMARK minimizedAffinity -4.58786058
REMARK minimizedRMSD -1
REMARK  3 active torsions:
REMARK  status: ('A' for Active; 'I' for Inactive)
REMARK    1  A    between atoms: C3'_2  and  C2'_3 
REMARK    2  A    between atoms: C2'_3  and  C1'_4 
REMARK    3  A    between atoms: C1'_4  and  C1_5 
ROOT
ATOM      1  C1  N4B d   1       0.028   0.371  -0.819  0.00  0.00    -0.075 A 
ATOM      2  C2  N4B d   1       1.416   0.312  -0.569  0.00  0.00     0.002 A 
ATOM      3  C3  N4B d   1       2.303   0.311  -1.617  0.00  0.00     0.002 A 
ATOM      4  C4  N4B d   1       1.827   0.349  -2.919  0.00  0.00    -0.004 A 
ATOM      5  C5  N4B d   1       0.485   0.431  -3.151  0.00  0.00     0.002 A 
ATOM      6  C6  N4B d   1      -0.418   0.437  -2.107  0.00  0.00     0.002 A 
ENDROOT
BRANCH   1   7
ATOM      7  C1' N4B d   1      -0.984   0.288   0.292  0.00  0.00     0.057 C 
BRANCH   7   8
ATOM      8  C2' N4B d   1      -2.303   0.886  -0.187  0.00  0.00     0.009 C 
BRANCH   8   9
ATOM      9  C3' N4B d   1      -3.252   1.165   0.966  0.00  0.00     0.004 C 
ATOM     10  C4' N4B d   1      -4.535   0.395   0.862  0.00  0.00     0.003 C 
ENDBRANCH   8   9
ENDBRANCH   7   8
ENDBRANCH   1   7
TORSDOF 3
ENDMDL
