MODEL 1
REMARK minimizedAffinity -5.75250435
REMARK minimizedRMSD -1
REMARK  3 active torsions:
REMARK  status: ('A' for Active; 'I' for Inactive)
REMARK    1  A    between atoms: C3'_2  and  C2'_3 
REMARK    2  A    between atoms: C2'_3  and  C1'_4 
REMARK    3  A    between atoms: C1'_4  and  C1_5 
ROOT
ATOM      1  C1  N4B d   1       1.290   0.847  -0.491  0.00  0.00    -0.075 A 
ATOM      2  C2  N4B d   1       0.157   0.004  -0.499  0.00  0.00     0.002 A 
ATOM      3  C3  N4B d   1      -0.063  -0.840  -1.560  0.00  0.00     0.002 A 
ATOM      4  C4  N4B d   1       0.822  -0.845  -2.628  0.00  0.00    -0.004 A 
ATOM      5  C5  N4B d   1       1.928  -0.046  -2.601  0.00  0.00     0.002 A 
ATOM      6  C6  N4B d   1       2.164   0.805  -1.539  0.00  0.00     0.002 A 
ENDROOT
BRANCH   1   7
ATOM      7  C1' N4B d   1       1.527   1.849   0.606  0.00  0.00     0.057 C 
BRANCH   7   8
ATOM      8  C2' N4B d   1       1.246   1.191   1.954  0.00  0.00     0.009 C 
BRANCH   8   9
ATOM      9  C3' N4B d   1       1.757   2.029   3.113  0.00  0.00     0.004 C 
ATOM     10  C4' N4B d   1       3.035   1.500   3.693  0.00  0.00     0.003 C 
ENDBRANCH   8   9
ENDBRANCH   7   8
ENDBRANCH   1   7
TORSDOF 3
ENDMDL
