MODEL 1
REMARK minimizedAffinity 9.56369209
REMARK minimizedRMSD -1
REMARK  3 active torsions:
REMARK  status: ('A' for Active; 'I' for Inactive)
REMARK    1  A    between atoms: C3'_2  and  C2'_3 
REMARK    2  A    between atoms: C2'_3  and  C1'_4 
REMARK    3  A    between atoms: C1'_4  and  C1_5 
ROOT
ATOM      1  C1  N4B d   1       3.194   0.367  -1.646  0.00  0.00    -0.075 A 
ATOM      2  C2  N4B d   1       3.583   1.616  -1.115  0.00  0.00     0.002 A 
ATOM      3  C3  N4B d   1       4.911   1.881  -0.885  0.00  0.00     0.002 A 
ATOM      4  C4  N4B d   1       5.862   0.910  -1.161  0.00  0.00    -0.004 A 
ATOM      5  C5  N4B d   1       5.480  -0.284  -1.698  0.00  0.00     0.002 A 
ATOM      6  C6  N4B d   1       4.150  -0.563  -1.937  0.00  0.00     0.002 A 
ENDROOT
BRANCH   1   7
ATOM      7  C1' N4B d   1       1.748  -0.000  -1.834  0.00  0.00     0.057 C 
BRANCH   7   8
ATOM      8  C2' N4B d   1       1.144  -0.365  -0.481  0.00  0.00     0.009 C 
BRANCH   8   9
ATOM      9  C3' N4B d   1      -0.340  -0.047  -0.416  0.00  0.00     0.004 C 
ATOM     10  C4' N4B d   1      -0.617   1.426  -0.387  0.00  0.00     0.003 C 
ENDBRANCH   8   9
ENDBRANCH   7   8
ENDBRANCH   1   7
TORSDOF 3
ENDMDL
