MODEL 1
REMARK minimizedAffinity 5.44363356
REMARK minimizedRMSD -1
REMARK  0 active torsions:
REMARK  status: ('A' for Active; 'I' for Inactive)
ROOT
ATOM      1  C   UNL d   1       0.751  -3.847  -2.892  0.00  0.00     0.172 C 
ATOM      2  N   UNL d   1       1.498  -3.078  -1.926  0.00  0.00    -0.070 N 
ATOM      3  C1  UNL d   1       1.685  -1.721  -1.957  0.00  0.00    -0.004 A 
ATOM      4  C2  UNL d   1       2.449  -1.375  -0.864  0.00  0.00    -0.047 A 
ATOM      5  C3  UNL d   1       2.732  -2.564  -0.151  0.00  0.00    -0.047 A 
ATOM      6  C4  UNL d   1       2.131  -3.603  -0.830  0.00  0.00    -0.004 A 
ENDROOT
TORSDOF 0
ENDMDL
