MODEL 1
REMARK minimizedAffinity 1.74123764
REMARK minimizedRMSD -1
REMARK  0 active torsions:
REMARK  status: ('A' for Active; 'I' for Inactive)
ROOT
ATOM      1  C   UNL d   1      -3.425  -0.929   1.708  0.00  0.00     0.172 C 
ATOM      2  N   UNL d   1      -2.364  -0.024   2.084  0.00  0.00    -0.070 N 
ATOM      3  C1  UNL d   1      -2.506   1.088   2.871  0.00  0.00    -0.004 A 
ATOM      4  C2  UNL d   1      -1.266   1.678   2.994  0.00  0.00    -0.047 A 
ATOM      5  C3  UNL d   1      -0.349   0.895   2.254  0.00  0.00    -0.047 A 
ATOM      6  C4  UNL d   1      -1.055  -0.152   1.701  0.00  0.00    -0.004 A 
ENDROOT
TORSDOF 0
ENDMDL
