MODEL 1
REMARK minimizedAffinity 5.31193972
REMARK minimizedRMSD -1
REMARK  0 active torsions:
REMARK  status: ('A' for Active; 'I' for Inactive)
ROOT
ATOM      1  C   UNL d   1       2.676  -3.409  -0.145  0.00  0.00     0.172 C 
ATOM      2  N   UNL d   1       2.355  -2.156  -0.786  0.00  0.00    -0.070 N 
ATOM      3  C1  UNL d   1       1.681  -2.015  -1.970  0.00  0.00    -0.004 A 
ATOM      4  C2  UNL d   1       1.577  -0.667  -2.239  0.00  0.00    -0.047 A 
ATOM      5  C3  UNL d   1       2.211   0.026  -1.180  0.00  0.00    -0.047 A 
ATOM      6  C4  UNL d   1       2.683  -0.920  -0.295  0.00  0.00    -0.004 A 
ENDROOT
TORSDOF 0
ENDMDL
