MODEL 1
REMARK minimizedAffinity 8.43882751
REMARK minimizedRMSD -1
REMARK  0 active torsions:
REMARK  status: ('A' for Active; 'I' for Inactive)
ROOT
ATOM      1  C   UNL d   1       3.826   1.358   0.925  0.00  0.00     0.172 C 
ATOM      2  N   UNL d   1       3.519  -0.008   0.570  0.00  0.00    -0.070 N 
ATOM      3  C1  UNL d   1       4.292  -1.101   0.857  0.00  0.00    -0.004 A 
ATOM      4  C2  UNL d   1       3.655  -2.213   0.352  0.00  0.00    -0.047 A 
ATOM      5  C3  UNL d   1       2.458  -1.774  -0.260  0.00  0.00    -0.047 A 
ATOM      6  C4  UNL d   1       2.398  -0.405  -0.111  0.00  0.00    -0.004 A 
ENDROOT
TORSDOF 0
ENDMDL
