MODEL 1
REMARK minimizedAffinity 5.15371227
REMARK minimizedRMSD -1
REMARK  0 active torsions:
REMARK  status: ('A' for Active; 'I' for Inactive)
ROOT
ATOM      1  C   UNL d   1      -5.618  -1.877  -5.993  0.00  0.00     0.172 C 
ATOM      2  N   UNL d   1      -4.609  -2.910  -5.972  0.00  0.00    -0.070 N 
ATOM      3  C1  UNL d   1      -4.847  -4.258  -5.999  0.00  0.00    -0.004 A 
ATOM      4  C2  UNL d   1      -3.629  -4.902  -5.965  0.00  0.00    -0.047 A 
ATOM      5  C3  UNL d   1      -2.625  -3.907  -5.916  0.00  0.00    -0.047 A 
ATOM      6  C4  UNL d   1      -3.259  -2.682  -5.921  0.00  0.00    -0.004 A 
ENDROOT
TORSDOF 0
ENDMDL
