MODEL 1
REMARK minimizedAffinity 7.08585501
REMARK minimizedRMSD -1
REMARK  0 active torsions:
REMARK  status: ('A' for Active; 'I' for Inactive)
ROOT
ATOM      1  C   UNL d   1       1.941  -0.404  -0.764  0.00  0.00     0.172 C 
ATOM      2  N   UNL d   1       2.032  -1.831  -0.963  0.00  0.00    -0.070 N 
ATOM      3  C1  UNL d   1       1.448  -2.533  -1.984  0.00  0.00    -0.004 A 
ATOM      4  C2  UNL d   1       1.772  -3.863  -1.820  0.00  0.00    -0.047 A 
ATOM      5  C3  UNL d   1       2.577  -3.963  -0.661  0.00  0.00    -0.047 A 
ATOM      6  C4  UNL d   1       2.722  -2.691  -0.150  0.00  0.00    -0.004 A 
ENDROOT
TORSDOF 0
ENDMDL
