MODEL 1
REMARK minimizedAffinity 4.51504946
REMARK minimizedRMSD -1
REMARK  0 active torsions:
REMARK  status: ('A' for Active; 'I' for Inactive)
ROOT
ATOM      1  C   UNL d   1       1.177  -4.520  -2.965  0.00  0.00     0.172 C 
ATOM      2  N   UNL d   1       1.809  -3.680  -1.974  0.00  0.00    -0.070 N 
ATOM      3  C1  UNL d   1       2.677  -4.106  -1.004  0.00  0.00    -0.004 A 
ATOM      4  C2  UNL d   1       3.056  -3.006  -0.265  0.00  0.00    -0.047 A 
ATOM      5  C3  UNL d   1       2.392  -1.881  -0.809  0.00  0.00    -0.047 A 
ATOM      6  C4  UNL d   1       1.627  -2.327  -1.866  0.00  0.00    -0.004 A 
ENDROOT
TORSDOF 0
ENDMDL
