MODEL 1
REMARK minimizedAffinity 4.58518839
REMARK minimizedRMSD -1
REMARK  0 active torsions:
REMARK  status: ('A' for Active; 'I' for Inactive)
ROOT
ATOM      1  C   UNL d   1       1.560   1.692   2.304  0.00  0.00     0.172 C 
ATOM      2  N   UNL d   1       2.678   1.882   1.409  0.00  0.00    -0.070 N 
ATOM      3  C1  UNL d   1       3.699   2.776   1.587  0.00  0.00    -0.004 A 
ATOM      4  C2  UNL d   1       4.562   2.649   0.519  0.00  0.00    -0.047 A 
ATOM      5  C3  UNL d   1       4.040   1.645  -0.330  0.00  0.00    -0.047 A 
ATOM      6  C4  UNL d   1       2.873   1.187   0.245  0.00  0.00    -0.004 A 
ENDROOT
TORSDOF 0
ENDMDL
