MODEL 1
REMARK minimizedAffinity 4.40690327
REMARK minimizedRMSD -1
REMARK  0 active torsions:
REMARK  status: ('A' for Active; 'I' for Inactive)
ROOT
ATOM      1  C   UNL d   1      -2.704  -4.188  -5.242  0.00  0.00     0.172 C 
ATOM      2  N   UNL d   1      -1.954  -4.847  -4.199  0.00  0.00    -0.070 N 
ATOM      3  C1  UNL d   1      -2.489  -5.518  -3.132  0.00  0.00    -0.004 A 
ATOM      4  C2  UNL d   1      -1.447  -6.000  -2.370  0.00  0.00    -0.047 A 
ATOM      5  C3  UNL d   1      -0.243  -5.604  -3.001  0.00  0.00    -0.047 A 
ATOM      6  C4  UNL d   1      -0.586  -4.891  -4.130  0.00  0.00    -0.004 A 
ENDROOT
TORSDOF 0
ENDMDL
