MODEL 1
REMARK minimizedAffinity 11.9401627
REMARK minimizedRMSD -1
REMARK  0 active torsions:
REMARK  status: ('A' for Active; 'I' for Inactive)
ROOT
ATOM      1  C   UNL d   1      -3.064   1.004   2.772  0.00  0.00     0.172 C 
ATOM      2  N   UNL d   1      -3.750   1.571   3.909  0.00  0.00    -0.070 N 
ATOM      3  C1  UNL d   1      -4.935   2.256   3.867  0.00  0.00    -0.004 A 
ATOM      4  C2  UNL d   1      -5.252   2.630   5.154  0.00  0.00    -0.047 A 
ATOM      5  C3  UNL d   1      -4.222   2.156   6.000  0.00  0.00    -0.047 A 
ATOM      6  C4  UNL d   1      -3.304   1.504   5.203  0.00  0.00    -0.004 A 
ENDROOT
TORSDOF 0
ENDMDL
