MODEL 1
REMARK minimizedAffinity 9.41656494
REMARK minimizedRMSD -1
REMARK  0 active torsions:
REMARK  status: ('A' for Active; 'I' for Inactive)
ROOT
ATOM      1  C   UNL d   1       2.200  -1.201  -0.401  0.00  0.00     0.172 C 
ATOM      2  N   UNL d   1       2.936  -2.422  -0.166  0.00  0.00    -0.070 N 
ATOM      3  C1  UNL d   1       4.300  -2.541  -0.150  0.00  0.00    -0.004 A 
ATOM      4  C2  UNL d   1       4.605  -3.860   0.107  0.00  0.00    -0.047 A 
ATOM      5  C3  UNL d   1       3.383  -4.558   0.248  0.00  0.00    -0.047 A 
ATOM      6  C4  UNL d   1       2.365  -3.644   0.074  0.00  0.00    -0.004 A 
ENDROOT
TORSDOF 0
ENDMDL
