MODEL 1
REMARK minimizedAffinity 7.23518133
REMARK minimizedRMSD -1
REMARK  0 active torsions:
REMARK  status: ('A' for Active; 'I' for Inactive)
ROOT
ATOM      1  C   UNL d   1       2.814  -3.016   0.403  0.00  0.00     0.172 C 
ATOM      2  N   UNL d   1       2.913  -1.622   0.769  0.00  0.00    -0.070 N 
ATOM      3  C1  UNL d   1       1.902  -0.702   0.688  0.00  0.00    -0.004 A 
ATOM      4  C2  UNL d   1       2.395   0.507   1.129  0.00  0.00    -0.047 A 
ATOM      5  C3  UNL d   1       3.750   0.307   1.485  0.00  0.00    -0.047 A 
ATOM      6  C4  UNL d   1       4.044  -1.020   1.253  0.00  0.00    -0.004 A 
ENDROOT
TORSDOF 0
ENDMDL
