MODEL 1
REMARK minimizedAffinity 9.07186127
REMARK minimizedRMSD -1
REMARK  0 active torsions:
REMARK  status: ('A' for Active; 'I' for Inactive)
ROOT
ATOM      1  C   UNL d   1       2.463   2.376  -1.465  0.00  0.00     0.172 C 
ATOM      2  N   UNL d   1       1.963   3.553  -0.793  0.00  0.00    -0.070 N 
ATOM      3  C1  UNL d   1       1.659   4.746  -1.392  0.00  0.00    -0.004 A 
ATOM      4  C2  UNL d   1       1.215   5.609  -0.414  0.00  0.00    -0.047 A 
ATOM      5  C3  UNL d   1       1.254   4.910   0.816  0.00  0.00    -0.047 A 
ATOM      6  C4  UNL d   1       1.721   3.640   0.553  0.00  0.00    -0.004 A 
ENDROOT
TORSDOF 0
ENDMDL
