MODEL 1
REMARK minimizedAffinity 6.14217138
REMARK minimizedRMSD -1
REMARK  0 active torsions:
REMARK  status: ('A' for Active; 'I' for Inactive)
ROOT
ATOM      1  C   UNL d   1      -3.759   1.452   3.199  0.00  0.00     0.172 C 
ATOM      2  N   UNL d   1      -3.534   0.381   4.142  0.00  0.00    -0.070 N 
ATOM      3  C1  UNL d   1      -3.104   0.532   5.433  0.00  0.00    -0.004 A 
ATOM      4  C2  UNL d   1      -3.016  -0.722   5.998  0.00  0.00    -0.047 A 
ATOM      5  C3  UNL d   1      -3.406  -1.659   5.011  0.00  0.00    -0.047 A 
ATOM      6  C4  UNL d   1      -3.721  -0.949   3.872  0.00  0.00    -0.004 A 
ENDROOT
TORSDOF 0
ENDMDL
