MODEL 1
REMARK minimizedAffinity 7.91650963
REMARK minimizedRMSD -1
REMARK  0 active torsions:
REMARK  status: ('A' for Active; 'I' for Inactive)
ROOT
ATOM      1  C   UNL d   1      -2.031  -4.868  -3.377  0.00  0.00     0.172 C 
ATOM      2  N   UNL d   1      -2.880  -4.214  -4.346  0.00  0.00    -0.070 N 
ATOM      3  C1  UNL d   1      -3.015  -2.861  -4.504  0.00  0.00    -0.004 A 
ATOM      4  C2  UNL d   1      -3.912  -2.643  -5.527  0.00  0.00    -0.047 A 
ATOM      5  C3  UNL d   1      -4.331  -3.909  -5.999  0.00  0.00    -0.047 A 
ATOM      6  C4  UNL d   1      -3.677  -4.864  -5.250  0.00  0.00    -0.004 A 
ENDROOT
TORSDOF 0
ENDMDL
