MODEL 1
REMARK minimizedAffinity 9.48258972
REMARK minimizedRMSD -1
REMARK  0 active torsions:
REMARK  status: ('A' for Active; 'I' for Inactive)
ROOT
ATOM      1  C   UNL d   1      -5.997  -1.330  -5.963  0.00  0.00     0.172 C 
ATOM      2  N   UNL d   1      -5.149  -2.499  -5.950  0.00  0.00    -0.070 N 
ATOM      3  C1  UNL d   1      -5.579  -3.798  -5.998  0.00  0.00    -0.004 A 
ATOM      4  C2  UNL d   1      -4.468  -4.613  -5.965  0.00  0.00    -0.047 A 
ATOM      5  C3  UNL d   1      -3.330  -3.774  -5.893  0.00  0.00    -0.047 A 
ATOM      6  C4  UNL d   1      -3.781  -2.471  -5.885  0.00  0.00    -0.004 A 
ENDROOT
TORSDOF 0
ENDMDL
