MODEL 1
REMARK minimizedAffinity 1.65268207
REMARK minimizedRMSD -1
REMARK  0 active torsions:
REMARK  status: ('A' for Active; 'I' for Inactive)
ROOT
ATOM      1  C   UNL d   1       0.644  -4.365  -2.544  0.00  0.00     0.172 C 
ATOM      2  N   UNL d   1       1.843  -4.723  -1.823  0.00  0.00    -0.070 N 
ATOM      3  C1  UNL d   1       2.587  -3.880  -1.042  0.00  0.00    -0.004 A 
ATOM      4  C2  UNL d   1       3.646  -4.600  -0.533  0.00  0.00    -0.047 A 
ATOM      5  C3  UNL d   1       3.534  -5.922  -1.025  0.00  0.00    -0.047 A 
ATOM      6  C4  UNL d   1       2.410  -5.970  -1.822  0.00  0.00    -0.004 A 
ENDROOT
TORSDOF 0
ENDMDL
