MODEL 1
REMARK minimizedAffinity 9.23640919
REMARK minimizedRMSD -1
REMARK  0 active torsions:
REMARK  status: ('A' for Active; 'I' for Inactive)
ROOT
ATOM      1  C   UNL d   1      -5.947  -2.253  -5.715  0.00  0.00     0.172 C 
ATOM      2  N   UNL d   1      -5.282  -3.531  -5.814  0.00  0.00    -0.070 N 
ATOM      3  C1  UNL d   1      -3.927  -3.727  -5.832  0.00  0.00    -0.004 A 
ATOM      4  C2  UNL d   1      -3.698  -5.082  -5.936  0.00  0.00    -0.047 A 
ATOM      5  C3  UNL d   1      -4.959  -5.722  -5.984  0.00  0.00    -0.047 A 
ATOM      6  C4  UNL d   1      -5.922  -4.738  -5.907  0.00  0.00    -0.004 A 
ENDROOT
TORSDOF 0
ENDMDL
