MODEL 1
REMARK minimizedAffinity -3.41517067
REMARK minimizedRMSD -1
REMARK  1 active torsions:
REMARK  status: ('A' for Active; 'I' for Inactive)
REMARK    1  A    between atoms: C1_2  and  C2_3 
ROOT
ATOM      1  C2  UNL d   1      -0.604   1.210   0.515  0.00  0.00    -0.077 A 
ATOM      2  C3  UNL d   1      -0.172  -0.065   0.907  0.00  0.00     0.002 A 
ATOM      3  C4  UNL d   1       0.360  -0.950  -0.031  0.00  0.00     0.002 A 
ATOM      4  C5  UNL d   1       0.470  -0.569  -1.367  0.00  0.00    -0.004 A 
ATOM      5  C6  UNL d   1       0.042   0.696  -1.768  0.00  0.00     0.002 A 
ATOM      6  C7  UNL d   1      -0.492   1.581  -0.831  0.00  0.00     0.002 A 
ENDROOT
BRANCH   1   7
ATOM      7  C1  UNL d   1      -1.134   2.184   1.534  0.00  0.00     0.055 C 
ATOM      8  C   UNL d   1      -0.006   2.973   2.184  0.00  0.00     0.019 C 
ENDBRANCH   1   7
TORSDOF 1
ENDMDL
