MODEL 1
REMARK minimizedAffinity -4.2857933
REMARK minimizedRMSD -1
REMARK  1 active torsions:
REMARK  status: ('A' for Active; 'I' for Inactive)
REMARK    1  A    between atoms: C1_2  and  C2_3 
ROOT
ATOM      1  C2  UNL d   1      -0.877   1.109   0.117  0.00  0.00    -0.077 A 
ATOM      2  C3  UNL d   1      -0.783   1.640  -1.177  0.00  0.00     0.002 A 
ATOM      3  C4  UNL d   1       0.057   1.051  -2.124  0.00  0.00     0.002 A 
ATOM      4  C5  UNL d   1       0.806  -0.075  -1.788  0.00  0.00    -0.004 A 
ATOM      5  C6  UNL d   1       0.722  -0.609  -0.503  0.00  0.00     0.002 A 
ATOM      6  C7  UNL d   1      -0.117  -0.021   0.445  0.00  0.00     0.002 A 
ENDROOT
BRANCH   1   7
ATOM      7  C1  UNL d   1      -1.819   1.714   1.124  0.00  0.00     0.055 C 
ATOM      8  C   UNL d   1      -1.080   2.613   2.104  0.00  0.00     0.019 C 
ENDBRANCH   1   7
TORSDOF 1
ENDMDL
