MODEL 1
REMARK minimizedAffinity -3.21094728
REMARK minimizedRMSD -1
REMARK  1 active torsions:
REMARK  status: ('A' for Active; 'I' for Inactive)
REMARK    1  A    between atoms: C1_2  and  C2_3 
ROOT
ATOM      1  C2  UNL d   1      -0.130   0.074  -0.402  0.00  0.00    -0.077 A 
ATOM      2  C3  UNL d   1      -1.181   0.493   0.427  0.00  0.00     0.002 A 
ATOM      3  C4  UNL d   1      -1.800   1.726   0.214  0.00  0.00     0.002 A 
ATOM      4  C5  UNL d   1      -1.379   2.548  -0.829  0.00  0.00    -0.004 A 
ATOM      5  C6  UNL d   1      -0.334   2.142  -1.658  0.00  0.00     0.002 A 
ATOM      6  C7  UNL d   1       0.287   0.910  -1.446  0.00  0.00     0.002 A 
ENDROOT
BRANCH   1   7
ATOM      7  C1  UNL d   1       0.506  -1.277  -0.205  0.00  0.00     0.055 C 
ATOM      8  C   UNL d   1      -0.240  -2.358  -0.973  0.00  0.00     0.019 C 
ENDBRANCH   1   7
TORSDOF 1
ENDMDL
