MODEL 1
REMARK minimizedAffinity -5.82609606
REMARK minimizedRMSD -1
REMARK  1 active torsions:
REMARK  status: ('A' for Active; 'I' for Inactive)
REMARK    1  A    between atoms: C1_2  and  C2_3 
ROOT
ATOM      1  C2  UNL d   1       0.929   0.024   1.764  0.00  0.00    -0.077 A 
ATOM      2  C3  UNL d   1       0.015   1.006   2.168  0.00  0.00     0.002 A 
ATOM      3  C4  UNL d   1      -0.835   1.606   1.237  0.00  0.00     0.002 A 
ATOM      4  C5  UNL d   1      -0.783   1.227  -0.102  0.00  0.00    -0.004 A 
ATOM      5  C6  UNL d   1       0.124   0.252  -0.515  0.00  0.00     0.002 A 
ATOM      6  C7  UNL d   1       0.976  -0.348   0.414  0.00  0.00     0.002 A 
ENDROOT
BRANCH   1   7
ATOM      7  C1  UNL d   1       1.813  -0.659   2.774  0.00  0.00     0.055 C 
ATOM      8  C   UNL d   1       3.183  -0.971   2.190  0.00  0.00     0.019 C 
ENDBRANCH   1   7
TORSDOF 1
ENDMDL
