MODEL 1
REMARK minimizedAffinity -2.43438911
REMARK minimizedRMSD -1
REMARK  1 active torsions:
REMARK  status: ('A' for Active; 'I' for Inactive)
REMARK    1  A    between atoms: C1_2  and  C2_3 
ROOT
ATOM      1  C2  UNL d   1       0.369   0.139   0.007  0.00  0.00    -0.077 A 
ATOM      2  C3  UNL d   1       0.681   0.713  -1.233  0.00  0.00     0.002 A 
ATOM      3  C4  UNL d   1      -0.179   1.646  -1.816  0.00  0.00     0.002 A 
ATOM      4  C5  UNL d   1      -1.354   2.014  -1.165  0.00  0.00    -0.004 A 
ATOM      5  C6  UNL d   1      -1.675   1.447   0.067  0.00  0.00     0.002 A 
ATOM      6  C7  UNL d   1      -0.817   0.514   0.651  0.00  0.00     0.002 A 
ENDROOT
BRANCH   1   7
ATOM      7  C1  UNL d   1       1.319  -0.830   0.661  0.00  0.00     0.055 C 
ATOM      8  C   UNL d   1       2.019  -0.198   1.855  0.00  0.00     0.019 C 
ENDBRANCH   1   7
TORSDOF 1
ENDMDL
