MODEL 1
REMARK minimizedAffinity -2.37322569
REMARK minimizedRMSD -1
REMARK  1 active torsions:
REMARK  status: ('A' for Active; 'I' for Inactive)
REMARK    1  A    between atoms: C1_2  and  C2_3 
ROOT
ATOM      1  C2  UNL d   1      -0.223   1.077   1.089  0.00  0.00    -0.077 A 
ATOM      2  C3  UNL d   1       0.048  -0.240   1.489  0.00  0.00     0.002 A 
ATOM      3  C4  UNL d   1       0.140  -1.261   0.541  0.00  0.00     0.002 A 
ATOM      4  C5  UNL d   1      -0.034  -0.975  -0.812  0.00  0.00    -0.004 A 
ATOM      5  C6  UNL d   1      -0.306   0.330  -1.219  0.00  0.00     0.002 A 
ATOM      6  C7  UNL d   1      -0.399   1.352  -0.273  0.00  0.00     0.002 A 
ENDROOT
BRANCH   1   7
ATOM      7  C1  UNL d   1      -0.273   2.188   2.105  0.00  0.00     0.055 C 
ATOM      8  C   UNL d   1      -1.109   3.357   1.606  0.00  0.00     0.019 C 
ENDBRANCH   1   7
TORSDOF 1
ENDMDL
