MODEL 1
REMARK minimizedAffinity 12.7895679
REMARK minimizedRMSD -1
REMARK  1 active torsions:
REMARK  status: ('A' for Active; 'I' for Inactive)
REMARK    1  A    between atoms: C1_2  and  C2_3 
ROOT
ATOM      1  C2  UNL d   1       2.614  -3.005  -1.046  0.00  0.00    -0.076 A 
ATOM      2  C3  UNL d   1       2.815  -1.723  -0.507  0.00  0.00     0.004 A 
ATOM      3  C4  UNL d   1       2.277  -0.593  -1.121  0.00  0.00    -0.003 A 
ATOM      4  C5  UNL d   1       1.528  -0.728  -2.285  0.00  0.00     0.000 A 
ATOM      5  C6  UNL d   1       1.304  -1.994  -2.825  0.00  0.00     0.000 A 
ATOM      6  C7  UNL d   1       1.826  -3.145  -2.209  0.00  0.00    -0.073 A 
ATOM      7  C8  UNL d   1       1.558  -4.485  -2.837  0.00  0.00     0.078 C 
ENDROOT
BRANCH   1   8
ATOM      8  C1  UNL d   1       3.245  -4.191  -0.351  0.00  0.00     0.053 C 
ATOM      9  C   UNL d   1       4.765  -4.153  -0.399  0.00  0.00     0.018 C 
ENDBRANCH   1   8
TORSDOF 1
ENDMDL
