MODEL 1
REMARK minimizedAffinity 18.4415131
REMARK minimizedRMSD -1
REMARK  1 active torsions:
REMARK  status: ('A' for Active; 'I' for Inactive)
REMARK    1  A    between atoms: C1_2  and  C2_3 
ROOT
ATOM      1  C2  UNL d   1      -3.880  -0.765   2.823  0.00  0.00    -0.076 A 
ATOM      2  C3  UNL d   1      -3.512   0.438   2.195  0.00  0.00     0.004 A 
ATOM      3  C4  UNL d   1      -2.978   1.496   2.930  0.00  0.00    -0.003 A 
ATOM      4  C5  UNL d   1      -2.803   1.368   4.303  0.00  0.00     0.000 A 
ATOM      5  C6  UNL d   1      -3.147   0.175   4.939  0.00  0.00     0.000 A 
ATOM      6  C7  UNL d   1      -3.671  -0.907   4.211  0.00  0.00    -0.073 A 
ATOM      7  C8  UNL d   1      -4.030  -2.167   4.949  0.00  0.00     0.078 C 
ENDROOT
BRANCH   1   8
ATOM      8  C1  UNL d   1      -4.480  -1.867   1.979  0.00  0.00     0.053 C 
ATOM      9  C   UNL d   1      -6.000  -1.830   1.966  0.00  0.00     0.018 C 
ENDBRANCH   1   8
TORSDOF 1
ENDMDL
