MODEL 1
REMARK minimizedAffinity -1.91311097
REMARK minimizedRMSD -1
REMARK  1 active torsions:
REMARK  status: ('A' for Active; 'I' for Inactive)
REMARK    1  A    between atoms: C1_2  and  C2_3 
ROOT
ATOM      1  C2  UNL d   1      -5.693  -4.805   1.899  0.00  0.00    -0.076 A 
ATOM      2  C3  UNL d   1      -5.412  -6.000   2.583  0.00  0.00     0.004 A 
ATOM      3  C4  UNL d   1      -5.107  -5.993   3.944  0.00  0.00    -0.003 A 
ATOM      4  C5  UNL d   1      -5.079  -4.791   4.642  0.00  0.00     0.000 A 
ATOM      5  C6  UNL d   1      -5.372  -3.598   3.983  0.00  0.00     0.000 A 
ATOM      6  C7  UNL d   1      -5.697  -3.589   2.615  0.00  0.00    -0.073 A 
ATOM      7  C8  UNL d   1      -5.999  -2.272   1.954  0.00  0.00     0.078 C 
ENDROOT
BRANCH   1   8
ATOM      8  C1  UNL d   1      -5.990  -4.871   0.418  0.00  0.00     0.053 C 
ATOM      9  C   UNL d   1      -5.188  -5.952  -0.290  0.00  0.00     0.018 C 
ENDBRANCH   1   8
TORSDOF 1
ENDMDL
