MODEL 1
REMARK minimizedAffinity 14.3415079
REMARK minimizedRMSD -1
REMARK  1 active torsions:
REMARK  status: ('A' for Active; 'I' for Inactive)
REMARK    1  A    between atoms: C1_2  and  C2_3 
ROOT
ATOM      1  C2  UNL d   1       2.502  -1.876  -0.895  0.00  0.00    -0.076 A 
ATOM      2  C3  UNL d   1       2.959  -0.587  -0.569  0.00  0.00     0.004 A 
ATOM      3  C4  UNL d   1       2.557   0.525  -1.307  0.00  0.00    -0.003 A 
ATOM      4  C5  UNL d   1       1.691   0.366  -2.383  0.00  0.00     0.000 A 
ATOM      5  C6  UNL d   1       1.213  -0.902  -2.710  0.00  0.00     0.000 A 
ATOM      6  C7  UNL d   1       1.596  -2.032  -1.966  0.00  0.00    -0.073 A 
ATOM      7  C8  UNL d   1       1.055  -3.377  -2.367  0.00  0.00     0.078 C 
ENDROOT
BRANCH   1   8
ATOM      8  C1  UNL d   1       2.993  -3.047  -0.076  0.00  0.00     0.053 C 
ATOM      9  C   UNL d   1       4.235  -3.694  -0.670  0.00  0.00     0.018 C 
ENDBRANCH   1   8
TORSDOF 1
ENDMDL
