MODEL 1
REMARK minimizedAffinity 2.13067746
REMARK minimizedRMSD -1
REMARK  1 active torsions:
REMARK  status: ('A' for Active; 'I' for Inactive)
REMARK    1  A    between atoms: C1_2  and  C2_3 
ROOT
ATOM      1  C2  UNL d   1       3.312  -3.428  -1.236  0.00  0.00    -0.076 A 
ATOM      2  C3  UNL d   1       2.609  -2.891  -2.329  0.00  0.00     0.004 A 
ATOM      3  C4  UNL d   1       2.824  -3.364  -3.622  0.00  0.00    -0.003 A 
ATOM      4  C5  UNL d   1       3.744  -4.382  -3.844  0.00  0.00     0.000 A 
ATOM      5  C6  UNL d   1       4.437  -4.939  -2.769  0.00  0.00     0.000 A 
ATOM      6  C7  UNL d   1       4.220  -4.485  -1.457  0.00  0.00    -0.073 A 
ATOM      7  C8  UNL d   1       5.000  -5.117  -0.336  0.00  0.00     0.078 C 
ENDROOT
BRANCH   1   8
ATOM      8  C1  UNL d   1       3.057  -2.856   0.140  0.00  0.00     0.053 C 
ATOM      9  C   UNL d   1       4.107  -1.836   0.551  0.00  0.00     0.018 C 
ENDBRANCH   1   8
TORSDOF 1
ENDMDL
