MODEL 1
REMARK minimizedAffinity 0.941094935
REMARK minimizedRMSD -1
REMARK  1 active torsions:
REMARK  status: ('A' for Active; 'I' for Inactive)
REMARK    1  A    between atoms: C1_2  and  C2_3 
ROOT
ATOM      1  C2  UNL d   1       3.150  -3.348  -1.416  0.00  0.00    -0.076 A 
ATOM      2  C3  UNL d   1       2.413  -2.954  -2.547  0.00  0.00     0.004 A 
ATOM      3  C4  UNL d   1       2.475  -3.684  -3.733  0.00  0.00    -0.003 A 
ATOM      4  C5  UNL d   1       3.274  -4.819  -3.808  0.00  0.00     0.000 A 
ATOM      5  C6  UNL d   1       3.998  -5.235  -2.691  0.00  0.00     0.000 A 
ATOM      6  C7  UNL d   1       3.934  -4.520  -1.482  0.00  0.00    -0.073 A 
ATOM      7  C8  UNL d   1       4.740  -5.010  -0.311  0.00  0.00     0.078 C 
ENDROOT
BRANCH   1   8
ATOM      8  C1  UNL d   1       3.065  -2.503  -0.166  0.00  0.00     0.053 C 
ATOM      9  C   UNL d   1       3.166  -1.014  -0.461  0.00  0.00     0.018 C 
ENDBRANCH   1   8
TORSDOF 1
ENDMDL
