MODEL 1
REMARK minimizedAffinity 19.5719147
REMARK minimizedRMSD -1
REMARK  1 active torsions:
REMARK  status: ('A' for Active; 'I' for Inactive)
REMARK    1  A    between atoms: C1_2  and  C2_3 
ROOT
ATOM      1  C2  UNL d   1      -0.930   2.040   3.844  0.00  0.00    -0.076 A 
ATOM      2  C3  UNL d   1       0.246   1.606   3.208  0.00  0.00     0.004 A 
ATOM      3  C4  UNL d   1       1.423   1.412   3.929  0.00  0.00    -0.003 A 
ATOM      4  C5  UNL d   1       1.443   1.649   5.299  0.00  0.00     0.000 A 
ATOM      5  C6  UNL d   1       0.281   2.062   5.950  0.00  0.00     0.000 A 
ATOM      6  C7  UNL d   1      -0.918   2.247   5.240  0.00  0.00    -0.073 A 
ATOM      7  C8  UNL d   1      -2.140   2.700   5.992  0.00  0.00     0.078 C 
ENDROOT
BRANCH   1   8
ATOM      8  C1  UNL d   1      -2.169   2.258   3.006  0.00  0.00     0.053 C 
ATOM      9  C   UNL d   1      -2.883   0.958   2.671  0.00  0.00     0.018 C 
ENDBRANCH   1   8
TORSDOF 1
ENDMDL
