MODEL 1
REMARK minimizedAffinity 7.08250856
REMARK minimizedRMSD -1
REMARK  1 active torsions:
REMARK  status: ('A' for Active; 'I' for Inactive)
REMARK    1  A    between atoms: C1_2  and  C2_3 
ROOT
ATOM      1  C2  UNL d   1       4.227  -4.667  -2.604  0.00  0.00    -0.076 A 
ATOM      2  C3  UNL d   1       2.904  -4.415  -2.201  0.00  0.00     0.004 A 
ATOM      3  C4  UNL d   1       1.975  -3.872  -3.087  0.00  0.00    -0.003 A 
ATOM      4  C5  UNL d   1       2.353  -3.573  -4.391  0.00  0.00     0.000 A 
ATOM      5  C6  UNL d   1       3.656  -3.833  -4.813  0.00  0.00     0.000 A 
ATOM      6  C7  UNL d   1       4.601  -4.395  -3.938  0.00  0.00    -0.073 A 
ATOM      7  C8  UNL d   1       5.994  -4.649  -4.445  0.00  0.00     0.078 C 
ENDROOT
BRANCH   1   8
ATOM      8  C1  UNL d   1       5.198  -5.231  -1.592  0.00  0.00     0.053 C 
ATOM      9  C   UNL d   1       4.903  -4.760  -0.176  0.00  0.00     0.018 C 
ENDBRANCH   1   8
TORSDOF 1
ENDMDL
