MODEL 1
REMARK minimizedAffinity -3.84446287
REMARK minimizedRMSD -1
REMARK  1 active torsions:
REMARK  status: ('A' for Active; 'I' for Inactive)
REMARK    1  A    between atoms: C1_2  and  C2_3 
ROOT
ATOM      1  C2  UNL d   1       3.079  -4.062  -3.778  0.00  0.00    -0.076 A 
ATOM      2  C3  UNL d   1       3.033  -3.541  -5.083  0.00  0.00     0.004 A 
ATOM      3  C4  UNL d   1       4.047  -3.810  -6.000  0.00  0.00    -0.003 A 
ATOM      4  C5  UNL d   1       5.125  -4.606  -5.627  0.00  0.00     0.000 A 
ATOM      5  C6  UNL d   1       5.178  -5.146  -4.343  0.00  0.00     0.000 A 
ATOM      6  C7  UNL d   1       4.156  -4.897  -3.411  0.00  0.00    -0.073 A 
ATOM      7  C8  UNL d   1       4.268  -5.500  -2.038  0.00  0.00     0.078 C 
ENDROOT
BRANCH   1   8
ATOM      8  C1  UNL d   1       1.964  -3.713  -2.819  0.00  0.00     0.053 C 
ATOM      9  C   UNL d   1       2.174  -2.365  -2.146  0.00  0.00     0.018 C 
ENDBRANCH   1   8
TORSDOF 1
ENDMDL
