MODEL 1
REMARK minimizedAffinity 10.0559864
REMARK minimizedRMSD -1
REMARK  1 active torsions:
REMARK  status: ('A' for Active; 'I' for Inactive)
REMARK    1  A    between atoms: C1_2  and  C2_3 
ROOT
ATOM      1  C2  UNL d   1      -0.861   1.630   3.851  0.00  0.00    -0.076 A 
ATOM      2  C3  UNL d   1       0.389   1.486   3.223  0.00  0.00     0.004 A 
ATOM      3  C4  UNL d   1       1.553   1.321   3.972  0.00  0.00    -0.003 A 
ATOM      4  C5  UNL d   1       1.486   1.296   5.361  0.00  0.00     0.000 A 
ATOM      5  C6  UNL d   1       0.252   1.420   5.999  0.00  0.00     0.000 A 
ATOM      6  C7  UNL d   1      -0.932   1.571   5.259  0.00  0.00    -0.073 A 
ATOM      7  C8  UNL d   1      -2.235   1.706   5.999  0.00  0.00     0.078 C 
ENDROOT
BRANCH   1   8
ATOM      8  C1  UNL d   1      -2.085   1.834   2.987  0.00  0.00     0.053 C 
ATOM      9  C   UNL d   1      -2.263   0.728   1.959  0.00  0.00     0.018 C 
ENDBRANCH   1   8
TORSDOF 1
ENDMDL
