MODEL 1
REMARK minimizedAffinity 7.68955994
REMARK minimizedRMSD -1
REMARK  1 active torsions:
REMARK  status: ('A' for Active; 'I' for Inactive)
REMARK    1  A    between atoms: C1_2  and  C2_3 
ROOT
ATOM      1  C2  UNL d   1       1.852   2.978   1.193  0.00  0.00    -0.076 A 
ATOM      2  C3  UNL d   1       1.328   4.263   1.419  0.00  0.00     0.004 A 
ATOM      3  C4  UNL d   1       0.975   5.091   0.354  0.00  0.00    -0.003 A 
ATOM      4  C5  UNL d   1       1.140   4.647  -0.953  0.00  0.00     0.000 A 
ATOM      5  C6  UNL d   1       1.642   3.369  -1.195  0.00  0.00     0.000 A 
ATOM      6  C7  UNL d   1       1.987   2.515  -0.133  0.00  0.00    -0.073 A 
ATOM      7  C8  UNL d   1       2.530   1.149  -0.453  0.00  0.00     0.078 C 
ENDROOT
BRANCH   1   8
ATOM      8  C1  UNL d   1       2.243   2.135   2.386  0.00  0.00     0.053 C 
ATOM      9  C   UNL d   1       1.160   2.099   3.454  0.00  0.00     0.018 C 
ENDBRANCH   1   8
TORSDOF 1
ENDMDL
