MODEL 1
REMARK minimizedAffinity 3.05318904
REMARK minimizedRMSD -1
REMARK  1 active torsions:
REMARK  status: ('A' for Active; 'I' for Inactive)
REMARK    1  A    between atoms: C1_2  and  C2_3 
ROOT
ATOM      1  C2  UNL d   1       3.860  -4.566  -1.388  0.00  0.00    -0.076 A 
ATOM      2  C3  UNL d   1       4.257  -4.993  -2.667  0.00  0.00     0.004 A 
ATOM      3  C4  UNL d   1       3.527  -4.638  -3.800  0.00  0.00    -0.003 A 
ATOM      4  C5  UNL d   1       2.389  -3.849  -3.673  0.00  0.00     0.000 A 
ATOM      5  C6  UNL d   1       1.991  -3.402  -2.414  0.00  0.00     0.000 A 
ATOM      6  C7  UNL d   1       2.724  -3.738  -1.263  0.00  0.00    -0.073 A 
ATOM      7  C8  UNL d   1       2.245  -3.233   0.071  0.00  0.00     0.078 C 
ENDROOT
BRANCH   1   8
ATOM      8  C1  UNL d   1       4.675  -5.005  -0.192  0.00  0.00     0.053 C 
ATOM      9  C   UNL d   1       6.000  -4.266  -0.087  0.00  0.00     0.018 C 
ENDBRANCH   1   8
TORSDOF 1
ENDMDL
