MODEL 1
REMARK minimizedAffinity -2.95524311
REMARK minimizedRMSD -1
REMARK  0 active torsions:
REMARK  status: ('A' for Active; 'I' for Inactive)
ROOT
ATOM      1  C   UNL d   1       0.510  -0.230  -1.233  0.00  0.00     0.172 C 
ATOM      2  N   UNL d   1      -0.071   0.135   0.037  0.00  0.00    -0.070 N 
ATOM      3  C1  UNL d   1       0.622   0.370   1.194  0.00  0.00    -0.004 A 
ATOM      4  C2  UNL d   1      -0.291   0.690   2.176  0.00  0.00    -0.047 A 
ATOM      5  C3  UNL d   1      -1.578   0.644   1.588  0.00  0.00    -0.047 A 
ATOM      6  C4  UNL d   1      -1.412   0.298   0.264  0.00  0.00    -0.004 A 
ENDROOT
TORSDOF 0
ENDMDL
