MODEL 1
REMARK minimizedAffinity -2.941221
REMARK minimizedRMSD -1
REMARK  0 active torsions:
REMARK  status: ('A' for Active; 'I' for Inactive)
ROOT
ATOM      1  C   UNL d   1       0.501  -0.432  -0.818  0.00  0.00     0.172 C 
ATOM      2  N   UNL d   1      -0.322   0.095   0.244  0.00  0.00    -0.070 N 
ATOM      3  C1  UNL d   1      -1.687   0.007   0.316  0.00  0.00    -0.004 A 
ATOM      4  C2  UNL d   1      -2.089   0.630   1.478  0.00  0.00    -0.047 A 
ATOM      5  C3  UNL d   1      -0.927   1.109   2.126  0.00  0.00    -0.047 A 
ATOM      6  C4  UNL d   1       0.153   0.765   1.341  0.00  0.00    -0.004 A 
ENDROOT
TORSDOF 0
ENDMDL
