MODEL 1
REMARK minimizedAffinity -1.67750478
REMARK minimizedRMSD -1
REMARK  0 active torsions:
REMARK  status: ('A' for Active; 'I' for Inactive)
ROOT
ATOM      1  C   UNL d   1       0.595  -0.773  -1.419  0.00  0.00     0.172 C 
ATOM      2  N   UNL d   1      -0.186  -0.161  -0.370  0.00  0.00    -0.070 N 
ATOM      3  C1  UNL d   1      -1.552  -0.180  -0.276  0.00  0.00    -0.004 A 
ATOM      4  C2  UNL d   1      -1.907   0.512   0.862  0.00  0.00    -0.047 A 
ATOM      5  C3  UNL d   1      -0.713   0.964   1.473  0.00  0.00    -0.047 A 
ATOM      6  C4  UNL d   1       0.337   0.533   0.689  0.00  0.00    -0.004 A 
ENDROOT
TORSDOF 0
ENDMDL
