MODEL 1
REMARK minimizedAffinity -2.80780745
REMARK minimizedRMSD -1
REMARK  0 active torsions:
REMARK  status: ('A' for Active; 'I' for Inactive)
ROOT
ATOM      1  C   UNL d   1      -0.291   0.639   2.777  0.00  0.00     0.172 C 
ATOM      2  N   UNL d   1      -0.306   0.156   1.416  0.00  0.00    -0.070 N 
ATOM      3  C1  UNL d   1       0.791  -0.238   0.697  0.00  0.00    -0.004 A 
ATOM      4  C2  UNL d   1       0.358  -0.629  -0.552  0.00  0.00    -0.047 A 
ATOM      5  C3  UNL d   1      -1.047  -0.463  -0.584  0.00  0.00    -0.047 A 
ATOM      6  C4  UNL d   1      -1.431   0.025   0.647  0.00  0.00    -0.004 A 
ENDROOT
TORSDOF 0
ENDMDL
