MODEL 1
REMARK minimizedAffinity -3.98168826
REMARK minimizedRMSD -1
REMARK  0 active torsions:
REMARK  status: ('A' for Active; 'I' for Inactive)
ROOT
ATOM      1  C   UNL d   1      -1.775   0.016   0.846  0.00  0.00     0.172 C 
ATOM      2  N   UNL d   1      -0.646   0.364   1.676  0.00  0.00    -0.070 N 
ATOM      3  C1  UNL d   1       0.671   0.256   1.319  0.00  0.00    -0.004 A 
ATOM      4  C2  UNL d   1       1.434   0.686   2.383  0.00  0.00    -0.047 A 
ATOM      5  C3  UNL d   1       0.544   1.065   3.416  0.00  0.00    -0.047 A 
ATOM      6  C4  UNL d   1      -0.737   0.855   2.952  0.00  0.00    -0.004 A 
ENDROOT
TORSDOF 0
ENDMDL
