MODEL 1
REMARK minimizedAffinity -3.82935667
REMARK minimizedRMSD -1
REMARK  0 active torsions:
REMARK  status: ('A' for Active; 'I' for Inactive)
ROOT
ATOM      1  C   UNL d   1       0.432  -0.470  -0.965  0.00  0.00     0.172 C 
ATOM      2  N   UNL d   1      -0.082   0.215   0.198  0.00  0.00    -0.070 N 
ATOM      3  C1  UNL d   1      -1.404   0.342   0.530  0.00  0.00    -0.004 A 
ATOM      4  C2  UNL d   1      -1.478   1.059   1.704  0.00  0.00    -0.047 A 
ATOM      5  C3  UNL d   1      -0.154   1.376   2.091  0.00  0.00    -0.047 A 
ATOM      6  C4  UNL d   1       0.690   0.841   1.140  0.00  0.00    -0.004 A 
ENDROOT
TORSDOF 0
ENDMDL
