MODEL 1
REMARK minimizedAffinity -2.25639677
REMARK minimizedRMSD -1
REMARK  2 active torsions:
REMARK  status: ('A' for Active; 'I' for Inactive)
REMARK    1  A    between atoms: C1_2  and  C2_3 
REMARK    2  A    between atoms: C2_3  and  C3_4 
ROOT
ATOM      1  C3  UNL d   1       2.078  -3.281   0.082  0.00  0.00    -0.075 A 
ATOM      2  C4  UNL d   1       2.889  -2.137   0.051  0.00  0.00     0.002 A 
ATOM      3  C5  UNL d   1       2.339  -0.874   0.267  0.00  0.00     0.002 A 
ATOM      4  C6  UNL d   1       0.974  -0.736   0.506  0.00  0.00    -0.004 A 
ATOM      5  C7  UNL d   1       0.156  -1.864   0.523  0.00  0.00     0.002 A 
ATOM      6  C8  UNL d   1       0.704  -3.130   0.312  0.00  0.00     0.002 A 
ENDROOT
BRANCH   1   7
ATOM      7  C2  UNL d   1       2.672  -4.655  -0.122  0.00  0.00     0.056 C 
BRANCH   7   8
ATOM      8  C1  UNL d   1       4.195  -4.657  -0.290  0.00  0.00     0.007 C 
ATOM      9  C   UNL d   1       4.847  -5.955   0.167  0.00  0.00     0.009 C 
ENDBRANCH   7   8
ENDBRANCH   1   7
TORSDOF 2
ENDMDL
