MODEL 1
REMARK minimizedAffinity 4.55413866
REMARK minimizedRMSD -1
REMARK  2 active torsions:
REMARK  status: ('A' for Active; 'I' for Inactive)
REMARK    1  A    between atoms: C1_2  and  C2_3 
REMARK    2  A    between atoms: C2_3  and  C3_4 
ROOT
ATOM      1  C3  UNL d   1       3.258  -3.846  -0.378  0.00  0.00    -0.075 A 
ATOM      2  C4  UNL d   1       3.763  -2.583  -0.034  0.00  0.00     0.002 A 
ATOM      3  C5  UNL d   1       2.896  -1.531   0.263  0.00  0.00     0.002 A 
ATOM      4  C6  UNL d   1       1.517  -1.724   0.209  0.00  0.00    -0.004 A 
ATOM      5  C7  UNL d   1       1.005  -2.970  -0.148  0.00  0.00     0.002 A 
ATOM      6  C8  UNL d   1       1.870  -4.026  -0.440  0.00  0.00     0.002 A 
ENDROOT
BRANCH   1   7
ATOM      7  C2  UNL d   1       4.191  -4.997  -0.670  0.00  0.00     0.056 C 
BRANCH   7   8
ATOM      8  C1  UNL d   1       4.330  -5.996   0.483  0.00  0.00     0.007 C 
ATOM      9  C   UNL d   1       5.717  -5.999   1.111  0.00  0.00     0.009 C 
ENDBRANCH   7   8
ENDBRANCH   1   7
TORSDOF 2
ENDMDL
