MODEL 1
REMARK minimizedAffinity 3.80584049
REMARK minimizedRMSD -1
REMARK  2 active torsions:
REMARK  status: ('A' for Active; 'I' for Inactive)
REMARK    1  A    between atoms: C1_2  and  C2_3 
REMARK    2  A    between atoms: C2_3  and  C3_4 
ROOT
ATOM      1  C3  UNL d   1       1.130  -0.827   1.629  0.00  0.00    -0.075 A 
ATOM      2  C4  UNL d   1      -0.033  -0.137   2.001  0.00  0.00     0.002 A 
ATOM      3  C5  UNL d   1      -1.136  -0.096   1.147  0.00  0.00     0.002 A 
ATOM      4  C6  UNL d   1      -1.087  -0.734  -0.090  0.00  0.00    -0.004 A 
ATOM      5  C7  UNL d   1       0.069  -1.408  -0.477  0.00  0.00     0.002 A 
ATOM      6  C8  UNL d   1       1.173  -1.455   0.377  0.00  0.00     0.002 A 
ENDROOT
BRANCH   1   7
ATOM      7  C2  UNL d   1       2.316  -0.900   2.561  0.00  0.00     0.056 C 
BRANCH   7   8
ATOM      8  C1  UNL d   1       3.624  -0.391   1.946  0.00  0.00     0.007 C 
ATOM      9  C   UNL d   1       4.699  -1.465   1.848  0.00  0.00     0.009 C 
ENDBRANCH   7   8
ENDBRANCH   1   7
TORSDOF 2
ENDMDL
