MODEL 1
REMARK minimizedAffinity -0.826758385
REMARK minimizedRMSD -1
REMARK  2 active torsions:
REMARK  status: ('A' for Active; 'I' for Inactive)
REMARK    1  A    between atoms: C1_2  and  C2_3 
REMARK    2  A    between atoms: C2_3  and  C3_4 
ROOT
ATOM      1  C3  UNL d   1       5.084   5.238  -0.845  0.00  0.00    -0.075 A 
ATOM      2  C4  UNL d   1       5.549   5.270   0.477  0.00  0.00     0.002 A 
ATOM      3  C5  UNL d   1       4.699   5.645   1.518  0.00  0.00     0.002 A 
ATOM      4  C6  UNL d   1       3.379   6.000   1.250  0.00  0.00    -0.004 A 
ATOM      5  C7  UNL d   1       2.911   5.987  -0.062  0.00  0.00     0.002 A 
ATOM      6  C8  UNL d   1       3.758   5.609  -1.105  0.00  0.00     0.002 A 
ENDROOT
BRANCH   1   7
ATOM      7  C2  UNL d   1       5.991   4.805  -1.973  0.00  0.00     0.056 C 
BRANCH   7   8
ATOM      8  C1  UNL d   1       6.000   3.293  -2.221  0.00  0.00     0.007 C 
ATOM      9  C   UNL d   1       4.605   2.701  -2.372  0.00  0.00     0.009 C 
ENDBRANCH   7   8
ENDBRANCH   1   7
TORSDOF 2
ENDMDL
