MODEL 1
REMARK minimizedAffinity -2.09248948
REMARK minimizedRMSD -1
REMARK  2 active torsions:
REMARK  status: ('A' for Active; 'I' for Inactive)
REMARK    1  A    between atoms: C1_2  and  C2_3 
REMARK    2  A    between atoms: C2_3  and  C3_4 
ROOT
ATOM      1  C3  UNL d   1       4.524   5.033  -0.484  0.00  0.00    -0.075 A 
ATOM      2  C4  UNL d   1       5.775   5.540  -0.102  0.00  0.00     0.002 A 
ATOM      3  C5  UNL d   1       5.986   5.999   1.198  0.00  0.00     0.002 A 
ATOM      4  C6  UNL d   1       4.950   5.967   2.129  0.00  0.00    -0.004 A 
ATOM      5  C7  UNL d   1       3.699   5.481   1.756  0.00  0.00     0.002 A 
ATOM      6  C8  UNL d   1       3.485   5.017   0.457  0.00  0.00     0.002 A 
ENDROOT
BRANCH   1   7
ATOM      7  C2  UNL d   1       4.297   4.507  -1.881  0.00  0.00     0.056 C 
BRANCH   7   8
ATOM      8  C1  UNL d   1       4.529   3.000  -2.025  0.00  0.00     0.007 C 
ATOM      9  C   UNL d   1       3.740   2.378  -3.170  0.00  0.00     0.009 C 
ENDBRANCH   7   8
ENDBRANCH   1   7
TORSDOF 2
ENDMDL
