MODEL 1
REMARK minimizedAffinity -1.05301332
REMARK minimizedRMSD -1
REMARK  2 active torsions:
REMARK  status: ('A' for Active; 'I' for Inactive)
REMARK    1  A    between atoms: C1_2  and  C2_3 
REMARK    2  A    between atoms: C2_3  and  C3_4 
ROOT
ATOM      1  C3  UNL d   1       4.806   3.938  -0.499  0.00  0.00    -0.075 A 
ATOM      2  C4  UNL d   1       5.587   5.097  -0.390  0.00  0.00     0.002 A 
ATOM      3  C5  UNL d   1       5.382   5.994   0.658  0.00  0.00     0.002 A 
ATOM      4  C6  UNL d   1       4.389   5.750   1.604  0.00  0.00    -0.004 A 
ATOM      5  C7  UNL d   1       3.595   4.609   1.496  0.00  0.00     0.002 A 
ATOM      6  C8  UNL d   1       3.801   3.708   0.450  0.00  0.00     0.002 A 
ENDROOT
BRANCH   1   7
ATOM      7  C2  UNL d   1       5.042   2.949  -1.615  0.00  0.00     0.056 C 
BRANCH   7   8
ATOM      8  C1  UNL d   1       3.980   1.848  -1.709  0.00  0.00     0.007 C 
ATOM      9  C   UNL d   1       3.185   1.890  -3.007  0.00  0.00     0.009 C 
ENDBRANCH   7   8
ENDBRANCH   1   7
TORSDOF 2
ENDMDL
