MODEL 1
REMARK minimizedAffinity -0.252473742
REMARK minimizedRMSD -1
REMARK  2 active torsions:
REMARK  status: ('A' for Active; 'I' for Inactive)
REMARK    1  A    between atoms: C1_2  and  C2_3 
REMARK    2  A    between atoms: C2_3  and  C3_4 
ROOT
ATOM      1  C3  UNL d   1       4.814   4.159  -1.082  0.00  0.00    -0.075 A 
ATOM      2  C4  UNL d   1       3.970   4.092   0.036  0.00  0.00     0.002 A 
ATOM      3  C5  UNL d   1       4.133   4.978   1.101  0.00  0.00     0.002 A 
ATOM      4  C6  UNL d   1       5.145   5.935   1.066  0.00  0.00    -0.004 A 
ATOM      5  C7  UNL d   1       6.000   6.000  -0.032  0.00  0.00     0.002 A 
ATOM      6  C8  UNL d   1       5.837   5.117  -1.101  0.00  0.00     0.002 A 
ENDROOT
BRANCH   1   7
ATOM      7  C2  UNL d   1       4.625   3.222  -2.251  0.00  0.00     0.056 C 
BRANCH   7   8
ATOM      8  C1  UNL d   1       3.675   3.754  -3.330  0.00  0.00     0.007 C 
ATOM      9  C   UNL d   1       2.985   2.650  -4.119  0.00  0.00     0.009 C 
ENDBRANCH   7   8
ENDBRANCH   1   7
TORSDOF 2
ENDMDL
