MODEL 1
REMARK minimizedAffinity -4.0672307
REMARK minimizedRMSD -1
REMARK  2 active torsions:
REMARK  status: ('A' for Active; 'I' for Inactive)
REMARK    1  A    between atoms: C1_2  and  C2_3 
REMARK    2  A    between atoms: C2_3  and  C3_4 
ROOT
ATOM      1  C3  UNL d   1       1.426  -3.338   0.193  0.00  0.00    -0.075 A 
ATOM      2  C4  UNL d   1       2.273  -2.233   0.355  0.00  0.00     0.002 A 
ATOM      3  C5  UNL d   1       1.758  -0.997   0.747  0.00  0.00     0.002 A 
ATOM      4  C6  UNL d   1       0.391  -0.848   0.971  0.00  0.00    -0.004 A 
ATOM      5  C7  UNL d   1      -0.462  -1.935   0.797  0.00  0.00     0.002 A 
ATOM      6  C8  UNL d   1       0.051  -3.174   0.410  0.00  0.00     0.002 A 
ENDROOT
BRANCH   1   7
ATOM      7  C2  UNL d   1       1.981  -4.686  -0.202  0.00  0.00     0.056 C 
BRANCH   7   8
ATOM      8  C1  UNL d   1       3.510  -4.733  -0.275  0.00  0.00     0.007 C 
ATOM      9  C   UNL d   1       4.114  -5.881   0.523  0.00  0.00     0.009 C 
ENDBRANCH   7   8
ENDBRANCH   1   7
TORSDOF 2
ENDMDL
