MODEL 1
REMARK minimizedAffinity -1.39083672
REMARK minimizedRMSD -1
REMARK  2 active torsions:
REMARK  status: ('A' for Active; 'I' for Inactive)
REMARK    1  A    between atoms: C1_2  and  C2_3 
REMARK    2  A    between atoms: C2_3  and  C3_4 
ROOT
ATOM      1  C3  UNL d   1       4.501   3.980  -0.055  0.00  0.00    -0.075 A 
ATOM      2  C4  UNL d   1       3.384   3.994   0.794  0.00  0.00     0.002 A 
ATOM      3  C5  UNL d   1       3.231   5.001   1.747  0.00  0.00     0.002 A 
ATOM      4  C6  UNL d   1       4.195   5.999   1.871  0.00  0.00    -0.004 A 
ATOM      5  C7  UNL d   1       5.317   5.985   1.045  0.00  0.00     0.002 A 
ATOM      6  C8  UNL d   1       5.470   4.981   0.087  0.00  0.00     0.002 A 
ENDROOT
BRANCH   1   7
ATOM      7  C2  UNL d   1       4.657   2.909  -1.108  0.00  0.00     0.056 C 
BRANCH   7   8
ATOM      8  C1  UNL d   1       3.346   2.513  -1.795  0.00  0.00     0.007 C 
ATOM      9  C   UNL d   1       3.290   1.041  -2.178  0.00  0.00     0.009 C 
ENDBRANCH   7   8
ENDBRANCH   1   7
TORSDOF 2
ENDMDL
