MODEL 1
REMARK minimizedAffinity -0.612407684
REMARK minimizedRMSD -1
REMARK  2 active torsions:
REMARK  status: ('A' for Active; 'I' for Inactive)
REMARK    1  A    between atoms: C1_2  and  C2_3 
REMARK    2  A    between atoms: C2_3  and  C3_4 
ROOT
ATOM      1  C3  UNL d   1       1.271  -2.733   0.269  0.00  0.00    -0.075 A 
ATOM      2  C4  UNL d   1       1.974  -1.742   0.969  0.00  0.00     0.002 A 
ATOM      3  C5  UNL d   1       1.339  -0.562   1.357  0.00  0.00     0.002 A 
ATOM      4  C6  UNL d   1      -0.003  -0.354   1.043  0.00  0.00    -0.004 A 
ATOM      5  C7  UNL d   1      -0.707  -1.325   0.333  0.00  0.00     0.002 A 
ATOM      6  C8  UNL d   1      -0.075  -2.508  -0.053  0.00  0.00     0.002 A 
ENDROOT
BRANCH   1   7
ATOM      7  C2  UNL d   1       1.945  -4.024  -0.129  0.00  0.00     0.056 C 
BRANCH   7   8
ATOM      8  C1  UNL d   1       3.459  -4.035   0.106  0.00  0.00     0.007 C 
ATOM      9  C   UNL d   1       4.008  -5.421   0.420  0.00  0.00     0.009 C 
ENDBRANCH   7   8
ENDBRANCH   1   7
TORSDOF 2
ENDMDL
