MODEL 1
REMARK minimizedAffinity -6.03915358
REMARK minimizedRMSD -1
REMARK  2 active torsions:
REMARK  status: ('A' for Active; 'I' for Inactive)
REMARK    1  A    between atoms: C1_2  and  C2_3 
REMARK    2  A    between atoms: C2_3  and  C3_4 
ROOT
ATOM      1  C3  UNL d   1      -1.291  -0.702   1.317  0.00  0.00    -0.075 A 
ATOM      2  C4  UNL d   1      -1.906  -1.805   0.708  0.00  0.00     0.002 A 
ATOM      3  C5  UNL d   1      -1.137  -2.808   0.117  0.00  0.00     0.002 A 
ATOM      4  C6  UNL d   1       0.253  -2.716   0.119  0.00  0.00    -0.004 A 
ATOM      5  C7  UNL d   1       0.874  -1.617   0.707  0.00  0.00     0.002 A 
ATOM      6  C8  UNL d   1       0.107  -0.614   1.303  0.00  0.00     0.002 A 
ENDROOT
BRANCH   1   7
ATOM      7  C2  UNL d   1      -2.117   0.372   1.984  0.00  0.00     0.056 C 
BRANCH   7   8
ATOM      8  C1  UNL d   1      -2.532   1.512   1.048  0.00  0.00     0.007 C 
ATOM      9  C   UNL d   1      -3.805   1.214   0.267  0.00  0.00     0.009 C 
ENDBRANCH   7   8
ENDBRANCH   1   7
TORSDOF 2
ENDMDL
