MODEL 1
REMARK minimizedAffinity -1.43913412
REMARK minimizedRMSD -1
REMARK  2 active torsions:
REMARK  status: ('A' for Active; 'I' for Inactive)
REMARK    1  A    between atoms: C1_2  and  C2_3 
REMARK    2  A    between atoms: C2_3  and  C3_4 
ROOT
ATOM      1  C3  UNL d   1       2.315  -2.989  -0.056  0.00  0.00    -0.075 A 
ATOM      2  C4  UNL d   1       2.334  -1.590   0.036  0.00  0.00     0.002 A 
ATOM      3  C5  UNL d   1       1.197  -0.892   0.443  0.00  0.00     0.002 A 
ATOM      4  C6  UNL d   1       0.027  -1.581   0.753  0.00  0.00    -0.004 A 
ATOM      5  C7  UNL d   1      -0.008  -2.970   0.649  0.00  0.00     0.002 A 
ATOM      6  C8  UNL d   1       1.129  -3.671   0.246  0.00  0.00     0.002 A 
ENDROOT
BRANCH   1   7
ATOM      7  C2  UNL d   1       3.551  -3.753  -0.468  0.00  0.00     0.056 C 
BRANCH   7   8
ATOM      8  C1  UNL d   1       3.812  -5.013   0.363  0.00  0.00     0.007 C 
ATOM      9  C   UNL d   1       4.958  -5.861  -0.174  0.00  0.00     0.009 C 
ENDBRANCH   7   8
ENDBRANCH   1   7
TORSDOF 2
ENDMDL
