MODEL 1
REMARK minimizedAffinity 0.790273011
REMARK minimizedRMSD -1
REMARK  2 active torsions:
REMARK  status: ('A' for Active; 'I' for Inactive)
REMARK    1  A    between atoms: C1_2  and  C2_3 
REMARK    2  A    between atoms: C2_3  and  C3_4 
ROOT
ATOM      1  C3  UNL d   1       1.963  -3.068   0.067  0.00  0.00    -0.075 A 
ATOM      2  C4  UNL d   1       2.761  -1.920   0.176  0.00  0.00     0.002 A 
ATOM      3  C5  UNL d   1       2.190  -0.689   0.500  0.00  0.00     0.002 A 
ATOM      4  C6  UNL d   1       0.816  -0.588   0.708  0.00  0.00    -0.004 A 
ATOM      5  C7  UNL d   1       0.012  -1.719   0.586  0.00  0.00     0.002 A 
ATOM      6  C8  UNL d   1       0.581  -2.953   0.267  0.00  0.00     0.002 A 
ENDROOT
BRANCH   1   7
ATOM      7  C2  UNL d   1       2.579  -4.409  -0.254  0.00  0.00     0.056 C 
BRANCH   7   8
ATOM      8  C1  UNL d   1       4.100  -4.368  -0.442  0.00  0.00     0.007 C 
ATOM      9  C   UNL d   1       4.764  -5.727  -0.263  0.00  0.00     0.009 C 
ENDBRANCH   7   8
ENDBRANCH   1   7
TORSDOF 2
ENDMDL
