MODEL 1
REMARK minimizedAffinity -5.08304167
REMARK minimizedRMSD -1
REMARK  0 active torsions:
REMARK  status: ('A' for Active; 'I' for Inactive)
ROOT
ATOM      1  O1  BZF d   1      -2.845  -0.400  -0.837  0.00  0.00    -0.204 OA
ATOM      2  C2  BZF d   1      -3.099  -0.567   0.511  0.00  0.00     0.174 A 
ATOM      3  C3  BZF d   1      -1.947  -0.641   1.209  0.00  0.00    -0.012 A 
ATOM      4  C3A BZF d   1      -0.910  -0.420   0.248  0.00  0.00    -0.107 A 
ATOM      5  C4  BZF d   1       0.452  -0.359   0.334  0.00  0.00     0.055 A 
ATOM      6  C5  BZF d   1       1.179  -0.201  -0.803  0.00  0.00    -0.016 A 
ATOM      7  C6  BZF d   1       0.578  -0.106  -2.041  0.00  0.00     0.022 A 
ATOM      8  C7  BZF d   1      -0.769  -0.156  -2.176  0.00  0.00     0.029 A 
ATOM      9  C7A BZF d   1      -1.508  -0.282  -1.025  0.00  0.00     0.058 A 
ENDROOT
TORSDOF 0
ENDMDL
