MODEL 1
REMARK minimizedAffinity -4.06889439
REMARK minimizedRMSD -1
REMARK  0 active torsions:
REMARK  status: ('A' for Active; 'I' for Inactive)
ROOT
ATOM      1  O1  BZF d   1       0.887  -0.486  -1.691  0.00  0.00    -0.204 OA
ATOM      2  C2  BZF d   1       1.854  -0.509  -0.704  0.00  0.00     0.174 A 
ATOM      3  C3  BZF d   1       1.288  -0.560   0.519  0.00  0.00    -0.012 A 
ATOM      4  C3A BZF d   1      -0.119  -0.662   0.279  0.00  0.00    -0.107 A 
ATOM      5  C4  BZF d   1      -1.207  -0.763   1.098  0.00  0.00     0.055 A 
ATOM      6  C5  BZF d   1      -2.450  -0.771   0.549  0.00  0.00    -0.016 A 
ATOM      7  C6  BZF d   1      -2.641  -0.674  -0.814  0.00  0.00     0.022 A 
ATOM      8  C7  BZF d   1      -1.593  -0.577  -1.668  0.00  0.00     0.029 A 
ATOM      9  C7A BZF d   1      -0.335  -0.602  -1.118  0.00  0.00     0.058 A 
ENDROOT
TORSDOF 0
ENDMDL
