MODEL 1
REMARK minimizedAffinity -1.61024094
REMARK minimizedRMSD -1
REMARK  0 active torsions:
REMARK  status: ('A' for Active; 'I' for Inactive)
ROOT
ATOM      1  O1  BZF d   1       0.696  -0.115   0.679  0.00  0.00    -0.204 OA
ATOM      2  C2  BZF d   1       1.335   0.294  -0.476  0.00  0.00     0.174 A 
ATOM      3  C3  BZF d   1       0.495   0.245  -1.530  0.00  0.00    -0.012 A 
ATOM      4  C3A BZF d   1      -0.772  -0.135  -0.984  0.00  0.00    -0.107 A 
ATOM      5  C4  BZF d   1      -2.007  -0.337  -1.531  0.00  0.00     0.055 A 
ATOM      6  C5  BZF d   1      -3.018  -0.775  -0.735  0.00  0.00    -0.016 A 
ATOM      7  C6  BZF d   1      -2.828  -1.027   0.608  0.00  0.00     0.022 A 
ATOM      8  C7  BZF d   1      -1.621  -0.837   1.196  0.00  0.00     0.029 A 
ATOM      9  C7A BZF d   1      -0.606  -0.363   0.401  0.00  0.00     0.058 A 
ENDROOT
TORSDOF 0
ENDMDL
