MODEL 1
REMARK minimizedAffinity -3.53662753
REMARK minimizedRMSD -1
REMARK  0 active torsions:
REMARK  status: ('A' for Active; 'I' for Inactive)
ROOT
ATOM      1  O1  BZF d   1       4.643   4.629  -0.755  0.00  0.00    -0.204 OA
ATOM      2  C2  BZF d   1       4.917   4.172  -2.029  0.00  0.00     0.174 A 
ATOM      3  C3  BZF d   1       4.320   2.983  -2.249  0.00  0.00    -0.012 A 
ATOM      4  C3A BZF d   1       3.555   2.721  -1.069  0.00  0.00    -0.107 A 
ATOM      5  C4  BZF d   1       2.731   1.700  -0.691  0.00  0.00     0.055 A 
ATOM      6  C5  BZF d   1       2.194   1.711   0.557  0.00  0.00    -0.016 A 
ATOM      7  C6  BZF d   1       2.464   2.724   1.454  0.00  0.00     0.022 A 
ATOM      8  C7  BZF d   1       3.271   3.761   1.123  0.00  0.00     0.029 A 
ATOM      9  C7A BZF d   1       3.789   3.770  -0.149  0.00  0.00     0.058 A 
ENDROOT
TORSDOF 0
ENDMDL
