MODEL 1
REMARK minimizedAffinity -5.74128008
REMARK minimizedRMSD -1
REMARK  0 active torsions:
REMARK  status: ('A' for Active; 'I' for Inactive)
ROOT
ATOM      1  O1  BZF d   1       0.517  -1.665   0.931  0.00  0.00    -0.204 OA
ATOM      2  C2  BZF d   1       1.464  -0.840   0.355  0.00  0.00     0.174 A 
ATOM      3  C3  BZF d   1       0.878   0.082  -0.436  0.00  0.00    -0.012 A 
ATOM      4  C3A BZF d   1      -0.529  -0.125  -0.276  0.00  0.00    -0.107 A 
ATOM      5  C4  BZF d   1      -1.632   0.491  -0.793  0.00  0.00     0.055 A 
ATOM      6  C5  BZF d   1      -2.864   0.000  -0.494  0.00  0.00    -0.016 A 
ATOM      7  C6  BZF d   1      -3.028  -1.106   0.314  0.00  0.00     0.022 A 
ATOM      8  C7  BZF d   1      -1.963  -1.748   0.854  0.00  0.00     0.029 A 
ATOM      9  C7A BZF d   1      -0.719  -1.234   0.580  0.00  0.00     0.058 A 
ENDROOT
TORSDOF 0
ENDMDL
