MODEL 1
REMARK minimizedAffinity -2.73553395
REMARK minimizedRMSD -1
REMARK  0 active torsions:
REMARK  status: ('A' for Active; 'I' for Inactive)
ROOT
ATOM      1  O1  BZF d   1       0.241   0.119   1.178  0.00  0.00    -0.204 OA
ATOM      2  C2  BZF d   1       1.393   0.385   0.464  0.00  0.00     0.174 A 
ATOM      3  C3  BZF d   1       1.169   0.277  -0.862  0.00  0.00    -0.012 A 
ATOM      4  C3A BZF d   1      -0.232   0.012  -0.987  0.00  0.00    -0.107 A 
ATOM      5  C4  BZF d   1      -1.059  -0.180  -2.056  0.00  0.00     0.055 A 
ATOM      6  C5  BZF d   1      -2.363  -0.492  -1.834  0.00  0.00    -0.016 A 
ATOM      7  C6  BZF d   1      -2.871  -0.624  -0.559  0.00  0.00     0.022 A 
ATOM      8  C7  BZF d   1      -2.090  -0.438   0.533  0.00  0.00     0.029 A 
ATOM      9  C7A BZF d   1      -0.780  -0.091   0.313  0.00  0.00     0.058 A 
ENDROOT
TORSDOF 0
ENDMDL
