MODEL 1
REMARK minimizedAffinity -4.72499943
REMARK minimizedRMSD -1
REMARK  0 active torsions:
REMARK  status: ('A' for Active; 'I' for Inactive)
ROOT
ATOM      1  O1  BZF d   1      -3.134  -0.109  -1.067  0.00  0.00    -0.204 OA
ATOM      2  C2  BZF d   1      -3.532  -0.589   0.166  0.00  0.00     0.174 A 
ATOM      3  C3  BZF d   1      -2.470  -0.753   0.981  0.00  0.00    -0.012 A 
ATOM      4  C3A BZF d   1      -1.348  -0.263   0.241  0.00  0.00    -0.107 A 
ATOM      5  C4  BZF d   1      -0.017  -0.145   0.522  0.00  0.00     0.055 A 
ATOM      6  C5  BZF d   1       0.824   0.306  -0.445  0.00  0.00    -0.016 A 
ATOM      7  C6  BZF d   1       0.370   0.643  -1.704  0.00  0.00     0.022 A 
ATOM      8  C7  BZF d   1      -0.942   0.548  -2.028  0.00  0.00     0.029 A 
ATOM      9  C7A BZF d   1      -1.800   0.124  -1.042  0.00  0.00     0.058 A 
ENDROOT
TORSDOF 0
ENDMDL
