MODEL 1
REMARK minimizedAffinity -4.22147465
REMARK minimizedRMSD -1
REMARK  0 active torsions:
REMARK  status: ('A' for Active; 'I' for Inactive)
ROOT
ATOM      1  O1  BZF d   1       1.699   0.063   1.890  0.00  0.00    -0.204 OA
ATOM      2  C2  BZF d   1       1.371  -0.523   0.682  0.00  0.00     0.174 A 
ATOM      3  C3  BZF d   1       1.713   0.279  -0.347  0.00  0.00    -0.012 A 
ATOM      4  C3A BZF d   1       2.375   1.398   0.252  0.00  0.00    -0.107 A 
ATOM      5  C4  BZF d   1       2.958   2.524  -0.254  0.00  0.00     0.055 A 
ATOM      6  C5  BZF d   1       3.451   3.455   0.605  0.00  0.00    -0.016 A 
ATOM      7  C6  BZF d   1       3.374   3.294   1.973  0.00  0.00     0.022 A 
ATOM      8  C7  BZF d   1       2.809   2.191   2.521  0.00  0.00     0.029 A 
ATOM      9  C7A BZF d   1       2.339   1.233   1.656  0.00  0.00     0.058 A 
ENDROOT
TORSDOF 0
ENDMDL
