MODEL 1
REMARK minimizedAffinity 0.486072868
REMARK minimizedRMSD -1
REMARK  0 active torsions:
REMARK  status: ('A' for Active; 'I' for Inactive)
ROOT
ATOM      1  O1  BZF d   1       0.399   0.716   1.425  0.00  0.00    -0.204 OA
ATOM      2  C2  BZF d   1       0.258  -0.137   0.347  0.00  0.00     0.174 A 
ATOM      3  C3  BZF d   1       1.050   0.249  -0.674  0.00  0.00    -0.012 A 
ATOM      4  C3A BZF d   1       1.796   1.362  -0.173  0.00  0.00    -0.107 A 
ATOM      5  C4  BZF d   1       2.759   2.166  -0.712  0.00  0.00     0.055 A 
ATOM      6  C5  BZF d   1       3.232   3.211   0.017  0.00  0.00    -0.016 A 
ATOM      7  C6  BZF d   1       2.762   3.482   1.285  0.00  0.00     0.022 A 
ATOM      8  C7  BZF d   1       1.811   2.709   1.865  0.00  0.00     0.029 A 
ATOM      9  C7A BZF d   1       1.355   1.634   1.143  0.00  0.00     0.058 A 
ENDROOT
TORSDOF 0
ENDMDL
