MODEL 1
REMARK minimizedAffinity -2.18155098
REMARK minimizedRMSD -1
REMARK  0 active torsions:
REMARK  status: ('A' for Active; 'I' for Inactive)
ROOT
ATOM      1  O1  BZF d   1       3.186   1.118   1.110  0.00  0.00    -0.204 OA
ATOM      2  C2  BZF d   1       3.178   2.483   1.316  0.00  0.00     0.174 A 
ATOM      3  C3  BZF d   1       2.089   3.046   0.755  0.00  0.00    -0.012 A 
ATOM      4  C3A BZF d   1       1.323   1.952   0.240  0.00  0.00    -0.107 A 
ATOM      5  C4  BZF d   1       0.128   1.869  -0.415  0.00  0.00     0.055 A 
ATOM      6  C5  BZF d   1      -0.305   0.656  -0.847  0.00  0.00    -0.016 A 
ATOM      7  C6  BZF d   1       0.432  -0.493  -0.645  0.00  0.00     0.022 A 
ATOM      8  C7  BZF d   1       1.621  -0.461   0.005  0.00  0.00     0.029 A 
ATOM      9  C7A BZF d   1       2.046   0.759   0.471  0.00  0.00     0.058 A 
ENDROOT
TORSDOF 0
ENDMDL
