MODEL 1
REMARK minimizedAffinity -3.17069817
REMARK minimizedRMSD -1
REMARK  0 active torsions:
REMARK  status: ('A' for Active; 'I' for Inactive)
ROOT
ATOM      1  O1  BZF d   1       1.425   1.290  -0.781  0.00  0.00    -0.204 OA
ATOM      2  C2  BZF d   1       2.147   0.671   0.221  0.00  0.00     0.174 A 
ATOM      3  C3  BZF d   1       1.382  -0.225   0.878  0.00  0.00    -0.012 A 
ATOM      4  C3A BZF d   1       0.130  -0.229   0.186  0.00  0.00    -0.107 A 
ATOM      5  C4  BZF d   1      -1.033  -0.925   0.355  0.00  0.00     0.055 A 
ATOM      6  C5  BZF d   1      -2.094  -0.642  -0.445  0.00  0.00    -0.016 A 
ATOM      7  C6  BZF d   1      -2.029   0.334  -1.419  0.00  0.00     0.022 A 
ATOM      8  C7  BZF d   1      -0.896   1.047  -1.627  0.00  0.00     0.029 A 
ATOM      9  C7A BZF d   1       0.189   0.740  -0.842  0.00  0.00     0.058 A 
ENDROOT
TORSDOF 0
ENDMDL
