MODEL 1
REMARK minimizedAffinity -4.13792944
REMARK minimizedRMSD -1
REMARK  0 active torsions:
REMARK  status: ('A' for Active; 'I' for Inactive)
ROOT
ATOM      1  O1  BZF d   1      -2.865  -0.254  -1.361  0.00  0.00    -0.204 OA
ATOM      2  C2  BZF d   1      -3.381  -0.722  -0.168  0.00  0.00     0.174 A 
ATOM      3  C3  BZF d   1      -2.412  -0.825   0.765  0.00  0.00    -0.012 A 
ATOM      4  C3A BZF d   1      -1.233  -0.308   0.141  0.00  0.00    -0.107 A 
ATOM      5  C4  BZF d   1       0.053  -0.131   0.565  0.00  0.00     0.055 A 
ATOM      6  C5  BZF d   1       0.981   0.331  -0.314  0.00  0.00    -0.016 A 
ATOM      7  C6  BZF d   1       0.660   0.621  -1.623  0.00  0.00     0.022 A 
ATOM      8  C7  BZF d   1      -0.604   0.467  -2.089  0.00  0.00     0.029 A 
ATOM      9  C7A BZF d   1      -1.551   0.031  -1.194  0.00  0.00     0.058 A 
ENDROOT
TORSDOF 0
ENDMDL
