MODEL 1
REMARK minimizedAffinity -2.76171851
REMARK minimizedRMSD -1
REMARK  0 active torsions:
REMARK  status: ('A' for Active; 'I' for Inactive)
ROOT
ATOM      1  O1  BZF d   1       0.341   0.212   1.257  0.00  0.00    -0.204 OA
ATOM      2  C2  BZF d   1       1.511   0.679   0.688  0.00  0.00     0.174 A 
ATOM      3  C3  BZF d   1       1.419   0.685  -0.657  0.00  0.00    -0.012 A 
ATOM      4  C3A BZF d   1       0.078   0.278  -0.945  0.00  0.00    -0.107 A 
ATOM      5  C4  BZF d   1      -0.623   0.107  -2.104  0.00  0.00     0.055 A 
ATOM      6  C5  BZF d   1      -1.894  -0.370  -2.043  0.00  0.00    -0.016 A 
ATOM      7  C6  BZF d   1      -2.493  -0.691  -0.842  0.00  0.00     0.022 A 
ATOM      8  C7  BZF d   1      -1.839  -0.533   0.334  0.00  0.00     0.029 A 
ATOM      9  C7A BZF d   1      -0.566  -0.020   0.278  0.00  0.00     0.058 A 
ENDROOT
TORSDOF 0
ENDMDL
