MODEL 1
REMARK minimizedAffinity -4.2761178
REMARK minimizedRMSD -1
REMARK  0 active torsions:
REMARK  status: ('A' for Active; 'I' for Inactive)
ROOT
ATOM      1  O1  BZF d   1      -2.815  -0.280  -0.962  0.00  0.00    -0.204 OA
ATOM      2  C2  BZF d   1      -3.394  -0.812   0.174  0.00  0.00     0.174 A 
ATOM      3  C3  BZF d   1      -2.467  -1.015   1.133  0.00  0.00    -0.012 A 
ATOM      4  C3A BZF d   1      -1.248  -0.497   0.593  0.00  0.00    -0.107 A 
ATOM      5  C4  BZF d   1       0.025  -0.396   1.077  0.00  0.00     0.055 A 
ATOM      6  C5  BZF d   1       1.002   0.094   0.269  0.00  0.00    -0.016 A 
ATOM      7  C6  BZF d   1       0.743   0.487  -1.028  0.00  0.00     0.022 A 
ATOM      8  C7  BZF d   1      -0.505   0.410  -1.550  0.00  0.00     0.029 A 
ATOM      9  C7A BZF d   1      -1.501  -0.054  -0.726  0.00  0.00     0.058 A 
ENDROOT
TORSDOF 0
ENDMDL
