MODEL 1
REMARK minimizedAffinity -3.41437626
REMARK minimizedRMSD -1
REMARK  0 active torsions:
REMARK  status: ('A' for Active; 'I' for Inactive)
ROOT
ATOM      1  O1  BZF d   1      -2.439  -0.056  -1.362  0.00  0.00    -0.204 OA
ATOM      2  C2  BZF d   1      -3.269  -0.427  -0.321  0.00  0.00     0.174 A 
ATOM      3  C3  BZF d   1      -2.556  -0.653   0.801  0.00  0.00    -0.012 A 
ATOM      4  C3A BZF d   1      -1.206  -0.319   0.463  0.00  0.00    -0.107 A 
ATOM      5  C4  BZF d   1      -0.035  -0.322   1.165  0.00  0.00     0.055 A 
ATOM      6  C5  BZF d   1       1.121  -0.010   0.522  0.00  0.00    -0.016 A 
ATOM      7  C6  BZF d   1       1.143   0.303  -0.821  0.00  0.00     0.022 A 
ATOM      8  C7  BZF d   1       0.006   0.324  -1.558  0.00  0.00     0.029 A 
ATOM      9  C7A BZF d   1      -1.168   0.042  -0.903  0.00  0.00     0.058 A 
ENDROOT
TORSDOF 0
ENDMDL
