MODEL 1
REMARK minimizedAffinity -3.40314007
REMARK minimizedRMSD -1
REMARK  0 active torsions:
REMARK  status: ('A' for Active; 'I' for Inactive)
ROOT
ATOM      1  O1  BZF d   1       1.867   1.319  -0.403  0.00  0.00    -0.204 OA
ATOM      2  C2  BZF d   1       2.457   1.017   0.810  0.00  0.00     0.174 A 
ATOM      3  C3  BZF d   1       1.668   0.200   1.536  0.00  0.00    -0.012 A 
ATOM      4  C3A BZF d   1       0.554  -0.098   0.689  0.00  0.00    -0.107 A 
ATOM      5  C4  BZF d   1      -0.561  -0.872   0.842  0.00  0.00     0.055 A 
ATOM      6  C5  BZF d   1      -1.492  -0.892  -0.147  0.00  0.00    -0.016 A 
ATOM      7  C6  BZF d   1      -1.343  -0.147  -1.299  0.00  0.00     0.022 A 
ATOM      8  C7  BZF d   1      -0.252   0.632  -1.498  0.00  0.00     0.029 A 
ATOM      9  C7A BZF d   1       0.706   0.628  -0.514  0.00  0.00     0.058 A 
ENDROOT
TORSDOF 0
ENDMDL
