MODEL 1
REMARK minimizedAffinity -2.48077035
REMARK minimizedRMSD -1
REMARK  0 active torsions:
REMARK  status: ('A' for Active; 'I' for Inactive)
ROOT
ATOM      1  O1  BZF d   1       0.635  -0.004   0.477  0.00  0.00    -0.204 OA
ATOM      2  C2  BZF d   1       1.299   0.046  -0.734  0.00  0.00     0.174 A 
ATOM      3  C3  BZF d   1       0.449  -0.185  -1.755  0.00  0.00    -0.012 A 
ATOM      4  C3A BZF d   1      -0.843  -0.301  -1.151  0.00  0.00    -0.107 A 
ATOM      5  C4  BZF d   1      -2.096  -0.517  -1.649  0.00  0.00     0.055 A 
ATOM      6  C5  BZF d   1      -3.136  -0.650  -0.785  0.00  0.00    -0.016 A 
ATOM      7  C6  BZF d   1      -2.959  -0.578   0.581  0.00  0.00     0.022 A 
ATOM      8  C7  BZF d   1      -1.735  -0.360   1.122  0.00  0.00     0.029 A 
ATOM      9  C7A BZF d   1      -0.688  -0.192   0.250  0.00  0.00     0.058 A 
ENDROOT
TORSDOF 0
ENDMDL
