MODEL 1
REMARK minimizedAffinity -3.05164766
REMARK minimizedRMSD -1
REMARK  0 active torsions:
REMARK  status: ('A' for Active; 'I' for Inactive)
ROOT
ATOM      1  C   UNL d   1       4.576  -1.385  -5.751  0.00  0.00     0.078 C 
ATOM      2  C1  UNL d   1       4.806  -2.825  -5.404  0.00  0.00    -0.077 A 
ATOM      3  C2  UNL d   1       4.048  -3.841  -5.999  0.00  0.00    -0.001 A 
ATOM      4  C3  UNL d   1       4.267  -5.177  -5.659  0.00  0.00     0.003 A 
ATOM      5  C4  UNL d   1       5.242  -5.509  -4.721  0.00  0.00    -0.005 A 
ATOM      6  C5  UNL d   1       6.000  -4.505  -4.122  0.00  0.00     0.003 A 
ATOM      7  C6  UNL d   1       5.783  -3.169  -4.461  0.00  0.00    -0.001 A 
ENDROOT
TORSDOF 0
ENDMDL
