MODEL 1
REMARK minimizedAffinity -3.34095931
REMARK minimizedRMSD -1
REMARK  0 active torsions:
REMARK  status: ('A' for Active; 'I' for Inactive)
ROOT
ATOM      1  C   UNL d   1       5.464   0.525  -5.998  0.00  0.00     0.078 C 
ATOM      2  C1  UNL d   1       5.053  -0.893  -5.740  0.00  0.00    -0.077 A 
ATOM      3  C2  UNL d   1       3.746  -1.324  -6.000  0.00  0.00    -0.001 A 
ATOM      4  C3  UNL d   1       3.375  -2.645  -5.745  0.00  0.00     0.003 A 
ATOM      5  C4  UNL d   1       4.303  -3.546  -5.228  0.00  0.00    -0.005 A 
ATOM      6  C5  UNL d   1       5.605  -3.126  -4.964  0.00  0.00     0.003 A 
ATOM      7  C6  UNL d   1       5.979  -1.805  -5.218  0.00  0.00    -0.001 A 
ENDROOT
TORSDOF 0
ENDMDL
