MODEL 1
REMARK minimizedAffinity -2.71545792
REMARK minimizedRMSD -1
REMARK  0 active torsions:
REMARK  status: ('A' for Active; 'I' for Inactive)
ROOT
ATOM      1  C   UNL d   1       5.997  -2.370  -4.142  0.00  0.00     0.078 C 
ATOM      2  C1  UNL d   1       5.275  -3.635  -4.496  0.00  0.00    -0.077 A 
ATOM      3  C2  UNL d   1       5.382  -4.776  -3.691  0.00  0.00    -0.001 A 
ATOM      4  C3  UNL d   1       4.712  -5.950  -4.038  0.00  0.00     0.003 A 
ATOM      5  C4  UNL d   1       3.931  -5.995  -5.192  0.00  0.00    -0.005 A 
ATOM      6  C5  UNL d   1       3.820  -4.866  -6.000  0.00  0.00     0.003 A 
ATOM      7  C6  UNL d   1       4.489  -3.691  -5.654  0.00  0.00    -0.001 A 
ENDROOT
TORSDOF 0
ENDMDL
