MODEL 1
REMARK minimizedAffinity -3.19858098
REMARK minimizedRMSD -1
REMARK  0 active torsions:
REMARK  status: ('A' for Active; 'I' for Inactive)
ROOT
ATOM      1  C   UNL d   1       6.000  -1.923  -5.159  0.00  0.00     0.078 C 
ATOM      2  C1  UNL d   1       5.502  -3.336  -5.101  0.00  0.00    -0.077 A 
ATOM      3  C2  UNL d   1       4.532  -3.797  -6.000  0.00  0.00    -0.001 A 
ATOM      4  C3  UNL d   1       4.071  -5.112  -5.928  0.00  0.00     0.003 A 
ATOM      5  C4  UNL d   1       4.571  -5.977  -4.957  0.00  0.00    -0.005 A 
ATOM      6  C5  UNL d   1       5.534  -5.527  -4.056  0.00  0.00     0.003 A 
ATOM      7  C6  UNL d   1       5.997  -4.212  -4.127  0.00  0.00    -0.001 A 
ENDROOT
TORSDOF 0
ENDMDL
