MODEL 1
REMARK minimizedAffinity -3.05583191
REMARK minimizedRMSD -1
REMARK  0 active torsions:
REMARK  status: ('A' for Active; 'I' for Inactive)
ROOT
ATOM      1  C   UNL d   1       5.411  -0.105  -5.995  0.00  0.00     0.078 C 
ATOM      2  C1  UNL d   1       5.061  -1.473  -5.489  0.00  0.00    -0.077 A 
ATOM      3  C2  UNL d   1       5.999  -2.513  -5.514  0.00  0.00    -0.001 A 
ATOM      4  C3  UNL d   1       5.656  -3.783  -5.048  0.00  0.00     0.003 A 
ATOM      5  C4  UNL d   1       4.375  -4.026  -4.555  0.00  0.00    -0.005 A 
ATOM      6  C5  UNL d   1       3.435  -2.998  -4.529  0.00  0.00     0.003 A 
ATOM      7  C6  UNL d   1       3.776  -1.726  -4.994  0.00  0.00    -0.001 A 
ENDROOT
TORSDOF 0
ENDMDL
