MODEL 1
REMARK minimizedAffinity -3.83960605
REMARK minimizedRMSD -1
REMARK  0 active torsions:
REMARK  status: ('A' for Active; 'I' for Inactive)
ROOT
ATOM      1  C   UNL d   1       5.275   1.295  -5.296  0.00  0.00     0.078 C 
ATOM      2  C1  UNL d   1       5.121  -0.196  -5.277  0.00  0.00    -0.077 A 
ATOM      3  C2  UNL d   1       4.100  -0.825  -6.000  0.00  0.00    -0.001 A 
ATOM      4  C3  UNL d   1       3.963  -2.214  -5.966  0.00  0.00     0.003 A 
ATOM      5  C4  UNL d   1       4.843  -2.985  -5.209  0.00  0.00    -0.005 A 
ATOM      6  C5  UNL d   1       5.861  -2.368  -4.485  0.00  0.00     0.003 A 
ATOM      7  C6  UNL d   1       6.000  -0.980  -4.518  0.00  0.00    -0.001 A 
ENDROOT
TORSDOF 0
ENDMDL
