MODEL 1
REMARK minimizedAffinity -0.496020317
REMARK minimizedRMSD -1
REMARK  0 active torsions:
REMARK  status: ('A' for Active; 'I' for Inactive)
ROOT
ATOM      1  C   UNL d   1       0.009  -4.450  -1.652  0.00  0.00    -0.002 A 
ATOM      2  C1  UNL d   1       0.397  -3.379  -2.445  0.00  0.00     0.010 A 
ATOM      3  C2  UNL d   1       0.426  -2.083  -1.924  0.00  0.00     0.041 A 
ATOM      4  C3  UNL d   1       0.057  -1.881  -0.580  0.00  0.00    -0.075 A 
ATOM      5  S   UNL d   1       0.018  -0.383   0.273  0.00  0.00     0.015 SA
ATOM      6  C4  UNL d   1      -0.513  -1.129   1.710  0.00  0.00     0.022 A 
ATOM      7  C5  UNL d   1      -0.663  -2.488   1.561  0.00  0.00     0.026 A 
ATOM      8  C6  UNL d   1      -0.336  -2.943   0.239  0.00  0.00    -0.082 A 
ATOM      9  C7  UNL d   1      -0.356  -4.245  -0.319  0.00  0.00     0.045 A 
ENDROOT
TORSDOF 0
ENDMDL
