MODEL 1
REMARK minimizedAffinity 5.2839241
REMARK minimizedRMSD -1
REMARK  0 active torsions:
REMARK  status: ('A' for Active; 'I' for Inactive)
ROOT
ATOM      1  C   UNL d   1       0.733  -0.251  -0.941  0.00  0.00    -0.002 A 
ATOM      2  C1  UNL d   1      -0.352   0.065  -0.136  0.00  0.00     0.010 A 
ATOM      3  C2  UNL d   1      -1.055  -0.938   0.535  0.00  0.00     0.041 A 
ATOM      4  C3  UNL d   1      -0.643  -2.277   0.383  0.00  0.00    -0.075 A 
ATOM      5  S   UNL d   1      -1.352  -3.671   1.109  0.00  0.00     0.015 SA
ATOM      6  C4  UNL d   1      -0.231  -4.719   0.367  0.00  0.00     0.022 A 
ATOM      7  C5  UNL d   1       0.669  -4.039  -0.418  0.00  0.00     0.026 A 
ATOM      8  C6  UNL d   1       0.447  -2.620  -0.422  0.00  0.00    -0.082 A 
ATOM      9  C7  UNL d   1       1.138  -1.580  -1.089  0.00  0.00     0.045 A 
ENDROOT
TORSDOF 0
ENDMDL
