MODEL 1
REMARK minimizedAffinity 8.76900959
REMARK minimizedRMSD -1
REMARK  0 active torsions:
REMARK  status: ('A' for Active; 'I' for Inactive)
ROOT
ATOM      1  C   UNL d   1       1.794  -1.755  -2.082  0.00  0.00    -0.002 A 
ATOM      2  C1  UNL d   1       1.006  -0.617  -2.179  0.00  0.00     0.010 A 
ATOM      3  C2  UNL d   1      -0.111  -0.455  -1.357  0.00  0.00     0.041 A 
ATOM      4  C3  UNL d   1      -0.425  -1.465  -0.426  0.00  0.00    -0.075 A 
ATOM      5  S   UNL d   1      -1.744  -1.482   0.685  0.00  0.00     0.015 SA
ATOM      6  C4  UNL d   1      -1.292  -3.000   1.314  0.00  0.00     0.022 A 
ATOM      7  C5  UNL d   1      -0.164  -3.497   0.703  0.00  0.00     0.026 A 
ATOM      8  C6  UNL d   1       0.354  -2.620  -0.309  0.00  0.00    -0.082 A 
ATOM      9  C7  UNL d   1       1.479  -2.755  -1.158  0.00  0.00     0.045 A 
ENDROOT
TORSDOF 0
ENDMDL
