MODEL 1
REMARK minimizedAffinity 12.8127584
REMARK minimizedRMSD -1
REMARK  0 active torsions:
REMARK  status: ('A' for Active; 'I' for Inactive)
ROOT
ATOM      1  C   UNL d   1       0.221  -4.048   0.484  0.00  0.00    -0.002 A 
ATOM      2  C1  UNL d   1      -0.853  -3.309   0.959  0.00  0.00     0.010 A 
ATOM      3  C2  UNL d   1      -1.107  -2.028   0.465  0.00  0.00     0.041 A 
ATOM      4  C3  UNL d   1      -0.256  -1.497  -0.524  0.00  0.00    -0.075 A 
ATOM      5  S   UNL d   1      -0.374   0.050  -1.276  0.00  0.00     0.015 SA
ATOM      6  C4  UNL d   1       0.999  -0.234  -2.245  0.00  0.00     0.022 A 
ATOM      7  C5  UNL d   1       1.546  -1.473  -2.013  0.00  0.00     0.026 A 
ATOM      8  C6  UNL d   1       0.832  -2.222  -1.018  0.00  0.00    -0.082 A 
ATOM      9  C7  UNL d   1       1.064  -3.518  -0.497  0.00  0.00     0.045 A 
ENDROOT
TORSDOF 0
ENDMDL
