MODEL 1
REMARK minimizedAffinity 15.1043177
REMARK minimizedRMSD -1
REMARK  0 active torsions:
REMARK  status: ('A' for Active; 'I' for Inactive)
ROOT
ATOM      1  C   UNL d   1       2.710  -0.457  -1.461  0.00  0.00    -0.002 A 
ATOM      2  C1  UNL d   1       1.467  -0.320  -2.063  0.00  0.00     0.010 A 
ATOM      3  C2  UNL d   1       0.608   0.717  -1.692  0.00  0.00     0.041 A 
ATOM      4  C3  UNL d   1       1.026   1.625  -0.699  0.00  0.00    -0.075 A 
ATOM      5  S   UNL d   1       0.143   2.972  -0.086  0.00  0.00     0.015 SA
ATOM      6  C4  UNL d   1       1.395   3.399   0.988  0.00  0.00     0.022 A 
ATOM      7  C5  UNL d   1       2.468   2.545   0.895  0.00  0.00     0.026 A 
ATOM      8  C6  UNL d   1       2.273   1.508  -0.079  0.00  0.00    -0.082 A 
ATOM      9  C7  UNL d   1       3.120   0.445  -0.476  0.00  0.00     0.045 A 
ENDROOT
TORSDOF 0
ENDMDL
