MODEL 1
REMARK minimizedAffinity 9.18366814
REMARK minimizedRMSD -1
REMARK  0 active torsions:
REMARK  status: ('A' for Active; 'I' for Inactive)
ROOT
ATOM      1  C   UNL d   1       5.583   5.622  -4.135  0.00  0.00    -0.002 A 
ATOM      2  C1  UNL d   1       4.250   5.998  -4.065  0.00  0.00     0.010 A 
ATOM      3  C2  UNL d   1       3.306   5.162  -3.465  0.00  0.00     0.041 A 
ATOM      4  C3  UNL d   1       3.729   3.930  -2.930  0.00  0.00    -0.075 A 
ATOM      5  S   UNL d   1       2.751   2.745  -2.148  0.00  0.00     0.015 SA
ATOM      6  C4  UNL d   1       4.081   1.711  -1.887  0.00  0.00     0.022 A 
ATOM      7  C5  UNL d   1       5.250   2.241  -2.379  0.00  0.00     0.026 A 
ATOM      8  C6  UNL d   1       5.067   3.529  -2.987  0.00  0.00    -0.082 A 
ATOM      9  C7  UNL d   1       6.000   4.398  -3.603  0.00  0.00     0.045 A 
ENDROOT
TORSDOF 0
ENDMDL
