MODEL 1
REMARK minimizedAffinity 5.4657073
REMARK minimizedRMSD -1
REMARK  0 active torsions:
REMARK  status: ('A' for Active; 'I' for Inactive)
ROOT
ATOM      1  C   UNL d   1       0.976  -4.138  -0.920  0.00  0.00    -0.002 A 
ATOM      2  C1  UNL d   1       0.806  -3.072  -1.791  0.00  0.00     0.010 A 
ATOM      3  C2  UNL d   1       0.168  -1.904  -1.368  0.00  0.00     0.041 A 
ATOM      4  C3  UNL d   1      -0.298  -1.825  -0.041  0.00  0.00    -0.075 A 
ATOM      5  S   UNL d   1      -1.108  -0.494   0.699  0.00  0.00     0.015 SA
ATOM      6  C4  UNL d   1      -1.245  -1.310   2.189  0.00  0.00     0.022 A 
ATOM      7  C5  UNL d   1      -0.692  -2.568   2.141  0.00  0.00     0.026 A 
ATOM      8  C6  UNL d   1      -0.137  -2.885   0.855  0.00  0.00    -0.082 A 
ATOM      9  C7  UNL d   1       0.513  -4.056   0.395  0.00  0.00     0.045 A 
ENDROOT
TORSDOF 0
ENDMDL
