MODEL 1
REMARK minimizedAffinity 1.28095603
REMARK minimizedRMSD -1
REMARK  0 active torsions:
REMARK  status: ('A' for Active; 'I' for Inactive)
ROOT
ATOM      1  C   UNL d   1      -1.181  -2.203   0.392  0.00  0.00    -0.002 A 
ATOM      2  C1  UNL d   1      -0.542  -2.473  -0.809  0.00  0.00     0.010 A 
ATOM      3  C2  UNL d   1       0.245  -1.500  -1.429  0.00  0.00     0.041 A 
ATOM      4  C3  UNL d   1       0.380  -0.240  -0.814  0.00  0.00    -0.075 A 
ATOM      5  S   UNL d   1       1.293   1.105  -1.390  0.00  0.00     0.015 SA
ATOM      6  C4  UNL d   1       0.856   2.069  -0.054  0.00  0.00     0.022 A 
ATOM      7  C5  UNL d   1       0.034   1.397   0.819  0.00  0.00     0.026 A 
ATOM      8  C6  UNL d   1      -0.253   0.055   0.396  0.00  0.00    -0.082 A 
ATOM      9  C7  UNL d   1      -1.045  -0.952   0.999  0.00  0.00     0.045 A 
ENDROOT
TORSDOF 0
ENDMDL
