MODEL 1
REMARK minimizedAffinity -5.39447069
REMARK minimizedRMSD -1
REMARK  0 active torsions:
REMARK  status: ('A' for Active; 'I' for Inactive)
ROOT
ATOM      1  C   UNL d   1       0.019  -3.566   0.017  0.00  0.00    -0.002 A 
ATOM      2  C1  UNL d   1       0.927  -3.320  -1.003  0.00  0.00     0.010 A 
ATOM      3  C2  UNL d   1       1.157  -2.018  -1.451  0.00  0.00     0.041 A 
ATOM      4  C3  UNL d   1       0.453  -0.956  -0.849  0.00  0.00    -0.075 A 
ATOM      5  S   UNL d   1       0.573   0.721  -1.234  0.00  0.00     0.015 SA
ATOM      6  C4  UNL d   1      -0.577   1.150  -0.052  0.00  0.00     0.022 A 
ATOM      7  C5  UNL d   1      -1.052   0.054   0.628  0.00  0.00     0.026 A 
ATOM      8  C6  UNL d   1      -0.465  -1.178   0.181  0.00  0.00    -0.082 A 
ATOM      9  C7  UNL d   1      -0.677  -2.510   0.612  0.00  0.00     0.045 A 
ENDROOT
TORSDOF 0
ENDMDL
