MODEL 1
REMARK minimizedAffinity 16.6711044
REMARK minimizedRMSD -1
REMARK  0 active torsions:
REMARK  status: ('A' for Active; 'I' for Inactive)
ROOT
ATOM      1  C   UNL d   1      -2.105   0.594   1.871  0.00  0.00    -0.002 A 
ATOM      2  C1  UNL d   1      -1.118   0.063   2.690  0.00  0.00     0.010 A 
ATOM      3  C2  UNL d   1       0.050  -0.469   2.140  0.00  0.00     0.041 A 
ATOM      4  C3  UNL d   1       0.212  -0.457   0.741  0.00  0.00    -0.075 A 
ATOM      5  S   UNL d   1       1.560  -1.053  -0.155  0.00  0.00     0.015 SA
ATOM      6  C4  UNL d   1       0.858  -0.616  -1.645  0.00  0.00     0.022 A 
ATOM      7  C5  UNL d   1      -0.375  -0.028  -1.482  0.00  0.00     0.026 A 
ATOM      8  C6  UNL d   1      -0.767   0.073  -0.104  0.00  0.00    -0.082 A 
ATOM      9  C7  UNL d   1      -1.940   0.605   0.483  0.00  0.00     0.045 A 
ENDROOT
TORSDOF 0
ENDMDL
