MODEL 1
REMARK minimizedAffinity 1.5371542
REMARK minimizedRMSD -1
REMARK  0 active torsions:
REMARK  status: ('A' for Active; 'I' for Inactive)
ROOT
ATOM      1  C   UNL d   1      -0.211  -0.463   1.234  0.00  0.00    -0.002 A 
ATOM      2  C1  UNL d   1       0.283   0.198   0.119  0.00  0.00     0.010 A 
ATOM      3  C2  UNL d   1       0.168  -0.369  -1.152  0.00  0.00     0.041 A 
ATOM      4  C3  UNL d   1      -0.460  -1.624  -1.284  0.00  0.00    -0.075 A 
ATOM      5  S   UNL d   1      -0.714  -2.510  -2.740  0.00  0.00     0.015 SA
ATOM      6  C4  UNL d   1      -1.486  -3.787  -1.916  0.00  0.00     0.022 A 
ATOM      7  C5  UNL d   1      -1.556  -3.559  -0.562  0.00  0.00     0.026 A 
ATOM      8  C6  UNL d   1      -0.966  -2.308  -0.175  0.00  0.00    -0.082 A 
ATOM      9  C7  UNL d   1      -0.833  -1.707   1.099  0.00  0.00     0.045 A 
ENDROOT
TORSDOF 0
ENDMDL
