MODEL 1
REMARK minimizedAffinity -0.834933281
REMARK minimizedRMSD -1
REMARK  0 active torsions:
REMARK  status: ('A' for Active; 'I' for Inactive)
ROOT
ATOM      1  C   UNL d   1      -0.524  -3.177   0.143  0.00  0.00    -0.002 A 
ATOM      2  C1  UNL d   1       0.658  -2.787  -0.470  0.00  0.00     0.010 A 
ATOM      3  C2  UNL d   1       1.023  -1.440  -0.519  0.00  0.00     0.041 A 
ATOM      4  C3  UNL d   1       0.172  -0.482   0.066  0.00  0.00    -0.075 A 
ATOM      5  S   UNL d   1       0.414   1.224   0.128  0.00  0.00     0.015 SA
ATOM      6  C4  UNL d   1      -1.046   1.476   0.971  0.00  0.00     0.022 A 
ATOM      7  C5  UNL d   1      -1.714   0.298   1.208  0.00  0.00     0.026 A 
ATOM      8  C6  UNL d   1      -1.023  -0.850   0.691  0.00  0.00    -0.082 A 
ATOM      9  C7  UNL d   1      -1.365  -2.223   0.723  0.00  0.00     0.045 A 
ENDROOT
TORSDOF 0
ENDMDL
