MODEL 1
REMARK minimizedAffinity -3.90633464
REMARK minimizedRMSD -1
REMARK  0 active torsions:
REMARK  status: ('A' for Active; 'I' for Inactive)
ROOT
ATOM      1  C   UNL d   1       0.343   2.432   1.592  0.00  0.00     0.023 A 
ATOM      2  C1  UNL d   1      -0.155   1.274   2.190  0.00  0.00     0.003 A 
ATOM      3  C2  UNL d   1      -0.504   0.175   1.402  0.00  0.00     0.048 A 
ATOM      4  C3  UNL d   1      -0.352   0.241   0.018  0.00  0.00     0.023 A 
ATOM      5  C4  UNL d   1       0.146   1.397  -0.585  0.00  0.00     0.048 A 
ATOM      6  C5  UNL d   1       0.493   2.494   0.207  0.00  0.00     0.003 A 
ATOM      7  I   UNL d   1      -0.871  -1.394  -1.156  0.00  0.00    -0.146 I 
ENDROOT
TORSDOF 0
ENDMDL
