MODEL 1
REMARK minimizedAffinity -2.46043181
REMARK minimizedRMSD -1
REMARK  0 active torsions:
REMARK  status: ('A' for Active; 'I' for Inactive)
ROOT
ATOM      1  C   UNL d   1       0.439   1.550   2.171  0.00  0.00     0.023 A 
ATOM      2  C1  UNL d   1      -0.591   0.660   2.474  0.00  0.00     0.003 A 
ATOM      3  C2  UNL d   1      -1.000  -0.285   1.531  0.00  0.00     0.048 A 
ATOM      4  C3  UNL d   1      -0.373  -0.335   0.287  0.00  0.00     0.023 A 
ATOM      5  C4  UNL d   1       0.660   0.553  -0.021  0.00  0.00     0.048 A 
ATOM      6  C5  UNL d   1       1.064   1.497   0.925  0.00  0.00     0.003 A 
ATOM      7  I   UNL d   1      -0.978  -1.741  -1.119  0.00  0.00    -0.146 I 
ENDROOT
TORSDOF 0
ENDMDL
