MODEL 1
REMARK minimizedAffinity -3.1435883
REMARK minimizedRMSD -1
REMARK  0 active torsions:
REMARK  status: ('A' for Active; 'I' for Inactive)
ROOT
ATOM      1  C   UNL d   1       1.365   0.759   0.315  0.00  0.00     0.023 A 
ATOM      2  C1  UNL d   1       1.763  -0.498  -0.141  0.00  0.00     0.003 A 
ATOM      3  C2  UNL d   1       0.830  -1.361  -0.719  0.00  0.00     0.048 A 
ATOM      4  C3  UNL d   1      -0.501  -0.960  -0.838  0.00  0.00     0.023 A 
ATOM      5  C4  UNL d   1      -0.904   0.296  -0.383  0.00  0.00     0.048 A 
ATOM      6  C5  UNL d   1       0.033   1.155   0.194  0.00  0.00     0.003 A 
ATOM      7  I   UNL d   1      -1.892  -2.243  -1.697  0.00  0.00    -0.146 I 
ENDROOT
TORSDOF 0
ENDMDL
