MODEL 1
REMARK minimizedAffinity -3.47362757
REMARK minimizedRMSD -1
REMARK  0 active torsions:
REMARK  status: ('A' for Active; 'I' for Inactive)
ROOT
ATOM      1  C   UNL d   1       0.672   1.777   2.185  0.00  0.00     0.023 A 
ATOM      2  C1  UNL d   1       1.307   1.755   0.943  0.00  0.00     0.003 A 
ATOM      3  C2  UNL d   1       0.916   0.829  -0.026  0.00  0.00     0.048 A 
ATOM      4  C3  UNL d   1      -0.111  -0.073   0.254  0.00  0.00     0.023 A 
ATOM      5  C4  UNL d   1      -0.749  -0.054   1.495  0.00  0.00     0.048 A 
ATOM      6  C5  UNL d   1      -0.354   0.873   2.461  0.00  0.00     0.003 A 
ATOM      7  I   UNL d   1      -0.694  -1.453  -1.187  0.00  0.00    -0.146 I 
ENDROOT
TORSDOF 0
ENDMDL
