MODEL 1
REMARK minimizedAffinity 1.33472967
REMARK minimizedRMSD -1
REMARK  0 active torsions:
REMARK  status: ('A' for Active; 'I' for Inactive)
ROOT
ATOM      1  C   UNL d   1       0.245  -1.805  -1.091  0.00  0.00     0.023 A 
ATOM      2  C1  UNL d   1       1.491  -1.224  -1.331  0.00  0.00     0.003 A 
ATOM      3  C2  UNL d   1       1.813   0.004  -0.749  0.00  0.00     0.048 A 
ATOM      4  C3  UNL d   1       0.886   0.645   0.072  0.00  0.00     0.023 A 
ATOM      5  C4  UNL d   1      -0.361   0.067   0.315  0.00  0.00     0.048 A 
ATOM      6  C5  UNL d   1      -0.679  -1.160  -0.269  0.00  0.00     0.003 A 
ATOM      7  I   UNL d   1       1.364   2.472   0.939  0.00  0.00    -0.146 I 
ENDROOT
TORSDOF 0
ENDMDL
