MODEL 1
REMARK minimizedAffinity -4.3900342
REMARK minimizedRMSD -1
REMARK  0 active torsions:
REMARK  status: ('A' for Active; 'I' for Inactive)
ROOT
ATOM      1  C   UNL d   1       0.541   2.635   1.677  0.00  0.00     0.023 A 
ATOM      2  C1  UNL d   1      -0.321   1.729   2.294  0.00  0.00     0.003 A 
ATOM      3  C2  UNL d   1      -0.716   0.570   1.623  0.00  0.00     0.048 A 
ATOM      4  C3  UNL d   1      -0.245   0.324   0.334  0.00  0.00     0.023 A 
ATOM      5  C4  UNL d   1       0.619   1.227  -0.288  0.00  0.00     0.048 A 
ATOM      6  C5  UNL d   1       1.010   2.385   0.387  0.00  0.00     0.003 A 
ATOM      7  I   UNL d   1      -0.831  -1.401  -0.668  0.00  0.00    -0.146 I 
ENDROOT
TORSDOF 0
ENDMDL
