MODEL 1
REMARK minimizedAffinity -2.80247712
REMARK minimizedRMSD -1
REMARK  0 active torsions:
REMARK  status: ('A' for Active; 'I' for Inactive)
ROOT
ATOM      1  C   UNL d   1       1.768   0.773   0.200  0.00  0.00     0.023 A 
ATOM      2  C1  UNL d   1       0.439   1.039   0.529  0.00  0.00     0.003 A 
ATOM      3  C2  UNL d   1      -0.565   0.139   0.167  0.00  0.00     0.048 A 
ATOM      4  C3  UNL d   1      -0.233  -1.026  -0.524  0.00  0.00     0.023 A 
ATOM      5  C4  UNL d   1       1.095  -1.297  -0.855  0.00  0.00     0.048 A 
ATOM      6  C5  UNL d   1       2.096  -0.394  -0.491  0.00  0.00     0.003 A 
ATOM      7  I   UNL d   1      -1.726  -2.368  -1.064  0.00  0.00    -0.146 I 
ENDROOT
TORSDOF 0
ENDMDL
