MODEL 1
REMARK minimizedAffinity -2.48469377
REMARK minimizedRMSD -1
REMARK  0 active torsions:
REMARK  status: ('A' for Active; 'I' for Inactive)
ROOT
ATOM      1  C   UNL d   1       0.291   1.364  -0.611  0.00  0.00     0.023 A 
ATOM      2  C1  UNL d   1       1.010   2.245   0.197  0.00  0.00     0.003 A 
ATOM      3  C2  UNL d   1       1.125   2.003   1.567  0.00  0.00     0.048 A 
ATOM      4  C3  UNL d   1       0.519   0.876   2.123  0.00  0.00     0.023 A 
ATOM      5  C4  UNL d   1      -0.200  -0.009   1.319  0.00  0.00     0.048 A 
ATOM      6  C5  UNL d   1      -0.313   0.238  -0.050  0.00  0.00     0.003 A 
ATOM      7  I   UNL d   1       0.689   0.513   4.163  0.00  0.00    -0.146 I 
ENDROOT
TORSDOF 0
ENDMDL
