MODEL 1
REMARK minimizedAffinity -4.32635784
REMARK minimizedRMSD -1
REMARK  0 active torsions:
REMARK  status: ('A' for Active; 'I' for Inactive)
ROOT
ATOM      1  C   UNL d   1       2.071   2.048   1.507  0.00  0.00     0.023 A 
ATOM      2  C1  UNL d   1       2.632   1.335   0.447  0.00  0.00     0.003 A 
ATOM      3  C2  UNL d   1       1.841   0.468  -0.309  0.00  0.00     0.048 A 
ATOM      4  C3  UNL d   1       0.489   0.320  -0.001  0.00  0.00     0.023 A 
ATOM      5  C4  UNL d   1      -0.077   1.032   1.057  0.00  0.00     0.048 A 
ATOM      6  C5  UNL d   1       0.719   1.897   1.811  0.00  0.00     0.003 A 
ATOM      7  I   UNL d   1      -0.691  -0.970  -1.126  0.00  0.00    -0.146 I 
ENDROOT
TORSDOF 0
ENDMDL
