MODEL 1
REMARK minimizedAffinity -5.08312178
REMARK minimizedRMSD -1
REMARK  0 active torsions:
REMARK  status: ('A' for Active; 'I' for Inactive)
ROOT
ATOM      1  C   UNL d   1       1.231   2.494   1.519  0.00  0.00     0.023 A 
ATOM      2  C1  UNL d   1      -0.058   2.100   1.878  0.00  0.00     0.003 A 
ATOM      3  C2  UNL d   1      -0.693   1.068   1.183  0.00  0.00     0.048 A 
ATOM      4  C3  UNL d   1      -0.033   0.435   0.131  0.00  0.00     0.023 A 
ATOM      5  C4  UNL d   1       1.257   0.825  -0.231  0.00  0.00     0.048 A 
ATOM      6  C5  UNL d   1       1.888   1.857   0.466  0.00  0.00     0.003 A 
ATOM      7  I   UNL d   1      -0.976  -1.101  -0.905  0.00  0.00    -0.146 I 
ENDROOT
TORSDOF 0
ENDMDL
