MODEL 1
REMARK minimizedAffinity -4.72270393
REMARK minimizedRMSD -1
REMARK  0 active torsions:
REMARK  status: ('A' for Active; 'I' for Inactive)
ROOT
ATOM      1  C   UNL d   1       2.021   2.012   1.342  0.00  0.00     0.023 A 
ATOM      2  C1  UNL d   1       2.563   1.085   0.451  0.00  0.00     0.003 A 
ATOM      3  C2  UNL d   1       1.733   0.165  -0.191  0.00  0.00     0.048 A 
ATOM      4  C3  UNL d   1       0.361   0.177   0.060  0.00  0.00     0.023 A 
ATOM      5  C4  UNL d   1      -0.186   1.103   0.950  0.00  0.00     0.048 A 
ATOM      6  C5  UNL d   1       0.649   2.021   1.591  0.00  0.00     0.003 A 
ATOM      7  I   UNL d   1      -0.877  -1.191  -0.895  0.00  0.00    -0.146 I 
ENDROOT
TORSDOF 0
ENDMDL
