MODEL 1
REMARK minimizedAffinity -3.61603355
REMARK minimizedRMSD -1
REMARK  0 active torsions:
REMARK  status: ('A' for Active; 'I' for Inactive)
ROOT
ATOM      1  C   UNL d   1       0.383   2.446   1.912  0.00  0.00     0.023 A 
ATOM      2  C1  UNL d   1       0.864   2.437   0.603  0.00  0.00     0.003 A 
ATOM      3  C2  UNL d   1       0.583   1.359  -0.238  0.00  0.00     0.048 A 
ATOM      4  C3  UNL d   1      -0.181   0.293   0.236  0.00  0.00     0.023 A 
ATOM      5  C4  UNL d   1      -0.665   0.297   1.545  0.00  0.00     0.048 A 
ATOM      6  C5  UNL d   1      -0.381   1.377   2.383  0.00  0.00     0.003 A 
ATOM      7  I   UNL d   1      -0.601  -1.313  -1.015  0.00  0.00    -0.146 I 
ENDROOT
TORSDOF 0
ENDMDL
