MODEL 1
REMARK minimizedAffinity -2.69424605
REMARK minimizedRMSD -1
REMARK  0 active torsions:
REMARK  status: ('A' for Active; 'I' for Inactive)
ROOT
ATOM      1  C   UNL d   1       1.625   1.714  -0.297  0.00  0.00     0.023 A 
ATOM      2  C1  UNL d   1       1.251   2.464   0.818  0.00  0.00     0.003 A 
ATOM      3  C2  UNL d   1       0.163   2.066   1.597  0.00  0.00     0.048 A 
ATOM      4  C3  UNL d   1      -0.546   0.915   1.256  0.00  0.00     0.023 A 
ATOM      5  C4  UNL d   1      -0.176   0.160   0.142  0.00  0.00     0.048 A 
ATOM      6  C5  UNL d   1       0.912   0.563  -0.634  0.00  0.00     0.003 A 
ATOM      7  I   UNL d   1      -2.166   0.319   2.414  0.00  0.00    -0.146 I 
ENDROOT
TORSDOF 0
ENDMDL
