MODEL 1
REMARK minimizedAffinity -4.03126574
REMARK minimizedRMSD -1
REMARK  0 active torsions:
REMARK  status: ('A' for Active; 'I' for Inactive)
ROOT
ATOM      1  C   UNL d   1       1.364   2.257   1.737  0.00  0.00     0.023 A 
ATOM      2  C1  UNL d   1       0.150   1.700   2.137  0.00  0.00     0.003 A 
ATOM      3  C2  UNL d   1      -0.456   0.711   1.359  0.00  0.00     0.048 A 
ATOM      4  C3  UNL d   1       0.158   0.284   0.182  0.00  0.00     0.023 A 
ATOM      5  C4  UNL d   1       1.374   0.838  -0.222  0.00  0.00     0.048 A 
ATOM      6  C5  UNL d   1       1.976   1.827   0.559  0.00  0.00     0.003 A 
ATOM      7  I   UNL d   1      -0.742  -1.188  -0.977  0.00  0.00    -0.146 I 
ENDROOT
TORSDOF 0
ENDMDL
