MODEL 1
REMARK minimizedAffinity 13.2822876
REMARK minimizedRMSD -1
REMARK  1 active torsions:
REMARK  status: ('A' for Active; 'I' for Inactive)
REMARK    1  A    between atoms: N_2  and  C1_3 
ROOT
ATOM      1  C1  UNL d   1       4.967   4.022  -0.112  0.00  0.00     0.143 A 
ATOM      2  C2  UNL d   1       5.913   3.341  -0.885  0.00  0.00    -0.057 A 
ATOM      3  C3  UNL d   1       5.941   1.942  -0.932  0.00  0.00     0.033 A 
ATOM      4  C4  UNL d   1       5.038   1.196  -0.181  0.00  0.00    -0.042 A 
ATOM      5  C5  UNL d   1       4.105   1.852   0.614  0.00  0.00     0.033 A 
ATOM      6  C6  UNL d   1       4.078   3.249   0.652  0.00  0.00    -0.057 A 
ENDROOT
BRANCH   1   7
ATOM      7  N   UNL d   1       4.951   5.409   0.054  0.00  0.00    -0.732 N 
ATOM      8  C   UNL d   1       5.117   5.997   1.366  0.00  0.00     0.284 C 
ATOM      9  H3  UNL d   1       5.454   5.894  -0.685  0.00  0.00     0.395 HD
ENDBRANCH   1   7
TORSDOF 1
ENDMDL
