MODEL 1
REMARK minimizedAffinity 7.35637903
REMARK minimizedRMSD -1
REMARK  1 active torsions:
REMARK  status: ('A' for Active; 'I' for Inactive)
REMARK    1  A    between atoms: N_2  and  C1_3 
ROOT
ATOM      1  C1  UNL d   1      -3.596  -0.097   5.419  0.00  0.00     0.143 A 
ATOM      2  C2  UNL d   1      -4.912  -0.570   5.460  0.00  0.00    -0.057 A 
ATOM      3  C3  UNL d   1      -5.984   0.289   5.733  0.00  0.00     0.033 A 
ATOM      4  C4  UNL d   1      -5.755   1.634   5.999  0.00  0.00    -0.042 A 
ATOM      5  C5  UNL d   1      -4.453   2.121   5.988  0.00  0.00     0.033 A 
ATOM      6  C6  UNL d   1      -3.387   1.261   5.709  0.00  0.00    -0.057 A 
ENDROOT
BRANCH   1   7
ATOM      7  N   UNL d   1      -2.479  -0.919   5.250  0.00  0.00    -0.732 N 
ATOM      8  C   UNL d   1      -2.351  -1.756   4.077  0.00  0.00     0.284 C 
ATOM      9  H3  UNL d   1      -1.615  -0.462   5.532  0.00  0.00     0.395 HD
ENDBRANCH   1   7
TORSDOF 1
ENDMDL
