MODEL 1
REMARK minimizedAffinity 3.88281274
REMARK minimizedRMSD -1
REMARK  1 active torsions:
REMARK  status: ('A' for Active; 'I' for Inactive)
REMARK    1  A    between atoms: N_2  and  C1_3 
ROOT
ATOM      1  C1  UNL d   1       2.794   1.770  -0.855  0.00  0.00     0.143 A 
ATOM      2  C2  UNL d   1       2.920   1.988   0.521  0.00  0.00    -0.057 A 
ATOM      3  C3  UNL d   1       3.682   3.051   1.021  0.00  0.00     0.033 A 
ATOM      4  C4  UNL d   1       4.357   3.901   0.151  0.00  0.00    -0.042 A 
ATOM      5  C5  UNL d   1       4.266   3.688  -1.220  0.00  0.00     0.033 A 
ATOM      6  C6  UNL d   1       3.499   2.629  -1.713  0.00  0.00    -0.057 A 
ENDROOT
BRANCH   1   7
ATOM      7  N   UNL d   1       2.133   0.673  -1.412  0.00  0.00    -0.732 N 
ATOM      8  C   UNL d   1       2.758  -0.115  -2.452  0.00  0.00     0.284 C 
ATOM      9  H3  UNL d   1       1.638   0.122  -0.713  0.00  0.00     0.395 HD
ENDBRANCH   1   7
TORSDOF 1
ENDMDL
