MODEL 1
REMARK minimizedAffinity 15.1527071
REMARK minimizedRMSD -1
REMARK  1 active torsions:
REMARK  status: ('A' for Active; 'I' for Inactive)
REMARK    1  A    between atoms: N_2  and  C1_3 
ROOT
ATOM      1  C1  UNL d   1      -1.196  -2.673  -0.195  0.00  0.00     0.143 A 
ATOM      2  C2  UNL d   1      -1.266  -1.879  -1.344  0.00  0.00    -0.057 A 
ATOM      3  C3  UNL d   1      -2.219  -0.862  -1.467  0.00  0.00     0.033 A 
ATOM      4  C4  UNL d   1      -3.142  -0.639  -0.451  0.00  0.00    -0.042 A 
ATOM      5  C5  UNL d   1      -3.108  -1.432   0.690  0.00  0.00     0.033 A 
ATOM      6  C6  UNL d   1      -2.149  -2.443   0.810  0.00  0.00    -0.057 A 
ENDROOT
BRANCH   1   7
ATOM      7  N   UNL d   1      -0.335  -3.764  -0.054  0.00  0.00    -0.732 N 
ATOM      8  C   UNL d   1      -0.552  -4.978  -0.812  0.00  0.00     0.284 C 
ATOM      9  H3  UNL d   1       0.641  -3.483   0.009  0.00  0.00     0.395 HD
ENDBRANCH   1   7
TORSDOF 1
ENDMDL
