MODEL 1
REMARK minimizedAffinity 7.44177628
REMARK minimizedRMSD -1
REMARK  1 active torsions:
REMARK  status: ('A' for Active; 'I' for Inactive)
REMARK    1  A    between atoms: N_2  and  C1_3 
ROOT
ATOM      1  C1  UNL d   1      -4.934   1.273   5.711  0.00  0.00     0.143 A 
ATOM      2  C2  UNL d   1      -3.597   1.570   5.998  0.00  0.00    -0.057 A 
ATOM      3  C3  UNL d   1      -2.582   0.630   5.781  0.00  0.00     0.033 A 
ATOM      4  C4  UNL d   1      -2.891  -0.637   5.298  0.00  0.00    -0.042 A 
ATOM      5  C5  UNL d   1      -4.215  -0.962   5.029  0.00  0.00     0.033 A 
ATOM      6  C6  UNL d   1      -5.224  -0.018   5.242  0.00  0.00    -0.057 A 
ENDROOT
BRANCH   1   7
ATOM      7  N   UNL d   1      -5.999   2.130   5.998  0.00  0.00    -0.732 N 
ATOM      8  C   UNL d   1      -5.812   3.565   6.000  0.00  0.00     0.284 C 
ATOM      9  H3  UNL d   1      -6.869   1.824   5.569  0.00  0.00     0.395 HD
ENDBRANCH   1   7
TORSDOF 1
ENDMDL
