MODEL 1
REMARK minimizedAffinity 9.58564854
REMARK minimizedRMSD -1
REMARK  1 active torsions:
REMARK  status: ('A' for Active; 'I' for Inactive)
REMARK    1  A    between atoms: N_2  and  C1_3 
ROOT
ATOM      1  C1  UNL d   1      -1.330  -2.104  -0.581  0.00  0.00     0.143 A 
ATOM      2  C2  UNL d   1      -1.000  -1.761  -1.896  0.00  0.00    -0.057 A 
ATOM      3  C3  UNL d   1      -1.827  -0.927  -2.658  0.00  0.00     0.033 A 
ATOM      4  C4  UNL d   1      -3.017  -0.442  -2.126  0.00  0.00    -0.042 A 
ATOM      5  C5  UNL d   1      -3.377  -0.790  -0.829  0.00  0.00     0.033 A 
ATOM      6  C6  UNL d   1      -2.544  -1.618  -0.070  0.00  0.00    -0.057 A 
ENDROOT
BRANCH   1   7
ATOM      7  N   UNL d   1      -0.600  -3.008   0.194  0.00  0.00    -0.732 N 
ATOM      8  C   UNL d   1      -0.433  -4.380  -0.235  0.00  0.00     0.284 C 
ATOM      9  H3  UNL d   1       0.240  -2.591   0.589  0.00  0.00     0.395 HD
ENDBRANCH   1   7
TORSDOF 1
ENDMDL
