MODEL 1
REMARK minimizedAffinity 8.1859169
REMARK minimizedRMSD -1
REMARK  1 active torsions:
REMARK  status: ('A' for Active; 'I' for Inactive)
REMARK    1  A    between atoms: N_2  and  C1_3 
ROOT
ATOM      1  C1  UNL d   1       2.024   2.005  -1.499  0.00  0.00     0.143 A 
ATOM      2  C2  UNL d   1       1.831   0.638  -1.277  0.00  0.00    -0.057 A 
ATOM      3  C3  UNL d   1       1.068  -0.141  -2.156  0.00  0.00     0.033 A 
ATOM      4  C4  UNL d   1       0.459   0.443  -3.261  0.00  0.00    -0.042 A 
ATOM      5  C5  UNL d   1       0.617   1.806  -3.489  0.00  0.00     0.033 A 
ATOM      6  C6  UNL d   1       1.385   2.576  -2.611  0.00  0.00    -0.057 A 
ENDROOT
BRANCH   1   7
ATOM      7  N   UNL d   1       2.690   2.852  -0.610  0.00  0.00    -0.732 N 
ATOM      8  C   UNL d   1       3.963   2.468  -0.039  0.00  0.00     0.284 C 
ATOM      9  H3  UNL d   1       2.637   3.829  -0.890  0.00  0.00     0.395 HD
ENDBRANCH   1   7
TORSDOF 1
ENDMDL
