MODEL 1
REMARK minimizedAffinity 13.1236191
REMARK minimizedRMSD -1
REMARK  1 active torsions:
REMARK  status: ('A' for Active; 'I' for Inactive)
REMARK    1  A    between atoms: N_2  and  C1_3 
ROOT
ATOM      1  C1  UNL d   1      -3.602  -2.538   1.126  0.00  0.00     0.143 A 
ATOM      2  C2  UNL d   1      -3.244  -1.790   0.000  0.00  0.00    -0.057 A 
ATOM      3  C3  UNL d   1      -1.905  -1.658  -0.388  0.00  0.00     0.033 A 
ATOM      4  C4  UNL d   1      -0.895  -2.250   0.363  0.00  0.00    -0.042 A 
ATOM      5  C5  UNL d   1      -1.226  -2.978   1.500  0.00  0.00     0.033 A 
ATOM      6  C6  UNL d   1      -2.565  -3.112   1.879  0.00  0.00    -0.057 A 
ENDROOT
BRANCH   1   7
ATOM      7  N   UNL d   1      -4.906  -2.625   1.620  0.00  0.00    -0.732 N 
ATOM      8  C   UNL d   1      -6.000  -3.000   0.750  0.00  0.00     0.284 C 
ATOM      9  H3  UNL d   1      -4.944  -3.051   2.543  0.00  0.00     0.395 HD
ENDBRANCH   1   7
TORSDOF 1
ENDMDL
