MODEL 1
REMARK minimizedAffinity 6.78207922
REMARK minimizedRMSD -1
REMARK  1 active torsions:
REMARK  status: ('A' for Active; 'I' for Inactive)
REMARK    1  A    between atoms: N_2  and  C1_3 
ROOT
ATOM      1  C1  UNL d   1       3.520   0.150  -2.724  0.00  0.00     0.143 A 
ATOM      2  C2  UNL d   1       4.302  -0.989  -2.942  0.00  0.00    -0.057 A 
ATOM      3  C3  UNL d   1       5.537  -0.908  -3.597  0.00  0.00     0.033 A 
ATOM      4  C4  UNL d   1       5.999   0.315  -4.073  0.00  0.00    -0.042 A 
ATOM      5  C5  UNL d   1       5.227   1.456  -3.890  0.00  0.00     0.033 A 
ATOM      6  C6  UNL d   1       3.998   1.370  -3.229  0.00  0.00    -0.057 A 
ENDROOT
BRANCH   1   7
ATOM      7  N   UNL d   1       2.239   0.120  -2.166  0.00  0.00    -0.732 N 
ATOM      8  C   UNL d   1       1.164  -0.585  -2.830  0.00  0.00     0.284 C 
ATOM      9  H3  UNL d   1       2.258  -0.005  -1.157  0.00  0.00     0.395 HD
ENDBRANCH   1   7
TORSDOF 1
ENDMDL
