MODEL 1
REMARK minimizedAffinity 8.84096718
REMARK minimizedRMSD -1
REMARK  1 active torsions:
REMARK  status: ('A' for Active; 'I' for Inactive)
REMARK    1  A    between atoms: N_2  and  C1_3 
ROOT
ATOM      1  C1  UNL d   1      -3.030  -0.283   5.583  0.00  0.00     0.143 A 
ATOM      2  C2  UNL d   1      -4.319  -0.762   5.838  0.00  0.00    -0.057 A 
ATOM      3  C3  UNL d   1      -5.401   0.112   6.000  0.00  0.00     0.033 A 
ATOM      4  C4  UNL d   1      -5.205   1.488   5.938  0.00  0.00    -0.042 A 
ATOM      5  C5  UNL d   1      -3.928   1.988   5.710  0.00  0.00     0.033 A 
ATOM      6  C6  UNL d   1      -2.853   1.109   5.543  0.00  0.00    -0.057 A 
ENDROOT
BRANCH   1   7
ATOM      7  N   UNL d   1      -1.897  -1.097   5.511  0.00  0.00    -0.732 N 
ATOM      8  C   UNL d   1      -1.949  -2.374   4.831  0.00  0.00     0.284 C 
ATOM      9  H3  UNL d   1      -1.048  -0.566   5.334  0.00  0.00     0.395 HD
ENDBRANCH   1   7
TORSDOF 1
ENDMDL
