MODEL 1
REMARK minimizedAffinity 10.6644745
REMARK minimizedRMSD -1
REMARK  1 active torsions:
REMARK  status: ('A' for Active; 'I' for Inactive)
REMARK    1  A    between atoms: N_2  and  C1_3 
ROOT
ATOM      1  C1  UNL d   1      -3.364   0.420   5.995  0.00  0.00     0.143 A 
ATOM      2  C2  UNL d   1      -3.360   1.819   5.979  0.00  0.00    -0.057 A 
ATOM      3  C3  UNL d   1      -4.555   2.549   5.996  0.00  0.00     0.033 A 
ATOM      4  C4  UNL d   1      -5.780   1.890   5.999  0.00  0.00    -0.042 A 
ATOM      5  C5  UNL d   1      -5.808   0.500   5.990  0.00  0.00     0.033 A 
ATOM      6  C6  UNL d   1      -4.612  -0.224   5.980  0.00  0.00    -0.057 A 
ENDROOT
BRANCH   1   7
ATOM      7  N   UNL d   1      -2.213  -0.363   5.881  0.00  0.00    -0.732 N 
ATOM      8  C   UNL d   1      -2.165  -1.471   4.952  0.00  0.00     0.284 C 
ATOM      9  H3  UNL d   1      -1.361   0.193   5.909  0.00  0.00     0.395 HD
ENDBRANCH   1   7
TORSDOF 1
ENDMDL
