MODEL 1
REMARK minimizedAffinity 4.74059057
REMARK minimizedRMSD -1
REMARK  1 active torsions:
REMARK  status: ('A' for Active; 'I' for Inactive)
REMARK    1  A    between atoms: N_2  and  C1_3 
ROOT
ATOM      1  C1  UNL d   1      -3.298  -0.012   5.627  0.00  0.00     0.143 A 
ATOM      2  C2  UNL d   1      -3.319   1.378   5.787  0.00  0.00    -0.057 A 
ATOM      3  C3  UNL d   1      -4.521   2.067   5.986  0.00  0.00     0.033 A 
ATOM      4  C4  UNL d   1      -5.731   1.380   6.000  0.00  0.00    -0.042 A 
ATOM      5  C5  UNL d   1      -5.736   0.002   5.818  0.00  0.00     0.033 A 
ATOM      6  C6  UNL d   1      -4.531  -0.682   5.626  0.00  0.00    -0.057 A 
ENDROOT
BRANCH   1   7
ATOM      7  N   UNL d   1      -2.146  -0.743   5.328  0.00  0.00    -0.732 N 
ATOM      8  C   UNL d   1      -2.201  -1.866   4.417  0.00  0.00     0.284 C 
ATOM      9  H3  UNL d   1      -1.329  -0.148   5.205  0.00  0.00     0.395 HD
ENDBRANCH   1   7
TORSDOF 1
ENDMDL
