MODEL 1
REMARK minimizedAffinity 8.61586571
REMARK minimizedRMSD -1
REMARK  1 active torsions:
REMARK  status: ('A' for Active; 'I' for Inactive)
REMARK    1  A    between atoms: N_2  and  C1_3 
ROOT
ATOM      1  C1  UNL d   1      -1.054  -3.636   0.675  0.00  0.00     0.143 A 
ATOM      2  C2  UNL d   1      -0.797  -2.724  -0.354  0.00  0.00    -0.057 A 
ATOM      3  C3  UNL d   1      -1.549  -1.551  -0.489  0.00  0.00     0.033 A 
ATOM      4  C4  UNL d   1      -2.595  -1.283   0.388  0.00  0.00    -0.042 A 
ATOM      5  C5  UNL d   1      -2.884  -2.187   1.404  0.00  0.00     0.033 A 
ATOM      6  C6  UNL d   1      -2.125  -3.354   1.538  0.00  0.00    -0.057 A 
ENDROOT
BRANCH   1   7
ATOM      7  N   UNL d   1      -0.406  -4.867   0.804  0.00  0.00    -0.732 N 
ATOM      8  C   UNL d   1      -0.809  -6.000  -0.002  0.00  0.00     0.284 C 
ATOM      9  H3  UNL d   1       0.601  -4.767   0.906  0.00  0.00     0.395 HD
ENDBRANCH   1   7
TORSDOF 1
ENDMDL
