MODEL 1
REMARK minimizedAffinity -5.12518644
REMARK minimizedRMSD -1
REMARK  0 active torsions:
REMARK  status: ('A' for Active; 'I' for Inactive)
ROOT
ATOM      1  O1  BZF d   1      -1.422   1.119  -1.269  0.00  0.00    -0.204 OA
ATOM      2  C2  BZF d   1      -0.804   1.370  -0.059  0.00  0.00     0.174 A 
ATOM      3  C3  BZF d   1      -0.022   2.467  -0.139  0.00  0.00    -0.012 A 
ATOM      4  C3A BZF d   1      -0.232   2.983  -1.457  0.00  0.00    -0.107 A 
ATOM      5  C4  BZF d   1       0.254   4.068  -2.129  0.00  0.00     0.055 A 
ATOM      6  C5  BZF d   1      -0.092   4.249  -3.430  0.00  0.00    -0.016 A 
ATOM      7  C6  BZF d   1      -0.918   3.363  -4.091  0.00  0.00     0.022 A 
ATOM      8  C7  BZF d   1      -1.429   2.276  -3.465  0.00  0.00     0.029 A 
ATOM      9  C7A BZF d   1      -1.107   2.108  -2.141  0.00  0.00     0.058 A 
ENDROOT
TORSDOF 0
ENDMDL
