MODEL 1
REMARK minimizedAffinity -5.49800158
REMARK minimizedRMSD -1
REMARK  0 active torsions:
REMARK  status: ('A' for Active; 'I' for Inactive)
ROOT
ATOM      1  O1  BZF d   1       2.998  -1.482   0.549  0.00  0.00    -0.204 OA
ATOM      2  C2  BZF d   1       3.649  -0.640  -0.331  0.00  0.00     0.174 A 
ATOM      3  C3  BZF d   1       2.817   0.325  -0.774  0.00  0.00    -0.012 A 
ATOM      4  C3A BZF d   1       1.594   0.125  -0.058  0.00  0.00    -0.107 A 
ATOM      5  C4  BZF d   1       0.394   0.776  -0.050  0.00  0.00     0.055 A 
ATOM      6  C5  BZF d   1      -0.620   0.283   0.709  0.00  0.00    -0.016 A 
ATOM      7  C6  BZF d   1      -0.470  -0.860   1.467  0.00  0.00     0.022 A 
ATOM      8  C7  BZF d   1       0.704  -1.537   1.495  0.00  0.00     0.029 A 
ATOM      9  C7A BZF d   1       1.740  -1.023   0.755  0.00  0.00     0.058 A 
ENDROOT
TORSDOF 0
ENDMDL
