MODEL 1
REMARK minimizedAffinity -4.78207397
REMARK minimizedRMSD -1
REMARK  0 active torsions:
REMARK  status: ('A' for Active; 'I' for Inactive)
ROOT
ATOM      1  O1  BZF d   1       0.250   1.678   0.261  0.00  0.00    -0.204 OA
ATOM      2  C2  BZF d   1      -0.973   1.301   0.780  0.00  0.00     0.174 A 
ATOM      3  C3  BZF d   1      -0.966  -0.002   1.126  0.00  0.00    -0.012 A 
ATOM      4  C3A BZF d   1       0.374  -0.446   0.888  0.00  0.00    -0.107 A 
ATOM      5  C4  BZF d   1       1.009  -1.644   1.055  0.00  0.00     0.055 A 
ATOM      6  C5  BZF d   1       2.303  -1.765   0.658  0.00  0.00    -0.016 A 
ATOM      7  C6  BZF d   1       2.990  -0.713   0.088  0.00  0.00     0.022 A 
ATOM      8  C7  BZF d   1       2.403   0.495  -0.093  0.00  0.00     0.029 A 
ATOM      9  C7A BZF d   1       1.106   0.630   0.337  0.00  0.00     0.058 A 
ENDROOT
TORSDOF 0
ENDMDL
