MODEL 1
REMARK minimizedAffinity -4.69411516
REMARK minimizedRMSD -1
REMARK  0 active torsions:
REMARK  status: ('A' for Active; 'I' for Inactive)
ROOT
ATOM      1  O1  BZF d   1      -0.702  -0.025   0.644  0.00  0.00    -0.204 OA
ATOM      2  C2  BZF d   1      -0.931   1.140  -0.063  0.00  0.00     0.174 A 
ATOM      3  C3  BZF d   1       0.228   1.668  -0.505  0.00  0.00    -0.012 A 
ATOM      4  C3A BZF d   1       1.238   0.728  -0.126  0.00  0.00    -0.107 A 
ATOM      5  C4  BZF d   1       2.592   0.684  -0.299  0.00  0.00     0.055 A 
ATOM      6  C5  BZF d   1       3.296  -0.337   0.257  0.00  0.00    -0.016 A 
ATOM      7  C6  BZF d   1       2.680  -1.327   0.995  0.00  0.00     0.022 A 
ATOM      8  C7  BZF d   1       1.339  -1.328   1.189  0.00  0.00     0.029 A 
ATOM      9  C7A BZF d   1       0.621  -0.316   0.601  0.00  0.00     0.058 A 
ENDROOT
TORSDOF 0
ENDMDL
