MODEL 1
REMARK minimizedAffinity -1.39722109
REMARK minimizedRMSD -1
REMARK  0 active torsions:
REMARK  status: ('A' for Active; 'I' for Inactive)
ROOT
ATOM      1  O1  BZF d   1      -0.503  -2.115   1.479  0.00  0.00    -0.204 OA
ATOM      2  C2  BZF d   1       0.728  -2.727   1.343  0.00  0.00     0.174 A 
ATOM      3  C3  BZF d   1       1.563  -1.965   0.607  0.00  0.00    -0.012 A 
ATOM      4  C3A BZF d   1       0.836  -0.762   0.339  0.00  0.00    -0.107 A 
ATOM      5  C4  BZF d   1       1.137   0.387  -0.335  0.00  0.00     0.055 A 
ATOM      6  C5  BZF d   1       0.179   1.341  -0.476  0.00  0.00    -0.016 A 
ATOM      7  C6  BZF d   1      -1.090   1.177   0.039  0.00  0.00     0.022 A 
ATOM      8  C7  BZF d   1      -1.435   0.056   0.719  0.00  0.00     0.029 A 
ATOM      9  C7A BZF d   1      -0.459  -0.895   0.892  0.00  0.00     0.058 A 
ENDROOT
TORSDOF 0
ENDMDL
