MODEL 1
REMARK minimizedAffinity -3.53532267
REMARK minimizedRMSD -1
REMARK  0 active torsions:
REMARK  status: ('A' for Active; 'I' for Inactive)
ROOT
ATOM      1  O1  BZF d   1      -0.968  -0.186   0.705  0.00  0.00    -0.204 OA
ATOM      2  C2  BZF d   1      -1.117   0.850  -0.197  0.00  0.00     0.174 A 
ATOM      3  C3  BZF d   1       0.051   1.115  -0.819  0.00  0.00    -0.012 A 
ATOM      4  C3A BZF d   1       0.965   0.124  -0.339  0.00  0.00    -0.107 A 
ATOM      5  C4  BZF d   1       2.278  -0.146  -0.600  0.00  0.00     0.055 A 
ATOM      6  C5  BZF d   1       2.898  -1.138   0.091  0.00  0.00    -0.016 A 
ATOM      7  C6  BZF d   1       2.238  -1.876   1.052  0.00  0.00     0.022 A 
ATOM      8  C7  BZF d   1       0.934  -1.648   1.342  0.00  0.00     0.029 A 
ATOM      9  C7A BZF d   1       0.296  -0.668   0.622  0.00  0.00     0.058 A 
ENDROOT
TORSDOF 0
ENDMDL
