MODEL 1
REMARK minimizedAffinity -1.94317079
REMARK minimizedRMSD -1
REMARK  0 active torsions:
REMARK  status: ('A' for Active; 'I' for Inactive)
ROOT
ATOM      1  O1  BZF d   1       0.422   1.313  -1.215  0.00  0.00    -0.204 OA
ATOM      2  C2  BZF d   1      -0.905   1.355  -0.832  0.00  0.00     0.174 A 
ATOM      3  C3  BZF d   1      -1.171   0.393   0.075  0.00  0.00    -0.012 A 
ATOM      4  C3A BZF d   1       0.087  -0.234   0.339  0.00  0.00    -0.107 A 
ATOM      5  C4  BZF d   1       0.475  -1.251   1.165  0.00  0.00     0.055 A 
ATOM      6  C5  BZF d   1       1.766  -1.672   1.133  0.00  0.00    -0.016 A 
ATOM      7  C6  BZF d   1       2.695  -1.103   0.285  0.00  0.00     0.022 A 
ATOM      8  C7  BZF d   1       2.359  -0.088  -0.548  0.00  0.00     0.029 A 
ATOM      9  C7A BZF d   1       1.062   0.361  -0.494  0.00  0.00     0.058 A 
ENDROOT
TORSDOF 0
ENDMDL
