MODEL 1
REMARK minimizedAffinity -3.95914745
REMARK minimizedRMSD -1
REMARK  0 active torsions:
REMARK  status: ('A' for Active; 'I' for Inactive)
ROOT
ATOM      1  O1  BZF d   1      -1.161   0.187  -0.211  0.00  0.00    -0.204 OA
ATOM      2  C2  BZF d   1      -1.324   1.388  -0.875  0.00  0.00     0.174 A 
ATOM      3  C3  BZF d   1      -0.128   1.918  -1.204  0.00  0.00    -0.012 A 
ATOM      4  C3A BZF d   1       0.839   0.946  -0.798  0.00  0.00    -0.107 A 
ATOM      5  C4  BZF d   1       2.202   0.889  -0.872  0.00  0.00     0.055 A 
ATOM      6  C5  BZF d   1       2.850  -0.168  -0.316  0.00  0.00    -0.016 A 
ATOM      7  C6  BZF d   1       2.169  -1.182   0.325  0.00  0.00     0.022 A 
ATOM      8  C7  BZF d   1       0.817  -1.172   0.420  0.00  0.00     0.029 A 
ATOM      9  C7A BZF d   1       0.157  -0.122  -0.170  0.00  0.00     0.058 A 
ENDROOT
TORSDOF 0
ENDMDL
