MODEL 1
REMARK minimizedAffinity -2.95555711
REMARK minimizedRMSD -1
REMARK  0 active torsions:
REMARK  status: ('A' for Active; 'I' for Inactive)
ROOT
ATOM      1  O1  BZF d   1      -1.839   0.949   0.928  0.00  0.00    -0.204 OA
ATOM      2  C2  BZF d   1      -1.400   1.679  -0.160  0.00  0.00     0.174 A 
ATOM      3  C3  BZF d   1      -0.360   1.064  -0.760  0.00  0.00    -0.012 A 
ATOM      4  C3A BZF d   1      -0.194  -0.169  -0.055  0.00  0.00    -0.107 A 
ATOM      5  C4  BZF d   1       0.667  -1.220  -0.192  0.00  0.00     0.055 A 
ATOM      6  C5  BZF d   1       0.614  -2.239   0.706  0.00  0.00    -0.016 A 
ATOM      7  C6  BZF d   1      -0.283  -2.237   1.754  0.00  0.00     0.022 A 
ATOM      8  C7  BZF d   1      -1.160  -1.219   1.928  0.00  0.00     0.029 A 
ATOM      9  C7A BZF d   1      -1.131  -0.203   1.004  0.00  0.00     0.058 A 
ENDROOT
TORSDOF 0
ENDMDL
