MODEL 1
REMARK minimizedAffinity -4.40511751
REMARK minimizedRMSD -1
REMARK  0 active torsions:
REMARK  status: ('A' for Active; 'I' for Inactive)
ROOT
ATOM      1  O1  BZF d   1       1.601   0.986  -0.078  0.00  0.00    -0.204 OA
ATOM      2  C2  BZF d   1       0.340   1.471  -0.368  0.00  0.00     0.174 A 
ATOM      3  C3  BZF d   1      -0.555   0.464  -0.438  0.00  0.00    -0.012 A 
ATOM      4  C3A BZF d   1       0.176  -0.714  -0.086  0.00  0.00    -0.107 A 
ATOM      5  C4  BZF d   1      -0.169  -2.030   0.039  0.00  0.00     0.055 A 
ATOM      6  C5  BZF d   1       0.798  -2.941   0.327  0.00  0.00    -0.016 A 
ATOM      7  C6  BZF d   1       2.117  -2.573   0.491  0.00  0.00     0.022 A 
ATOM      8  C7  BZF d   1       2.506  -1.279   0.382  0.00  0.00     0.029 A 
ATOM      9  C7A BZF d   1       1.526  -0.352   0.123  0.00  0.00     0.058 A 
ENDROOT
TORSDOF 0
ENDMDL
