MODEL 1
REMARK minimizedAffinity -3.18695402
REMARK minimizedRMSD -1
REMARK  0 active torsions:
REMARK  status: ('A' for Active; 'I' for Inactive)
ROOT
ATOM      1  O1  BZF d   1       2.516  -1.541   0.808  0.00  0.00    -0.204 OA
ATOM      2  C2  BZF d   1       1.917  -2.730   1.175  0.00  0.00     0.174 A 
ATOM      3  C3  BZF d   1       0.598  -2.708   0.896  0.00  0.00    -0.012 A 
ATOM      4  C3A BZF d   1       0.375  -1.460   0.234  0.00  0.00    -0.107 A 
ATOM      5  C4  BZF d   1      -0.732  -0.866  -0.302  0.00  0.00     0.055 A 
ATOM      6  C5  BZF d   1      -0.627   0.390  -0.811  0.00  0.00    -0.016 A 
ATOM      7  C6  BZF d   1       0.566   1.082  -0.796  0.00  0.00     0.022 A 
ATOM      8  C7  BZF d   1       1.693   0.532  -0.280  0.00  0.00     0.029 A 
ATOM      9  C7A BZF d   1       1.597  -0.749   0.205  0.00  0.00     0.058 A 
ENDROOT
TORSDOF 0
ENDMDL
