MODEL 1
REMARK minimizedAffinity -4.28213501
REMARK minimizedRMSD -1
REMARK  0 active torsions:
REMARK  status: ('A' for Active; 'I' for Inactive)
ROOT
ATOM      1  O1  BZF d   1      -1.310  -0.301   0.292  0.00  0.00    -0.204 OA
ATOM      2  C2  BZF d   1      -1.237   1.003  -0.158  0.00  0.00     0.174 A 
ATOM      3  C3  BZF d   1       0.047   1.381  -0.323  0.00  0.00    -0.012 A 
ATOM      4  C3A BZF d   1       0.823   0.212  -0.040  0.00  0.00    -0.107 A 
ATOM      5  C4  BZF d   1       2.163  -0.050  -0.048  0.00  0.00     0.055 A 
ATOM      6  C5  BZF d   1       2.599  -1.274   0.349  0.00  0.00    -0.016 A 
ATOM      7  C6  BZF d   1       1.724  -2.257   0.764  0.00  0.00     0.022 A 
ATOM      8  C7  BZF d   1       0.385  -2.046   0.783  0.00  0.00     0.029 A 
ATOM      9  C7A BZF d   1      -0.060  -0.820   0.352  0.00  0.00     0.058 A 
ENDROOT
TORSDOF 0
ENDMDL
