MODEL 1
REMARK minimizedAffinity -0.626433909
REMARK minimizedRMSD -1
REMARK  0 active torsions:
REMARK  status: ('A' for Active; 'I' for Inactive)
ROOT
ATOM      1  O1  BZF d   1      -0.763   4.512  -5.011  0.00  0.00    -0.204 OA
ATOM      2  C2  BZF d   1       0.453   4.987  -4.558  0.00  0.00     0.174 A 
ATOM      3  C3  BZF d   1       0.859   4.300  -3.471  0.00  0.00    -0.012 A 
ATOM      4  C3A BZF d   1      -0.122   3.276  -3.284  0.00  0.00    -0.107 A 
ATOM      5  C4  BZF d   1      -0.263   2.265  -2.377  0.00  0.00     0.055 A 
ATOM      6  C5  BZF d   1      -1.374   1.484  -2.426  0.00  0.00    -0.016 A 
ATOM      7  C6  BZF d   1      -2.365   1.688  -3.364  0.00  0.00     0.022 A 
ATOM      8  C7  BZF d   1      -2.267   2.675  -4.287  0.00  0.00     0.029 A 
ATOM      9  C7A BZF d   1      -1.130   3.445  -4.261  0.00  0.00     0.058 A 
ENDROOT
TORSDOF 0
ENDMDL
