MODEL 1
REMARK minimizedAffinity -4.15183306
REMARK minimizedRMSD -1
REMARK  0 active torsions:
REMARK  status: ('A' for Active; 'I' for Inactive)
ROOT
ATOM      1  O1  BZF d   1       0.581   1.242  -0.256  0.00  0.00    -0.204 OA
ATOM      2  C2  BZF d   1      -0.783   1.243  -0.038  0.00  0.00     0.174 A 
ATOM      3  C3  BZF d   1      -1.197   0.040   0.411  0.00  0.00    -0.012 A 
ATOM      4  C3A BZF d   1      -0.004  -0.734   0.565  0.00  0.00    -0.107 A 
ATOM      5  C4  BZF d   1       0.240  -2.008   0.993  0.00  0.00     0.055 A 
ATOM      6  C5  BZF d   1       1.511  -2.486   0.954  0.00  0.00    -0.016 A 
ATOM      7  C6  BZF d   1       2.561  -1.721   0.489  0.00  0.00     0.022 A 
ATOM      8  C7  BZF d   1       2.369  -0.450   0.058  0.00  0.00     0.029 A 
ATOM      9  C7A BZF d   1       1.091   0.047   0.128  0.00  0.00     0.058 A 
ENDROOT
TORSDOF 0
ENDMDL
