MODEL 1
REMARK minimizedAffinity -1.51487148
REMARK minimizedRMSD -1
REMARK  0 active torsions:
REMARK  status: ('A' for Active; 'I' for Inactive)
ROOT
ATOM      1  O1  BZF d   1       2.856  -1.153   0.177  0.00  0.00    -0.204 OA
ATOM      2  C2  BZF d   1       2.743   0.211  -0.012  0.00  0.00     0.174 A 
ATOM      3  C3  BZF d   1       1.453   0.597   0.055  0.00  0.00    -0.012 A 
ATOM      4  C3A BZF d   1       0.723  -0.585   0.394  0.00  0.00    -0.107 A 
ATOM      5  C4  BZF d   1      -0.600  -0.840   0.618  0.00  0.00     0.055 A 
ATOM      6  C5  BZF d   1      -0.995  -2.118   0.857  0.00  0.00    -0.016 A 
ATOM      7  C6  BZF d   1      -0.097  -3.165   0.873  0.00  0.00     0.022 A 
ATOM      8  C7  BZF d   1       1.226  -2.961   0.661  0.00  0.00     0.029 A 
ATOM      9  C7A BZF d   1       1.633  -1.666   0.452  0.00  0.00     0.058 A 
ENDROOT
TORSDOF 0
ENDMDL
