MODEL 1
REMARK minimizedAffinity -4.9199791
REMARK minimizedRMSD -1
REMARK  0 active torsions:
REMARK  status: ('A' for Active; 'I' for Inactive)
ROOT
ATOM      1  O1  BZF d   1      -0.999  -0.831  -0.024  0.00  0.00    -0.204 OA
ATOM      2  C2  BZF d   1      -0.890   0.517  -0.306  0.00  0.00     0.174 A 
ATOM      3  C3  BZF d   1       0.382   0.938  -0.149  0.00  0.00    -0.012 A 
ATOM      4  C3A BZF d   1       1.131  -0.240   0.166  0.00  0.00    -0.107 A 
ATOM      5  C4  BZF d   1       2.453  -0.471   0.418  0.00  0.00     0.055 A 
ATOM      6  C5  BZF d   1       2.850  -1.724   0.765  0.00  0.00    -0.016 A 
ATOM      7  C6  BZF d   1       1.952  -2.766   0.874  0.00  0.00     0.022 A 
ATOM      8  C7  BZF d   1       0.631  -2.585   0.629  0.00  0.00     0.029 A 
ATOM      9  C7A BZF d   1       0.232  -1.328   0.246  0.00  0.00     0.058 A 
ENDROOT
TORSDOF 0
ENDMDL
