MODEL 1
REMARK minimizedAffinity 0.012772412
REMARK minimizedRMSD -1
REMARK  0 active torsions:
REMARK  status: ('A' for Active; 'I' for Inactive)
ROOT
ATOM      1  O1  BZF d   1      -0.435   0.374  -0.387  0.00  0.00    -0.204 OA
ATOM      2  C2  BZF d   1      -1.091  -0.796  -0.053  0.00  0.00     0.174 A 
ATOM      3  C3  BZF d   1      -0.237  -1.684   0.495  0.00  0.00    -0.012 A 
ATOM      4  C3A BZF d   1       1.014  -0.995   0.588  0.00  0.00    -0.107 A 
ATOM      5  C4  BZF d   1       2.246  -1.345   1.062  0.00  0.00     0.055 A 
ATOM      6  C5  BZF d   1       3.275  -0.466   0.941  0.00  0.00    -0.016 A 
ATOM      7  C6  BZF d   1       3.109   0.768   0.347  0.00  0.00     0.022 A 
ATOM      8  C7  BZF d   1       1.905   1.162  -0.134  0.00  0.00     0.029 A 
ATOM      9  C7A BZF d   1       0.855   0.289   0.017  0.00  0.00     0.058 A 
ENDROOT
TORSDOF 0
ENDMDL
