MODEL 1
REMARK minimizedAffinity 4.89741182
REMARK minimizedRMSD -1
REMARK  0 active torsions:
REMARK  status: ('A' for Active; 'I' for Inactive)
ROOT
ATOM      1  C   UNL d   1       2.209  -3.007   5.663  0.00  0.00     0.172 C 
ATOM      2  N   UNL d   1       2.047  -2.465   4.334  0.00  0.00    -0.070 N 
ATOM      3  C1  UNL d   1       2.557  -3.006   3.184  0.00  0.00    -0.004 A 
ATOM      4  C2  UNL d   1       2.183  -2.196   2.134  0.00  0.00    -0.047 A 
ATOM      5  C3  UNL d   1       1.423  -1.130   2.672  0.00  0.00    -0.047 A 
ATOM      6  C4  UNL d   1       1.354  -1.322   4.036  0.00  0.00    -0.004 A 
ENDROOT
TORSDOF 0
ENDMDL
