MODEL 1
REMARK minimizedAffinity 6.93219042
REMARK minimizedRMSD -1
REMARK  0 active torsions:
REMARK  status: ('A' for Active; 'I' for Inactive)
ROOT
ATOM      1  C   UNL d   1       3.193  -2.014   0.049  0.00  0.00     0.172 C 
ATOM      2  N   UNL d   1       2.399  -1.895   1.249  0.00  0.00    -0.070 N 
ATOM      3  C1  UNL d   1       1.586  -0.840   1.567  0.00  0.00    -0.004 A 
ATOM      4  C2  UNL d   1       1.006  -1.107   2.788  0.00  0.00    -0.047 A 
ATOM      5  C3  UNL d   1       1.488  -2.365   3.220  0.00  0.00    -0.047 A 
ATOM      6  C4  UNL d   1       2.348  -2.831   2.248  0.00  0.00    -0.004 A 
ENDROOT
TORSDOF 0
ENDMDL
