MODEL 1
REMARK minimizedAffinity 3.86020207
REMARK minimizedRMSD -1
REMARK  0 active torsions:
REMARK  status: ('A' for Active; 'I' for Inactive)
ROOT
ATOM      1  C   UNL d   1       3.024  -3.268   2.860  0.00  0.00     0.172 C 
ATOM      2  N   UNL d   1       2.449  -2.506   3.943  0.00  0.00    -0.070 N 
ATOM      3  C1  UNL d   1       1.918  -1.248   3.840  0.00  0.00    -0.004 A 
ATOM      4  C2  UNL d   1       1.476  -0.873   5.090  0.00  0.00    -0.047 A 
ATOM      5  C3  UNL d   1       1.751  -1.942   5.975  0.00  0.00    -0.047 A 
ATOM      6  C4  UNL d   1       2.353  -2.940   5.239  0.00  0.00    -0.004 A 
ENDROOT
TORSDOF 0
ENDMDL
