MODEL 1
REMARK minimizedAffinity 8.39881134
REMARK minimizedRMSD -1
REMARK  0 active torsions:
REMARK  status: ('A' for Active; 'I' for Inactive)
ROOT
ATOM      1  C   UNL d   1       3.680  -1.817   0.074  0.00  0.00     0.172 C 
ATOM      2  N   UNL d   1       2.588  -1.464   0.951  0.00  0.00    -0.070 N 
ATOM      3  C1  UNL d   1       1.950  -0.254   0.983  0.00  0.00    -0.004 A 
ATOM      4  C2  UNL d   1       0.970  -0.319   1.951  0.00  0.00    -0.047 A 
ATOM      5  C3  UNL d   1       1.023  -1.613   2.520  0.00  0.00    -0.047 A 
ATOM      6  C4  UNL d   1       2.034  -2.301   1.883  0.00  0.00    -0.004 A 
ENDROOT
TORSDOF 0
ENDMDL
