MODEL 1
REMARK minimizedAffinity 2.1526897
REMARK minimizedRMSD -1
REMARK  0 active torsions:
REMARK  status: ('A' for Active; 'I' for Inactive)
ROOT
ATOM      1  C   UNL d   1       1.539  -2.360   5.995  0.00  0.00     0.172 C 
ATOM      2  N   UNL d   1       1.685  -1.940   4.622  0.00  0.00    -0.070 N 
ATOM      3  C1  UNL d   1       2.209  -2.696   3.607  0.00  0.00    -0.004 A 
ATOM      4  C2  UNL d   1       2.174  -1.939   2.455  0.00  0.00    -0.047 A 
ATOM      5  C3  UNL d   1       1.611  -0.684   2.790  0.00  0.00    -0.047 A 
ATOM      6  C4  UNL d   1       1.318  -0.712   4.137  0.00  0.00    -0.004 A 
ENDROOT
TORSDOF 0
ENDMDL
