MODEL 1
REMARK minimizedAffinity 1.12942529
REMARK minimizedRMSD -1
REMARK  0 active torsions:
REMARK  status: ('A' for Active; 'I' for Inactive)
ROOT
ATOM      1  C   UNL d   1       1.855  -2.685   5.986  0.00  0.00     0.172 C 
ATOM      2  N   UNL d   1       1.771  -2.259   4.608  0.00  0.00    -0.070 N 
ATOM      3  C1  UNL d   1       1.290  -1.054   4.172  0.00  0.00    -0.004 A 
ATOM      4  C2  UNL d   1       1.380  -1.036   2.797  0.00  0.00    -0.047 A 
ATOM      5  C3  UNL d   1       1.934  -2.273   2.393  0.00  0.00    -0.047 A 
ATOM      6  C4  UNL d   1       2.167  -3.012   3.534  0.00  0.00    -0.004 A 
ENDROOT
TORSDOF 0
ENDMDL
