MODEL 1
REMARK minimizedAffinity 3.5458703
REMARK minimizedRMSD -1
REMARK  0 active torsions:
REMARK  status: ('A' for Active; 'I' for Inactive)
ROOT
ATOM      1  C   UNL d   1      -4.130  -5.332  -0.312  0.00  0.00     0.172 C 
ATOM      2  N   UNL d   1      -2.825  -4.714  -0.289  0.00  0.00    -0.070 N 
ATOM      3  C1  UNL d   1      -1.837  -4.899  -1.219  0.00  0.00    -0.004 A 
ATOM      4  C2  UNL d   1      -0.753  -4.138  -0.840  0.00  0.00    -0.047 A 
ATOM      5  C3  UNL d   1      -1.100  -3.473   0.360  0.00  0.00    -0.047 A 
ATOM      6  C4  UNL d   1      -2.389  -3.847   0.678  0.00  0.00    -0.004 A 
ENDROOT
TORSDOF 0
ENDMDL
