MODEL 1
REMARK minimizedAffinity 4.61948395
REMARK minimizedRMSD -1
REMARK  0 active torsions:
REMARK  status: ('A' for Active; 'I' for Inactive)
ROOT
ATOM      1  C   UNL d   1      -5.246   4.544   0.195  0.00  0.00     0.172 C 
ATOM      2  N   UNL d   1      -5.253   4.460  -1.247  0.00  0.00    -0.070 N 
ATOM      3  C1  UNL d   1      -6.000   3.588  -1.993  0.00  0.00    -0.004 A 
ATOM      4  C2  UNL d   1      -5.724   3.827  -3.322  0.00  0.00    -0.047 A 
ATOM      5  C3  UNL d   1      -4.778   4.877  -3.377  0.00  0.00    -0.047 A 
ATOM      6  C4  UNL d   1      -4.504   5.251  -2.078  0.00  0.00    -0.004 A 
ENDROOT
TORSDOF 0
ENDMDL
