MODEL 1
REMARK minimizedAffinity -3.85189152
REMARK minimizedRMSD -1
REMARK  2 active torsions:
REMARK  status: ('A' for Active; 'I' for Inactive)
REMARK    1  A    between atoms: C2'_3  and  C1'_4 
REMARK    2  A    between atoms: C1'_4  and  C1_5 
ROOT
ATOM      1  C1  I4B d   1       3.222  -3.453  -1.508  0.00  0.00    -0.075 A 
ATOM      2  C2  I4B d   1       3.434  -2.737  -0.357  0.00  0.00     0.003 A 
ATOM      3  C3  I4B d   1       3.087  -1.365  -0.296  0.00  0.00     0.002 A 
ATOM      4  C4  I4B d   1       2.582  -0.742  -1.419  0.00  0.00    -0.004 A 
ATOM      5  C5  I4B d   1       2.346  -1.475  -2.578  0.00  0.00     0.002 A 
ATOM      6  C6  I4B d   1       2.656  -2.842  -2.620  0.00  0.00     0.003 A 
ENDROOT
BRANCH   1   7
ATOM      7  C1' I4B d   1       3.630  -4.891  -1.548  0.00  0.00     0.060 C 
BRANCH   7   8
ATOM      8  C2' I4B d   1       4.174  -5.184  -2.931  0.00  0.00    -0.013 C 
ATOM      9  C4' I4B d   1       3.104  -5.033  -3.981  0.00  0.00     0.013 C 
ATOM     10  C3' I4B d   1       5.319  -4.250  -3.186  0.00  0.00     0.013 C 
ENDBRANCH   7   8
ENDBRANCH   1   7
TORSDOF 2
ENDMDL
