MODEL 1
REMARK minimizedAffinity 0.0366551131
REMARK minimizedRMSD -1
REMARK  2 active torsions:
REMARK  status: ('A' for Active; 'I' for Inactive)
REMARK    1  A    between atoms: C2'_3  and  C1'_4 
REMARK    2  A    between atoms: C1'_4  and  C1_5 
ROOT
ATOM      1  C1  I4B d   1       2.547  -3.233  -2.430  0.00  0.00    -0.075 A 
ATOM      2  C2  I4B d   1       2.921  -3.094  -3.744  0.00  0.00     0.003 A 
ATOM      3  C3  I4B d   1       3.952  -3.903  -4.280  0.00  0.00     0.002 A 
ATOM      4  C4  I4B d   1       4.612  -4.796  -3.461  0.00  0.00    -0.004 A 
ATOM      5  C5  I4B d   1       4.216  -4.951  -2.135  0.00  0.00     0.002 A 
ATOM      6  C6  I4B d   1       3.169  -4.174  -1.620  0.00  0.00     0.003 A 
ENDROOT
BRANCH   1   7
ATOM      7  C1' I4B d   1       1.477  -2.340  -1.887  0.00  0.00     0.060 C 
BRANCH   7   8
ATOM      8  C2' I4B d   1       2.067  -1.550  -0.737  0.00  0.00    -0.013 C 
ATOM      9  C4' I4B d   1       3.163  -2.322  -0.051  0.00  0.00     0.013 C 
ATOM     10  C3' I4B d   1       2.580  -0.250  -1.282  0.00  0.00     0.013 C 
ENDBRANCH   7   8
ENDBRANCH   1   7
TORSDOF 2
ENDMDL
