MODEL 1
REMARK minimizedAffinity 7.44232512
REMARK minimizedRMSD -1
REMARK  2 active torsions:
REMARK  status: ('A' for Active; 'I' for Inactive)
REMARK    1  A    between atoms: C2'_3  and  C1'_4 
REMARK    2  A    between atoms: C1'_4  and  C1_5 
ROOT
ATOM      1  C1  I4B d   1       3.522  -4.088  -1.742  0.00  0.00    -0.075 A 
ATOM      2  C2  I4B d   1       4.671  -4.442  -2.404  0.00  0.00     0.003 A 
ATOM      3  C3  I4B d   1       4.800  -4.194  -3.792  0.00  0.00     0.002 A 
ATOM      4  C4  I4B d   1       3.743  -3.640  -4.484  0.00  0.00    -0.004 A 
ATOM      5  C5  I4B d   1       2.587  -3.262  -3.808  0.00  0.00     0.002 A 
ATOM      6  C6  I4B d   1       2.480  -3.476  -2.426  0.00  0.00     0.003 A 
ENDROOT
BRANCH   1   7
ATOM      7  C1' I4B d   1       3.407  -4.395  -0.283  0.00  0.00     0.060 C 
BRANCH   7   8
ATOM      8  C2' I4B d   1       3.992  -3.229   0.487  0.00  0.00    -0.013 C 
ATOM      9  C4' I4B d   1       5.470  -3.094   0.231  0.00  0.00     0.013 C 
ATOM     10  C3' I4B d   1       3.257  -1.988   0.078  0.00  0.00     0.013 C 
ENDBRANCH   7   8
ENDBRANCH   1   7
TORSDOF 2
ENDMDL
