MODEL 1
REMARK minimizedAffinity 1.53142941
REMARK minimizedRMSD -1
REMARK  2 active torsions:
REMARK  status: ('A' for Active; 'I' for Inactive)
REMARK    1  A    between atoms: C2'_3  and  C1'_4 
REMARK    2  A    between atoms: C1'_4  and  C1_5 
ROOT
ATOM      1  C1  I4B d   1       3.318  -4.179  -1.340  0.00  0.00    -0.075 A 
ATOM      2  C2  I4B d   1       2.336  -3.287  -1.693  0.00  0.00     0.003 A 
ATOM      3  C3  I4B d   1       2.080  -3.012  -3.058  0.00  0.00     0.002 A 
ATOM      4  C4  I4B d   1       2.858  -3.608  -4.029  0.00  0.00    -0.004 A 
ATOM      5  C5  I4B d   1       3.839  -4.529  -3.671  0.00  0.00     0.002 A 
ATOM      6  C6  I4B d   1       4.063  -4.825  -2.318  0.00  0.00     0.003 A 
ENDROOT
BRANCH   1   7
ATOM      7  C1' I4B d   1       3.584  -4.421   0.112  0.00  0.00     0.060 C 
BRANCH   7   8
ATOM      8  C2' I4B d   1       4.906  -3.767   0.460  0.00  0.00    -0.013 C 
ATOM      9  C4' I4B d   1       5.996  -4.205  -0.484  0.00  0.00     0.013 C 
ATOM     10  C3' I4B d   1       4.714  -2.281   0.413  0.00  0.00     0.013 C 
ENDBRANCH   7   8
ENDBRANCH   1   7
TORSDOF 2
ENDMDL
