MODEL 1
REMARK minimizedAffinity 3.74232578
REMARK minimizedRMSD -1
REMARK  2 active torsions:
REMARK  status: ('A' for Active; 'I' for Inactive)
REMARK    1  A    between atoms: C2'_3  and  C1'_4 
REMARK    2  A    between atoms: C1'_4  and  C1_5 
ROOT
ATOM      1  C1  I4B d   1       3.414  -4.822  -2.010  0.00  0.00    -0.075 A 
ATOM      2  C2  I4B d   1       2.168  -4.326  -2.298  0.00  0.00     0.003 A 
ATOM      3  C3  I4B d   1       1.925  -3.684  -3.536  0.00  0.00     0.002 A 
ATOM      4  C4  I4B d   1       2.963  -3.516  -4.430  0.00  0.00    -0.004 A 
ATOM      5  C5  I4B d   1       4.220  -4.041  -4.146  0.00  0.00     0.002 A 
ATOM      6  C6  I4B d   1       4.445  -4.709  -2.934  0.00  0.00     0.003 A 
ENDROOT
BRANCH   1   7
ATOM      7  C1' I4B d   1       3.644  -5.466  -0.679  0.00  0.00     0.060 C 
BRANCH   7   8
ATOM      8  C2' I4B d   1       4.111  -4.392   0.283  0.00  0.00    -0.013 C 
ATOM      9  C4' I4B d   1       5.540  -4.002   0.014  0.00  0.00     0.013 C 
ATOM     10  C3' I4B d   1       3.193  -3.215   0.145  0.00  0.00     0.013 C 
ENDBRANCH   7   8
ENDBRANCH   1   7
TORSDOF 2
ENDMDL
