MODEL 1
REMARK minimizedAffinity 5.1711297
REMARK minimizedRMSD -1
REMARK  2 active torsions:
REMARK  status: ('A' for Active; 'I' for Inactive)
REMARK    1  A    between atoms: C2'_3  and  C1'_4 
REMARK    2  A    between atoms: C1'_4  and  C1_5 
ROOT
ATOM      1  C1  I4B d   1       3.632  -4.795  -2.094  0.00  0.00    -0.075 A 
ATOM      2  C2  I4B d   1       4.653  -5.007  -1.201  0.00  0.00     0.003 A 
ATOM      3  C3  I4B d   1       4.801  -4.162  -0.075  0.00  0.00     0.002 A 
ATOM      4  C4  I4B d   1       3.942  -3.095   0.092  0.00  0.00    -0.004 A 
ATOM      5  C5  I4B d   1       2.894  -2.895  -0.802  0.00  0.00     0.002 A 
ATOM      6  C6  I4B d   1       2.730  -3.758  -1.896  0.00  0.00     0.003 A 
ENDROOT
BRANCH   1   7
ATOM      7  C1' I4B d   1       3.525  -5.687  -3.291  0.00  0.00     0.060 C 
BRANCH   7   8
ATOM      8  C2' I4B d   1       4.120  -4.952  -4.475  0.00  0.00    -0.013 C 
ATOM      9  C4' I4B d   1       3.384  -3.666  -4.745  0.00  0.00     0.013 C 
ATOM     10  C3' I4B d   1       5.568  -4.695  -4.181  0.00  0.00     0.013 C 
ENDBRANCH   7   8
ENDBRANCH   1   7
TORSDOF 2
ENDMDL
