MODEL 1
REMARK minimizedAffinity 12.2953062
REMARK minimizedRMSD -1
REMARK  2 active torsions:
REMARK  status: ('A' for Active; 'I' for Inactive)
REMARK    1  A    between atoms: C2'_3  and  C1'_4 
REMARK    2  A    between atoms: C1'_4  and  C1_5 
ROOT
ATOM      1  C1  I4B d   1      -0.991   1.271   2.420  0.00  0.00    -0.075 A 
ATOM      2  C2  I4B d   1       0.040   0.816   1.636  0.00  0.00     0.003 A 
ATOM      3  C3  I4B d   1       1.383   1.032   2.030  0.00  0.00     0.002 A 
ATOM      4  C4  I4B d   1       1.648   1.746   3.181  0.00  0.00    -0.004 A 
ATOM      5  C5  I4B d   1       0.601   2.187   3.985  0.00  0.00     0.002 A 
ATOM      6  C6  I4B d   1      -0.727   1.937   3.609  0.00  0.00     0.003 A 
ENDROOT
BRANCH   1   7
ATOM      7  C1' I4B d   1      -2.397   1.054   1.957  0.00  0.00     0.060 C 
BRANCH   7   8
ATOM      8  C2' I4B d   1      -3.200   0.535   3.132  0.00  0.00    -0.013 C 
ATOM      9  C4' I4B d   1      -3.967   1.644   3.801  0.00  0.00     0.013 C 
ATOM     10  C3' I4B d   1      -4.124  -0.533   2.626  0.00  0.00     0.013 C 
ENDBRANCH   7   8
ENDBRANCH   1   7
TORSDOF 2
ENDMDL
