MODEL 1
REMARK minimizedAffinity 0.858295739
REMARK minimizedRMSD -1
REMARK  2 active torsions:
REMARK  status: ('A' for Active; 'I' for Inactive)
REMARK    1  A    between atoms: C2'_3  and  C1'_4 
REMARK    2  A    between atoms: C1'_4  and  C1_5 
ROOT
ATOM      1  C1  I4B d   1      -0.845  -3.181   0.449  0.00  0.00    -0.075 A 
ATOM      2  C2  I4B d   1      -0.985  -3.168  -0.916  0.00  0.00     0.003 A 
ATOM      3  C3  I4B d   1       0.069  -2.696  -1.736  0.00  0.00     0.002 A 
ATOM      4  C4  I4B d   1       1.218  -2.204  -1.150  0.00  0.00    -0.004 A 
ATOM      5  C5  I4B d   1       1.366  -2.240   0.234  0.00  0.00     0.002 A 
ATOM      6  C6  I4B d   1       0.333  -2.743   1.038  0.00  0.00     0.003 A 
ENDROOT
BRANCH   1   7
ATOM      7  C1' I4B d   1      -1.991  -3.655   1.286  0.00  0.00     0.060 C 
BRANCH   7   8
ATOM      8  C2' I4B d   1      -1.521  -3.726   2.724  0.00  0.00    -0.013 C 
ATOM      9  C4' I4B d   1      -1.351  -2.350   3.311  0.00  0.00     0.013 C 
ATOM     10  C3' I4B d   1      -2.524  -4.526   3.501  0.00  0.00     0.013 C 
ENDBRANCH   7   8
ENDBRANCH   1   7
TORSDOF 2
ENDMDL
