MODEL 1
REMARK minimizedAffinity 3.01156497
REMARK minimizedRMSD -1
REMARK  2 active torsions:
REMARK  status: ('A' for Active; 'I' for Inactive)
REMARK    1  A    between atoms: C2'_3  and  C1'_4 
REMARK    2  A    between atoms: C1'_4  and  C1_5 
ROOT
ATOM      1  C1  I4B d   1       0.014   1.564   2.679  0.00  0.00    -0.075 A 
ATOM      2  C2  I4B d   1       0.056   0.728   3.767  0.00  0.00     0.003 A 
ATOM      3  C3  I4B d   1      -1.092   0.555   4.578  0.00  0.00     0.002 A 
ATOM      4  C4  I4B d   1      -2.238   1.271   4.295  0.00  0.00    -0.004 A 
ATOM      5  C5  I4B d   1      -2.286   2.101   3.179  0.00  0.00     0.002 A 
ATOM      6  C6  I4B d   1      -1.157   2.239   2.358  0.00  0.00     0.003 A 
ENDROOT
BRANCH   1   7
ATOM      7  C1' I4B d   1       1.254   1.748   1.864  0.00  0.00     0.060 C 
BRANCH   7   8
ATOM      8  C2' I4B d   1       0.971   2.804   0.815  0.00  0.00    -0.013 C 
ATOM      9  C4' I4B d   1       1.629   4.113   1.167  0.00  0.00     0.013 C 
ATOM     10  C3' I4B d   1       1.461   2.290  -0.505  0.00  0.00     0.013 C 
ENDBRANCH   7   8
ENDBRANCH   1   7
TORSDOF 2
ENDMDL
