MODEL 1
REMARK minimizedAffinity 11.4064541
REMARK minimizedRMSD -1
REMARK  2 active torsions:
REMARK  status: ('A' for Active; 'I' for Inactive)
REMARK    1  A    between atoms: C2'_3  and  C1'_4 
REMARK    2  A    between atoms: C1'_4  and  C1_5 
ROOT
ATOM      1  C1  I4B d   1       1.847   3.590  -1.241  0.00  0.00    -0.075 A 
ATOM      2  C2  I4B d   1       2.236   4.755  -1.855  0.00  0.00     0.003 A 
ATOM      3  C3  I4B d   1       2.222   5.977  -1.139  0.00  0.00     0.002 A 
ATOM      4  C4  I4B d   1       1.767   5.995   0.164  0.00  0.00    -0.004 A 
ATOM      5  C5  I4B d   1       1.395   4.810   0.791  0.00  0.00     0.002 A 
ATOM      6  C6  I4B d   1       1.447   3.597   0.089  0.00  0.00     0.003 A 
ENDROOT
BRANCH   1   7
ATOM      7  C1' I4B d   1       1.843   2.323  -2.037  0.00  0.00     0.060 C 
BRANCH   7   8
ATOM      8  C2' I4B d   1       0.612   2.330  -2.919  0.00  0.00    -0.013 C 
ATOM      9  C4' I4B d   1      -0.361   3.396  -2.489  0.00  0.00     0.013 C 
ATOM     10  C3' I4B d   1       1.057   2.543  -4.335  0.00  0.00     0.013 C 
ENDBRANCH   7   8
ENDBRANCH   1   7
TORSDOF 2
ENDMDL
