MODEL 1
REMARK minimizedAffinity 2.49655199
REMARK minimizedRMSD -1
REMARK  2 active torsions:
REMARK  status: ('A' for Active; 'I' for Inactive)
REMARK    1  A    between atoms: C2'_3  and  C1'_4 
REMARK    2  A    between atoms: C1'_4  and  C1_5 
ROOT
ATOM      1  C1  I4B d   1      -2.089  -0.703   3.518  0.00  0.00    -0.075 A 
ATOM      2  C2  I4B d   1      -1.071  -1.267   4.246  0.00  0.00     0.003 A 
ATOM      3  C3  I4B d   1      -0.960  -2.675   4.344  0.00  0.00     0.002 A 
ATOM      4  C4  I4B d   1      -1.911  -3.475   3.744  0.00  0.00    -0.004 A 
ATOM      5  C5  I4B d   1      -2.929  -2.902   2.987  0.00  0.00     0.002 A 
ATOM      6  C6  I4B d   1      -3.012  -1.508   2.863  0.00  0.00     0.003 A 
ENDROOT
BRANCH   1   7
ATOM      7  C1' I4B d   1      -2.195   0.788   3.463  0.00  0.00     0.060 C 
BRANCH   7   8
ATOM      8  C2' I4B d   1      -3.278   1.142   2.465  0.00  0.00    -0.013 C 
ATOM      9  C4' I4B d   1      -4.626   0.658   2.928  0.00  0.00     0.013 C 
ATOM     10  C3' I4B d   1      -3.270   2.631   2.282  0.00  0.00     0.013 C 
ENDBRANCH   7   8
ENDBRANCH   1   7
TORSDOF 2
ENDMDL
