MODEL 1
REMARK minimizedAffinity 1.41068327
REMARK minimizedRMSD -1
REMARK  2 active torsions:
REMARK  status: ('A' for Active; 'I' for Inactive)
REMARK    1  A    between atoms: C2'_3  and  C1'_4 
REMARK    2  A    between atoms: C1'_4  and  C1_5 
ROOT
ATOM      1  C1  I4B d   1       2.096   3.641  -1.391  0.00  0.00    -0.075 A 
ATOM      2  C2  I4B d   1       2.663   4.787  -1.889  0.00  0.00     0.003 A 
ATOM      3  C3  I4B d   1       2.637   5.983  -1.130  0.00  0.00     0.002 A 
ATOM      4  C4  I4B d   1       1.993   5.999   0.090  0.00  0.00    -0.004 A 
ATOM      5  C5  I4B d   1       1.439   4.830   0.603  0.00  0.00     0.002 A 
ATOM      6  C6  I4B d   1       1.501   3.640  -0.136  0.00  0.00     0.003 A 
ENDROOT
BRANCH   1   7
ATOM      7  C1' I4B d   1       2.113   2.404  -2.233  0.00  0.00     0.060 C 
BRANCH   7   8
ATOM      8  C2' I4B d   1       0.699   2.149  -2.716  0.00  0.00    -0.013 C 
ATOM      9  C4' I4B d   1       0.263   3.198  -3.705  0.00  0.00     0.013 C 
ATOM     10  C3' I4B d   1       0.659   0.779  -3.325  0.00  0.00     0.013 C 
ENDBRANCH   7   8
ENDBRANCH   1   7
TORSDOF 2
ENDMDL
