MODEL 1
REMARK minimizedAffinity 3.98560691
REMARK minimizedRMSD -1
REMARK  2 active torsions:
REMARK  status: ('A' for Active; 'I' for Inactive)
REMARK    1  A    between atoms: C2'_3  and  C1'_4 
REMARK    2  A    between atoms: C1'_4  and  C1_5 
ROOT
ATOM      1  C1  I4B d   1      -2.068   1.731   0.299  0.00  0.00    -0.075 A 
ATOM      2  C2  I4B d   1      -2.048   0.516   0.938  0.00  0.00     0.003 A 
ATOM      3  C3  I4B d   1      -3.259  -0.165   1.211  0.00  0.00     0.002 A 
ATOM      4  C4  I4B d   1      -4.461   0.423   0.876  0.00  0.00    -0.004 A 
ATOM      5  C5  I4B d   1      -4.478   1.644   0.208  0.00  0.00     0.002 A 
ATOM      6  C6  I4B d   1      -3.274   2.297  -0.094  0.00  0.00     0.003 A 
ENDROOT
BRANCH   1   7
ATOM      7  C1' I4B d   1      -0.773   2.438   0.056  0.00  0.00     0.060 C 
BRANCH   7   8
ATOM      8  C2' I4B d   1       0.352   1.483   0.396  0.00  0.00    -0.013 C 
ATOM      9  C4' I4B d   1       1.667   1.969  -0.156  0.00  0.00     0.013 C 
ATOM     10  C3' I4B d   1       0.409   1.347   1.888  0.00  0.00     0.013 C 
ENDBRANCH   7   8
ENDBRANCH   1   7
TORSDOF 2
ENDMDL
