MODEL 1
REMARK minimizedAffinity 3.14224744
REMARK minimizedRMSD -1
REMARK  2 active torsions:
REMARK  status: ('A' for Active; 'I' for Inactive)
REMARK    1  A    between atoms: C2'_3  and  C1'_4 
REMARK    2  A    between atoms: C1'_4  and  C1_5 
ROOT
ATOM      1  C1  I4B d   1      -0.080   1.656   1.124  0.00  0.00    -0.075 A 
ATOM      2  C2  I4B d   1      -0.468   0.370   1.410  0.00  0.00     0.003 A 
ATOM      3  C3  I4B d   1      -1.660  -0.155   0.855  0.00  0.00     0.002 A 
ATOM      4  C4  I4B d   1      -2.455   0.651   0.066  0.00  0.00    -0.004 A 
ATOM      5  C5  I4B d   1      -2.048   1.947  -0.242  0.00  0.00     0.002 A 
ATOM      6  C6  I4B d   1      -0.847   2.448   0.281  0.00  0.00     0.003 A 
ENDROOT
BRANCH   1   7
ATOM      7  C1' I4B d   1       1.168   2.189   1.754  0.00  0.00     0.060 C 
BRANCH   7   8
ATOM      8  C2' I4B d   1       1.086   1.929   3.244  0.00  0.00    -0.013 C 
ATOM      9  C4' I4B d   1       2.451   1.967   3.879  0.00  0.00     0.013 C 
ATOM     10  C3' I4B d   1       0.181   2.962   3.846  0.00  0.00     0.013 C 
ENDBRANCH   7   8
ENDBRANCH   1   7
TORSDOF 2
ENDMDL
