MODEL 1
REMARK minimizedAffinity 2.97643375
REMARK minimizedRMSD -1
REMARK  2 active torsions:
REMARK  status: ('A' for Active; 'I' for Inactive)
REMARK    1  A    between atoms: C2'_3  and  C1'_4 
REMARK    2  A    between atoms: C1'_4  and  C1_5 
ROOT
ATOM      1  C1  I4B d   1      -1.576  -4.099   1.654  0.00  0.00    -0.075 A 
ATOM      2  C2  I4B d   1      -2.292  -4.266   0.495  0.00  0.00     0.003 A 
ATOM      3  C3  I4B d   1      -2.969  -3.168  -0.089  0.00  0.00     0.002 A 
ATOM      4  C4  I4B d   1      -2.945  -1.941   0.542  0.00  0.00    -0.004 A 
ATOM      5  C5  I4B d   1      -2.199  -1.768   1.704  0.00  0.00     0.002 A 
ATOM      6  C6  I4B d   1      -1.500  -2.851   2.258  0.00  0.00     0.003 A 
ENDROOT
BRANCH   1   7
ATOM      7  C1' I4B d   1      -0.900  -5.287   2.261  0.00  0.00     0.060 C 
BRANCH   7   8
ATOM      8  C2' I4B d   1      -0.042  -4.800   3.411  0.00  0.00    -0.013 C 
ATOM      9  C4' I4B d   1      -0.813  -3.868   4.309  0.00  0.00     0.013 C 
ATOM     10  C3' I4B d   1       0.445  -6.000   4.167  0.00  0.00     0.013 C 
ENDBRANCH   7   8
ENDBRANCH   1   7
TORSDOF 2
ENDMDL
