MODEL 1
REMARK minimizedAffinity 2.34309554
REMARK minimizedRMSD -1
REMARK  2 active torsions:
REMARK  status: ('A' for Active; 'I' for Inactive)
REMARK    1  A    between atoms: C2'_3  and  C1'_4 
REMARK    2  A    between atoms: C1'_4  and  C1_5 
ROOT
ATOM      1  C1  I4B d   1       1.594   4.822   2.130  0.00  0.00    -0.075 A 
ATOM      2  C2  I4B d   1       1.509   4.396   3.432  0.00  0.00     0.003 A 
ATOM      3  C3  I4B d   1       0.675   3.304   3.773  0.00  0.00     0.002 A 
ATOM      4  C4  I4B d   1      -0.091   2.703   2.794  0.00  0.00    -0.004 A 
ATOM      5  C5  I4B d   1       0.014   3.121   1.471  0.00  0.00     0.002 A 
ATOM      6  C6  I4B d   1       0.871   4.179   1.134  0.00  0.00     0.003 A 
ENDROOT
BRANCH   1   7
ATOM      7  C1' I4B d   1       2.460   5.999   1.812  0.00  0.00     0.060 C 
BRANCH   7   8
ATOM      8  C2' I4B d   1       3.892   5.513   1.714  0.00  0.00    -0.013 C 
ATOM      9  C4' I4B d   1       4.548   6.000   0.449  0.00  0.00     0.013 C 
ATOM     10  C3' I4B d   1       4.629   5.997   2.927  0.00  0.00     0.013 C 
ENDBRANCH   7   8
ENDBRANCH   1   7
TORSDOF 2
ENDMDL
