MODEL 1
REMARK minimizedAffinity 8.21259975
REMARK minimizedRMSD -1
REMARK  2 active torsions:
REMARK  status: ('A' for Active; 'I' for Inactive)
REMARK    1  A    between atoms: C2'_3  and  C1'_4 
REMARK    2  A    between atoms: C1'_4  and  C1_5 
ROOT
ATOM      1  C1  I4B d   1      -0.235   1.391   1.223  0.00  0.00    -0.075 A 
ATOM      2  C2  I4B d   1      -1.121   2.335   1.678  0.00  0.00     0.003 A 
ATOM      3  C3  I4B d   1      -0.687   3.351   2.563  0.00  0.00     0.002 A 
ATOM      4  C4  I4B d   1       0.621   3.356   3.004  0.00  0.00    -0.004 A 
ATOM      5  C5  I4B d   1       1.523   2.412   2.523  0.00  0.00     0.002 A 
ATOM      6  C6  I4B d   1       1.096   1.430   1.617  0.00  0.00     0.003 A 
ENDROOT
BRANCH   1   7
ATOM      7  C1' I4B d   1      -0.735   0.312   0.315  0.00  0.00     0.060 C 
BRANCH   7   8
ATOM      8  C2' I4B d   1      -2.132  -0.065   0.763  0.00  0.00    -0.013 C 
ATOM      9  C4' I4B d   1      -2.802  -0.967  -0.241  0.00  0.00     0.013 C 
ATOM     10  C3' I4B d   1      -2.025  -0.731   2.102  0.00  0.00     0.013 C 
ENDBRANCH   7   8
ENDBRANCH   1   7
TORSDOF 2
ENDMDL
