MODEL 1
REMARK minimizedAffinity 6.67417002
REMARK minimizedRMSD -1
REMARK  2 active torsions:
REMARK  status: ('A' for Active; 'I' for Inactive)
REMARK    1  A    between atoms: C2'_3  and  C1'_4 
REMARK    2  A    between atoms: C1'_4  and  C1_5 
ROOT
ATOM      1  C1  I4B d   1       0.839   1.335  -0.255  0.00  0.00    -0.075 A 
ATOM      2  C2  I4B d   1       2.091   0.907  -0.620  0.00  0.00     0.003 A 
ATOM      3  C3  I4B d   1       2.557   1.112  -1.942  0.00  0.00     0.002 A 
ATOM      4  C4  I4B d   1       1.724   1.699  -2.872  0.00  0.00    -0.004 A 
ATOM      5  C5  I4B d   1       0.463   2.152  -2.494  0.00  0.00     0.002 A 
ATOM      6  C6  I4B d   1       0.022   1.980  -1.174  0.00  0.00     0.003 A 
ENDROOT
BRANCH   1   7
ATOM      7  C1' I4B d   1       0.367   1.073   1.140  0.00  0.00     0.060 C 
BRANCH   7   8
ATOM      8  C2' I4B d   1      -1.130   1.302   1.177  0.00  0.00    -0.013 C 
ATOM      9  C4' I4B d   1      -1.882   0.056   0.789  0.00  0.00     0.013 C 
ATOM     10  C3' I4B d   1      -1.497   1.746   2.562  0.00  0.00     0.013 C 
ENDBRANCH   7   8
ENDBRANCH   1   7
TORSDOF 2
ENDMDL
