MODEL 1
REMARK minimizedAffinity 10.2658691
REMARK minimizedRMSD -1
REMARK  2 active torsions:
REMARK  status: ('A' for Active; 'I' for Inactive)
REMARK    1  A    between atoms: C2'_3  and  C1'_4 
REMARK    2  A    between atoms: C1'_4  and  C1_5 
ROOT
ATOM      1  C1  I4B d   1      -0.576  -5.957   3.362  0.00  0.00    -0.075 A 
ATOM      2  C2  I4B d   1      -0.333  -5.926   4.713  0.00  0.00     0.003 A 
ATOM      3  C3  I4B d   1       0.997  -5.917   5.198  0.00  0.00     0.002 A 
ATOM      4  C4  I4B d   1       2.047  -5.991   4.305  0.00  0.00    -0.004 A 
ATOM      5  C5  I4B d   1       1.799  -5.999   2.935  0.00  0.00     0.002 A 
ATOM      6  C6  I4B d   1       0.480  -5.970   2.460  0.00  0.00     0.003 A 
ENDROOT
BRANCH   1   7
ATOM      7  C1' I4B d   1      -1.993  -5.999   2.886  0.00  0.00     0.060 C 
BRANCH   7   8
ATOM      8  C2' I4B d   1      -1.981  -5.891   1.374  0.00  0.00    -0.013 C 
ATOM      9  C4' I4B d   1      -3.372  -5.999   0.808  0.00  0.00     0.013 C 
ATOM     10  C3' I4B d   1      -1.348  -4.582   1.009  0.00  0.00     0.013 C 
ENDBRANCH   7   8
ENDBRANCH   1   7
TORSDOF 2
ENDMDL
