MODEL 1
REMARK minimizedAffinity 2.26775837
REMARK minimizedRMSD -1
REMARK  2 active torsions:
REMARK  status: ('A' for Active; 'I' for Inactive)
REMARK    1  A    between atoms: C2'_3  and  C1'_4 
REMARK    2  A    between atoms: C1'_4  and  C1_5 
ROOT
ATOM      1  C1  I4B d   1       3.002   2.022   1.737  0.00  0.00    -0.075 A 
ATOM      2  C2  I4B d   1       2.117   1.196   1.090  0.00  0.00     0.003 A 
ATOM      3  C3  I4B d   1       0.726   1.322   1.319  0.00  0.00     0.002 A 
ATOM      4  C4  I4B d   1       0.269   2.249   2.234  0.00  0.00    -0.004 A 
ATOM      5  C5  I4B d   1       1.166   3.101   2.872  0.00  0.00     0.002 A 
ATOM      6  C6  I4B d   1       2.540   2.996   2.613  0.00  0.00     0.003 A 
ENDROOT
BRANCH   1   7
ATOM      7  C1' I4B d   1       4.467   1.839   1.497  0.00  0.00     0.060 C 
BRANCH   7   8
ATOM      8  C2' I4B d   1       5.013   3.134   0.931  0.00  0.00    -0.013 C 
ATOM      9  C4' I4B d   1       5.998   3.770   1.876  0.00  0.00     0.013 C 
ATOM     10  C3' I4B d   1       5.651   2.828  -0.392  0.00  0.00     0.013 C 
ENDBRANCH   7   8
ENDBRANCH   1   7
TORSDOF 2
ENDMDL
