MODEL 1
REMARK minimizedAffinity 14.8682394
REMARK minimizedRMSD -1
REMARK  2 active torsions:
REMARK  status: ('A' for Active; 'I' for Inactive)
REMARK    1  A    between atoms: C2'_3  and  C1'_4 
REMARK    2  A    between atoms: C1'_4  and  C1_5 
ROOT
ATOM      1  C1  I4B d   1       2.501   2.481   2.082  0.00  0.00    -0.075 A 
ATOM      2  C2  I4B d   1       1.165   2.738   2.265  0.00  0.00     0.003 A 
ATOM      3  C3  I4B d   1       0.192   1.827   1.789  0.00  0.00     0.002 A 
ATOM      4  C4  I4B d   1       0.594   0.704   1.095  0.00  0.00    -0.004 A 
ATOM      5  C5  I4B d   1       1.949   0.433   0.930  0.00  0.00     0.002 A 
ATOM      6  C6  I4B d   1       2.910   1.321   1.437  0.00  0.00     0.003 A 
ENDROOT
BRANCH   1   7
ATOM      7  C1' I4B d   1       3.501   3.481   2.569  0.00  0.00     0.060 C 
BRANCH   7   8
ATOM      8  C2' I4B d   1       3.937   4.320   1.385  0.00  0.00    -0.013 C 
ATOM      9  C4' I4B d   1       3.826   5.791   1.690  0.00  0.00     0.013 C 
ATOM     10  C3' I4B d   1       5.347   3.943   1.044  0.00  0.00     0.013 C 
ENDBRANCH   7   8
ENDBRANCH   1   7
TORSDOF 2
ENDMDL
