MODEL 1
REMARK minimizedAffinity 3.96607876
REMARK minimizedRMSD -1
REMARK  0 active torsions:
REMARK  status: ('A' for Active; 'I' for Inactive)
ROOT
ATOM      1  C1  BNZ d   1      -1.636  -0.044  -0.384  0.00  0.00     0.000 A 
ATOM      2  C2  BNZ d   1      -2.691   0.240   0.441  0.00  0.00     0.000 A 
ATOM      3  C3  BNZ d   1      -2.515   0.343   1.792  0.00  0.00     0.000 A 
ATOM      4  C4  BNZ d   1      -1.294   0.122   2.321  0.00  0.00     0.000 A 
ATOM      5  C5  BNZ d   1      -0.222  -0.175   1.503  0.00  0.00     0.000 A 
ATOM      6  C6  BNZ d   1      -0.395  -0.239   0.140  0.00  0.00     0.000 A 
ENDROOT
TORSDOF 0
ENDMDL
