MODEL 1
REMARK minimizedAffinity 9.00252724
REMARK minimizedRMSD -1
REMARK  0 active torsions:
REMARK  status: ('A' for Active; 'I' for Inactive)
ROOT
ATOM      1  C1  BNZ d   1      -0.947  -0.183  -0.110  0.00  0.00     0.000 A 
ATOM      2  C2  BNZ d   1      -0.859   0.118   1.223  0.00  0.00     0.000 A 
ATOM      3  C3  BNZ d   1      -1.958   0.538   1.920  0.00  0.00     0.000 A 
ATOM      4  C4  BNZ d   1      -3.132   0.694   1.276  0.00  0.00     0.000 A 
ATOM      5  C5  BNZ d   1      -3.235   0.404  -0.070  0.00  0.00     0.000 A 
ATOM      6  C6  BNZ d   1      -2.136  -0.055  -0.760  0.00  0.00     0.000 A 
ENDROOT
TORSDOF 0
ENDMDL
