MODEL 1
REMARK minimizedAffinity -3.37089491
REMARK minimizedRMSD -1
REMARK  0 active torsions:
REMARK  status: ('A' for Active; 'I' for Inactive)
ROOT
ATOM      1  C1  BNZ d   1       0.576  -1.231  -1.534  0.00  0.00     0.000 A 
ATOM      2  C2  BNZ d   1       0.493  -0.753  -2.815  0.00  0.00     0.000 A 
ATOM      3  C3  BNZ d   1       1.461   0.070  -3.318  0.00  0.00     0.000 A 
ATOM      4  C4  BNZ d   1       2.489   0.446  -2.529  0.00  0.00     0.000 A 
ATOM      5  C5  BNZ d   1       2.581  -0.020  -1.233  0.00  0.00     0.000 A 
ATOM      6  C6  BNZ d   1       1.625  -0.880  -0.742  0.00  0.00     0.000 A 
ENDROOT
TORSDOF 0
ENDMDL
