MODEL 1
REMARK minimizedAffinity -0.68665278
REMARK minimizedRMSD -1
REMARK  0 active torsions:
REMARK  status: ('A' for Active; 'I' for Inactive)
ROOT
ATOM      1  C1  BNZ d   1      -2.012  -0.278  -0.387  0.00  0.00     0.000 A 
ATOM      2  C2  BNZ d   1      -0.745  -0.681  -0.717  0.00  0.00     0.000 A 
ATOM      3  C3  BNZ d   1       0.329  -0.306   0.042  0.00  0.00     0.000 A 
ATOM      4  C4  BNZ d   1       0.139   0.502   1.105  0.00  0.00     0.000 A 
ATOM      5  C5  BNZ d   1      -1.131   0.923   1.445  0.00  0.00     0.000 A 
ATOM      6  C6  BNZ d   1      -2.213   0.513   0.702  0.00  0.00     0.000 A 
ENDROOT
TORSDOF 0
ENDMDL
