MODEL 1
REMARK minimizedAffinity -1.45734382
REMARK minimizedRMSD -1
REMARK  0 active torsions:
REMARK  status: ('A' for Active; 'I' for Inactive)
ROOT
ATOM      1  C1  BNZ d   1      -0.299  -0.060   2.096  0.00  0.00     0.000 A 
ATOM      2  C2  BNZ d   1      -0.138  -0.244   0.748  0.00  0.00     0.000 A 
ATOM      3  C3  BNZ d   1      -1.221  -0.321  -0.082  0.00  0.00     0.000 A 
ATOM      4  C4  BNZ d   1      -2.463  -0.253   0.440  0.00  0.00     0.000 A 
ATOM      5  C5  BNZ d   1      -2.642  -0.077   1.798  0.00  0.00     0.000 A 
ATOM      6  C6  BNZ d   1      -1.548   0.039   2.626  0.00  0.00     0.000 A 
ENDROOT
TORSDOF 0
ENDMDL
