MODEL 1
REMARK minimizedAffinity -1.04508018
REMARK minimizedRMSD -1
REMARK  0 active torsions:
REMARK  status: ('A' for Active; 'I' for Inactive)
ROOT
ATOM      1  C1  BNZ d   1      -2.970  -0.623   0.329  0.00  0.00     0.000 A 
ATOM      2  C2  BNZ d   1      -2.033   0.110   1.008  0.00  0.00     0.000 A 
ATOM      3  C3  BNZ d   1      -0.721   0.096   0.624  0.00  0.00     0.000 A 
ATOM      4  C4  BNZ d   1      -0.341  -0.680  -0.411  0.00  0.00     0.000 A 
ATOM      5  C5  BNZ d   1      -1.272  -1.432  -1.100  0.00  0.00     0.000 A 
ATOM      6  C6  BNZ d   1      -2.598  -1.386  -0.735  0.00  0.00     0.000 A 
ENDROOT
TORSDOF 0
ENDMDL
