MODEL 1
REMARK minimizedAffinity -1.62348914
REMARK minimizedRMSD -1
REMARK  0 active torsions:
REMARK  status: ('A' for Active; 'I' for Inactive)
ROOT
ATOM      1  C1  BNZ d   1      -0.782  -0.549   0.391  0.00  0.00     0.000 A 
ATOM      2  C2  BNZ d   1      -0.065  -0.630   1.555  0.00  0.00     0.000 A 
ATOM      3  C3  BNZ d   1      -0.622  -0.260   2.747  0.00  0.00     0.000 A 
ATOM      4  C4  BNZ d   1      -1.879   0.228   2.769  0.00  0.00     0.000 A 
ATOM      5  C5  BNZ d   1      -2.612   0.325   1.603  0.00  0.00     0.000 A 
ATOM      6  C6  BNZ d   1      -2.062  -0.085   0.410  0.00  0.00     0.000 A 
ENDROOT
TORSDOF 0
ENDMDL
