MODEL 1
REMARK minimizedAffinity -2.95914435
REMARK minimizedRMSD -1
REMARK  0 active torsions:
REMARK  status: ('A' for Active; 'I' for Inactive)
ROOT
ATOM      1  C1  DEN d   1      -2.520  -1.083   3.533  0.00  0.00     0.130 A 
ATOM      2  C2  DEN d   1      -3.393  -1.996   2.800  0.00  0.00    -0.031 A 
ATOM      3  C3  DEN d   1      -3.183  -1.768   1.356  0.00  0.00     0.027 A 
ATOM      4  C4  DEN d   1      -1.596  -0.103   0.190  0.00  0.00     0.027 A 
ATOM      5  C5  DEN d   1      -0.664   0.891   0.395  0.00  0.00    -0.003 A 
ATOM      6  C6  DEN d   1      -0.313   1.316   1.649  0.00  0.00     0.001 A 
ATOM      7  C7  DEN d   1      -0.865   0.715   2.749  0.00  0.00     0.017 A 
ATOM      8  C8  DEN d   1      -1.811  -0.283   2.550  0.00  0.00    -0.094 A 
ATOM      9  C9  DEN d   1      -2.143  -0.707   1.275  0.00  0.00    -0.072 A 
ENDROOT
TORSDOF 0
ENDMDL
