MODEL 1
REMARK minimizedAffinity -4.78861141
REMARK minimizedRMSD -1
REMARK  0 active torsions:
REMARK  status: ('A' for Active; 'I' for Inactive)
ROOT
ATOM      1  C1  DEN d   1       2.147   1.634  -3.084  0.00  0.00     0.130 A 
ATOM      2  C2  DEN d   1       1.369   1.528  -4.315  0.00  0.00    -0.031 A 
ATOM      3  C3  DEN d   1       0.001   1.105  -3.956  0.00  0.00     0.027 A 
ATOM      4  C4  DEN d   1      -0.986   0.613  -1.624  0.00  0.00     0.027 A 
ATOM      5  C5  DEN d   1      -0.707   0.556  -0.276  0.00  0.00    -0.003 A 
ATOM      6  C6  DEN d   1       0.541   0.819   0.223  0.00  0.00     0.001 A 
ATOM      7  C7  DEN d   1       1.547   1.195  -0.628  0.00  0.00     0.017 A 
ATOM      8  C8  DEN d   1       1.275   1.248  -1.989  0.00  0.00    -0.094 A 
ATOM      9  C9  DEN d   1       0.004   0.991  -2.472  0.00  0.00    -0.072 A 
ENDROOT
TORSDOF 0
ENDMDL
