MODEL 1
REMARK minimizedAffinity -4.72174454
REMARK minimizedRMSD -1
REMARK  0 active torsions:
REMARK  status: ('A' for Active; 'I' for Inactive)
ROOT
ATOM      1  C1  DEN d   1       0.297   0.838   2.419  0.00  0.00     0.130 A 
ATOM      2  C2  DEN d   1      -0.988   1.111   3.056  0.00  0.00    -0.031 A 
ATOM      3  C3  DEN d   1      -2.054   0.614   2.163  0.00  0.00     0.027 A 
ATOM      4  C4  DEN d   1      -1.840  -0.548  -0.130  0.00  0.00     0.027 A 
ATOM      5  C5  DEN d   1      -0.953  -0.988  -1.087  0.00  0.00    -0.003 A 
ATOM      6  C6  DEN d   1       0.401  -0.820  -0.960  0.00  0.00     0.001 A 
ATOM      7  C7  DEN d   1       0.909  -0.238   0.171  0.00  0.00     0.017 A 
ATOM      8  C8  DEN d   1       0.020   0.215   1.137  0.00  0.00    -0.094 A 
ATOM      9  C9  DEN d   1      -1.344   0.025   0.996  0.00  0.00    -0.072 A 
ENDROOT
TORSDOF 0
ENDMDL
