MODEL 1
REMARK minimizedAffinity 12.7101049
REMARK minimizedRMSD -1
REMARK  0 active torsions:
REMARK  status: ('A' for Active; 'I' for Inactive)
ROOT
ATOM      1  N1  IND d   1      -2.719   0.571   1.114  0.00  0.00    -0.196 N 
ATOM      2  C2  IND d   1      -1.607   1.357   0.993  0.00  0.00     0.054 A 
ATOM      3  C3  IND d   1      -0.705   1.047   1.951  0.00  0.00    -0.031 A 
ATOM      4  C4  IND d   1      -0.802  -0.783   3.758  0.00  0.00     0.051 A 
ATOM      5  C5  IND d   1      -1.631  -1.731   4.288  0.00  0.00    -0.031 A 
ATOM      6  C6  IND d   1      -2.890  -1.967   3.775  0.00  0.00     0.015 A 
ATOM      7  C7  IND d   1      -3.364  -1.268   2.701  0.00  0.00    -0.016 A 
ATOM      8  C8  IND d   1      -2.527  -0.300   2.165  0.00  0.00    -0.047 A 
ATOM      9  C9  IND d   1      -1.265  -0.027   2.708  0.00  0.00    -0.096 A 
ATOM     10  HN1 IND d   1      -3.420   0.613   0.618  0.00  0.00     0.298 HD
ENDROOT
TORSDOF 0
ENDMDL
