MODEL 1
REMARK minimizedAffinity 6.54434919
REMARK minimizedRMSD -1
REMARK  0 active torsions:
REMARK  status: ('A' for Active; 'I' for Inactive)
ROOT
ATOM      1  N1  IND d   1      -3.045   0.350   1.071  0.00  0.00    -0.196 N 
ATOM      2  C2  IND d   1      -1.895   0.963   0.656  0.00  0.00     0.054 A 
ATOM      3  C3  IND d   1      -0.892   0.721   1.529  0.00  0.00    -0.031 A 
ATOM      4  C4  IND d   1      -0.885  -0.736   3.652  0.00  0.00     0.051 A 
ATOM      5  C5  IND d   1      -1.711  -1.469   4.458  0.00  0.00    -0.031 A 
ATOM      6  C6  IND d   1      -3.050  -1.638   4.169  0.00  0.00     0.015 A 
ATOM      7  C7  IND d   1      -3.613  -1.088   3.052  0.00  0.00    -0.016 A 
ATOM      8  C8  IND d   1      -2.779  -0.338   2.235  0.00  0.00    -0.047 A 
ATOM      9  C9  IND d   1      -1.429  -0.127   2.545  0.00  0.00    -0.096 A 
ATOM     10  HN1 IND d   1      -3.806   0.388   0.673  0.00  0.00     0.298 HD
ENDROOT
TORSDOF 0
ENDMDL
