MODEL 1
REMARK minimizedAffinity 6.4558053
REMARK minimizedRMSD -1
REMARK  0 active torsions:
REMARK  status: ('A' for Active; 'I' for Inactive)
ROOT
ATOM      1  N1  IND d   1       0.509  -0.304   1.055  0.00  0.00    -0.196 N 
ATOM      2  C2  IND d   1      -0.057   0.249  -0.059  0.00  0.00     0.054 A 
ATOM      3  C3  IND d   1      -1.387   0.413   0.120  0.00  0.00    -0.031 A 
ATOM      4  C4  IND d   1      -2.828  -0.064   2.199  0.00  0.00     0.051 A 
ATOM      5  C5  IND d   1      -2.766  -0.609   3.451  0.00  0.00    -0.031 A 
ATOM      6  C6  IND d   1      -1.584  -1.086   3.980  0.00  0.00     0.015 A 
ATOM      7  C7  IND d   1      -0.414  -1.027   3.278  0.00  0.00    -0.016 A 
ATOM      8  C8  IND d   1      -0.475  -0.481   2.004  0.00  0.00    -0.047 A 
ATOM      9  C9  IND d   1      -1.679  -0.034   1.445  0.00  0.00    -0.096 A 
ATOM     10  HN1 IND d   1       1.339  -0.507   1.148  0.00  0.00     0.298 HD
ENDROOT
TORSDOF 0
ENDMDL
