MODEL 1
REMARK minimizedAffinity -0.801735103
REMARK minimizedRMSD -1
REMARK  0 active torsions:
REMARK  status: ('A' for Active; 'I' for Inactive)
ROOT
ATOM      1  N1  IND d   1       1.939  -1.641   3.525  0.00  0.00    -0.196 N 
ATOM      2  C2  IND d   1       1.681  -2.006   4.817  0.00  0.00     0.054 A 
ATOM      3  C3  IND d   1       0.376  -1.811   5.110  0.00  0.00    -0.031 A 
ATOM      4  C4  IND d   1      -1.537  -0.998   3.591  0.00  0.00     0.051 A 
ATOM      5  C5  IND d   1      -1.785  -0.509   2.339  0.00  0.00    -0.031 A 
ATOM      6  C6  IND d   1      -0.785  -0.372   1.399  0.00  0.00     0.015 A 
ATOM      7  C7  IND d   1       0.505  -0.732   1.673  0.00  0.00    -0.016 A 
ATOM      8  C8  IND d   1       0.761  -1.222   2.945  0.00  0.00    -0.047 A 
ATOM      9  C9  IND d   1      -0.242  -1.323   3.918  0.00  0.00    -0.096 A 
ATOM     10  HN1 IND d   1       2.707  -1.668   3.139  0.00  0.00     0.298 HD
ENDROOT
TORSDOF 0
ENDMDL
