MODEL 1
REMARK minimizedAffinity 0.67138052
REMARK minimizedRMSD -1
REMARK  0 active torsions:
REMARK  status: ('A' for Active; 'I' for Inactive)
ROOT
ATOM      1  N1  IND d   1       1.224  -0.941   2.408  0.00  0.00    -0.196 N 
ATOM      2  C2  IND d   1       1.206  -1.217   3.747  0.00  0.00     0.054 A 
ATOM      3  C3  IND d   1       0.029  -0.832   4.291  0.00  0.00    -0.031 A 
ATOM      4  C4  IND d   1      -2.046   0.178   3.150  0.00  0.00     0.051 A 
ATOM      5  C5  IND d   1      -2.493   0.647   1.947  0.00  0.00    -0.031 A 
ATOM      6  C6  IND d   1      -1.709   0.607   0.812  0.00  0.00     0.015 A 
ATOM      7  C7  IND d   1      -0.447   0.085   0.837  0.00  0.00    -0.016 A 
ATOM      8  C8  IND d   1       0.013  -0.386   2.058  0.00  0.00    -0.047 A 
ATOM      9  C9  IND d   1      -0.763  -0.310   3.222  0.00  0.00    -0.096 A 
ATOM     10  HN1 IND d   1       1.882  -1.089   1.875  0.00  0.00     0.298 HD
ENDROOT
TORSDOF 0
ENDMDL
