MODEL 1
REMARK minimizedAffinity -5.35205889
REMARK minimizedRMSD -1
REMARK  3 active torsions:
REMARK  status: ('A' for Active; 'I' for Inactive)
REMARK    1  A    between atoms: C3'_2  and  C2'_3 
REMARK    2  A    between atoms: C2'_3  and  C1'_4 
REMARK    3  A    between atoms: C1'_4  and  C1_5 
ROOT
ATOM      1  C1  N4B d   1       0.272  -0.094   0.275  0.00  0.00    -0.075 A 
ATOM      2  C2  N4B d   1      -0.787  -0.488   1.122  0.00  0.00     0.002 A 
ATOM      3  C3  N4B d   1      -0.528  -0.848   2.422  0.00  0.00     0.002 A 
ATOM      4  C4  N4B d   1       0.777  -0.840   2.890  0.00  0.00    -0.004 A 
ATOM      5  C5  N4B d   1       1.791  -0.433   2.072  0.00  0.00     0.002 A 
ATOM      6  C6  N4B d   1       1.546  -0.065   0.765  0.00  0.00     0.002 A 
ENDROOT
BRANCH   1   7
ATOM      7  C1' N4B d   1       0.050   0.225  -1.178  0.00  0.00     0.057 C 
BRANCH   7   8
ATOM      8  C2' N4B d   1      -0.775   1.505  -1.289  0.00  0.00     0.009 C 
BRANCH   8   9
ATOM      9  C3' N4B d   1      -0.001   2.622  -1.966  0.00  0.00     0.004 C 
ATOM     10  C4' N4B d   1      -0.765   3.912  -2.014  0.00  0.00     0.003 C 
ENDBRANCH   8   9
ENDBRANCH   7   8
ENDBRANCH   1   7
TORSDOF 3
ENDMDL
