MODEL 1
REMARK minimizedAffinity -6.21362209
REMARK minimizedRMSD -1
REMARK  3 active torsions:
REMARK  status: ('A' for Active; 'I' for Inactive)
REMARK    1  A    between atoms: C3'_2  and  C2'_3 
REMARK    2  A    between atoms: C2'_3  and  C1'_4 
REMARK    3  A    between atoms: C1'_4  and  C1_5 
ROOT
ATOM      1  C1  N4B d   1       0.144  -0.403   0.527  0.00  0.00    -0.075 A 
ATOM      2  C2  N4B d   1      -0.671  -0.340   1.679  0.00  0.00     0.002 A 
ATOM      3  C3  N4B d   1      -0.140  -0.626   2.912  0.00  0.00     0.002 A 
ATOM      4  C4  N4B d   1       1.193  -0.994   3.016  0.00  0.00    -0.004 A 
ATOM      5  C5  N4B d   1       1.980  -1.028   1.903  0.00  0.00     0.002 A 
ATOM      6  C6  N4B d   1       1.461  -0.739   0.657  0.00  0.00     0.002 A 
ENDROOT
BRANCH   1   7
ATOM      7  C1' N4B d   1      -0.412  -0.182  -0.853  0.00  0.00     0.057 C 
BRANCH   7   8
ATOM      8  C2' N4B d   1       0.287   1.015  -1.489  0.00  0.00     0.009 C 
BRANCH   8   9
ATOM      9  C3' N4B d   1      -0.674   1.873  -2.294  0.00  0.00     0.004 C 
ATOM     10  C4' N4B d   1      -0.758   3.282  -1.788  0.00  0.00     0.003 C 
ENDBRANCH   8   9
ENDBRANCH   7   8
ENDBRANCH   1   7
TORSDOF 3
ENDMDL
