MODEL 1
REMARK minimizedAffinity 4.19402266
REMARK minimizedRMSD -1
REMARK  3 active torsions:
REMARK  status: ('A' for Active; 'I' for Inactive)
REMARK    1  A    between atoms: C3'_2  and  C2'_3 
REMARK    2  A    between atoms: C2'_3  and  C1'_4 
REMARK    3  A    between atoms: C1'_4  and  C1_5 
ROOT
ATOM      1  C1  N4B d   1       0.066   0.331  -0.323  0.00  0.00    -0.075 A 
ATOM      2  C2  N4B d   1       0.736  -0.412  -1.320  0.00  0.00     0.002 A 
ATOM      3  C3  N4B d   1       1.503  -1.496  -0.969  0.00  0.00     0.002 A 
ATOM      4  C4  N4B d   1       1.629  -1.843   0.368  0.00  0.00    -0.004 A 
ATOM      5  C5  N4B d   1       0.958  -1.136   1.322  0.00  0.00     0.002 A 
ATOM      6  C6  N4B d   1       0.181  -0.047   0.984  0.00  0.00     0.002 A 
ENDROOT
BRANCH   1   7
ATOM      7  C1' N4B d   1      -0.715   1.575  -0.649  0.00  0.00     0.057 C 
BRANCH   7   8
ATOM      8  C2' N4B d   1      -0.480   1.944  -2.111  0.00  0.00     0.009 C 
BRANCH   8   9
ATOM      9  C3' N4B d   1      -0.713   3.423  -2.368  0.00  0.00     0.004 C 
ATOM     10  C4' N4B d   1       0.485   4.105  -2.958  0.00  0.00     0.003 C 
ENDBRANCH   8   9
ENDBRANCH   7   8
ENDBRANCH   1   7
TORSDOF 3
ENDMDL
