MODEL 1
REMARK minimizedAffinity -2.91963673
REMARK minimizedRMSD -1
REMARK  3 active torsions:
REMARK  status: ('A' for Active; 'I' for Inactive)
REMARK    1  A    between atoms: C3'_2  and  C2'_3 
REMARK    2  A    between atoms: C2'_3  and  C1'_4 
REMARK    3  A    between atoms: C1'_4  and  C1_5 
ROOT
ATOM      1  C1  N4B d   1      -1.235  -0.670   0.981  0.00  0.00    -0.075 A 
ATOM      2  C2  N4B d   1      -0.726  -1.395   2.081  0.00  0.00     0.002 A 
ATOM      3  C3  N4B d   1       0.627  -1.425   2.316  0.00  0.00     0.002 A 
ATOM      4  C4  N4B d   1       1.487  -0.756   1.458  0.00  0.00    -0.004 A 
ATOM      5  C5  N4B d   1       0.985  -0.037   0.413  0.00  0.00     0.002 A 
ATOM      6  C6  N4B d   1      -0.373   0.005   0.167  0.00  0.00     0.002 A 
ENDROOT
BRANCH   1   7
ATOM      7  C1' N4B d   1      -2.699  -0.679   0.634  0.00  0.00     0.057 C 
BRANCH   7   8
ATOM      8  C2' N4B d   1      -2.862  -1.048  -0.838  0.00  0.00     0.009 C 
BRANCH   8   9
ATOM      9  C3' N4B d   1      -3.919  -2.120  -1.041  0.00  0.00     0.004 C 
ATOM     10  C4' N4B d   1      -5.097  -1.955  -0.128  0.00  0.00     0.003 C 
ENDBRANCH   8   9
ENDBRANCH   7   8
ENDBRANCH   1   7
TORSDOF 3
ENDMDL
