MODEL 1
REMARK minimizedAffinity 4.49534798
REMARK minimizedRMSD -1
REMARK  1 active torsions:
REMARK  status: ('A' for Active; 'I' for Inactive)
REMARK    1  A    between atoms: C1_2  and  C2_3 
ROOT
ATOM      1  C2  UNL d   1      -2.951  -0.985  -2.837  0.00  0.00    -0.077 A 
ATOM      2  C3  UNL d   1      -3.345  -1.962  -1.911  0.00  0.00     0.002 A 
ATOM      3  C4  UNL d   1      -3.611  -3.267  -2.332  0.00  0.00     0.002 A 
ATOM      4  C5  UNL d   1      -3.482  -3.607  -3.677  0.00  0.00    -0.004 A 
ATOM      5  C6  UNL d   1      -3.093  -2.642  -4.605  0.00  0.00     0.002 A 
ATOM      6  C7  UNL d   1      -2.827  -1.337  -4.187  0.00  0.00     0.002 A 
ENDROOT
BRANCH   1   7
ATOM      7  C1  UNL d   1      -2.616   0.410  -2.378  0.00  0.00     0.055 C 
ATOM      8  C   UNL d   1      -3.576   1.432  -2.968  0.00  0.00     0.019 C 
ENDBRANCH   1   7
TORSDOF 1
ENDMDL
