MODEL 1
REMARK minimizedAffinity 8.34373188
REMARK minimizedRMSD -1
REMARK  1 active torsions:
REMARK  status: ('A' for Active; 'I' for Inactive)
REMARK    1  A    between atoms: C1_2  and  C2_3 
ROOT
ATOM      1  C2  UNL d   1       2.195   1.489   1.451  0.00  0.00    -0.077 A 
ATOM      2  C3  UNL d   1       3.355   1.398   0.669  0.00  0.00     0.002 A 
ATOM      3  C4  UNL d   1       3.507   2.198  -0.465  0.00  0.00     0.002 A 
ATOM      4  C5  UNL d   1       2.505   3.098  -0.824  0.00  0.00    -0.004 A 
ATOM      5  C6  UNL d   1       1.348   3.195  -0.053  0.00  0.00     0.002 A 
ATOM      6  C7  UNL d   1       1.193   2.395   1.080  0.00  0.00     0.002 A 
ENDROOT
BRANCH   1   7
ATOM      7  C1  UNL d   1       2.051   0.662   2.702  0.00  0.00     0.055 C 
ATOM      8  C   UNL d   1       1.503   1.491   3.854  0.00  0.00     0.019 C 
ENDBRANCH   1   7
TORSDOF 1
ENDMDL
