MODEL 1
REMARK minimizedAffinity 1.79150724
REMARK minimizedRMSD -1
REMARK  1 active torsions:
REMARK  status: ('A' for Active; 'I' for Inactive)
REMARK    1  A    between atoms: C1_2  and  C2_3 
ROOT
ATOM      1  C2  UNL d   1       3.477  -5.315  -1.943  0.00  0.00    -0.077 A 
ATOM      2  C3  UNL d   1       3.094  -3.982  -2.148  0.00  0.00     0.002 A 
ATOM      3  C4  UNL d   1       2.237  -3.348  -1.246  0.00  0.00     0.002 A 
ATOM      4  C5  UNL d   1       1.759  -4.037  -0.133  0.00  0.00    -0.004 A 
ATOM      5  C6  UNL d   1       2.133  -5.363   0.077  0.00  0.00     0.002 A 
ATOM      6  C7  UNL d   1       2.988  -6.000  -0.823  0.00  0.00     0.002 A 
ENDROOT
BRANCH   1   7
ATOM      7  C1  UNL d   1       4.440  -5.986  -2.888  0.00  0.00     0.055 C 
ATOM      8  C   UNL d   1       5.866  -5.925  -2.359  0.00  0.00     0.019 C 
ENDBRANCH   1   7
TORSDOF 1
ENDMDL
