MODEL 1
REMARK minimizedAffinity 3.55552793
REMARK minimizedRMSD -1
REMARK  1 active torsions:
REMARK  status: ('A' for Active; 'I' for Inactive)
REMARK    1  A    between atoms: C1_2  and  C2_3 
ROOT
ATOM      1  C2  UNL d   1       2.550  -5.338   0.390  0.00  0.00    -0.077 A 
ATOM      2  C3  UNL d   1       3.113  -6.000   1.491  0.00  0.00     0.002 A 
ATOM      3  C4  UNL d   1       3.024  -5.445   2.769  0.00  0.00     0.002 A 
ATOM      4  C5  UNL d   1       2.370  -4.229   2.959  0.00  0.00    -0.004 A 
ATOM      5  C6  UNL d   1       1.809  -3.563   1.870  0.00  0.00     0.002 A 
ATOM      6  C7  UNL d   1       1.898  -4.115   0.592  0.00  0.00     0.002 A 
ENDROOT
BRANCH   1   7
ATOM      7  C1  UNL d   1       2.602  -5.959  -0.981  0.00  0.00     0.055 C 
ATOM      8  C   UNL d   1       4.025  -5.996  -1.519  0.00  0.00     0.019 C 
ENDBRANCH   1   7
TORSDOF 1
ENDMDL
