MODEL 1
REMARK minimizedAffinity 0.458154589
REMARK minimizedRMSD -1
REMARK  1 active torsions:
REMARK  status: ('A' for Active; 'I' for Inactive)
REMARK    1  A    between atoms: C1_2  and  C2_3 
ROOT
ATOM      1  C2  UNL d   1       4.961   3.301  -5.270  0.00  0.00    -0.077 A 
ATOM      2  C3  UNL d   1       3.951   3.740  -4.402  0.00  0.00     0.002 A 
ATOM      3  C4  UNL d   1       3.969   5.042  -3.900  0.00  0.00     0.002 A 
ATOM      4  C5  UNL d   1       4.990   5.917  -4.263  0.00  0.00    -0.004 A 
ATOM      5  C6  UNL d   1       6.000   5.490  -5.125  0.00  0.00     0.002 A 
ATOM      6  C7  UNL d   1       5.985   4.188  -5.627  0.00  0.00     0.002 A 
ENDROOT
BRANCH   1   7
ATOM      7  C1  UNL d   1       4.917   1.912  -5.852  0.00  0.00     0.055 C 
ATOM      8  C   UNL d   1       5.999   1.026  -5.251  0.00  0.00     0.019 C 
ENDBRANCH   1   7
TORSDOF 1
ENDMDL
