MODEL 1
REMARK minimizedAffinity 4.86313152
REMARK minimizedRMSD -1
REMARK  1 active torsions:
REMARK  status: ('A' for Active; 'I' for Inactive)
REMARK    1  A    between atoms: C1_2  and  C2_3 
ROOT
ATOM      1  C2  UNL d   1       0.967  -0.541  -0.344  0.00  0.00    -0.077 A 
ATOM      2  C3  UNL d   1       0.058   0.063   0.536  0.00  0.00     0.002 A 
ATOM      3  C4  UNL d   1       0.121   1.436   0.783  0.00  0.00     0.002 A 
ATOM      4  C5  UNL d   1       1.087   2.216   0.151  0.00  0.00    -0.004 A 
ATOM      5  C6  UNL d   1       1.997   1.624  -0.724  0.00  0.00     0.002 A 
ATOM      6  C7  UNL d   1       1.936   0.252  -0.971  0.00  0.00     0.002 A 
ENDROOT
BRANCH   1   7
ATOM      7  C1  UNL d   1       0.870  -2.013  -0.650  0.00  0.00     0.055 C 
ATOM      8  C   UNL d   1       2.232  -2.598  -0.993  0.00  0.00     0.019 C 
ENDBRANCH   1   7
TORSDOF 1
ENDMDL
