MODEL 1
REMARK minimizedAffinity 4.10562754
REMARK minimizedRMSD -1
REMARK  1 active torsions:
REMARK  status: ('A' for Active; 'I' for Inactive)
REMARK    1  A    between atoms: C1_2  and  C2_3 
ROOT
ATOM      1  C2  UNL d   1       0.228   0.971   0.098  0.00  0.00    -0.077 A 
ATOM      2  C3  UNL d   1       0.709  -0.129   0.822  0.00  0.00     0.002 A 
ATOM      3  C4  UNL d   1       1.225  -1.241   0.156  0.00  0.00     0.002 A 
ATOM      4  C5  UNL d   1       1.270  -1.263  -1.237  0.00  0.00    -0.004 A 
ATOM      5  C6  UNL d   1       0.792  -0.175  -1.966  0.00  0.00     0.002 A 
ATOM      6  C7  UNL d   1       0.274   0.938  -1.301  0.00  0.00     0.002 A 
ENDROOT
BRANCH   1   7
ATOM      7  C1  UNL d   1      -0.285   2.192   0.816  0.00  0.00     0.055 C 
ATOM      8  C   UNL d   1       0.236   3.471   0.175  0.00  0.00     0.019 C 
ENDBRANCH   1   7
TORSDOF 1
ENDMDL
