MODEL 1
REMARK minimizedAffinity 9.6102953
REMARK minimizedRMSD -1
REMARK  3 active torsions:
REMARK  status: ('A' for Active; 'I' for Inactive)
REMARK    1  A    between atoms: C3'_2  and  C2'_3 
REMARK    2  A    between atoms: C2'_3  and  C1'_4 
REMARK    3  A    between atoms: C1'_4  and  C1_5 
ROOT
ATOM      1  C1  N4B d   1       1.224  -4.063   3.592  0.00  0.00    -0.075 A 
ATOM      2  C2  N4B d   1       1.810  -3.788   4.847  0.00  0.00     0.002 A 
ATOM      3  C3  N4B d   1       1.093  -3.997   6.000  0.00  0.00     0.002 A 
ATOM      4  C4  N4B d   1      -0.212  -4.460   5.922  0.00  0.00    -0.004 A 
ATOM      5  C5  N4B d   1      -0.761  -4.748   4.707  0.00  0.00     0.002 A 
ATOM      6  C6  N4B d   1      -0.051  -4.546   3.540  0.00  0.00     0.002 A 
ENDROOT
BRANCH   1   7
ATOM      7  C1' N4B d   1       1.938  -3.769   2.301  0.00  0.00     0.057 C 
BRANCH   7   8
ATOM      8  C2' N4B d   1       1.857  -2.273   2.013  0.00  0.00     0.009 C 
BRANCH   8   9
ATOM      9  C3' N4B d   1       2.301  -1.942   0.599  0.00  0.00     0.004 C 
ATOM     10  C4' N4B d   1       1.939  -0.545   0.188  0.00  0.00     0.003 C 
ENDBRANCH   8   9
ENDBRANCH   7   8
ENDBRANCH   1   7
TORSDOF 3
ENDMDL
