MODEL 1
REMARK minimizedAffinity 6.250453
REMARK minimizedRMSD -1
REMARK  3 active torsions:
REMARK  status: ('A' for Active; 'I' for Inactive)
REMARK    1  A    between atoms: C3'_2  and  C2'_3 
REMARK    2  A    between atoms: C2'_3  and  C1'_4 
REMARK    3  A    between atoms: C1'_4  and  C1_5 
ROOT
ATOM      1  C1  N4B d   1      -5.346   4.617   3.272  0.00  0.00    -0.075 A 
ATOM      2  C2  N4B d   1      -4.575   5.717   3.710  0.00  0.00     0.002 A 
ATOM      3  C3  N4B d   1      -4.465   5.986   5.053  0.00  0.00     0.002 A 
ATOM      4  C4  N4B d   1      -5.129   5.185   5.970  0.00  0.00    -0.004 A 
ATOM      5  C5  N4B d   1      -5.851   4.110   5.539  0.00  0.00     0.002 A 
ATOM      6  C6  N4B d   1      -5.967   3.825   4.194  0.00  0.00     0.002 A 
ENDROOT
BRANCH   1   7
ATOM      7  C1' N4B d   1      -5.565   4.334   1.811  0.00  0.00     0.057 C 
BRANCH   7   8
ATOM      8  C2' N4B d   1      -5.279   5.599   1.007  0.00  0.00     0.009 C 
BRANCH   8   9
ATOM      9  C3' N4B d   1      -3.933   5.534   0.306  0.00  0.00     0.004 C 
ATOM     10  C4' N4B d   1      -2.828   5.076   1.210  0.00  0.00     0.003 C 
ENDBRANCH   8   9
ENDBRANCH   7   8
ENDBRANCH   1   7
TORSDOF 3
ENDMDL
