MODEL 1
REMARK minimizedAffinity -5.08721638
REMARK minimizedRMSD -1
REMARK  0 active torsions:
REMARK  status: ('A' for Active; 'I' for Inactive)
ROOT
ATOM      1  C   UNL d   1       2.251   0.458  -1.953  0.00  0.00     0.124 A 
ATOM      2  C1  UNL d   1       2.498  -0.023  -0.675  0.00  0.00     0.062 A 
ATOM      3  C2  UNL d   1       1.506   0.037   0.300  0.00  0.00     0.162 A 
ATOM      4  C3  UNL d   1       0.256   0.579  -0.001  0.00  0.00    -0.034 A 
ATOM      5  C4  UNL d   1       0.016   1.062  -1.288  0.00  0.00     0.162 A 
ATOM      6  C5  UNL d   1       1.011   1.000  -2.258  0.00  0.00     0.062 A 
ATOM      7  F   UNL d   1       0.770   1.465  -3.493  0.00  0.00    -0.097 F 
ATOM      8  F1  UNL d   1      -1.175   1.589  -1.611  0.00  0.00    -0.096 F 
ATOM      9  I   UNL d   1      -1.230   0.670   1.453  0.00  0.00    -0.060 I 
ATOM     10  F2  UNL d   1       1.773  -0.436   1.527  0.00  0.00    -0.096 F 
ATOM     11  F3  UNL d   1       3.696  -0.546  -0.377  0.00  0.00    -0.097 F 
ATOM     12  F4  UNL d   1       3.208   0.401  -2.888  0.00  0.00    -0.092 F 
ENDROOT
TORSDOF 0
ENDMDL
