MODEL 1
REMARK minimizedAffinity -3.72135305
REMARK minimizedRMSD -1
REMARK  0 active torsions:
REMARK  status: ('A' for Active; 'I' for Inactive)
ROOT
ATOM      1  C   UNL d   1       0.572  -1.494  -0.025  0.00  0.00     0.124 A 
ATOM      2  C1  UNL d   1       1.622  -1.379  -0.925  0.00  0.00     0.062 A 
ATOM      3  C2  UNL d   1       1.772  -0.220  -1.680  0.00  0.00     0.162 A 
ATOM      4  C3  UNL d   1       0.870   0.834  -1.539  0.00  0.00    -0.034 A 
ATOM      5  C4  UNL d   1      -0.185   0.710  -0.633  0.00  0.00     0.162 A 
ATOM      6  C5  UNL d   1      -0.331  -0.450   0.120  0.00  0.00     0.062 A 
ATOM      7  F   UNL d   1      -1.346  -0.560   0.989  0.00  0.00    -0.097 F 
ATOM      8  F1  UNL d   1      -1.071   1.705  -0.473  0.00  0.00    -0.096 F 
ATOM      9  I   UNL d   1       1.090   2.569  -2.668  0.00  0.00    -0.060 I 
ATOM     10  F2  UNL d   1       2.797  -0.136  -2.542  0.00  0.00    -0.096 F 
ATOM     11  F3  UNL d   1       2.495  -2.387  -1.067  0.00  0.00    -0.097 F 
ATOM     12  F4  UNL d   1       0.429  -2.611   0.701  0.00  0.00    -0.092 F 
ENDROOT
TORSDOF 0
ENDMDL
