MODEL 1
REMARK minimizedAffinity -2.45960927
REMARK minimizedRMSD -1
REMARK  0 active torsions:
REMARK  status: ('A' for Active; 'I' for Inactive)
ROOT
ATOM      1  C   UNL d   1       1.616  -0.030  -2.171  0.00  0.00     0.124 A 
ATOM      2  C1  UNL d   1       1.508  -1.052  -1.237  0.00  0.00     0.062 A 
ATOM      3  C2  UNL d   1       0.532  -0.993  -0.246  0.00  0.00     0.162 A 
ATOM      4  C3  UNL d   1      -0.344   0.091  -0.183  0.00  0.00    -0.034 A 
ATOM      5  C4  UNL d   1      -0.228   1.115  -1.126  0.00  0.00     0.162 A 
ATOM      6  C5  UNL d   1       0.749   1.051  -2.114  0.00  0.00     0.062 A 
ATOM      7  F   UNL d   1       0.852   2.039  -3.016  0.00  0.00    -0.097 F 
ATOM      8  F1  UNL d   1      -1.053   2.171  -1.095  0.00  0.00    -0.096 F 
ATOM      9  I   UNL d   1      -1.803   0.182   1.297  0.00  0.00    -0.060 I 
ATOM     10  F2  UNL d   1       0.450  -1.994   0.644  0.00  0.00    -0.096 F 
ATOM     11  F3  UNL d   1       2.345  -2.097  -1.288  0.00  0.00    -0.097 F 
ATOM     12  F4  UNL d   1       2.557  -0.089  -3.123  0.00  0.00    -0.092 F 
ENDROOT
TORSDOF 0
ENDMDL
