MODEL 1
REMARK minimizedAffinity -0.719912052
REMARK minimizedRMSD -1
REMARK  0 active torsions:
REMARK  status: ('A' for Active; 'I' for Inactive)
ROOT
ATOM      1  C   UNL d   1       2.456   0.602  -1.650  0.00  0.00     0.124 A 
ATOM      2  C1  UNL d   1       1.435   1.541  -1.700  0.00  0.00     0.062 A 
ATOM      3  C2  UNL d   1       0.299   1.383  -0.911  0.00  0.00     0.162 A 
ATOM      4  C3  UNL d   1       0.180   0.281  -0.063  0.00  0.00    -0.034 A 
ATOM      5  C4  UNL d   1       1.211  -0.659  -0.019  0.00  0.00     0.162 A 
ATOM      6  C5  UNL d   1       2.343  -0.496  -0.810  0.00  0.00     0.062 A 
ATOM      7  F   UNL d   1       3.329  -1.404  -0.760  0.00  0.00    -0.097 F 
ATOM      8  F1  UNL d   1       1.128  -1.730   0.785  0.00  0.00    -0.096 F 
ATOM      9  I   UNL d   1      -1.516   0.041   1.119  0.00  0.00    -0.060 I 
ATOM     10  F2  UNL d   1      -0.672   2.305  -0.979  0.00  0.00    -0.096 F 
ATOM     11  F3  UNL d   1       1.541   2.603  -2.512  0.00  0.00    -0.097 F 
ATOM     12  F4  UNL d   1       3.547   0.757  -2.412  0.00  0.00    -0.092 F 
ENDROOT
TORSDOF 0
ENDMDL
