MODEL 1
REMARK minimizedAffinity -4.13919783
REMARK minimizedRMSD -1
REMARK  0 active torsions:
REMARK  status: ('A' for Active; 'I' for Inactive)
ROOT
ATOM      1  C   UNL d   1       1.924  -0.207  -2.210  0.00  0.00     0.124 A 
ATOM      2  C1  UNL d   1       1.763  -1.139  -1.194  0.00  0.00     0.062 A 
ATOM      3  C2  UNL d   1       0.766  -0.967  -0.238  0.00  0.00     0.162 A 
ATOM      4  C3  UNL d   1      -0.079   0.141  -0.295  0.00  0.00    -0.034 A 
ATOM      5  C4  UNL d   1       0.089   1.075  -1.319  0.00  0.00     0.162 A 
ATOM      6  C5  UNL d   1       1.088   0.898  -2.272  0.00  0.00     0.062 A 
ATOM      7  F   UNL d   1       1.242   1.799  -3.253  0.00  0.00    -0.097 F 
ATOM      8  F1  UNL d   1      -0.706   2.151  -1.403  0.00  0.00    -0.096 F 
ATOM      9  I   UNL d   1      -1.572   0.402   1.132  0.00  0.00    -0.060 I 
ATOM     10  F2  UNL d   1       0.633  -1.883   0.732  0.00  0.00    -0.096 F 
ATOM     11  F3  UNL d   1       2.571  -2.207  -1.132  0.00  0.00    -0.097 F 
ATOM     12  F4  UNL d   1       2.885  -0.375  -3.128  0.00  0.00    -0.092 F 
ENDROOT
TORSDOF 0
ENDMDL
