MODEL 1
REMARK minimizedAffinity 2.47578859
REMARK minimizedRMSD -1
REMARK  0 active torsions:
REMARK  status: ('A' for Active; 'I' for Inactive)
ROOT
ATOM      1  C   UNL d   1       1.119  -0.175  -1.640  0.00  0.00     0.124 A 
ATOM      2  C1  UNL d   1       0.357   0.966  -1.429  0.00  0.00     0.062 A 
ATOM      3  C2  UNL d   1      -0.464   1.062  -0.309  0.00  0.00     0.162 A 
ATOM      4  C3  UNL d   1      -0.527   0.014   0.609  0.00  0.00    -0.034 A 
ATOM      5  C4  UNL d   1       0.241  -1.131   0.390  0.00  0.00     0.162 A 
ATOM      6  C5  UNL d   1       1.060  -1.222  -0.731  0.00  0.00     0.062 A 
ATOM      7  F   UNL d   1       1.795  -2.325  -0.934  0.00  0.00    -0.097 F 
ATOM      8  F1  UNL d   1       0.204  -2.157   1.252  0.00  0.00    -0.096 F 
ATOM      9  I   UNL d   1      -1.754   0.153   2.285  0.00  0.00    -0.060 I 
ATOM     10  F2  UNL d   1      -1.189   2.176  -0.130  0.00  0.00    -0.096 F 
ATOM     11  F3  UNL d   1       0.411   1.978  -2.306  0.00  0.00    -0.097 F 
ATOM     12  F4  UNL d   1       1.907  -0.265  -2.719  0.00  0.00    -0.092 F 
ENDROOT
TORSDOF 0
ENDMDL
