MODEL 1
REMARK minimizedAffinity -2.53131437
REMARK minimizedRMSD -1
REMARK  0 active torsions:
REMARK  status: ('A' for Active; 'I' for Inactive)
ROOT
ATOM      1  C   UNL d   1       2.064   0.686  -1.897  0.00  0.00     0.124 A 
ATOM      2  C1  UNL d   1       2.156  -0.083  -0.746  0.00  0.00     0.062 A 
ATOM      3  C2  UNL d   1       1.130  -0.062   0.194  0.00  0.00     0.162 A 
ATOM      4  C3  UNL d   1       0.002   0.732  -0.014  0.00  0.00    -0.034 A 
ATOM      5  C4  UNL d   1      -0.083   1.504  -1.174  0.00  0.00     0.162 A 
ATOM      6  C5  UNL d   1       0.945   1.479  -2.110  0.00  0.00     0.062 A 
ATOM      7  F   UNL d   1       0.855   2.223  -3.222  0.00  0.00    -0.097 F 
ATOM      8  F1  UNL d   1      -1.153   2.279  -1.405  0.00  0.00    -0.096 F 
ATOM      9  I   UNL d   1      -1.535   0.767   1.390  0.00  0.00    -0.060 I 
ATOM     10  F2  UNL d   1       1.245  -0.815   1.298  0.00  0.00    -0.096 F 
ATOM     11  F3  UNL d   1       3.237  -0.849  -0.538  0.00  0.00    -0.097 F 
ATOM     12  F4  UNL d   1       3.054   0.664  -2.800  0.00  0.00    -0.092 F 
ENDROOT
TORSDOF 0
ENDMDL
