MODEL 1
REMARK minimizedAffinity -2.51320171
REMARK minimizedRMSD -1
REMARK  0 active torsions:
REMARK  status: ('A' for Active; 'I' for Inactive)
ROOT
ATOM      1  C   UNL d   1       5.185  -2.636   5.032  0.00  0.00     0.124 A 
ATOM      2  C1  UNL d   1       4.494  -1.903   4.077  0.00  0.00     0.062 A 
ATOM      3  C2  UNL d   1       3.663  -2.549   3.167  0.00  0.00     0.162 A 
ATOM      4  C3  UNL d   1       3.516  -3.935   3.207  0.00  0.00    -0.034 A 
ATOM      5  C4  UNL d   1       4.216  -4.665   4.170  0.00  0.00     0.162 A 
ATOM      6  C5  UNL d   1       5.045  -4.016   5.078  0.00  0.00     0.062 A 
ATOM      7  F   UNL d   1       5.712  -4.725   6.000  0.00  0.00    -0.097 F 
ATOM      8  F1  UNL d   1       4.098  -6.000   4.237  0.00  0.00    -0.096 F 
ATOM      9  I   UNL d   1       2.274  -4.904   1.847  0.00  0.00    -0.060 I 
ATOM     10  F2  UNL d   1       3.007  -1.816   2.255  0.00  0.00    -0.096 F 
ATOM     11  F3  UNL d   1       4.628  -0.570   4.031  0.00  0.00    -0.097 F 
ATOM     12  F4  UNL d   1       5.985  -2.012   5.907  0.00  0.00    -0.092 F 
ENDROOT
TORSDOF 0
ENDMDL
