MODEL 1
REMARK minimizedAffinity 3.10711527
REMARK minimizedRMSD -1
REMARK  0 active torsions:
REMARK  status: ('A' for Active; 'I' for Inactive)
ROOT
ATOM      1  C   UNL d   1      -0.077   2.839   1.947  0.00  0.00     0.124 A 
ATOM      2  C1  UNL d   1      -1.120   2.545   1.079  0.00  0.00     0.062 A 
ATOM      3  C2  UNL d   1      -0.866   2.323  -0.271  0.00  0.00     0.162 A 
ATOM      4  C3  UNL d   1       0.438   2.393  -0.763  0.00  0.00    -0.034 A 
ATOM      5  C4  UNL d   1       1.481   2.689   0.116  0.00  0.00     0.162 A 
ATOM      6  C5  UNL d   1       1.222   2.911   1.464  0.00  0.00     0.062 A 
ATOM      7  F   UNL d   1       2.231   3.194   2.301  0.00  0.00    -0.097 F 
ATOM      8  F1  UNL d   1       2.746   2.764  -0.323  0.00  0.00    -0.096 F 
ATOM      9  I   UNL d   1       0.822   2.061  -2.781  0.00  0.00    -0.060 I 
ATOM     10  F2  UNL d   1      -1.893   2.042  -1.087  0.00  0.00    -0.096 F 
ATOM     11  F3  UNL d   1      -2.377   2.477   1.542  0.00  0.00    -0.097 F 
ATOM     12  F4  UNL d   1      -0.325   3.053   3.245  0.00  0.00    -0.092 F 
ENDROOT
TORSDOF 0
ENDMDL
