MODEL 1
REMARK minimizedAffinity 6.59716797
REMARK minimizedRMSD -1
REMARK  0 active torsions:
REMARK  status: ('A' for Active; 'I' for Inactive)
ROOT
ATOM      1  C   UNL d   1       4.147  -1.278   2.482  0.00  0.00     0.124 A 
ATOM      2  C1  UNL d   1       4.318  -0.774   3.763  0.00  0.00     0.062 A 
ATOM      3  C2  UNL d   1       4.842  -1.580   4.769  0.00  0.00     0.162 A 
ATOM      4  C3  UNL d   1       5.201  -2.901   4.496  0.00  0.00    -0.034 A 
ATOM      5  C4  UNL d   1       5.026  -3.401   3.205  0.00  0.00     0.162 A 
ATOM      6  C5  UNL d   1       4.501  -2.591   2.204  0.00  0.00     0.062 A 
ATOM      7  F   UNL d   1       4.336  -3.080   0.966  0.00  0.00    -0.097 F 
ATOM      8  F1  UNL d   1       5.360  -4.666   2.909  0.00  0.00    -0.096 F 
ATOM      9  I   UNL d   1       5.986  -4.110   5.997  0.00  0.00    -0.060 I 
ATOM     10  F2  UNL d   1       4.996  -1.067   5.998  0.00  0.00    -0.096 F 
ATOM     11  F3  UNL d   1       3.976   0.494   4.035  0.00  0.00    -0.097 F 
ATOM     12  F4  UNL d   1       3.641  -0.500   1.516  0.00  0.00    -0.092 F 
ENDROOT
TORSDOF 0
ENDMDL
