MODEL 1
REMARK minimizedAffinity -1.86057997
REMARK minimizedRMSD -1
REMARK  0 active torsions:
REMARK  status: ('A' for Active; 'I' for Inactive)
ROOT
ATOM      1  C   UNL d   1      -1.181   1.034   0.004  0.00  0.00     0.124 A 
ATOM      2  C1  UNL d   1      -0.872  -0.301   0.225  0.00  0.00     0.062 A 
ATOM      3  C2  UNL d   1       0.203  -0.889  -0.435  0.00  0.00     0.162 A 
ATOM      4  C3  UNL d   1       0.979  -0.142  -1.322  0.00  0.00    -0.034 A 
ATOM      5  C4  UNL d   1       0.661   1.199  -1.540  0.00  0.00     0.162 A 
ATOM      6  C5  UNL d   1      -0.414   1.783  -0.878  0.00  0.00     0.062 A 
ATOM      7  F   UNL d   1      -0.711   3.073  -1.093  0.00  0.00    -0.097 F 
ATOM      8  F1  UNL d   1       1.386   1.946  -2.386  0.00  0.00    -0.096 F 
ATOM      9  I   UNL d   1       2.587  -1.018  -2.310  0.00  0.00    -0.060 I 
ATOM     10  F2  UNL d   1       0.479  -2.181  -0.202  0.00  0.00    -0.096 F 
ATOM     11  F3  UNL d   1      -1.612  -1.026   1.076  0.00  0.00    -0.097 F 
ATOM     12  F4  UNL d   1      -2.217   1.598   0.639  0.00  0.00    -0.092 F 
ENDROOT
TORSDOF 0
ENDMDL
