MODEL 1
REMARK minimizedAffinity -5.8571763
REMARK minimizedRMSD -1
REMARK  0 active torsions:
REMARK  status: ('A' for Active; 'I' for Inactive)
ROOT
ATOM      1  C   UNL d   1       1.198   0.119  -1.642  0.00  0.00     0.124 A 
ATOM      2  C1  UNL d   1       1.386  -0.713  -0.547  0.00  0.00     0.062 A 
ATOM      3  C2  UNL d   1       0.647  -0.517   0.616  0.00  0.00     0.162 A 
ATOM      4  C3  UNL d   1      -0.290   0.514   0.689  0.00  0.00    -0.034 A 
ATOM      5  C4  UNL d   1      -0.473   1.347  -0.416  0.00  0.00     0.162 A 
ATOM      6  C5  UNL d   1       0.269   1.148  -1.575  0.00  0.00     0.062 A 
ATOM      7  F   UNL d   1       0.086   1.952  -2.633  0.00  0.00    -0.097 F 
ATOM      8  F1  UNL d   1      -1.364   2.348  -0.379  0.00  0.00    -0.096 F 
ATOM      9  I   UNL d   1      -1.398   0.809   2.426  0.00  0.00    -0.060 I 
ATOM     10  F2  UNL d   1       0.849  -1.336   1.659  0.00  0.00    -0.096 F 
ATOM     11  F3  UNL d   1       2.284  -1.707  -0.608  0.00  0.00    -0.097 F 
ATOM     12  F4  UNL d   1       1.912  -0.071  -2.759  0.00  0.00    -0.092 F 
ENDROOT
TORSDOF 0
ENDMDL
