MODEL 1
REMARK minimizedAffinity -2.05396605
REMARK minimizedRMSD -1
REMARK  0 active torsions:
REMARK  status: ('A' for Active; 'I' for Inactive)
ROOT
ATOM      1  C   UNL d   1      -0.462  -0.358   0.071  0.00  0.00     0.124 A 
ATOM      2  C1  UNL d   1      -0.099   0.935  -0.278  0.00  0.00     0.062 A 
ATOM      3  C2  UNL d   1       0.925   1.152  -1.195  0.00  0.00     0.162 A 
ATOM      4  C3  UNL d   1       1.594   0.071  -1.772  0.00  0.00    -0.034 A 
ATOM      5  C4  UNL d   1       1.224  -1.227  -1.415  0.00  0.00     0.162 A 
ATOM      6  C5  UNL d   1       0.199  -1.438  -0.498  0.00  0.00     0.062 A 
ATOM      7  F   UNL d   1      -0.150  -2.688  -0.162  0.00  0.00    -0.097 F 
ATOM      8  F1  UNL d   1       1.845  -2.288  -1.951  0.00  0.00    -0.096 F 
ATOM      9  I   UNL d   1       3.126   0.391  -3.144  0.00  0.00    -0.060 I 
ATOM     10  F2  UNL d   1       1.255   2.412  -1.514  0.00  0.00    -0.096 F 
ATOM     11  F3  UNL d   1      -0.735   1.980   0.271  0.00  0.00    -0.097 F 
ATOM     12  F4  UNL d   1      -1.447  -0.564   0.954  0.00  0.00    -0.092 F 
ENDROOT
TORSDOF 0
ENDMDL
