MODEL 1
REMARK minimizedAffinity -3.34648204
REMARK minimizedRMSD -1
REMARK  0 active torsions:
REMARK  status: ('A' for Active; 'I' for Inactive)
ROOT
ATOM      1  C4' PXY d   1       0.058   2.129  -0.954  0.00  0.00     0.077 C 
ATOM      2  C1' PXY d   1      -0.069  -3.430   0.626  0.00  0.00     0.077 C 
ATOM      3  C1  PXY d   1      -0.047  -1.970   0.218  0.00  0.00    -0.082 A 
ATOM      4  C2  PXY d   1       0.610  -1.605  -0.871  0.00  0.00     0.003 A 
ATOM      5  C3  PXY d   1       0.668  -0.285  -1.236  0.00  0.00     0.003 A 
ATOM      6  C4  PXY d   1       0.001   0.665  -0.509  0.00  0.00    -0.082 A 
ATOM      7  C5  PXY d   1      -0.681   0.299   0.597  0.00  0.00     0.003 A 
ATOM      8  C6  PXY d   1      -0.692  -1.041   0.974  0.00  0.00     0.003 A 
ENDROOT
TORSDOF 0
ENDMDL
