MODEL 1
REMARK minimizedAffinity -2.6904521
REMARK minimizedRMSD -1
REMARK  0 active torsions:
REMARK  status: ('A' for Active; 'I' for Inactive)
ROOT
ATOM      1  C4' PXY d   1       0.823   3.803   0.053  0.00  0.00     0.077 C 
ATOM      2  C1' PXY d   1      -0.083  -1.889  -0.392  0.00  0.00     0.077 C 
ATOM      3  C1  PXY d   1       0.151  -0.395  -0.288  0.00  0.00    -0.082 A 
ATOM      4  C2  PXY d   1       0.990   0.074   0.622  0.00  0.00     0.003 A 
ATOM      5  C3  PXY d   1       1.189   1.425   0.751  0.00  0.00     0.003 A 
ATOM      6  C4  PXY d   1       0.563   2.301  -0.095  0.00  0.00    -0.082 A 
ATOM      7  C5  PXY d   1      -0.286   1.830  -1.032  0.00  0.00     0.003 A 
ATOM      8  C6  PXY d   1      -0.506   0.458  -1.120  0.00  0.00     0.003 A 
ENDROOT
TORSDOF 0
ENDMDL
