MODEL 1
REMARK minimizedAffinity -3.82096601
REMARK minimizedRMSD -1
REMARK  0 active torsions:
REMARK  status: ('A' for Active; 'I' for Inactive)
ROOT
ATOM      1  C4' PXY d   1       0.155   1.005  -0.132  0.00  0.00     0.077 C 
ATOM      2  C1' PXY d   1      -0.023  -4.693  -1.089  0.00  0.00     0.077 C 
ATOM      3  C1  PXY d   1       0.016  -3.200  -0.828  0.00  0.00    -0.082 A 
ATOM      4  C2  PXY d   1       0.284  -2.369  -1.822  0.00  0.00     0.003 A 
ATOM      5  C3  PXY d   1       0.354  -1.018  -1.596  0.00  0.00     0.003 A 
ATOM      6  C4  PXY d   1       0.096  -0.509  -0.352  0.00  0.00    -0.082 A 
ATOM      7  C5  PXY d   1      -0.189  -1.350   0.665  0.00  0.00     0.003 A 
ATOM      8  C6  PXY d   1      -0.215  -2.721   0.424  0.00  0.00     0.003 A 
ENDROOT
TORSDOF 0
ENDMDL
