MODEL 1
REMARK minimizedAffinity -2.12529302
REMARK minimizedRMSD -1
REMARK  0 active torsions:
REMARK  status: ('A' for Active; 'I' for Inactive)
ROOT
ATOM      1  C4' PXY d   1       0.744   2.545  -0.227  0.00  0.00     0.077 C 
ATOM      2  C1' PXY d   1      -1.047  -2.901   0.514  0.00  0.00     0.077 C 
ATOM      3  C1  PXY d   1      -0.567  -1.477   0.313  0.00  0.00    -0.082 A 
ATOM      4  C2  PXY d   1      -0.903  -0.544   1.188  0.00  0.00     0.003 A 
ATOM      5  C3  PXY d   1      -0.504   0.755   1.004  0.00  0.00     0.003 A 
ATOM      6  C4  PXY d   1       0.290   1.092  -0.059  0.00  0.00    -0.082 A 
ATOM      7  C5  PXY d   1       0.646   0.143  -0.951  0.00  0.00     0.003 A 
ATOM      8  C6  PXY d   1       0.197  -1.161  -0.768  0.00  0.00     0.003 A 
ENDROOT
TORSDOF 0
ENDMDL
