MODEL 1
REMARK minimizedAffinity -2.91898465
REMARK minimizedRMSD -1
REMARK  0 active torsions:
REMARK  status: ('A' for Active; 'I' for Inactive)
ROOT
ATOM      1  C4' PXY d   1       0.856  -1.124  -2.489  0.00  0.00     0.077 C 
ATOM      2  C1' PXY d   1      -1.904   0.036   2.456  0.00  0.00     0.077 C 
ATOM      3  C1  PXY d   1      -1.175  -0.279   1.165  0.00  0.00    -0.082 A 
ATOM      4  C2  PXY d   1      -0.879   0.700   0.325  0.00  0.00     0.003 A 
ATOM      5  C3  PXY d   1      -0.249   0.429  -0.862  0.00  0.00     0.003 A 
ATOM      6  C4  PXY d   1       0.129  -0.851  -1.169  0.00  0.00    -0.082 A 
ATOM      7  C5  PXY d   1      -0.159  -1.854  -0.313  0.00  0.00     0.003 A 
ATOM      8  C6  PXY d   1      -0.836  -1.563   0.868  0.00  0.00     0.003 A 
ENDROOT
TORSDOF 0
ENDMDL
