MODEL 1
REMARK minimizedAffinity -5.22489882
REMARK minimizedRMSD -1
REMARK  0 active torsions:
REMARK  status: ('A' for Active; 'I' for Inactive)
ROOT
ATOM      1  C4' PXY d   1      -0.029  -3.343   0.737  0.00  0.00     0.077 C 
ATOM      2  C1' PXY d   1       0.285   2.300  -0.475  0.00  0.00     0.077 C 
ATOM      3  C1  PXY d   1       0.200   0.823  -0.144  0.00  0.00    -0.082 A 
ATOM      4  C2  PXY d   1       0.791  -0.059  -0.935  0.00  0.00     0.003 A 
ATOM      5  C3  PXY d   1       0.697  -1.400  -0.668  0.00  0.00     0.003 A 
ATOM      6  C4  PXY d   1       0.038  -1.841   0.448  0.00  0.00    -0.082 A 
ATOM      7  C5  PXY d   1      -0.558  -0.947   1.265  0.00  0.00     0.003 A 
ATOM      8  C6  PXY d   1      -0.486   0.408   0.955  0.00  0.00     0.003 A 
ENDROOT
TORSDOF 0
ENDMDL
