MODEL 1
REMARK minimizedAffinity -1.2374599
REMARK minimizedRMSD -1
REMARK  0 active torsions:
REMARK  status: ('A' for Active; 'I' for Inactive)
ROOT
ATOM      1  C4' PXY d   1      -0.289  -3.787   0.432  0.00  0.00     0.077 C 
ATOM      2  C1' PXY d   1       0.340   1.958   0.308  0.00  0.00     0.077 C 
ATOM      3  C1  PXY d   1       0.171   0.452   0.353  0.00  0.00    -0.082 A 
ATOM      4  C2  PXY d   1       0.872  -0.310  -0.471  0.00  0.00     0.003 A 
ATOM      5  C3  PXY d   1       0.708  -1.671  -0.466  0.00  0.00     0.003 A 
ATOM      6  C4  PXY d   1      -0.143  -2.263   0.428  0.00  0.00    -0.082 A 
ATOM      7  C5  PXY d   1      -0.854  -1.493   1.280  0.00  0.00     0.003 A 
ATOM      8  C6  PXY d   1      -0.704  -0.110   1.231  0.00  0.00     0.003 A 
ENDROOT
TORSDOF 0
ENDMDL
