MODEL 1
REMARK minimizedAffinity -3.30827165
REMARK minimizedRMSD -1
REMARK  0 active torsions:
REMARK  status: ('A' for Active; 'I' for Inactive)
ROOT
ATOM      1  C4' PXY d   1       0.205   2.230   0.184  0.00  0.00     0.077 C 
ATOM      2  C1' PXY d   1      -0.042  -3.533   0.558  0.00  0.00     0.077 C 
ATOM      3  C1  PXY d   1       0.011  -2.020   0.465  0.00  0.00    -0.082 A 
ATOM      4  C2  PXY d   1       0.783  -1.447  -0.444  0.00  0.00     0.003 A 
ATOM      5  C3  PXY d   1       0.867  -0.081  -0.520  0.00  0.00     0.003 A 
ATOM      6  C4  PXY d   1       0.113   0.707   0.307  0.00  0.00    -0.082 A 
ATOM      7  C5  PXY d   1      -0.685   0.130   1.230  0.00  0.00     0.003 A 
ATOM      8  C6  PXY d   1      -0.725  -1.258   1.319  0.00  0.00     0.003 A 
ENDROOT
TORSDOF 0
ENDMDL
