MODEL 1
REMARK minimizedAffinity -2.4161644
REMARK minimizedRMSD -1
REMARK  0 active torsions:
REMARK  status: ('A' for Active; 'I' for Inactive)
ROOT
ATOM      1  C4' PXY d   1      -0.525   2.242   0.017  0.00  0.00     0.077 C 
ATOM      2  C1' PXY d   1      -0.548  -3.525   0.410  0.00  0.00     0.077 C 
ATOM      3  C1  PXY d   1      -0.532  -2.013   0.299  0.00  0.00    -0.082 A 
ATOM      4  C2  PXY d   1      -1.103  -1.282   1.242  0.00  0.00     0.003 A 
ATOM      5  C3  PXY d   1      -1.125   0.085   1.142  0.00  0.00     0.003 A 
ATOM      6  C4  PXY d   1      -0.509   0.713   0.092  0.00  0.00    -0.082 A 
ATOM      7  C5  PXY d   1       0.085  -0.026  -0.869  0.00  0.00     0.003 A 
ATOM      8  C6  PXY d   1       0.060  -1.414  -0.770  0.00  0.00     0.003 A 
ENDROOT
TORSDOF 0
ENDMDL
