MODEL 1
REMARK minimizedAffinity -4.237854
REMARK minimizedRMSD -1
REMARK  0 active torsions:
REMARK  status: ('A' for Active; 'I' for Inactive)
ROOT
ATOM      1  C4' PXY d   1      -0.121  -4.764  -0.395  0.00  0.00     0.077 C 
ATOM      2  C1' PXY d   1      -0.020   1.015  -0.522  0.00  0.00     0.077 C 
ATOM      3  C1  PXY d   1      -0.045  -0.501  -0.502  0.00  0.00    -0.082 A 
ATOM      4  C2  PXY d   1      -0.655  -1.132   0.489  0.00  0.00     0.003 A 
ATOM      5  C3  PXY d   1      -0.659  -2.502   0.540  0.00  0.00     0.003 A 
ATOM      6  C4  PXY d   1      -0.079  -3.234  -0.462  0.00  0.00    -0.082 A 
ATOM      7  C5  PXY d   1       0.535  -2.598  -1.481  0.00  0.00     0.003 A 
ATOM      8  C6  PXY d   1       0.564  -1.206  -1.493  0.00  0.00     0.003 A 
ENDROOT
TORSDOF 0
ENDMDL
