MODEL 1
REMARK minimizedAffinity -4.04340029
REMARK minimizedRMSD -1
REMARK  0 active torsions:
REMARK  status: ('A' for Active; 'I' for Inactive)
ROOT
ATOM      1  C4' PXY d   1       0.153  -3.453   0.295  0.00  0.00     0.077 C 
ATOM      2  C1' PXY d   1      -0.191   2.257  -0.540  0.00  0.00     0.077 C 
ATOM      3  C1  PXY d   1      -0.103   0.761  -0.308  0.00  0.00    -0.082 A 
ATOM      4  C2  PXY d   1       0.574   0.007  -1.158  0.00  0.00     0.003 A 
ATOM      5  C3  PXY d   1       0.637  -1.352  -0.982  0.00  0.00     0.003 A 
ATOM      6  C4  PXY d   1       0.045  -1.937   0.106  0.00  0.00    -0.082 A 
ATOM      7  C5  PXY d   1      -0.639  -1.172   0.983  0.00  0.00     0.003 A 
ATOM      8  C6  PXY d   1      -0.725   0.199   0.763  0.00  0.00     0.003 A 
ENDROOT
TORSDOF 0
ENDMDL
