MODEL 1
REMARK minimizedAffinity -4.77734709
REMARK minimizedRMSD -1
REMARK  0 active torsions:
REMARK  status: ('A' for Active; 'I' for Inactive)
ROOT
ATOM      1  C4' PXY d   1      -0.268  -1.243   0.384  0.00  0.00     0.077 C 
ATOM      2  C1' PXY d   1       1.960   4.088   0.562  0.00  0.00     0.077 C 
ATOM      3  C1  PXY d   1       1.385   2.685   0.523  0.00  0.00    -0.082 A 
ATOM      4  C2  PXY d   1       0.593   2.331  -0.475  0.00  0.00     0.003 A 
ATOM      5  C3  PXY d   1       0.039   1.077  -0.510  0.00  0.00     0.003 A 
ATOM      6  C4  PXY d   1       0.342   0.159   0.460  0.00  0.00    -0.082 A 
ATOM      7  C5  PXY d   1       1.158   0.509   1.476  0.00  0.00     0.003 A 
ATOM      8  C6  PXY d   1       1.677   1.800   1.514  0.00  0.00     0.003 A 
ENDROOT
TORSDOF 0
ENDMDL
