MODEL 1
REMARK minimizedAffinity -0.59506464
REMARK minimizedRMSD -1
REMARK  0 active torsions:
REMARK  status: ('A' for Active; 'I' for Inactive)
ROOT
ATOM      1  C4' PXY d   1       0.084  -3.609   0.006  0.00  0.00     0.077 C 
ATOM      2  C1' PXY d   1       0.092   2.159  -0.375  0.00  0.00     0.077 C 
ATOM      3  C1  PXY d   1       0.095   0.645  -0.287  0.00  0.00    -0.082 A 
ATOM      4  C2  PXY d   1      -0.731   0.037   0.549  0.00  0.00     0.003 A 
ATOM      5  C3  PXY d   1      -0.720  -1.329   0.664  0.00  0.00     0.003 A 
ATOM      6  C4  PXY d   1       0.109  -2.084  -0.123  0.00  0.00    -0.082 A 
ATOM      7  C5  PXY d   1       0.947  -1.471  -0.985  0.00  0.00     0.003 A 
ATOM      8  C6  PXY d   1       0.949  -0.081  -1.058  0.00  0.00     0.003 A 
ENDROOT
TORSDOF 0
ENDMDL
