MODEL 1
REMARK minimizedAffinity -4.05203962
REMARK minimizedRMSD -1
REMARK  0 active torsions:
REMARK  status: ('A' for Active; 'I' for Inactive)
ROOT
ATOM      1  C4' PXY d   1       1.065  -2.964  -2.041  0.00  0.00     0.077 C 
ATOM      2  C1' PXY d   1      -1.375  -0.185   2.401  0.00  0.00     0.077 C 
ATOM      3  C1  PXY d   1      -0.731  -0.923   1.244  0.00  0.00    -0.082 A 
ATOM      4  C2  PXY d   1      -0.379  -0.256   0.157  0.00  0.00     0.003 A 
ATOM      5  C3  PXY d   1       0.175  -0.913  -0.911  0.00  0.00     0.003 A 
ATOM      6  C4  PXY d   1       0.421  -2.258  -0.845  0.00  0.00    -0.082 A 
ATOM      7  C5  PXY d   1       0.075  -2.944   0.265  0.00  0.00     0.003 A 
ATOM      8  C6  PXY d   1      -0.524  -2.266   1.322  0.00  0.00     0.003 A 
ENDROOT
TORSDOF 0
ENDMDL
