MODEL 1
REMARK minimizedAffinity -1.95344841
REMARK minimizedRMSD -1
REMARK  0 active torsions:
REMARK  status: ('A' for Active; 'I' for Inactive)
ROOT
ATOM      1  C4' PXY d   1      -1.631   1.044   0.938  0.00  0.00     0.077 C 
ATOM      2  C1' PXY d   1       1.651  -2.257  -2.488  0.00  0.00     0.077 C 
ATOM      3  C1  PXY d   1       0.795  -1.381  -1.596  0.00  0.00    -0.082 A 
ATOM      4  C2  PXY d   1       0.405  -1.833  -0.415  0.00  0.00     0.003 A 
ATOM      5  C3  PXY d   1      -0.397  -1.066   0.391  0.00  0.00     0.003 A 
ATOM      6  C4  PXY d   1      -0.758   0.198   0.008  0.00  0.00    -0.082 A 
ATOM      7  C5  PXY d   1      -0.355   0.671  -1.190  0.00  0.00     0.003 A 
ATOM      8  C6  PXY d   1       0.424  -0.139  -2.012  0.00  0.00     0.003 A 
ENDROOT
TORSDOF 0
ENDMDL
