MODEL 1
REMARK minimizedAffinity -3.62123704
REMARK minimizedRMSD -1
REMARK  0 active torsions:
REMARK  status: ('A' for Active; 'I' for Inactive)
ROOT
ATOM      1  C4' PXY d   1      -0.328  -3.681   0.260  0.00  0.00     0.077 C 
ATOM      2  C1' PXY d   1      -0.041   2.011  -0.704  0.00  0.00     0.077 C 
ATOM      3  C1  PXY d   1      -0.113   0.516  -0.464  0.00  0.00    -0.082 A 
ATOM      4  C2  PXY d   1      -0.806   0.052   0.564  0.00  0.00     0.003 A 
ATOM      5  C3  PXY d   1      -0.856  -1.295   0.814  0.00  0.00     0.003 A 
ATOM      6  C4  PXY d   1      -0.234  -2.180  -0.027  0.00  0.00    -0.082 A 
ATOM      7  C5  PXY d   1       0.465  -1.714  -1.083  0.00  0.00     0.003 A 
ATOM      8  C6  PXY d   1       0.538  -0.341  -1.296  0.00  0.00     0.003 A 
ENDROOT
TORSDOF 0
ENDMDL
