MODEL 1
REMARK minimizedAffinity -4.00009394
REMARK minimizedRMSD -1
REMARK  0 active torsions:
REMARK  status: ('A' for Active; 'I' for Inactive)
ROOT
ATOM      1  C4' PXY d   1      -1.330  -2.156   0.621  0.00  0.00     0.077 C 
ATOM      2  C1' PXY d   1       1.898   2.627   0.276  0.00  0.00     0.077 C 
ATOM      3  C1  PXY d   1       1.042   1.378   0.359  0.00  0.00    -0.082 A 
ATOM      4  C2  PXY d   1       1.164   0.570   1.399  0.00  0.00     0.003 A 
ATOM      5  C3  PXY d   1       0.422  -0.581   1.474  0.00  0.00     0.003 A 
ATOM      6  C4  PXY d   1      -0.494  -0.879   0.500  0.00  0.00    -0.082 A 
ATOM      7  C5  PXY d   1      -0.632  -0.053  -0.559  0.00  0.00     0.003 A 
ATOM      8  C6  PXY d   1       0.161   1.088  -0.637  0.00  0.00     0.003 A 
ENDROOT
TORSDOF 0
ENDMDL
