MODEL 1
REMARK minimizedAffinity -3.61325526
REMARK minimizedRMSD -1
REMARK  0 active torsions:
REMARK  status: ('A' for Active; 'I' for Inactive)
ROOT
ATOM      1  C4' PXY d   1       1.237  -2.271  -2.439  0.00  0.00     0.077 C 
ATOM      2  C1' PXY d   1      -1.637  -0.142   2.102  0.00  0.00     0.077 C 
ATOM      3  C1  PXY d   1      -0.880  -0.711   0.918  0.00  0.00    -0.082 A 
ATOM      4  C2  PXY d   1      -0.435   0.103  -0.025  0.00  0.00     0.003 A 
ATOM      5  C3  PXY d   1       0.224  -0.398  -1.119  0.00  0.00     0.003 A 
ATOM      6  C4  PXY d   1       0.476  -1.740  -1.221  0.00  0.00    -0.082 A 
ATOM      7  C5  PXY d   1       0.035  -2.575  -0.257  0.00  0.00     0.003 A 
ATOM      8  C6  PXY d   1      -0.668  -2.051   0.824  0.00  0.00     0.003 A 
ENDROOT
TORSDOF 0
ENDMDL
