MODEL 1
REMARK minimizedAffinity -4.42612648
REMARK minimizedRMSD -1
REMARK  0 active torsions:
REMARK  status: ('A' for Active; 'I' for Inactive)
ROOT
ATOM      1  C4' PXY d   1      -0.648   2.552   0.172  0.00  0.00     0.077 C 
ATOM      2  C1' PXY d   1       0.211  -3.165   0.122  0.00  0.00     0.077 C 
ATOM      3  C1  PXY d   1      -0.003  -1.664   0.129  0.00  0.00    -0.082 A 
ATOM      4  C2  PXY d   1      -0.821  -1.124   1.018  0.00  0.00     0.003 A 
ATOM      5  C3  PXY d   1      -1.050   0.228   1.018  0.00  0.00     0.003 A 
ATOM      6  C4  PXY d   1      -0.395   1.042   0.134  0.00  0.00    -0.082 A 
ATOM      7  C5  PXY d   1       0.449   0.500  -0.770  0.00  0.00     0.003 A 
ATOM      8  C6  PXY d   1       0.637  -0.879  -0.780  0.00  0.00     0.003 A 
ENDROOT
TORSDOF 0
ENDMDL
