MODEL 1
REMARK minimizedAffinity 8.3955164
REMARK minimizedRMSD -1
REMARK  2 active torsions:
REMARK  status: ('A' for Active; 'I' for Inactive)
REMARK    1  A    between atoms: C1_2  and  C2_3 
REMARK    2  A    between atoms: C2_3  and  C3_4 
ROOT
ATOM      1  C3  UNL d   1      -0.397  -0.452   1.153  0.00  0.00    -0.075 A 
ATOM      2  C4  UNL d   1      -1.370   0.140   0.334  0.00  0.00     0.002 A 
ATOM      3  C5  UNL d   1      -2.389   0.913   0.891  0.00  0.00     0.002 A 
ATOM      4  C6  UNL d   1      -2.454   1.096   2.271  0.00  0.00    -0.004 A 
ATOM      5  C7  UNL d   1      -1.502   0.499   3.094  0.00  0.00     0.002 A 
ATOM      6  C8  UNL d   1      -0.479  -0.271   2.540  0.00  0.00     0.002 A 
ENDROOT
BRANCH   1   7
ATOM      7  C2  UNL d   1       0.726  -1.265   0.554  0.00  0.00     0.056 C 
BRANCH   7   8
ATOM      8  C1  UNL d   1       2.066  -0.525   0.487  0.00  0.00     0.007 C 
ATOM      9  C   UNL d   1       2.959  -0.791   1.691  0.00  0.00     0.009 C 
ENDBRANCH   7   8
ENDBRANCH   1   7
TORSDOF 2
ENDMDL
