MODEL 1
REMARK minimizedAffinity -0.652367175
REMARK minimizedRMSD -1
REMARK  2 active torsions:
REMARK  status: ('A' for Active; 'I' for Inactive)
REMARK    1  A    between atoms: C1_2  and  C2_3 
REMARK    2  A    between atoms: C2_3  and  C3_4 
ROOT
ATOM      1  C3  UNL d   1      -0.317   1.029   2.459  0.00  0.00    -0.075 A 
ATOM      2  C4  UNL d   1      -0.107   2.127   3.306  0.00  0.00     0.002 A 
ATOM      3  C5  UNL d   1       1.141   2.747   3.365  0.00  0.00     0.002 A 
ATOM      4  C6  UNL d   1       2.196   2.272   2.589  0.00  0.00    -0.004 A 
ATOM      5  C7  UNL d   1       2.003   1.171   1.757  0.00  0.00     0.002 A 
ATOM      6  C8  UNL d   1       0.754   0.552   1.692  0.00  0.00     0.002 A 
ENDROOT
BRANCH   1   7
ATOM      7  C2  UNL d   1      -1.674   0.372   2.369  0.00  0.00     0.056 C 
BRANCH   7   8
ATOM      8  C1  UNL d   1      -2.149   0.118   0.934  0.00  0.00     0.007 C 
ATOM      9  C   UNL d   1      -3.118   1.177   0.426  0.00  0.00     0.009 C 
ENDBRANCH   7   8
ENDBRANCH   1   7
TORSDOF 2
ENDMDL
