MODEL 1
REMARK minimizedAffinity 10.8227701
REMARK minimizedRMSD -1
REMARK  2 active torsions:
REMARK  status: ('A' for Active; 'I' for Inactive)
REMARK    1  A    between atoms: C1_2  and  C2_3 
REMARK    2  A    between atoms: C2_3  and  C3_4 
ROOT
ATOM      1  C3  UNL d   1       0.189  -0.307   1.787  0.00  0.00    -0.075 A 
ATOM      2  C4  UNL d   1      -0.598  -1.458   1.644  0.00  0.00     0.002 A 
ATOM      3  C5  UNL d   1      -1.989  -1.379   1.715  0.00  0.00     0.002 A 
ATOM      4  C6  UNL d   1      -2.609  -0.152   1.942  0.00  0.00    -0.004 A 
ATOM      5  C7  UNL d   1      -1.836   0.996   2.103  0.00  0.00     0.002 A 
ATOM      6  C8  UNL d   1      -0.444   0.920   2.027  0.00  0.00     0.002 A 
ENDROOT
BRANCH   1   7
ATOM      7  C2  UNL d   1       1.694  -0.382   1.681  0.00  0.00     0.056 C 
BRANCH   7   8
ATOM      8  C1  UNL d   1       2.227  -0.222   0.254  0.00  0.00     0.007 C 
ATOM      9  C   UNL d   1       2.856   1.141  -0.003  0.00  0.00     0.009 C 
ENDBRANCH   7   8
ENDBRANCH   1   7
TORSDOF 2
ENDMDL
