MODEL 1
REMARK minimizedAffinity 0.00363603188
REMARK minimizedRMSD -1
REMARK  2 active torsions:
REMARK  status: ('A' for Active; 'I' for Inactive)
REMARK    1  A    between atoms: C1_2  and  C2_3 
REMARK    2  A    between atoms: C2_3  and  C3_4 
ROOT
ATOM      1  C3  UNL d   1      -0.370   0.339   2.212  0.00  0.00    -0.075 A 
ATOM      2  C4  UNL d   1       0.008  -0.023   3.513  0.00  0.00     0.002 A 
ATOM      3  C5  UNL d   1       1.291  -0.508   3.769  0.00  0.00     0.002 A 
ATOM      4  C6  UNL d   1       2.207  -0.648   2.729  0.00  0.00    -0.004 A 
ATOM      5  C7  UNL d   1       1.837  -0.308   1.429  0.00  0.00     0.002 A 
ATOM      6  C8  UNL d   1       0.555   0.183   1.171  0.00  0.00     0.002 A 
ENDROOT
BRANCH   1   7
ATOM      7  C2  UNL d   1      -1.747   0.892   1.933  0.00  0.00     0.056 C 
BRANCH   7   8
ATOM      8  C1  UNL d   1      -2.460   0.225   0.752  0.00  0.00     0.007 C 
ATOM      9  C   UNL d   1      -3.525   1.109   0.117  0.00  0.00     0.009 C 
ENDBRANCH   7   8
ENDBRANCH   1   7
TORSDOF 2
ENDMDL
