MODEL 1
REMARK minimizedAffinity 5.35068941
REMARK minimizedRMSD -1
REMARK  2 active torsions:
REMARK  status: ('A' for Active; 'I' for Inactive)
REMARK    1  A    between atoms: C1_2  and  C2_3 
REMARK    2  A    between atoms: C2_3  and  C3_4 
ROOT
ATOM      1  C3  UNL d   1       0.506  -0.004   2.163  0.00  0.00    -0.075 A 
ATOM      2  C4  UNL d   1       0.462  -0.324   0.799  0.00  0.00     0.002 A 
ATOM      3  C5  UNL d   1       1.599  -0.800   0.146  0.00  0.00     0.002 A 
ATOM      4  C6  UNL d   1       2.795  -0.952   0.845  0.00  0.00    -0.004 A 
ATOM      5  C7  UNL d   1       2.854  -0.621   2.197  0.00  0.00     0.002 A 
ATOM      6  C8  UNL d   1       1.716  -0.149   2.854  0.00  0.00     0.002 A 
ENDROOT
BRANCH   1   7
ATOM      7  C2  UNL d   1      -0.729   0.484   2.882  0.00  0.00     0.056 C 
BRANCH   7   8
ATOM      8  C1  UNL d   1      -2.030   0.273   2.100  0.00  0.00     0.007 C 
ATOM      9  C   UNL d   1      -2.800   1.565   1.857  0.00  0.00     0.009 C 
ENDBRANCH   7   8
ENDBRANCH   1   7
TORSDOF 2
ENDMDL
