MODEL 1
REMARK minimizedAffinity -3.43313217
REMARK minimizedRMSD -1
REMARK  0 active torsions:
REMARK  status: ('A' for Active; 'I' for Inactive)
ROOT
ATOM      1  C   UNL d   1      -1.291  -0.304   3.192  0.00  0.00     0.020 A 
ATOM      2  C1  UNL d   1      -2.309  -0.260   2.241  0.00  0.00     0.020 A 
ATOM      3  C2  UNL d   1      -2.003  -0.010   0.901  0.00  0.00     0.034 A 
ATOM      4  C3  UNL d   1      -0.675   0.198   0.510  0.00  0.00     0.017 A 
ATOM      5  C4  UNL d   1       0.346   0.154   1.466  0.00  0.00     0.017 A 
ATOM      6  C5  UNL d   1       0.034  -0.097   2.806  0.00  0.00     0.034 A 
ATOM      7 Cl   UNL d   1       2.008   0.400   1.059  0.00  0.00    -0.070 Cl
ATOM      8 Cl1  UNL d   1      -0.369   0.501  -1.163  0.00  0.00    -0.070 Cl
ENDROOT
TORSDOF 0
ENDMDL
