MODEL 1
REMARK minimizedAffinity -4.53615236
REMARK minimizedRMSD -1
REMARK  0 active torsions:
REMARK  status: ('A' for Active; 'I' for Inactive)
ROOT
ATOM      1  C   UNL d   1      -1.462  -0.173   2.759  0.00  0.00     0.020 A 
ATOM      2  C1  UNL d   1      -2.421  -0.202   1.748  0.00  0.00     0.020 A 
ATOM      3  C2  UNL d   1      -2.036  -0.033   0.416  0.00  0.00     0.034 A 
ATOM      4  C3  UNL d   1      -0.689   0.165   0.092  0.00  0.00     0.017 A 
ATOM      5  C4  UNL d   1       0.272   0.194   1.109  0.00  0.00     0.017 A 
ATOM      6  C5  UNL d   1      -0.118   0.024   2.441  0.00  0.00     0.034 A 
ATOM      7 Cl   UNL d   1       1.954   0.434   0.787  0.00  0.00    -0.070 Cl
ATOM      8 Cl1  UNL d   1      -0.285   0.367  -1.575  0.00  0.00    -0.070 Cl
ENDROOT
TORSDOF 0
ENDMDL
