MODEL 1
REMARK minimizedAffinity -3.76333547
REMARK minimizedRMSD -1
REMARK  0 active torsions:
REMARK  status: ('A' for Active; 'I' for Inactive)
ROOT
ATOM      1  C   UNL d   1      -2.172   0.351  -0.150  0.00  0.00     0.020 A 
ATOM      2  C1  UNL d   1      -1.151   0.736  -1.017  0.00  0.00     0.020 A 
ATOM      3  C2  UNL d   1       0.153   0.882  -0.539  0.00  0.00     0.034 A 
ATOM      4  C3  UNL d   1       0.439   0.643   0.810  0.00  0.00     0.017 A 
ATOM      5  C4  UNL d   1      -0.587   0.256   1.680  0.00  0.00     0.017 A 
ATOM      6  C5  UNL d   1      -1.891   0.112   1.196  0.00  0.00     0.034 A 
ATOM      7 Cl   UNL d   1      -0.312  -0.057   3.357  0.00  0.00    -0.070 Cl
ATOM      8 Cl1  UNL d   1       2.074   0.842   1.333  0.00  0.00    -0.070 Cl
ENDROOT
TORSDOF 0
ENDMDL
