MODEL 1
REMARK minimizedAffinity -2.57854915
REMARK minimizedRMSD -1
REMARK  0 active torsions:
REMARK  status: ('A' for Active; 'I' for Inactive)
ROOT
ATOM      1  C   UNL d   1      -1.846  -0.712   1.932  0.00  0.00     0.020 A 
ATOM      2  C1  UNL d   1      -1.017  -0.169   2.913  0.00  0.00     0.020 A 
ATOM      3  C2  UNL d   1       0.187   0.440   2.552  0.00  0.00     0.034 A 
ATOM      4  C3  UNL d   1       0.565   0.508   1.206  0.00  0.00     0.017 A 
ATOM      5  C4  UNL d   1      -0.268  -0.037   0.222  0.00  0.00     0.017 A 
ATOM      6  C5  UNL d   1      -1.472  -0.645   0.589  0.00  0.00     0.034 A 
ATOM      7 Cl   UNL d   1       0.131   0.009  -1.459  0.00  0.00    -0.070 Cl
ATOM      8 Cl1  UNL d   1       2.067   1.276   0.831  0.00  0.00    -0.070 Cl
ENDROOT
TORSDOF 0
ENDMDL
