MODEL 1
REMARK minimizedAffinity -3.72476602
REMARK minimizedRMSD -1
REMARK  0 active torsions:
REMARK  status: ('A' for Active; 'I' for Inactive)
ROOT
ATOM      1  C   UNL d   1       0.012  -0.730   2.390  0.00  0.00     0.020 A 
ATOM      2  C1  UNL d   1       1.222  -0.804   1.700  0.00  0.00     0.020 A 
ATOM      3  C2  UNL d   1       1.278  -0.457   0.349  0.00  0.00     0.034 A 
ATOM      4  C3  UNL d   1       0.122  -0.034  -0.318  0.00  0.00     0.017 A 
ATOM      5  C4  UNL d   1      -1.092   0.040   0.375  0.00  0.00     0.017 A 
ATOM      6  C5  UNL d   1      -1.142  -0.308   1.728  0.00  0.00     0.034 A 
ATOM      7 Cl   UNL d   1      -2.560   0.553  -0.379  0.00  0.00    -0.070 Cl
ATOM      8 Cl1  UNL d   1       0.264   0.379  -1.989  0.00  0.00    -0.070 Cl
ENDROOT
TORSDOF 0
ENDMDL
