MODEL 1
REMARK minimizedAffinity -1.68976903
REMARK minimizedRMSD -1
REMARK  0 active torsions:
REMARK  status: ('A' for Active; 'I' for Inactive)
ROOT
ATOM      1  C   UNL d   1      -1.833   0.241  -0.332  0.00  0.00     0.020 A 
ATOM      2  C1  UNL d   1      -0.775   0.434  -1.219  0.00  0.00     0.020 A 
ATOM      3  C2  UNL d   1       0.512   0.667  -0.730  0.00  0.00     0.034 A 
ATOM      4  C3  UNL d   1       0.744   0.708   0.649  0.00  0.00     0.017 A 
ATOM      5  C4  UNL d   1      -0.318   0.513   1.539  0.00  0.00     0.017 A 
ATOM      6  C5  UNL d   1      -1.605   0.280   1.044  0.00  0.00     0.034 A 
ATOM      7 Cl   UNL d   1      -0.110   0.549   3.254  0.00  0.00    -0.070 Cl
ATOM      8 Cl1  UNL d   1       2.361   1.000   1.184  0.00  0.00    -0.070 Cl
ENDROOT
TORSDOF 0
ENDMDL
