MODEL 1
REMARK minimizedAffinity -4.94017076
REMARK minimizedRMSD -1
REMARK  0 active torsions:
REMARK  status: ('A' for Active; 'I' for Inactive)
ROOT
ATOM      1  C   UNL d   1       0.237   0.661  -0.740  0.00  0.00     0.020 A 
ATOM      2  C1  UNL d   1       1.016   0.509   0.407  0.00  0.00     0.020 A 
ATOM      3  C2  UNL d   1       0.424   0.098   1.603  0.00  0.00     0.034 A 
ATOM      4  C3  UNL d   1      -0.950  -0.161   1.656  0.00  0.00     0.017 A 
ATOM      5  C4  UNL d   1      -1.731  -0.008   0.504  0.00  0.00     0.017 A 
ATOM      6  C5  UNL d   1      -1.133   0.404  -0.691  0.00  0.00     0.034 A 
ATOM      7 Cl   UNL d   1      -3.433  -0.309   0.491  0.00  0.00    -0.070 Cl
ATOM      8 Cl1  UNL d   1      -1.616  -0.666   3.168  0.00  0.00    -0.070 Cl
ENDROOT
TORSDOF 0
ENDMDL
