MODEL 1
REMARK minimizedAffinity -5.0138135
REMARK minimizedRMSD -1
REMARK  0 active torsions:
REMARK  status: ('A' for Active; 'I' for Inactive)
ROOT
ATOM      1  C   UNL d   1      -1.751  -1.178   2.147  0.00  0.00     0.020 A 
ATOM      2  C1  UNL d   1      -0.750  -0.912   3.080  0.00  0.00     0.020 A 
ATOM      3  C2  UNL d   1       0.376  -0.176   2.705  0.00  0.00     0.034 A 
ATOM      4  C3  UNL d   1       0.504   0.296   1.394  0.00  0.00     0.017 A 
ATOM      5  C4  UNL d   1      -0.502   0.029   0.458  0.00  0.00     0.017 A 
ATOM      6  C5  UNL d   1      -1.627  -0.709   0.839  0.00  0.00     0.034 A 
ATOM      7 Cl   UNL d   1      -0.415   0.578  -1.178  0.00  0.00    -0.070 Cl
ATOM      8 Cl1  UNL d   1       1.923   1.200   1.001  0.00  0.00    -0.070 Cl
ENDROOT
TORSDOF 0
ENDMDL
