MODEL 1
REMARK minimizedAffinity -3.4499445
REMARK minimizedRMSD -1
REMARK  0 active torsions:
REMARK  status: ('A' for Active; 'I' for Inactive)
ROOT
ATOM      1  C   UNL d   1       0.586   0.346  -0.078  0.00  0.00     0.020 A 
ATOM      2  C1  UNL d   1      -0.636  -0.316  -0.189  0.00  0.00     0.020 A 
ATOM      3  C2  UNL d   1      -1.330  -0.698   0.962  0.00  0.00     0.034 A 
ATOM      4  C3  UNL d   1      -0.801  -0.420   2.227  0.00  0.00     0.017 A 
ATOM      5  C4  UNL d   1       0.426   0.244   2.337  0.00  0.00     0.017 A 
ATOM      6  C5  UNL d   1       1.116   0.625   1.182  0.00  0.00     0.034 A 
ATOM      7 Cl   UNL d   1       1.141   0.623   3.864  0.00  0.00    -0.070 Cl
ATOM      8 Cl1  UNL d   1      -1.713  -0.921   3.607  0.00  0.00    -0.070 Cl
ENDROOT
TORSDOF 0
ENDMDL
