MODEL 1
REMARK minimizedAffinity -3.01883507
REMARK minimizedRMSD -1
REMARK  0 active torsions:
REMARK  status: ('A' for Active; 'I' for Inactive)
ROOT
ATOM      1  C   UNL d   1      -0.537  -0.652   3.032  0.00  0.00     0.020 A 
ATOM      2  C1  UNL d   1       0.638  -0.591   2.284  0.00  0.00     0.020 A 
ATOM      3  C2  UNL d   1       0.597  -0.176   0.951  0.00  0.00     0.034 A 
ATOM      4  C3  UNL d   1      -0.622   0.178   0.362  0.00  0.00     0.017 A 
ATOM      5  C4  UNL d   1      -1.801   0.116   1.114  0.00  0.00     0.017 A 
ATOM      6  C5  UNL d   1      -1.754  -0.299   2.448  0.00  0.00     0.034 A 
ATOM      7 Cl   UNL d   1      -3.343   0.538   0.456  0.00  0.00    -0.070 Cl
ATOM      8 Cl1  UNL d   1      -0.599   0.682  -1.290  0.00  0.00    -0.070 Cl
ENDROOT
TORSDOF 0
ENDMDL
