MODEL 1
REMARK minimizedAffinity -0.520991802
REMARK minimizedRMSD -1
REMARK  0 active torsions:
REMARK  status: ('A' for Active; 'I' for Inactive)
ROOT
ATOM      1  C   UNL d   1       0.142  -0.491   3.075  0.00  0.00     0.020 A 
ATOM      2  C1  UNL d   1      -0.643  -1.191   2.161  0.00  0.00     0.020 A 
ATOM      3  C2  UNL d   1      -0.561  -0.895   0.799  0.00  0.00     0.034 A 
ATOM      4  C3  UNL d   1       0.309   0.105   0.347  0.00  0.00     0.017 A 
ATOM      5  C4  UNL d   1       1.097   0.807   1.266  0.00  0.00     0.017 A 
ATOM      6  C5  UNL d   1       1.010   0.506   2.629  0.00  0.00     0.034 A 
ATOM      7 Cl   UNL d   1       2.193   2.054   0.785  0.00  0.00    -0.070 Cl
ATOM      8 Cl1  UNL d   1       0.360   0.418  -1.351  0.00  0.00    -0.070 Cl
ENDROOT
TORSDOF 0
ENDMDL
