MODEL 1
REMARK minimizedAffinity -2.34133124
REMARK minimizedRMSD -1
REMARK  0 active torsions:
REMARK  status: ('A' for Active; 'I' for Inactive)
ROOT
ATOM      1  C   UNL d   1      -0.740  -0.273   1.471  0.00  0.00     0.020 A 
ATOM      2  C1  UNL d   1       0.652  -0.285   1.393  0.00  0.00     0.020 A 
ATOM      3  C2  UNL d   1       1.285   0.003   0.182  0.00  0.00     0.034 A 
ATOM      4  C3  UNL d   1       0.527   0.304  -0.955  0.00  0.00     0.017 A 
ATOM      5  C4  UNL d   1      -0.871   0.315  -0.875  0.00  0.00     0.017 A 
ATOM      6  C5  UNL d   1      -1.499   0.026   0.340  0.00  0.00     0.034 A 
ATOM      7 Cl   UNL d   1      -1.874   0.677  -2.235  0.00  0.00    -0.070 Cl
ATOM      8 Cl1  UNL d   1       1.376   0.650  -2.420  0.00  0.00    -0.070 Cl
ENDROOT
TORSDOF 0
ENDMDL
