MODEL 1
REMARK minimizedAffinity -3.7212975
REMARK minimizedRMSD -1
REMARK  0 active torsions:
REMARK  status: ('A' for Active; 'I' for Inactive)
ROOT
ATOM      1  C   UNL d   1      -0.594  -0.578   3.090  0.00  0.00     0.020 A 
ATOM      2  C1  UNL d   1      -1.479  -0.985   2.092  0.00  0.00     0.020 A 
ATOM      3  C2  UNL d   1      -1.214  -0.679   0.756  0.00  0.00     0.034 A 
ATOM      4  C3  UNL d   1      -0.060   0.036   0.413  0.00  0.00     0.017 A 
ATOM      5  C4  UNL d   1       0.828   0.444   1.415  0.00  0.00     0.017 A 
ATOM      6  C5  UNL d   1       0.557   0.135   2.752  0.00  0.00     0.034 A 
ATOM      7 Cl   UNL d   1       2.272   1.329   1.070  0.00  0.00    -0.070 Cl
ATOM      8 Cl1  UNL d   1       0.206   0.379  -1.259  0.00  0.00    -0.070 Cl
ENDROOT
TORSDOF 0
ENDMDL
