MODEL 1
REMARK minimizedAffinity -2.34728074
REMARK minimizedRMSD -1
REMARK  0 active torsions:
REMARK  status: ('A' for Active; 'I' for Inactive)
ROOT
ATOM      1  C   UNL d   1      -0.540  -0.758   3.584  0.00  0.00     0.020 A 
ATOM      2  C1  UNL d   1      -1.619  -1.194   2.815  0.00  0.00     0.020 A 
ATOM      3  C2  UNL d   1      -1.632  -0.966   1.438  0.00  0.00     0.034 A 
ATOM      4  C3  UNL d   1      -0.565  -0.300   0.824  0.00  0.00     0.017 A 
ATOM      5  C4  UNL d   1       0.518   0.136   1.596  0.00  0.00     0.017 A 
ATOM      6  C5  UNL d   1       0.526  -0.095   2.975  0.00  0.00     0.034 A 
ATOM      7 Cl   UNL d   1       1.871   0.964   0.910  0.00  0.00    -0.070 Cl
ATOM      8 Cl1  UNL d   1      -0.648  -0.053  -0.884  0.00  0.00    -0.070 Cl
ENDROOT
TORSDOF 0
ENDMDL
