MODEL 1
REMARK minimizedAffinity -3.24343657
REMARK minimizedRMSD -1
REMARK  0 active torsions:
REMARK  status: ('A' for Active; 'I' for Inactive)
ROOT
ATOM      1  C   UNL d   1       1.559   0.344   1.101  0.00  0.00     0.020 A 
ATOM      2  C1  UNL d   1       0.917   0.560  -0.118  0.00  0.00     0.020 A 
ATOM      3  C2  UNL d   1      -0.462   0.368  -0.225  0.00  0.00     0.034 A 
ATOM      4  C3  UNL d   1      -1.204  -0.040   0.890  0.00  0.00     0.017 A 
ATOM      5  C4  UNL d   1      -0.559  -0.256   2.113  0.00  0.00     0.017 A 
ATOM      6  C5  UNL d   1       0.822  -0.063   2.214  0.00  0.00     0.034 A 
ATOM      7 Cl   UNL d   1      -1.408  -0.761   3.532  0.00  0.00    -0.070 Cl
ATOM      8 Cl1  UNL d   1      -2.906  -0.258   0.686  0.00  0.00    -0.070 Cl
ENDROOT
TORSDOF 0
ENDMDL
