MODEL 1
REMARK minimizedAffinity -0.831060827
REMARK minimizedRMSD -1
REMARK  0 active torsions:
REMARK  status: ('A' for Active; 'I' for Inactive)
ROOT
ATOM      1  C   UNL d   1      -1.872  -2.110   1.146  0.00  0.00     0.020 A 
ATOM      2  C1  UNL d   1      -0.714  -2.243   1.911  0.00  0.00     0.020 A 
ATOM      3  C2  UNL d   1       0.383  -1.414   1.667  0.00  0.00     0.034 A 
ATOM      4  C3  UNL d   1       0.325  -0.448   0.655  0.00  0.00     0.017 A 
ATOM      5  C4  UNL d   1      -0.839  -0.315  -0.111  0.00  0.00     0.017 A 
ATOM      6  C5  UNL d   1      -1.934  -1.148   0.137  0.00  0.00     0.034 A 
ATOM      7 Cl   UNL d   1      -0.986   0.853  -1.376  0.00  0.00    -0.070 Cl
ATOM      8 Cl1  UNL d   1       1.718   0.543   0.409  0.00  0.00    -0.070 Cl
ENDROOT
TORSDOF 0
ENDMDL
