MODEL 1
REMARK minimizedAffinity -4.09761143
REMARK minimizedRMSD -1
REMARK  0 active torsions:
REMARK  status: ('A' for Active; 'I' for Inactive)
ROOT
ATOM      1  N1  IND d   1      -0.488   1.107  -0.108  0.00  0.00    -0.196 N 
ATOM      2  C2  IND d   1      -1.237   0.156  -0.744  0.00  0.00     0.054 A 
ATOM      3  C3  IND d   1      -0.509  -0.968  -0.931  0.00  0.00    -0.031 A 
ATOM      4  C4  IND d   1       1.895  -1.504  -0.183  0.00  0.00     0.051 A 
ATOM      5  C5  IND d   1       2.993  -0.937   0.400  0.00  0.00    -0.031 A 
ATOM      6  C6  IND d   1       2.986   0.366   0.855  0.00  0.00     0.015 A 
ATOM      7  C7  IND d   1       1.872   1.150   0.754  0.00  0.00    -0.016 A 
ATOM      8  C8  IND d   1       0.757   0.579   0.156  0.00  0.00    -0.047 A 
ATOM      9  C9  IND d   1       0.772  -0.728  -0.346  0.00  0.00    -0.096 A 
ATOM     10  HN1 IND d   1      -0.751   1.900   0.093  0.00  0.00     0.298 HD
ENDROOT
TORSDOF 0
ENDMDL
