MODEL 1
REMARK minimizedAffinity 2.09584403
REMARK minimizedRMSD -1
REMARK  0 active torsions:
REMARK  status: ('A' for Active; 'I' for Inactive)
ROOT
ATOM      1  N1  IND d   1       2.463  -0.924   1.118  0.00  0.00    -0.196 N 
ATOM      2  C2  IND d   1       3.217   0.211   1.233  0.00  0.00     0.054 A 
ATOM      3  C3  IND d   1       2.468   1.302   0.958  0.00  0.00    -0.031 A 
ATOM      4  C4  IND d   1      -0.039   1.467   0.396  0.00  0.00     0.051 A 
ATOM      5  C5  IND d   1      -1.138   0.696   0.141  0.00  0.00    -0.031 A 
ATOM      6  C6  IND d   1      -1.093  -0.682   0.202  0.00  0.00     0.015 A 
ATOM      7  C7  IND d   1       0.055  -1.343   0.534  0.00  0.00    -0.016 A 
ATOM      8  C8  IND d   1       1.176  -0.564   0.787  0.00  0.00    -0.047 A 
ATOM      9  C9  IND d   1       1.147   0.833   0.684  0.00  0.00    -0.096 A 
ATOM     10  HN1 IND d   1       2.746  -1.728   1.233  0.00  0.00     0.298 HD
ENDROOT
TORSDOF 0
ENDMDL
