MODEL 1
REMARK minimizedAffinity -3.97468686
REMARK minimizedRMSD -1
REMARK  0 active torsions:
REMARK  status: ('A' for Active; 'I' for Inactive)
ROOT
ATOM      1  N1  IND d   1      -0.121   1.253   0.385  0.00  0.00    -0.196 N 
ATOM      2  C2  IND d   1      -1.073   0.380  -0.062  0.00  0.00     0.054 A 
ATOM      3  C3  IND d   1      -0.536  -0.847  -0.248  0.00  0.00    -0.031 A 
ATOM      4  C4  IND d   1       1.858  -1.671   0.214  0.00  0.00     0.051 A 
ATOM      5  C5  IND d   1       3.094  -1.231   0.595  0.00  0.00    -0.031 A 
ATOM      6  C6  IND d   1       3.326   0.086   0.935  0.00  0.00     0.015 A 
ATOM      7  C7  IND d   1       2.323   1.014   0.917  0.00  0.00    -0.016 A 
ATOM      8  C8  IND d   1       1.068   0.571   0.525  0.00  0.00    -0.047 A 
ATOM      9  C9  IND d   1       0.836  -0.755   0.138  0.00  0.00    -0.096 A 
ATOM     10  HN1 IND d   1      -0.244   2.088   0.552  0.00  0.00     0.298 HD
ENDROOT
TORSDOF 0
ENDMDL
