MODEL 1
REMARK minimizedAffinity -3.89045215
REMARK minimizedRMSD -1
REMARK  0 active torsions:
REMARK  status: ('A' for Active; 'I' for Inactive)
ROOT
ATOM      1  N1  IND d   1       1.993  -1.581   0.734  0.00  0.00    -0.196 N 
ATOM      2  C2  IND d   1       3.170  -0.896   0.858  0.00  0.00     0.054 A 
ATOM      3  C3  IND d   1       2.984   0.413   0.575  0.00  0.00    -0.031 A 
ATOM      4  C4  IND d   1       0.815   1.668  -0.014  0.00  0.00     0.051 A 
ATOM      5  C5  IND d   1      -0.509   1.462  -0.282  0.00  0.00    -0.031 A 
ATOM      6  C6  IND d   1      -1.080   0.207  -0.220  0.00  0.00     0.015 A 
ATOM      7  C7  IND d   1      -0.345  -0.893   0.123  0.00  0.00    -0.016 A 
ATOM      8  C8  IND d   1       1.001  -0.689   0.388  0.00  0.00    -0.047 A 
ATOM      9  C9  IND d   1       1.595   0.576   0.286  0.00  0.00    -0.096 A 
ATOM     10  HN1 IND d   1       1.890  -2.426   0.851  0.00  0.00     0.298 HD
ENDROOT
TORSDOF 0
ENDMDL
