MODEL 1
REMARK minimizedAffinity -3.65532041
REMARK minimizedRMSD -1
REMARK  0 active torsions:
REMARK  status: ('A' for Active; 'I' for Inactive)
ROOT
ATOM      1  N1  IND d   1      -1.012  -0.858   0.725  0.00  0.00    -0.196 N 
ATOM      2  C2  IND d   1      -0.731  -2.073   1.285  0.00  0.00     0.054 A 
ATOM      3  C3  IND d   1       0.605  -2.237   1.409  0.00  0.00    -0.031 A 
ATOM      4  C4  IND d   1       2.512  -0.599   0.852  0.00  0.00     0.051 A 
ATOM      5  C5  IND d   1       2.753   0.621   0.285  0.00  0.00    -0.031 A 
ATOM      6  C6  IND d   1       1.731   1.428  -0.171  0.00  0.00     0.015 A 
ATOM      7  C7  IND d   1       0.423   1.048  -0.066  0.00  0.00    -0.016 A 
ATOM      8  C8  IND d   1       0.175  -0.194   0.502  0.00  0.00    -0.047 A 
ATOM      9  C9  IND d   1       1.210  -1.035   0.929  0.00  0.00    -0.096 A 
ATOM     10  HN1 IND d   1      -1.797  -0.559   0.542  0.00  0.00     0.298 HD
ENDROOT
TORSDOF 0
ENDMDL
