MODEL 1
REMARK minimizedAffinity -1.42903507
REMARK minimizedRMSD -1
REMARK  0 active torsions:
REMARK  status: ('A' for Active; 'I' for Inactive)
ROOT
ATOM      1  N1  IND d   1      -0.459   0.270   0.567  0.00  0.00    -0.196 N 
ATOM      2  C2  IND d   1      -0.851  -0.747  -0.258  0.00  0.00     0.054 A 
ATOM      3  C3  IND d   1       0.194  -1.558  -0.535  0.00  0.00    -0.031 A 
ATOM      4  C4  IND d   1       2.614  -1.463   0.340  0.00  0.00     0.051 A 
ATOM      5  C5  IND d   1       3.458  -0.695   1.091  0.00  0.00    -0.031 A 
ATOM      6  C6  IND d   1       3.031   0.457   1.720  0.00  0.00     0.015 A 
ATOM      7  C7  IND d   1       1.735   0.878   1.631  0.00  0.00    -0.016 A 
ATOM      8  C8  IND d   1       0.876   0.104   0.864  0.00  0.00    -0.047 A 
ATOM      9  C9  IND d   1       1.314  -1.042   0.188  0.00  0.00    -0.096 A 
ATOM     10  HN1 IND d   1      -0.962   0.907   0.853  0.00  0.00     0.298 HD
ENDROOT
TORSDOF 0
ENDMDL
