MODEL 1
REMARK minimizedAffinity -4.72067785
REMARK minimizedRMSD -1
REMARK  0 active torsions:
REMARK  status: ('A' for Active; 'I' for Inactive)
ROOT
ATOM      1  N1  IND d   1      -0.515   1.211   0.323  0.00  0.00    -0.196 N 
ATOM      2  C2  IND d   1      -1.541   0.318   0.191  0.00  0.00     0.054 A 
ATOM      3  C3  IND d   1      -1.075  -0.949   0.265  0.00  0.00    -0.031 A 
ATOM      4  C4  IND d   1       1.320  -1.787   0.703  0.00  0.00     0.051 A 
ATOM      5  C5  IND d   1       2.605  -1.346   0.853  0.00  0.00    -0.031 A 
ATOM      6  C6  IND d   1       2.922  -0.003   0.836  0.00  0.00     0.015 A 
ATOM      7  C7  IND d   1       1.959   0.954   0.679  0.00  0.00    -0.016 A 
ATOM      8  C8  IND d   1       0.654   0.510   0.520  0.00  0.00    -0.047 A 
ATOM      9  C9  IND d   1       0.332  -0.853   0.494  0.00  0.00    -0.096 A 
ATOM     10  HN1 IND d   1      -0.587   2.068   0.289  0.00  0.00     0.298 HD
ENDROOT
TORSDOF 0
ENDMDL
