MODEL 1
REMARK minimizedAffinity 14.2418661
REMARK minimizedRMSD -1
REMARK  0 active torsions:
REMARK  status: ('A' for Active; 'I' for Inactive)
ROOT
ATOM      1  C   UNL d   1      -0.825   4.741  -5.995  0.00  0.00     0.124 A 
ATOM      2  C1  UNL d   1      -1.535   3.549  -5.996  0.00  0.00     0.062 A 
ATOM      3  C2  UNL d   1      -0.860   2.332  -5.995  0.00  0.00     0.162 A 
ATOM      4  C3  UNL d   1       0.534   2.300  -5.993  0.00  0.00    -0.034 A 
ATOM      5  C4  UNL d   1       1.242   3.504  -5.993  0.00  0.00     0.162 A 
ATOM      6  C5  UNL d   1       0.563   4.718  -5.994  0.00  0.00     0.062 A 
ATOM      7  F   UNL d   1       1.251   5.868  -5.993  0.00  0.00    -0.097 F 
ATOM      8  F1  UNL d   1       2.583   3.510  -5.991  0.00  0.00    -0.096 F 
ATOM      9  I   UNL d   1       1.547   0.482  -5.992  0.00  0.00    -0.060 I 
ATOM     10  F2  UNL d   1      -1.573   1.195  -5.996  0.00  0.00    -0.096 F 
ATOM     11  F3  UNL d   1      -2.876   3.570  -5.998  0.00  0.00    -0.097 F 
ATOM     12  F4  UNL d   1      -1.477   5.911  -5.997  0.00  0.00    -0.092 F 
ENDROOT
TORSDOF 0
ENDMDL
