MODEL 1
REMARK minimizedAffinity 5.57548332
REMARK minimizedRMSD -1
REMARK  0 active torsions:
REMARK  status: ('A' for Active; 'I' for Inactive)
ROOT
ATOM      1  C   UNL d   1       4.117   3.583  -5.956  0.00  0.00     0.124 A 
ATOM      2  C1  UNL d   1       3.438   4.793  -5.949  0.00  0.00     0.062 A 
ATOM      3  C2  UNL d   1       2.046   4.815  -5.960  0.00  0.00     0.162 A 
ATOM      4  C3  UNL d   1       1.324   3.622  -5.976  0.00  0.00    -0.034 A 
ATOM      5  C4  UNL d   1       2.014   2.408  -5.983  0.00  0.00     0.162 A 
ATOM      6  C5  UNL d   1       3.405   2.392  -5.972  0.00  0.00     0.062 A 
ATOM      7  F   UNL d   1       4.059   1.221  -5.978  0.00  0.00    -0.097 F 
ATOM      8  F1  UNL d   1       1.351   1.242  -5.998  0.00  0.00    -0.096 F 
ATOM      9  I   UNL d   1      -0.757   3.650  -5.991  0.00  0.00    -0.060 I 
ATOM     10  F2  UNL d   1       1.416   5.999  -5.954  0.00  0.00    -0.096 F 
ATOM     11  F3  UNL d   1       4.124   5.945  -5.934  0.00  0.00    -0.097 F 
ATOM     12  F4  UNL d   1       5.456   3.564  -5.946  0.00  0.00    -0.092 F 
ENDROOT
TORSDOF 0
ENDMDL
