MODEL 1
REMARK minimizedAffinity 7.03629637
REMARK minimizedRMSD -1
REMARK  0 active torsions:
REMARK  status: ('A' for Active; 'I' for Inactive)
ROOT
ATOM      1  C   UNL d   1       1.394   3.519  -5.986  0.00  0.00     0.124 A 
ATOM      2  C1  UNL d   1       0.737   4.742  -5.984  0.00  0.00     0.062 A 
ATOM      3  C2  UNL d   1      -0.654   4.790  -5.986  0.00  0.00     0.162 A 
ATOM      4  C3  UNL d   1      -1.398   3.610  -5.990  0.00  0.00    -0.034 A 
ATOM      5  C4  UNL d   1      -0.731   2.384  -5.994  0.00  0.00     0.162 A 
ATOM      6  C5  UNL d   1       0.660   2.342  -5.991  0.00  0.00     0.062 A 
ATOM      7  F   UNL d   1       1.292   1.159  -5.994  0.00  0.00    -0.097 F 
ATOM      8  F1  UNL d   1      -1.416   1.231  -5.998  0.00  0.00    -0.096 F 
ATOM      9  I   UNL d   1      -3.478   3.677  -5.994  0.00  0.00    -0.060 I 
ATOM     10  F2  UNL d   1      -1.262   5.985  -5.983  0.00  0.00    -0.096 F 
ATOM     11  F3  UNL d   1       1.445   5.881  -5.980  0.00  0.00    -0.097 F 
ATOM     12  F4  UNL d   1       2.732   3.476  -5.985  0.00  0.00    -0.092 F 
ENDROOT
TORSDOF 0
ENDMDL
