MODEL 1
REMARK minimizedAffinity 12.755825
REMARK minimizedRMSD -1
REMARK  0 active torsions:
REMARK  status: ('A' for Active; 'I' for Inactive)
ROOT
ATOM      1  C   UNL d   1       1.332  -3.693  -3.402  0.00  0.00     0.124 A 
ATOM      2  C1  UNL d   1       0.049  -3.329  -3.019  0.00  0.00     0.062 A 
ATOM      3  C2  UNL d   1      -0.141  -2.311  -2.089  0.00  0.00     0.162 A 
ATOM      4  C3  UNL d   1       0.955  -1.649  -1.536  0.00  0.00    -0.034 A 
ATOM      5  C4  UNL d   1       2.243  -2.021  -1.925  0.00  0.00     0.162 A 
ATOM      6  C5  UNL d   1       2.428  -3.039  -2.856  0.00  0.00     0.062 A 
ATOM      7  F   UNL d   1       3.668  -3.390  -3.225  0.00  0.00    -0.097 F 
ATOM      8  F1  UNL d   1       3.319  -1.406  -1.413  0.00  0.00    -0.096 F 
ATOM      9  I   UNL d   1       0.674  -0.127  -0.144  0.00  0.00    -0.060 I 
ATOM     10  F2  UNL d   1      -1.393  -1.980  -1.737  0.00  0.00    -0.096 F 
ATOM     11  F3  UNL d   1      -1.011  -3.959  -3.545  0.00  0.00    -0.097 F 
ATOM     12  F4  UNL d   1       1.513  -4.673  -4.297  0.00  0.00    -0.092 F 
ENDROOT
TORSDOF 0
ENDMDL
