MODEL 1
REMARK minimizedAffinity 8.05833435
REMARK minimizedRMSD -1
REMARK  0 active torsions:
REMARK  status: ('A' for Active; 'I' for Inactive)
ROOT
ATOM      1  C   UNL d   1       0.334   2.346  -5.942  0.00  0.00     0.124 A 
ATOM      2  C1  UNL d   1       0.755   3.669  -5.936  0.00  0.00     0.062 A 
ATOM      3  C2  UNL d   1      -0.179   4.701  -5.949  0.00  0.00     0.162 A 
ATOM      4  C3  UNL d   1      -1.544   4.415  -5.969  0.00  0.00    -0.034 A 
ATOM      5  C4  UNL d   1      -1.960   3.082  -5.976  0.00  0.00     0.162 A 
ATOM      6  C5  UNL d   1      -1.023   2.054  -5.962  0.00  0.00     0.062 A 
ATOM      7  F   UNL d   1      -1.432   0.777  -5.968  0.00  0.00    -0.097 F 
ATOM      8  F1  UNL d   1      -3.264   2.771  -5.994  0.00  0.00    -0.096 F 
ATOM      9  I   UNL d   1      -2.943   5.955  -5.989  0.00  0.00    -0.060 I 
ATOM     10  F2  UNL d   1       0.257   5.969  -5.943  0.00  0.00    -0.096 F 
ATOM     11  F3  UNL d   1       2.065   3.953  -5.917  0.00  0.00    -0.097 F 
ATOM     12  F4  UNL d   1       1.234   1.355  -5.930  0.00  0.00    -0.092 F 
ENDROOT
TORSDOF 0
ENDMDL
