MODEL 1
REMARK minimizedAffinity 12.4129143
REMARK minimizedRMSD -1
REMARK  0 active torsions:
REMARK  status: ('A' for Active; 'I' for Inactive)
ROOT
ATOM      1  C   UNL d   1       1.074   3.541  -5.845  0.00  0.00     0.124 A 
ATOM      2  C1  UNL d   1       0.358   2.353  -5.907  0.00  0.00     0.062 A 
ATOM      3  C2  UNL d   1      -1.034   2.373  -5.883  0.00  0.00     0.162 A 
ATOM      4  C3  UNL d   1      -1.719   3.585  -5.798  0.00  0.00    -0.034 A 
ATOM      5  C4  UNL d   1      -0.992   4.775  -5.735  0.00  0.00     0.162 A 
ATOM      6  C5  UNL d   1       0.399   4.750  -5.759  0.00  0.00     0.062 A 
ATOM      7  F   UNL d   1       1.089   5.898  -5.699  0.00  0.00    -0.097 F 
ATOM      8  F1  UNL d   1      -1.619   5.958  -5.652  0.00  0.00    -0.096 F 
ATOM      9  I   UNL d   1      -3.800   3.619  -5.762  0.00  0.00    -0.060 I 
ATOM     10  F2  UNL d   1      -1.700   1.211  -5.945  0.00  0.00    -0.096 F 
ATOM     11  F3  UNL d   1       1.008   1.184  -5.990  0.00  0.00    -0.097 F 
ATOM     12  F4  UNL d   1       2.413   3.519  -5.867  0.00  0.00    -0.092 F 
ENDROOT
TORSDOF 0
ENDMDL
