MODEL 1
REMARK minimizedAffinity 7.28056192
REMARK minimizedRMSD -1
REMARK  0 active torsions:
REMARK  status: ('A' for Active; 'I' for Inactive)
ROOT
ATOM      1  C   UNL d   1      -0.977   3.466  -5.995  0.00  0.00     0.124 A 
ATOM      2  C1  UNL d   1      -0.215   2.306  -5.996  0.00  0.00     0.062 A 
ATOM      3  C2  UNL d   1       1.175   2.381  -5.997  0.00  0.00     0.162 A 
ATOM      4  C3  UNL d   1       1.812   3.622  -5.995  0.00  0.00    -0.034 A 
ATOM      5  C4  UNL d   1       1.039   4.784  -5.994  0.00  0.00     0.162 A 
ATOM      6  C5  UNL d   1      -0.350   4.704  -5.994  0.00  0.00     0.062 A 
ATOM      7  F   UNL d   1      -1.085   5.826  -5.992  0.00  0.00    -0.097 F 
ATOM      8  F1  UNL d   1       1.619   5.994  -5.992  0.00  0.00    -0.096 F 
ATOM      9  I   UNL d   1       3.890   3.739  -5.995  0.00  0.00    -0.060 I 
ATOM     10  F2  UNL d   1       1.886   1.244  -5.998  0.00  0.00    -0.096 F 
ATOM     11  F3  UNL d   1      -0.819   1.109  -5.998  0.00  0.00    -0.097 F 
ATOM     12  F4  UNL d   1      -2.314   3.390  -5.995  0.00  0.00    -0.092 F 
ENDROOT
TORSDOF 0
ENDMDL
