MODEL 1
REMARK minimizedAffinity 0.0987893939
REMARK minimizedRMSD -1
REMARK  0 active torsions:
REMARK  status: ('A' for Active; 'I' for Inactive)
ROOT
ATOM      1  C   UNL d   1      -0.983   3.529  -5.950  0.00  0.00     0.124 A 
ATOM      2  C1  UNL d   1      -0.325   4.751  -5.975  0.00  0.00     0.062 A 
ATOM      3  C2  UNL d   1       1.066   4.797  -5.972  0.00  0.00     0.162 A 
ATOM      4  C3  UNL d   1       1.809   3.617  -5.946  0.00  0.00    -0.034 A 
ATOM      5  C4  UNL d   1       1.140   2.392  -5.921  0.00  0.00     0.162 A 
ATOM      6  C5  UNL d   1      -0.250   2.351  -5.923  0.00  0.00     0.062 A 
ATOM      7  F   UNL d   1      -0.884   1.170  -5.899  0.00  0.00    -0.097 F 
ATOM      8  F1  UNL d   1       1.824   1.239  -5.895  0.00  0.00    -0.096 F 
ATOM      9  I   UNL d   1       3.889   3.682  -5.943  0.00  0.00    -0.060 I 
ATOM     10  F2  UNL d   1       1.675   5.992  -5.997  0.00  0.00    -0.096 F 
ATOM     11  F3  UNL d   1      -1.031   5.891  -6.000  0.00  0.00    -0.097 F 
ATOM     12  F4  UNL d   1      -2.322   3.488  -5.952  0.00  0.00    -0.092 F 
ENDROOT
TORSDOF 0
ENDMDL
