MODEL 1
REMARK minimizedAffinity 13.5069818
REMARK minimizedRMSD -1
REMARK  0 active torsions:
REMARK  status: ('A' for Active; 'I' for Inactive)
ROOT
ATOM      1  C   UNL d   1      -0.320   0.328   0.840  0.00  0.00     0.124 A 
ATOM      2  C1  UNL d   1      -1.406   0.065   0.016  0.00  0.00     0.062 A 
ATOM      3  C2  UNL d   1      -1.348  -0.974  -0.907  0.00  0.00     0.162 A 
ATOM      4  C3  UNL d   1      -0.200  -1.760  -1.012  0.00  0.00    -0.034 A 
ATOM      5  C4  UNL d   1       0.888  -1.489  -0.181  0.00  0.00     0.162 A 
ATOM      6  C5  UNL d   1       0.826  -0.449   0.741  0.00  0.00     0.062 A 
ATOM      7  F   UNL d   1       1.876  -0.196   1.536  0.00  0.00    -0.097 F 
ATOM      8  F1  UNL d   1       2.007  -2.225  -0.255  0.00  0.00    -0.096 F 
ATOM      9  I   UNL d   1      -0.110  -3.316  -2.391  0.00  0.00    -0.060 I 
ATOM     10  F2  UNL d   1      -2.412  -1.206  -1.690  0.00  0.00    -0.096 F 
ATOM     11  F3  UNL d   1      -2.513   0.815   0.110  0.00  0.00    -0.097 F 
ATOM     12  F4  UNL d   1      -0.377   1.330   1.727  0.00  0.00    -0.092 F 
ENDROOT
TORSDOF 0
ENDMDL
