MODEL 1
REMARK minimizedAffinity 10.705121
REMARK minimizedRMSD -1
REMARK  0 active torsions:
REMARK  status: ('A' for Active; 'I' for Inactive)
ROOT
ATOM      1  C   UNL d   1      -2.322   3.486  -5.469  0.00  0.00     0.124 A 
ATOM      2  C1  UNL d   1      -1.641   2.289  -5.638  0.00  0.00     0.062 A 
ATOM      3  C2  UNL d   1      -0.257   2.286  -5.790  0.00  0.00     0.162 A 
ATOM      4  C3  UNL d   1       0.455   3.485  -5.772  0.00  0.00    -0.034 A 
ATOM      5  C4  UNL d   1      -0.237   4.686  -5.602  0.00  0.00     0.162 A 
ATOM      6  C5  UNL d   1      -1.620   4.683  -5.451  0.00  0.00     0.062 A 
ATOM      7  F   UNL d   1      -2.276   5.841  -5.288  0.00  0.00    -0.097 F 
ATOM      8  F1  UNL d   1       0.417   5.857  -5.580  0.00  0.00    -0.096 F 
ATOM      9  I   UNL d   1       2.524   3.485  -5.998  0.00  0.00    -0.060 I 
ATOM     10  F2  UNL d   1       0.375   1.114  -5.951  0.00  0.00    -0.096 F 
ATOM     11  F3  UNL d   1      -2.317   1.131  -5.657  0.00  0.00    -0.097 F 
ATOM     12  F4  UNL d   1      -3.653   3.486  -5.325  0.00  0.00    -0.092 F 
ENDROOT
TORSDOF 0
ENDMDL
