MODEL 1
REMARK minimizedAffinity 7.46921253
REMARK minimizedRMSD -1
REMARK  0 active torsions:
REMARK  status: ('A' for Active; 'I' for Inactive)
ROOT
ATOM      1  C   UNL d   1      -1.978  -0.025   1.714  0.00  0.00     0.124 A 
ATOM      2  C1  UNL d   1      -2.283   1.189   1.115  0.00  0.00     0.062 A 
ATOM      3  C2  UNL d   1      -1.320   1.864   0.370  0.00  0.00     0.162 A 
ATOM      4  C3  UNL d   1      -0.042   1.324   0.219  0.00  0.00    -0.034 A 
ATOM      5  C4  UNL d   1       0.257   0.103   0.825  0.00  0.00     0.162 A 
ATOM      6  C5  UNL d   1      -0.709  -0.567   1.568  0.00  0.00     0.062 A 
ATOM      7  F   UNL d   1      -0.413  -1.741   2.146  0.00  0.00    -0.097 F 
ATOM      8  F1  UNL d   1       1.475  -0.444   0.700  0.00  0.00    -0.096 F 
ATOM      9  I   UNL d   1       1.401   2.330  -0.894  0.00  0.00    -0.060 I 
ATOM     10  F2  UNL d   1      -1.642   3.036  -0.197  0.00  0.00    -0.096 F 
ATOM     11  F3  UNL d   1      -3.508   1.715   1.255  0.00  0.00    -0.097 F 
ATOM     12  F4  UNL d   1      -2.907  -0.672   2.431  0.00  0.00    -0.092 F 
ENDROOT
TORSDOF 0
ENDMDL
