MODEL 1
REMARK minimizedAffinity -0.337333828
REMARK minimizedRMSD -1
REMARK  0 active torsions:
REMARK  status: ('A' for Active; 'I' for Inactive)
ROOT
ATOM      1  C   UNL d   1       0.330   2.251  -5.984  0.00  0.00     0.124 A 
ATOM      2  C1  UNL d   1       0.803   3.556  -5.987  0.00  0.00     0.062 A 
ATOM      3  C2  UNL d   1      -0.089   4.625  -5.986  0.00  0.00     0.162 A 
ATOM      4  C3  UNL d   1      -1.464   4.393  -5.980  0.00  0.00    -0.034 A 
ATOM      5  C4  UNL d   1      -1.933   3.078  -5.979  0.00  0.00     0.162 A 
ATOM      6  C5  UNL d   1      -1.037   2.013  -5.980  0.00  0.00     0.062 A 
ATOM      7  F   UNL d   1      -1.496   0.753  -5.978  0.00  0.00    -0.097 F 
ATOM      8  F1  UNL d   1      -3.249   2.819  -5.973  0.00  0.00    -0.096 F 
ATOM      9  I   UNL d   1      -2.802   5.987  -5.978  0.00  0.00    -0.060 I 
ATOM     10  F2  UNL d   1       0.397   5.875  -5.988  0.00  0.00    -0.096 F 
ATOM     11  F3  UNL d   1       2.124   3.789  -5.992  0.00  0.00    -0.097 F 
ATOM     12  F4  UNL d   1       1.191   1.226  -5.987  0.00  0.00    -0.092 F 
ENDROOT
TORSDOF 0
ENDMDL
