MODEL 1
REMARK minimizedAffinity 19.9688473
REMARK minimizedRMSD -1
REMARK  0 active torsions:
REMARK  status: ('A' for Active; 'I' for Inactive)
ROOT
ATOM      1  C   UNL d   1      -3.233   3.816  -5.555  0.00  0.00     0.124 A 
ATOM      2  C1  UNL d   1      -3.041   2.442  -5.584  0.00  0.00     0.062 A 
ATOM      3  C2  UNL d   1      -1.757   1.917  -5.708  0.00  0.00     0.162 A 
ATOM      4  C3  UNL d   1      -0.656   2.768  -5.802  0.00  0.00    -0.034 A 
ATOM      5  C4  UNL d   1      -0.857   4.149  -5.773  0.00  0.00     0.162 A 
ATOM      6  C5  UNL d   1      -2.142   4.668  -5.650  0.00  0.00     0.062 A 
ATOM      7  F   UNL d   1      -2.326   5.996  -5.622  0.00  0.00    -0.097 F 
ATOM      8  F1  UNL d   1       0.180   4.995  -5.862  0.00  0.00    -0.096 F 
ATOM      9  I   UNL d   1       1.265   1.987  -5.988  0.00  0.00    -0.060 I 
ATOM     10  F2  UNL d   1      -1.601   0.586  -5.733  0.00  0.00    -0.096 F 
ATOM     11  F3  UNL d   1      -4.093   1.617  -5.494  0.00  0.00    -0.097 F 
ATOM     12  F4  UNL d   1      -4.469   4.318  -5.437  0.00  0.00    -0.092 F 
ENDROOT
TORSDOF 0
ENDMDL
