MODEL 1
REMARK minimizedAffinity 17.5563755
REMARK minimizedRMSD -1
REMARK  0 active torsions:
REMARK  status: ('A' for Active; 'I' for Inactive)
ROOT
ATOM      1  C   UNL d   1       2.644  -0.760  -2.056  0.00  0.00     0.124 A 
ATOM      2  C1  UNL d   1       2.042   0.437  -2.418  0.00  0.00     0.062 A 
ATOM      3  C2  UNL d   1       0.988   0.946  -1.666  0.00  0.00     0.162 A 
ATOM      4  C3  UNL d   1       0.528   0.259  -0.543  0.00  0.00    -0.034 A 
ATOM      5  C4  UNL d   1       1.137  -0.945  -0.185  0.00  0.00     0.162 A 
ATOM      6  C5  UNL d   1       2.190  -1.450  -0.940  0.00  0.00     0.062 A 
ATOM      7  F   UNL d   1       2.770  -2.607  -0.589  0.00  0.00    -0.097 F 
ATOM      8  F1  UNL d   1       0.719  -1.632   0.889  0.00  0.00    -0.096 F 
ATOM      9  I   UNL d   1      -1.049   1.017   0.584  0.00  0.00    -0.060 I 
ATOM     10  F2  UNL d   1       0.425   2.105  -2.039  0.00  0.00    -0.096 F 
ATOM     11  F3  UNL d   1       2.478   1.105  -3.496  0.00  0.00    -0.097 F 
ATOM     12  F4  UNL d   1       3.658  -1.249  -2.781  0.00  0.00    -0.092 F 
ENDROOT
TORSDOF 0
ENDMDL
