MODEL 1
REMARK minimizedAffinity 2.02757955
REMARK minimizedRMSD -1
REMARK  0 active torsions:
REMARK  status: ('A' for Active; 'I' for Inactive)
ROOT
ATOM      1  C   UNL d   1       0.479   2.196  -5.987  0.00  0.00     0.124 A 
ATOM      2  C1  UNL d   1      -0.893   1.986  -5.984  0.00  0.00     0.062 A 
ATOM      3  C2  UNL d   1      -1.767   3.069  -5.986  0.00  0.00     0.162 A 
ATOM      4  C3  UNL d   1      -1.272   4.373  -5.992  0.00  0.00    -0.034 A 
ATOM      5  C4  UNL d   1       0.109   4.577  -5.994  0.00  0.00     0.162 A 
ATOM      6  C5  UNL d   1       0.978   3.491  -5.992  0.00  0.00     0.062 A 
ATOM      7  F   UNL d   1       2.304   3.696  -5.995  0.00  0.00    -0.097 F 
ATOM      8  F1  UNL d   1       0.619   5.817  -6.000  0.00  0.00    -0.096 F 
ATOM      9  I   UNL d   1      -2.576   5.996  -5.995  0.00  0.00    -0.060 I 
ATOM     10  F2  UNL d   1      -3.088   2.837  -5.983  0.00  0.00    -0.096 F 
ATOM     11  F3  UNL d   1      -1.379   0.736  -5.978  0.00  0.00    -0.097 F 
ATOM     12  F4  UNL d   1       1.317   1.152  -5.984  0.00  0.00    -0.092 F 
ENDROOT
TORSDOF 0
ENDMDL
