MODEL 1
REMARK minimizedAffinity 14.6243382
REMARK minimizedRMSD -1
REMARK  0 active torsions:
REMARK  status: ('A' for Active; 'I' for Inactive)
ROOT
ATOM      1  C2' OXE d   1       1.999  -2.751   1.491  0.00  0.00     0.078 C 
ATOM      2  C1' OXE d   1       3.876  -1.708  -0.317  0.00  0.00     0.078 C 
ATOM      3  C1  OXE d   1       4.315  -2.842   0.576  0.00  0.00    -0.078 A 
ATOM      4  C2  OXE d   1       3.404  -3.315   1.490  0.00  0.00    -0.078 A 
ATOM      5  C3  OXE d   1       3.739  -4.396   2.300  0.00  0.00     0.003 A 
ATOM      6  C4  OXE d   1       5.043  -4.905   2.300  0.00  0.00    -0.002 A 
ATOM      7  C5  OXE d   1       5.998  -4.411   1.405  0.00  0.00    -0.002 A 
ATOM      8  C6  OXE d   1       5.638  -3.410   0.509  0.00  0.00     0.003 A 
ENDROOT
TORSDOF 0
ENDMDL
