MODEL 1
REMARK minimizedAffinity 6.38231277
REMARK minimizedRMSD -1
REMARK  0 active torsions:
REMARK  status: ('A' for Active; 'I' for Inactive)
ROOT
ATOM      1  C2' OXE d   1       1.409  -4.823  -1.874  0.00  0.00     0.078 C 
ATOM      2  C1' OXE d   1       2.501  -3.775   0.490  0.00  0.00     0.078 C 
ATOM      3  C1  OXE d   1       3.455  -4.185  -0.604  0.00  0.00    -0.078 A 
ATOM      4  C2  OXE d   1       2.914  -4.740  -1.739  0.00  0.00    -0.078 A 
ATOM      5  C3  OXE d   1       3.745  -5.085  -2.801  0.00  0.00     0.003 A 
ATOM      6  C4  OXE d   1       5.136  -5.015  -2.664  0.00  0.00    -0.002 A 
ATOM      7  C5  OXE d   1       5.710  -4.490  -1.501  0.00  0.00    -0.002 A 
ATOM      8  C6  OXE d   1       4.883  -4.032  -0.481  0.00  0.00     0.003 A 
ENDROOT
TORSDOF 0
ENDMDL
