MODEL 1
REMARK minimizedAffinity 8.42579651
REMARK minimizedRMSD -1
REMARK  0 active torsions:
REMARK  status: ('A' for Active; 'I' for Inactive)
ROOT
ATOM      1  C2' OXE d   1       1.782  -2.568   6.000  0.00  0.00     0.078 C 
ATOM      2  C1' OXE d   1       2.982  -4.328   4.172  0.00  0.00     0.078 C 
ATOM      3  C1  OXE d   1       2.483  -3.004   3.650  0.00  0.00    -0.078 A 
ATOM      4  C2  OXE d   1       1.855  -2.169   4.542  0.00  0.00    -0.078 A 
ATOM      5  C3  OXE d   1       1.424  -0.913   4.125  0.00  0.00     0.003 A 
ATOM      6  C4  OXE d   1       1.486  -0.555   2.772  0.00  0.00    -0.002 A 
ATOM      7  C5  OXE d   1       2.086  -1.408   1.839  0.00  0.00    -0.002 A 
ATOM      8  C6  OXE d   1       2.627  -2.615   2.268  0.00  0.00     0.003 A 
ENDROOT
TORSDOF 0
ENDMDL
