MODEL 1
REMARK minimizedAffinity 14.1935787
REMARK minimizedRMSD -1
REMARK  0 active torsions:
REMARK  status: ('A' for Active; 'I' for Inactive)
ROOT
ATOM      1  C2' OXE d   1       2.799  -4.499   4.123  0.00  0.00     0.078 C 
ATOM      2  C1' OXE d   1       1.574  -2.809   6.000  0.00  0.00     0.078 C 
ATOM      3  C1  OXE d   1       1.626  -2.346   4.565  0.00  0.00    -0.078 A 
ATOM      4  C2  OXE d   1       2.269  -3.158   3.662  0.00  0.00    -0.078 A 
ATOM      5  C3  OXE d   1       2.297  -2.805   2.316  0.00  0.00     0.003 A 
ATOM      6  C4  OXE d   1       1.814  -1.558   1.900  0.00  0.00    -0.002 A 
ATOM      7  C5  OXE d   1       1.191  -0.698   2.811  0.00  0.00    -0.002 A 
ATOM      8  C6  OXE d   1       1.052  -1.095   4.136  0.00  0.00     0.003 A 
ENDROOT
TORSDOF 0
ENDMDL
