MODEL 1
REMARK minimizedAffinity 7.88313293
REMARK minimizedRMSD -1
REMARK  0 active torsions:
REMARK  status: ('A' for Active; 'I' for Inactive)
ROOT
ATOM      1  C2' OXE d   1       2.672  -3.840   2.272  0.00  0.00     0.078 C 
ATOM      2  C1' OXE d   1       1.198  -1.452   2.193  0.00  0.00     0.078 C 
ATOM      3  C1  OXE d   1       1.562  -2.009   3.546  0.00  0.00    -0.078 A 
ATOM      4  C2  OXE d   1       2.243  -3.203   3.576  0.00  0.00    -0.078 A 
ATOM      5  C3  OXE d   1       2.651  -3.733   4.797  0.00  0.00     0.003 A 
ATOM      6  C4  OXE d   1       2.241  -3.143   5.999  0.00  0.00    -0.002 A 
ATOM      7  C5  OXE d   1       1.513  -1.948   5.991  0.00  0.00    -0.002 A 
ATOM      8  C6  OXE d   1       1.203  -1.347   4.776  0.00  0.00     0.003 A 
ENDROOT
TORSDOF 0
ENDMDL
