MODEL 1
REMARK minimizedAffinity 3.9944427
REMARK minimizedRMSD -1
REMARK  0 active torsions:
REMARK  status: ('A' for Active; 'I' for Inactive)
ROOT
ATOM      1  C2' OXE d   1      -3.680   1.499  -3.318  0.00  0.00     0.078 C 
ATOM      2  C1' OXE d   1      -3.061   2.993  -5.613  0.00  0.00     0.078 C 
ATOM      3  C1  OXE d   1      -3.734   3.708  -4.468  0.00  0.00    -0.078 A 
ATOM      4  C2  OXE d   1      -4.076   2.959  -3.368  0.00  0.00    -0.078 A 
ATOM      5  C3  OXE d   1      -4.649   3.580  -2.262  0.00  0.00     0.003 A 
ATOM      6  C4  OXE d   1      -5.021   4.929  -2.321  0.00  0.00    -0.002 A 
ATOM      7  C5  OXE d   1      -4.718   5.701  -3.447  0.00  0.00    -0.002 A 
ATOM      8  C6  OXE d   1      -4.038   5.117  -4.510  0.00  0.00     0.003 A 
ENDROOT
TORSDOF 0
ENDMDL
