MODEL 1
REMARK minimizedAffinity 11.9985905
REMARK minimizedRMSD -1
REMARK  0 active torsions:
REMARK  status: ('A' for Active; 'I' for Inactive)
ROOT
ATOM      1  C2' OXE d   1       0.713  -1.683   3.841  0.00  0.00     0.078 C 
ATOM      2  C1' OXE d   1       2.149  -3.719   2.548  0.00  0.00     0.078 C 
ATOM      3  C1  OXE d   1       2.130  -2.355   1.906  0.00  0.00    -0.078 A 
ATOM      4  C2  OXE d   1       1.386  -1.377   2.520  0.00  0.00    -0.078 A 
ATOM      5  C3  OXE d   1       1.379  -0.086   1.999  0.00  0.00     0.003 A 
ATOM      6  C4  OXE d   1       1.996   0.186   0.772  0.00  0.00    -0.002 A 
ATOM      7  C5  OXE d   1       2.726  -0.806   0.109  0.00  0.00    -0.002 A 
ATOM      8  C6  OXE d   1       2.838  -2.068   0.682  0.00  0.00     0.003 A 
ENDROOT
TORSDOF 0
ENDMDL
