MODEL 1
REMARK minimizedAffinity 8.20491028
REMARK minimizedRMSD -1
REMARK  0 active torsions:
REMARK  status: ('A' for Active; 'I' for Inactive)
ROOT
ATOM      1  C2' OXE d   1       4.120  -4.049   0.322  0.00  0.00     0.078 C 
ATOM      2  C1' OXE d   1       1.868  -4.946   1.738  0.00  0.00     0.078 C 
ATOM      3  C1  OXE d   1       1.992  -3.465   1.479  0.00  0.00    -0.078 A 
ATOM      4  C2  OXE d   1       3.121  -3.030   0.826  0.00  0.00    -0.078 A 
ATOM      5  C3  OXE d   1       3.259  -1.681   0.513  0.00  0.00     0.003 A 
ATOM      6  C4  OXE d   1       2.335  -0.744   0.991  0.00  0.00    -0.002 A 
ATOM      7  C5  OXE d   1       1.199  -1.162   1.692  0.00  0.00    -0.002 A 
ATOM      8  C6  OXE d   1       0.991  -2.520   1.907  0.00  0.00     0.003 A 
ENDROOT
TORSDOF 0
ENDMDL
