MODEL 1
REMARK minimizedAffinity 1.74973643
REMARK minimizedRMSD -1
REMARK  0 active torsions:
REMARK  status: ('A' for Active; 'I' for Inactive)
ROOT
ATOM      1  C4' PXY d   1       0.768   4.009  -1.527  0.00  0.00     0.077 C 
ATOM      2  C1' PXY d   1       1.422  -1.326   0.602  0.00  0.00     0.077 C 
ATOM      3  C1  PXY d   1       1.263   0.075   0.045  0.00  0.00    -0.082 A 
ATOM      4  C2  PXY d   1       0.079   0.665   0.085  0.00  0.00     0.003 A 
ATOM      5  C3  PXY d   1      -0.089   1.919  -0.442  0.00  0.00     0.003 A 
ATOM      6  C4  PXY d   1       0.977   2.598  -0.968  0.00  0.00    -0.082 A 
ATOM      7  C5  PXY d   1       2.190   2.008  -1.003  0.00  0.00     0.003 A 
ATOM      8  C6  PXY d   1       2.331   0.718  -0.500  0.00  0.00     0.003 A 
ENDROOT
TORSDOF 0
ENDMDL
