MODEL 1
REMARK minimizedAffinity 7.50069523
REMARK minimizedRMSD -1
REMARK  0 active torsions:
REMARK  status: ('A' for Active; 'I' for Inactive)
ROOT
ATOM      1  C4' PXY d   1       0.010   3.477  -0.753  0.00  0.00     0.077 C 
ATOM      2  C1' PXY d   1      -5.145   1.110   0.359  0.00  0.00     0.077 C 
ATOM      3  C1  PXY d   1      -3.789   1.726   0.079  0.00  0.00    -0.082 A 
ATOM      4  C2  PXY d   1      -3.688   2.719  -0.791  0.00  0.00     0.003 A 
ATOM      5  C3  PXY d   1      -2.465   3.267  -1.079  0.00  0.00     0.003 A 
ATOM      6  C4  PXY d   1      -1.340   2.830  -0.432  0.00  0.00    -0.082 A 
ATOM      7  C5  PXY d   1      -1.436   1.825   0.464  0.00  0.00     0.003 A 
ATOM      8  C6  PXY d   1      -2.681   1.255   0.713  0.00  0.00     0.003 A 
ENDROOT
TORSDOF 0
ENDMDL
