MODEL 1
REMARK minimizedAffinity 7.74717712
REMARK minimizedRMSD -1
REMARK  0 active torsions:
REMARK  status: ('A' for Active; 'I' for Inactive)
ROOT
ATOM      1  C4' PXY d   1       5.328   1.214  -2.252  0.00  0.00     0.077 C 
ATOM      2  C1' PXY d   1       0.888   3.918   0.276  0.00  0.00     0.077 C 
ATOM      3  C1  PXY d   1       2.060   3.219  -0.385  0.00  0.00    -0.082 A 
ATOM      4  C2  PXY d   1       1.837   2.246  -1.254  0.00  0.00     0.003 A 
ATOM      5  C3  PXY d   1       2.885   1.583  -1.836  0.00  0.00     0.003 A 
ATOM      6  C4  PXY d   1       4.176   1.953  -1.567  0.00  0.00    -0.082 A 
ATOM      7  C5  PXY d   1       4.412   2.952  -0.690  0.00  0.00     0.003 A 
ATOM      8  C6  PXY d   1       3.334   3.586  -0.078  0.00  0.00     0.003 A 
ENDROOT
TORSDOF 0
ENDMDL
