MODEL 1
REMARK minimizedAffinity -2.10740376
REMARK minimizedRMSD -1
REMARK  0 active torsions:
REMARK  status: ('A' for Active; 'I' for Inactive)
ROOT
ATOM      1  C4' PXY d   1      -2.039  -2.784   0.308  0.00  0.00     0.077 C 
ATOM      2  C1' PXY d   1       3.294  -0.555   0.359  0.00  0.00     0.077 C 
ATOM      3  C1  PXY d   1       1.900  -1.150   0.339  0.00  0.00    -0.082 A 
ATOM      4  C2  PXY d   1       0.849  -0.358   0.482  0.00  0.00     0.003 A 
ATOM      5  C3  PXY d   1      -0.417  -0.884   0.499  0.00  0.00     0.003 A 
ATOM      6  C4  PXY d   1      -0.613  -2.226   0.312  0.00  0.00    -0.082 A 
ATOM      7  C5  PXY d   1       0.453  -3.038   0.154  0.00  0.00     0.003 A 
ATOM      8  C6  PXY d   1       1.733  -2.491   0.182  0.00  0.00     0.003 A 
ENDROOT
TORSDOF 0
ENDMDL
