MODEL 1
REMARK minimizedAffinity 9.89011574
REMARK minimizedRMSD -1
REMARK  0 active torsions:
REMARK  status: ('A' for Active; 'I' for Inactive)
ROOT
ATOM      1  C4' PXY d   1       1.739   4.506  -5.059  0.00  0.00     0.077 C 
ATOM      2  C1' PXY d   1      -3.110   2.824  -2.401  0.00  0.00     0.077 C 
ATOM      3  C1  PXY d   1      -1.841   3.257  -3.108  0.00  0.00    -0.082 A 
ATOM      4  C2  PXY d   1      -0.837   3.754  -2.404  0.00  0.00     0.003 A 
ATOM      5  C3  PXY d   1       0.305   4.180  -3.031  0.00  0.00     0.003 A 
ATOM      6  C4  PXY d   1       0.443   4.047  -4.386  0.00  0.00    -0.082 A 
ATOM      7  C5  PXY d   1      -0.573   3.531  -5.111  0.00  0.00     0.003 A 
ATOM      8  C6  PXY d   1      -1.741   3.143  -4.460  0.00  0.00     0.003 A 
ENDROOT
TORSDOF 0
ENDMDL
