MODEL 1
REMARK minimizedAffinity 11.2281113
REMARK minimizedRMSD -1
REMARK  0 active torsions:
REMARK  status: ('A' for Active; 'I' for Inactive)
ROOT
ATOM      1  C4' PXY d   1      -0.055  -0.938   2.487  0.00  0.00     0.077 C 
ATOM      2  C1' PXY d   1       5.454   0.601   1.654  0.00  0.00     0.077 C 
ATOM      3  C1  PXY d   1       4.006   0.203   1.861  0.00  0.00    -0.082 A 
ATOM      4  C2  PXY d   1       3.560  -0.028   3.085  0.00  0.00     0.003 A 
ATOM      5  C3  PXY d   1       2.262  -0.420   3.288  0.00  0.00     0.003 A 
ATOM      6  C4  PXY d   1       1.397  -0.525   2.231  0.00  0.00    -0.082 A 
ATOM      7  C5  PXY d   1       1.842  -0.280   0.981  0.00  0.00     0.003 A 
ATOM      8  C6  PXY d   1       3.174   0.077   0.792  0.00  0.00     0.003 A 
ENDROOT
TORSDOF 0
ENDMDL
