MODEL 1
REMARK minimizedAffinity 3.89964938
REMARK minimizedRMSD -1
REMARK  0 active torsions:
REMARK  status: ('A' for Active; 'I' for Inactive)
ROOT
ATOM      1  C4' PXY d   1      -4.484  -3.738  -1.457  0.00  0.00     0.077 C 
ATOM      2  C1' PXY d   1      -5.544  -5.998   3.756  0.00  0.00     0.077 C 
ATOM      3  C1  PXY d   1      -5.265  -5.394   2.394  0.00  0.00    -0.082 A 
ATOM      4  C2  PXY d   1      -5.710  -6.000   1.306  0.00  0.00     0.003 A 
ATOM      5  C3  PXY d   1      -5.439  -5.484   0.064  0.00  0.00     0.003 A 
ATOM      6  C4  PXY d   1      -4.750  -4.307  -0.061  0.00  0.00    -0.082 A 
ATOM      7  C5  PXY d   1      -4.302  -3.677   1.045  0.00  0.00     0.003 A 
ATOM      8  C6  PXY d   1      -4.552  -4.239   2.294  0.00  0.00     0.003 A 
ENDROOT
TORSDOF 0
ENDMDL
