MODEL 1
REMARK minimizedAffinity 4.42511845
REMARK minimizedRMSD -1
REMARK  0 active torsions:
REMARK  status: ('A' for Active; 'I' for Inactive)
ROOT
ATOM      1  C4' PXY d   1      -4.712  -6.000  -4.839  0.00  0.00     0.077 C 
ATOM      2  C1' PXY d   1      -4.626  -3.678   0.454  0.00  0.00     0.077 C 
ATOM      3  C1  PXY d   1      -4.652  -4.298  -0.929  0.00  0.00    -0.082 A 
ATOM      4  C2  PXY d   1      -3.966  -3.736  -1.911  0.00  0.00     0.003 A 
ATOM      5  C3  PXY d   1      -4.004  -4.265  -3.175  0.00  0.00     0.003 A 
ATOM      6  C4  PXY d   1      -4.708  -5.413  -3.425  0.00  0.00    -0.082 A 
ATOM      7  C5  PXY d   1      -5.401  -5.999  -2.426  0.00  0.00     0.003 A 
ATOM      8  C6  PXY d   1      -5.383  -5.422  -1.159  0.00  0.00     0.003 A 
ENDROOT
TORSDOF 0
ENDMDL
