MODEL 1
REMARK minimizedAffinity 8.57504463
REMARK minimizedRMSD -1
REMARK  0 active torsions:
REMARK  status: ('A' for Active; 'I' for Inactive)
ROOT
ATOM      1  C4' PXY d   1       5.844  -5.468  -5.158  0.00  0.00     0.077 C 
ATOM      2  C1' PXY d   1       0.523  -4.048  -3.402  0.00  0.00     0.077 C 
ATOM      3  C1  PXY d   1       1.920  -4.428  -3.852  0.00  0.00    -0.082 A 
ATOM      4  C2  PXY d   1       2.582  -3.631  -4.675  0.00  0.00     0.003 A 
ATOM      5  C3  PXY d   1       3.833  -3.975  -5.118  0.00  0.00     0.003 A 
ATOM      6  C4  PXY d   1       4.435  -5.120  -4.670  0.00  0.00    -0.082 A 
ATOM      7  C5  PXY d   1       3.772  -5.933  -3.822  0.00  0.00     0.003 A 
ATOM      8  C6  PXY d   1       2.486  -5.586  -3.417  0.00  0.00     0.003 A 
ENDROOT
TORSDOF 0
ENDMDL
