MODEL 1
REMARK minimizedAffinity -3.8470912
REMARK minimizedRMSD -1
REMARK  0 active torsions:
REMARK  status: ('A' for Active; 'I' for Inactive)
ROOT
ATOM      1  C4' PXY d   1       5.457  -0.691  -3.751  0.00  0.00     0.077 C 
ATOM      2  C1' PXY d   1       5.031  -6.000  -5.999  0.00  0.00     0.077 C 
ATOM      3  C1  PXY d   1       5.139  -4.603  -5.421  0.00  0.00    -0.082 A 
ATOM      4  C2  PXY d   1       5.915  -4.387  -4.371  0.00  0.00     0.003 A 
ATOM      5  C3  PXY d   1       6.000  -3.136  -3.816  0.00  0.00     0.003 A 
ATOM      6  C4  PXY d   1       5.325  -2.084  -4.374  0.00  0.00    -0.082 A 
ATOM      7  C5  PXY d   1       4.540  -2.293  -5.452  0.00  0.00     0.003 A 
ATOM      8  C6  PXY d   1       4.435  -3.579  -5.975  0.00  0.00     0.003 A 
ENDROOT
TORSDOF 0
ENDMDL
