MODEL 1
REMARK minimizedAffinity -4.17845774
REMARK minimizedRMSD -1
REMARK  0 active torsions:
REMARK  status: ('A' for Active; 'I' for Inactive)
ROOT
ATOM      1  C4' PXY d   1      -2.980  -3.091   0.246  0.00  0.00     0.077 C 
ATOM      2  C1' PXY d   1       2.253  -0.729   0.921  0.00  0.00     0.077 C 
ATOM      3  C1  PXY d   1       0.886  -1.357   0.735  0.00  0.00    -0.082 A 
ATOM      4  C2  PXY d   1      -0.199  -0.668   1.053  0.00  0.00     0.003 A 
ATOM      5  C3  PXY d   1      -1.441  -1.232   0.921  0.00  0.00     0.003 A 
ATOM      6  C4  PXY d   1      -1.579  -2.494   0.408  0.00  0.00    -0.082 A 
ATOM      7  C5  PXY d   1      -0.478  -3.199   0.071  0.00  0.00     0.003 A 
ATOM      8  C6  PXY d   1       0.777  -2.624   0.251  0.00  0.00     0.003 A 
ENDROOT
TORSDOF 0
ENDMDL
