MODEL 1
REMARK minimizedAffinity 9.85026073
REMARK minimizedRMSD -1
REMARK  0 active torsions:
REMARK  status: ('A' for Active; 'I' for Inactive)
ROOT
ATOM      1  C4' PXY d   1       1.117   3.185  -0.450  0.00  0.00     0.077 C 
ATOM      2  C1' PXY d   1       4.984  -0.510  -2.642  0.00  0.00     0.077 C 
ATOM      3  C1  PXY d   1       3.962   0.449  -2.066  0.00  0.00    -0.082 A 
ATOM      4  C2  PXY d   1       4.030   1.736  -2.366  0.00  0.00     0.003 A 
ATOM      5  C3  PXY d   1       3.132   2.622  -1.828  0.00  0.00     0.003 A 
ATOM      6  C4  PXY d   1       2.122   2.179  -1.017  0.00  0.00    -0.082 A 
ATOM      7  C5  PXY d   1       2.039   0.866  -0.714  0.00  0.00     0.003 A 
ATOM      8  C6  PXY d   1       2.985  -0.011  -1.238  0.00  0.00     0.003 A 
ENDROOT
TORSDOF 0
ENDMDL
