MODEL 1
REMARK minimizedAffinity 2.63792872
REMARK minimizedRMSD -1
REMARK  0 active torsions:
REMARK  status: ('A' for Active; 'I' for Inactive)
ROOT
ATOM      1  C4' PXY d   1       1.789   3.209  -0.989  0.00  0.00     0.077 C 
ATOM      2  C1' PXY d   1      -0.409  -1.702   1.124  0.00  0.00     0.077 C 
ATOM      3  C1  PXY d   1       0.155  -0.410   0.567  0.00  0.00    -0.082 A 
ATOM      4  C2  PXY d   1       1.409  -0.372   0.145  0.00  0.00     0.003 A 
ATOM      5  C3  PXY d   1       1.945   0.797  -0.332  0.00  0.00     0.003 A 
ATOM      6  C4  PXY d   1       1.175   1.924  -0.428  0.00  0.00    -0.082 A 
ATOM      7  C5  PXY d   1      -0.108   1.891  -0.009  0.00  0.00     0.003 A 
ATOM      8  C6  PXY d   1      -0.622   0.706   0.510  0.00  0.00     0.003 A 
ENDROOT
TORSDOF 0
ENDMDL
