MODEL 1
REMARK minimizedAffinity 0.844281673
REMARK minimizedRMSD -1
REMARK  0 active torsions:
REMARK  status: ('A' for Active; 'I' for Inactive)
ROOT
ATOM      1  C4' PXY d   1      -1.069   2.260  -1.264  0.00  0.00     0.077 C 
ATOM      2  C1' PXY d   1       1.079  -2.715   0.748  0.00  0.00     0.077 C 
ATOM      3  C1  PXY d   1       0.527  -1.408   0.214  0.00  0.00    -0.082 A 
ATOM      4  C2  PXY d   1      -0.473  -0.814   0.845  0.00  0.00     0.003 A 
ATOM      5  C3  PXY d   1      -1.006   0.352   0.358  0.00  0.00     0.003 A 
ATOM      6  C4  PXY d   1      -0.474   0.944  -0.756  0.00  0.00    -0.082 A 
ATOM      7  C5  PXY d   1       0.553   0.350  -1.399  0.00  0.00     0.003 A 
ATOM      8  C6  PXY d   1       1.052  -0.855  -0.912  0.00  0.00     0.003 A 
ENDROOT
TORSDOF 0
ENDMDL
