MODEL 1
REMARK minimizedAffinity 1.91290736
REMARK minimizedRMSD -1
REMARK  0 active torsions:
REMARK  status: ('A' for Active; 'I' for Inactive)
ROOT
ATOM      1  C4' PXY d   1       3.772   2.096  -1.353  0.00  0.00     0.077 C 
ATOM      2  C1' PXY d   1      -1.330   0.139   0.532  0.00  0.00     0.077 C 
ATOM      3  C1  PXY d   1       0.002   0.662   0.032  0.00  0.00    -0.082 A 
ATOM      4  C2  PXY d   1       1.012  -0.175  -0.135  0.00  0.00     0.003 A 
ATOM      5  C3  PXY d   1       2.233   0.287  -0.556  0.00  0.00     0.003 A 
ATOM      6  C4  PXY d   1       2.406   1.611  -0.859  0.00  0.00    -0.082 A 
ATOM      7  C5  PXY d   1       1.377   2.469  -0.701  0.00  0.00     0.003 A 
ATOM      8  C6  PXY d   1       0.158   1.988  -0.233  0.00  0.00     0.003 A 
ENDROOT
TORSDOF 0
ENDMDL
