MODEL 1
REMARK minimizedAffinity -0.828572571
REMARK minimizedRMSD -1
REMARK  0 active torsions:
REMARK  status: ('A' for Active; 'I' for Inactive)
ROOT
ATOM      1  C4' PXY d   1       1.237   4.087  -1.401  0.00  0.00     0.077 C 
ATOM      2  C1' PXY d   1      -0.119  -1.066   0.841  0.00  0.00     0.077 C 
ATOM      3  C1  PXY d   1       0.249   0.283   0.256  0.00  0.00    -0.082 A 
ATOM      4  C2  PXY d   1      -0.676   1.224   0.149  0.00  0.00     0.003 A 
ATOM      5  C3  PXY d   1      -0.368   2.439  -0.407  0.00  0.00     0.003 A 
ATOM      6  C4  PXY d   1       0.913   2.713  -0.808  0.00  0.00    -0.082 A 
ATOM      7  C5  PXY d   1       1.864   1.762  -0.692  0.00  0.00     0.003 A 
ATOM      8  C6  PXY d   1       1.521   0.521  -0.163  0.00  0.00     0.003 A 
ENDROOT
TORSDOF 0
ENDMDL
