MODEL 1
REMARK minimizedAffinity 8.76568031
REMARK minimizedRMSD -1
REMARK  0 active torsions:
REMARK  status: ('A' for Active; 'I' for Inactive)
ROOT
ATOM      1  C4' PXY d   1       1.930   3.879  -5.988  0.00  0.00     0.077 C 
ATOM      2  C1' PXY d   1      -2.468   2.802  -2.393  0.00  0.00     0.077 C 
ATOM      3  C1  PXY d   1      -1.308   3.074  -3.331  0.00  0.00    -0.082 A 
ATOM      4  C2  PXY d   1      -1.106   4.302  -3.783  0.00  0.00     0.003 A 
ATOM      5  C3  PXY d   1      -0.082   4.559  -4.657  0.00  0.00     0.003 A 
ATOM      6  C4  PXY d   1       0.777   3.560  -5.031  0.00  0.00    -0.082 A 
ATOM      7  C5  PXY d   1       0.584   2.308  -4.567  0.00  0.00     0.003 A 
ATOM      8  C6  PXY d   1      -0.487   2.059  -3.712  0.00  0.00     0.003 A 
ENDROOT
TORSDOF 0
ENDMDL
