MODEL 1
REMARK minimizedAffinity 5.21777916
REMARK minimizedRMSD -1
REMARK  0 active torsions:
REMARK  status: ('A' for Active; 'I' for Inactive)
ROOT
ATOM      1  C4' PXY d   1      -1.223   2.638  -3.542  0.00  0.00     0.077 C 
ATOM      2  C1' PXY d   1       3.042   4.188   0.039  0.00  0.00     0.077 C 
ATOM      3  C1  PXY d   1       1.920   3.794  -0.901  0.00  0.00    -0.082 A 
ATOM      4  C2  PXY d   1       1.447   2.559  -0.873  0.00  0.00     0.003 A 
ATOM      5  C3  PXY d   1       0.454   2.177  -1.738  0.00  0.00     0.003 A 
ATOM      6  C4  PXY d   1      -0.097   3.083  -2.605  0.00  0.00    -0.082 A 
ATOM      7  C5  PXY d   1       0.374   4.348  -2.632  0.00  0.00     0.003 A 
ATOM      8  C6  PXY d   1       1.410   4.705  -1.774  0.00  0.00     0.003 A 
ENDROOT
TORSDOF 0
ENDMDL
