MODEL 1
REMARK minimizedAffinity 10.4611225
REMARK minimizedRMSD -1
REMARK  0 active torsions:
REMARK  status: ('A' for Active; 'I' for Inactive)
ROOT
ATOM      1  C4' PXY d   1       3.278  -0.694   0.582  0.00  0.00     0.077 C 
ATOM      2  C1' PXY d   1      -2.209   1.028   1.167  0.00  0.00     0.077 C 
ATOM      3  C1  PXY d   1      -0.770   0.582   1.002  0.00  0.00    -0.082 A 
ATOM      4  C2  PXY d   1      -0.335  -0.481   1.658  0.00  0.00     0.003 A 
ATOM      5  C3  PXY d   1       0.972  -0.879   1.545  0.00  0.00     0.003 A 
ATOM      6  C4  PXY d   1       1.830  -0.213   0.711  0.00  0.00    -0.082 A 
ATOM      7  C5  PXY d   1       1.391   0.867   0.031  0.00  0.00     0.003 A 
ATOM      8  C6  PXY d   1       0.071   1.279   0.191  0.00  0.00     0.003 A 
ENDROOT
TORSDOF 0
ENDMDL
