MODEL 1
REMARK minimizedAffinity 13.4469681
REMARK minimizedRMSD -1
REMARK  0 active torsions:
REMARK  status: ('A' for Active; 'I' for Inactive)
ROOT
ATOM      1  C4' PXY d   1      -1.369  -3.042  -3.379  0.00  0.00     0.077 C 
ATOM      2  C1' PXY d   1      -5.578  -5.999  -0.743  0.00  0.00     0.077 C 
ATOM      3  C1  PXY d   1      -4.467  -5.235  -1.436  0.00  0.00    -0.082 A 
ATOM      4  C2  PXY d   1      -4.304  -3.946  -1.184  0.00  0.00     0.003 A 
ATOM      5  C3  PXY d   1      -3.325  -3.232  -1.826  0.00  0.00     0.003 A 
ATOM      6  C4  PXY d   1      -2.471  -3.856  -2.695  0.00  0.00    -0.082 A 
ATOM      7  C5  PXY d   1      -2.624  -5.172  -2.949  0.00  0.00     0.003 A 
ATOM      8  C6  PXY d   1      -3.650  -5.870  -2.319  0.00  0.00     0.003 A 
ENDROOT
TORSDOF 0
ENDMDL
