MODEL 1
REMARK minimizedAffinity -2.60334468
REMARK minimizedRMSD -1
REMARK  0 active torsions:
REMARK  status: ('A' for Active; 'I' for Inactive)
ROOT
ATOM      1  C2' OXE d   1       0.261  -0.146  -2.482  0.00  0.00     0.078 C 
ATOM      2  C1' OXE d   1       0.461   1.488  -0.208  0.00  0.00     0.078 C 
ATOM      3  C1  OXE d   1      -0.145   0.117  -0.039  0.00  0.00    -0.078 A 
ATOM      4  C2  OXE d   1      -0.282  -0.658  -1.166  0.00  0.00    -0.078 A 
ATOM      5  C3  OXE d   1      -0.784  -1.951  -1.056  0.00  0.00     0.003 A 
ATOM      6  C4  OXE d   1      -1.293  -2.413   0.164  0.00  0.00    -0.002 A 
ATOM      7  C5  OXE d   1      -1.200  -1.625   1.316  0.00  0.00    -0.002 A 
ATOM      8  C6  OXE d   1      -0.591  -0.377   1.240  0.00  0.00     0.003 A 
ENDROOT
TORSDOF 0
ENDMDL
