MODEL 1
REMARK minimizedAffinity -1.94979548
REMARK minimizedRMSD -1
REMARK  0 active torsions:
REMARK  status: ('A' for Active; 'I' for Inactive)
ROOT
ATOM      1  C2' OXE d   1      -0.852  -2.674   0.756  0.00  0.00     0.078 C 
ATOM      2  C1' OXE d   1      -0.085  -1.693  -1.760  0.00  0.00     0.078 C 
ATOM      3  C1  OXE d   1      -0.202  -0.706  -0.626  0.00  0.00    -0.078 A 
ATOM      4  C2  OXE d   1      -0.623  -1.187   0.590  0.00  0.00    -0.078 A 
ATOM      5  C3  OXE d   1      -0.696  -0.329   1.684  0.00  0.00     0.003 A 
ATOM      6  C4  OXE d   1      -0.492   1.046   1.520  0.00  0.00    -0.002 A 
ATOM      7  C5  OXE d   1      -0.101   1.563   0.280  0.00  0.00    -0.002 A 
ATOM      8  C6  OXE d   1       0.090   0.697  -0.790  0.00  0.00     0.003 A 
ENDROOT
TORSDOF 0
ENDMDL
