MODEL 1
REMARK minimizedAffinity -4.05321264
REMARK minimizedRMSD -1
REMARK  0 active torsions:
REMARK  status: ('A' for Active; 'I' for Inactive)
ROOT
ATOM      1  C2' OXE d   1       0.231  -0.417  -2.250  0.00  0.00     0.078 C 
ATOM      2  C1' OXE d   1       0.574   1.286  -0.045  0.00  0.00     0.078 C 
ATOM      3  C1  OXE d   1      -0.080  -0.052   0.195  0.00  0.00    -0.078 A 
ATOM      4  C2  OXE d   1      -0.287  -0.859  -0.898  0.00  0.00    -0.078 A 
ATOM      5  C3  OXE d   1      -0.836  -2.126  -0.725  0.00  0.00     0.003 A 
ATOM      6  C4  OXE d   1      -1.321  -2.524   0.527  0.00  0.00    -0.002 A 
ATOM      7  C5  OXE d   1      -1.157  -1.700   1.646  0.00  0.00    -0.002 A 
ATOM      8  C6  OXE d   1      -0.502  -0.482   1.505  0.00  0.00     0.003 A 
ENDROOT
TORSDOF 0
ENDMDL
