MODEL 1
REMARK minimizedAffinity -5.02841854
REMARK minimizedRMSD -1
REMARK  0 active torsions:
REMARK  status: ('A' for Active; 'I' for Inactive)
ROOT
ATOM      1  C2' OXE d   1      -0.289   1.167  -0.452  0.00  0.00     0.078 C 
ATOM      2  C1' OXE d   1       0.465  -0.518  -2.566  0.00  0.00     0.078 C 
ATOM      3  C1  OXE d   1      -0.012  -1.163  -1.289  0.00  0.00    -0.078 A 
ATOM      4  C2  OXE d   1      -0.334  -0.331  -0.243  0.00  0.00    -0.078 A 
ATOM      5  C3  OXE d   1      -0.832  -0.871   0.939  0.00  0.00     0.003 A 
ATOM      6  C4  OXE d   1      -0.861  -2.258   1.128  0.00  0.00    -0.002 A 
ATOM      7  C5  OXE d   1      -0.500  -3.123   0.090  0.00  0.00    -0.002 A 
ATOM      8  C6  OXE d   1      -0.114  -2.593  -1.137  0.00  0.00     0.003 A 
ENDROOT
TORSDOF 0
ENDMDL
