MODEL 1
REMARK minimizedAffinity -2.62591147
REMARK minimizedRMSD -1
REMARK  0 active torsions:
REMARK  status: ('A' for Active; 'I' for Inactive)
ROOT
ATOM      1  C2' OXE d   1       0.096   1.595  -0.087  0.00  0.00     0.078 C 
ATOM      2  C1' OXE d   1       0.364   0.608  -2.700  0.00  0.00     0.078 C 
ATOM      3  C1  OXE d   1      -0.080  -0.354  -1.627  0.00  0.00    -0.078 A 
ATOM      4  C2  OXE d   1      -0.163   0.126  -0.342  0.00  0.00    -0.078 A 
ATOM      5  C3  OXE d   1      -0.621  -0.705   0.676  0.00  0.00     0.003 A 
ATOM      6  C4  OXE d   1      -0.849  -2.064   0.433  0.00  0.00    -0.002 A 
ATOM      7  C5  OXE d   1      -0.731  -2.584  -0.860  0.00  0.00    -0.002 A 
ATOM      8  C6  OXE d   1      -0.390  -1.735  -1.907  0.00  0.00     0.003 A 
ENDROOT
TORSDOF 0
ENDMDL
