MODEL 1
REMARK minimizedAffinity -3.30200338
REMARK minimizedRMSD -1
REMARK  0 active torsions:
REMARK  status: ('A' for Active; 'I' for Inactive)
ROOT
ATOM      1  C2' OXE d   1       0.470  -2.958  -0.062  0.00  0.00     0.078 C 
ATOM      2  C1' OXE d   1       0.583  -2.219  -2.768  0.00  0.00     0.078 C 
ATOM      3  C1  OXE d   1       0.523  -1.117  -1.740  0.00  0.00    -0.078 A 
ATOM      4  C2  OXE d   1       0.421  -1.488  -0.420  0.00  0.00    -0.078 A 
ATOM      5  C3  OXE d   1       0.417  -0.512   0.572  0.00  0.00     0.003 A 
ATOM      6  C4  OXE d   1       0.362   0.845   0.231  0.00  0.00    -0.002 A 
ATOM      7  C5  OXE d   1       0.424   1.244  -1.108  0.00  0.00    -0.002 A 
ATOM      8  C6  OXE d   1       0.548   0.279  -2.101  0.00  0.00     0.003 A 
ENDROOT
TORSDOF 0
ENDMDL
