MODEL 1
REMARK minimizedAffinity -5.28585672
REMARK minimizedRMSD -1
REMARK  0 active torsions:
REMARK  status: ('A' for Active; 'I' for Inactive)
ROOT
ATOM      1  C2' OXE d   1      -1.157  -1.948   1.337  0.00  0.00     0.078 C 
ATOM      2  C1' OXE d   1       1.613  -1.589   1.620  0.00  0.00     0.078 C 
ATOM      3  C1  OXE d   1       0.817  -0.464   1.007  0.00  0.00    -0.078 A 
ATOM      4  C2  OXE d   1      -0.530  -0.667   0.829  0.00  0.00    -0.078 A 
ATOM      5  C3  OXE d   1      -1.320   0.359   0.318  0.00  0.00     0.003 A 
ATOM      6  C4  OXE d   1      -0.732   1.537  -0.158  0.00  0.00    -0.002 A 
ATOM      7  C5  OXE d   1       0.645   1.747  -0.023  0.00  0.00    -0.002 A 
ATOM      8  C6  OXE d   1       1.425   0.777   0.594  0.00  0.00     0.003 A 
ENDROOT
TORSDOF 0
ENDMDL
