MODEL 1
REMARK minimizedAffinity -2.75334525
REMARK minimizedRMSD -1
REMARK  0 active torsions:
REMARK  status: ('A' for Active; 'I' for Inactive)
ROOT
ATOM      1  C2' OXE d   1      -0.009   1.310  -0.039  0.00  0.00     0.078 C 
ATOM      2  C1' OXE d   1       0.155  -0.075  -2.475  0.00  0.00     0.078 C 
ATOM      3  C1  OXE d   1      -0.370  -0.822  -1.275  0.00  0.00    -0.078 A 
ATOM      4  C2  OXE d   1      -0.403  -0.151  -0.076  0.00  0.00    -0.078 A 
ATOM      5  C3  OXE d   1      -0.930  -0.776   1.050  0.00  0.00     0.003 A 
ATOM      6  C4  OXE d   1      -1.283  -2.130   1.009  0.00  0.00    -0.002 A 
ATOM      7  C5  OXE d   1      -1.220  -2.844  -0.192  0.00  0.00    -0.002 A 
ATOM      8  C6  OXE d   1      -0.807  -2.195  -1.350  0.00  0.00     0.003 A 
ENDROOT
TORSDOF 0
ENDMDL
