MODEL 1
REMARK minimizedAffinity -4.89634943
REMARK minimizedRMSD -1
REMARK  0 active torsions:
REMARK  status: ('A' for Active; 'I' for Inactive)
ROOT
ATOM      1  C2' OXE d   1       0.000   1.089  -0.423  0.00  0.00     0.078 C 
ATOM      2  C1' OXE d   1       0.688  -0.906  -2.274  0.00  0.00     0.078 C 
ATOM      3  C1  OXE d   1       0.244  -1.343  -0.901  0.00  0.00    -0.078 A 
ATOM      4  C2  OXE d   1      -0.046  -0.359   0.013  0.00  0.00    -0.078 A 
ATOM      5  C3  OXE d   1      -0.513  -0.708   1.277  0.00  0.00     0.003 A 
ATOM      6  C4  OXE d   1      -0.544  -2.050   1.676  0.00  0.00    -0.002 A 
ATOM      7  C5  OXE d   1      -0.215  -3.066   0.773  0.00  0.00    -0.002 A 
ATOM      8  C6  OXE d   1       0.139  -2.733  -0.530  0.00  0.00     0.003 A 
ENDROOT
TORSDOF 0
ENDMDL
