MODEL 1
REMARK minimizedAffinity -3.63136053
REMARK minimizedRMSD -1
REMARK  0 active torsions:
REMARK  status: ('A' for Active; 'I' for Inactive)
ROOT
ATOM      1  C2' OXE d   1       0.107  -1.617  -2.047  0.00  0.00     0.078 C 
ATOM      2  C1' OXE d   1      -0.693  -2.548   0.478  0.00  0.00     0.078 C 
ATOM      3  C1  OXE d   1      -0.286  -1.101   0.358  0.00  0.00    -0.078 A 
ATOM      4  C2  OXE d   1       0.149  -0.666  -0.871  0.00  0.00    -0.078 A 
ATOM      5  C3  OXE d   1       0.484   0.674  -1.049  0.00  0.00     0.003 A 
ATOM      6  C4  OXE d   1       0.529   1.545   0.047  0.00  0.00    -0.002 A 
ATOM      7  C5  OXE d   1       0.128   1.112   1.315  0.00  0.00    -0.002 A 
ATOM      8  C6  OXE d   1      -0.322  -0.194   1.479  0.00  0.00     0.003 A 
ENDROOT
TORSDOF 0
ENDMDL
