MODEL 1
REMARK minimizedAffinity -2.66471148
REMARK minimizedRMSD -1
REMARK  0 active torsions:
REMARK  status: ('A' for Active; 'I' for Inactive)
ROOT
ATOM      1  C2' OXE d   1       0.793  -0.817  -2.482  0.00  0.00     0.078 C 
ATOM      2  C1' OXE d   1       0.269   1.073  -0.474  0.00  0.00     0.078 C 
ATOM      3  C1  OXE d   1      -0.098  -0.364  -0.200  0.00  0.00    -0.078 A 
ATOM      4  C2  OXE d   1       0.119  -1.274  -1.206  0.00  0.00    -0.078 A 
ATOM      5  C3  OXE d   1      -0.151  -2.622  -0.986  0.00  0.00     0.003 A 
ATOM      6  C4  OXE d   1      -0.784  -3.035   0.193  0.00  0.00    -0.002 A 
ATOM      7  C5  OXE d   1      -1.051  -2.117   1.214  0.00  0.00    -0.002 A 
ATOM      8  C6  OXE d   1      -0.676  -0.788   1.051  0.00  0.00     0.003 A 
ENDROOT
TORSDOF 0
ENDMDL
