MODEL 1
REMARK minimizedAffinity -2.25508571
REMARK minimizedRMSD -1
REMARK  0 active torsions:
REMARK  status: ('A' for Active; 'I' for Inactive)
ROOT
ATOM      1  C2' OXE d   1       0.019   1.382   0.034  0.00  0.00     0.078 C 
ATOM      2  C1' OXE d   1       0.265  -0.149  -2.307  0.00  0.00     0.078 C 
ATOM      3  C1  OXE d   1      -0.249  -0.837  -1.067  0.00  0.00    -0.078 A 
ATOM      4  C2  OXE d   1      -0.322  -0.092   0.086  0.00  0.00    -0.078 A 
ATOM      5  C3  OXE d   1      -0.840  -0.664   1.244  0.00  0.00     0.003 A 
ATOM      6  C4  OXE d   1      -1.143  -2.030   1.287  0.00  0.00    -0.002 A 
ATOM      7  C5  OXE d   1      -1.038  -2.816   0.135  0.00  0.00    -0.002 A 
ATOM      8  C6  OXE d   1      -0.634  -2.227  -1.058  0.00  0.00     0.003 A 
ENDROOT
TORSDOF 0
ENDMDL
