MODEL 1
REMARK minimizedAffinity -2.6654551
REMARK minimizedRMSD -1
REMARK  0 active torsions:
REMARK  status: ('A' for Active; 'I' for Inactive)
ROOT
ATOM      1  C2' OXE d   1      -0.510  -3.385  -0.104  0.00  0.00     0.078 C 
ATOM      2  C1' OXE d   1       0.564  -1.801  -2.157  0.00  0.00     0.078 C 
ATOM      3  C1  OXE d   1       0.147  -1.112  -0.882  0.00  0.00    -0.078 A 
ATOM      4  C2  OXE d   1      -0.421  -1.888   0.100  0.00  0.00    -0.078 A 
ATOM      5  C3  OXE d   1      -0.773  -1.312   1.317  0.00  0.00     0.003 A 
ATOM      6  C4  OXE d   1      -0.696   0.074   1.494  0.00  0.00    -0.002 A 
ATOM      7  C5  OXE d   1      -0.157   0.889   0.492  0.00  0.00    -0.002 A 
ATOM      8  C6  OXE d   1       0.307   0.307  -0.683  0.00  0.00     0.003 A 
ENDROOT
TORSDOF 0
ENDMDL
