MODEL 1
REMARK minimizedAffinity -3.86481595
REMARK minimizedRMSD -1
REMARK  0 active torsions:
REMARK  status: ('A' for Active; 'I' for Inactive)
ROOT
ATOM      1  C2' OXE d   1      -1.126  -2.647   0.681  0.00  0.00     0.078 C 
ATOM      2  C1' OXE d   1      -0.444  -2.574  -2.041  0.00  0.00     0.078 C 
ATOM      3  C1  OXE d   1      -0.338  -1.291  -1.255  0.00  0.00    -0.078 A 
ATOM      4  C2  OXE d   1      -0.718  -1.325   0.065  0.00  0.00    -0.078 A 
ATOM      5  C3  OXE d   1      -0.588  -0.183   0.850  0.00  0.00     0.003 A 
ATOM      6  C4  OXE d   1      -0.220   1.037   0.270  0.00  0.00    -0.002 A 
ATOM      7  C5  OXE d   1       0.134   1.103  -1.081  0.00  0.00    -0.002 A 
ATOM      8  C6  OXE d   1       0.121  -0.059  -1.846  0.00  0.00     0.003 A 
ENDROOT
TORSDOF 0
ENDMDL
