MODEL 1
REMARK minimizedAffinity -1.97119904
REMARK minimizedRMSD -1
REMARK  0 active torsions:
REMARK  status: ('A' for Active; 'I' for Inactive)
ROOT
ATOM      1  C2' OXE d   1       0.044   0.930  -0.304  0.00  0.00     0.078 C 
ATOM      2  C1' OXE d   1       0.228  -1.013  -2.322  0.00  0.00     0.078 C 
ATOM      3  C1  OXE d   1      -0.342  -1.433  -0.990  0.00  0.00    -0.078 A 
ATOM      4  C2  OXE d   1      -0.384  -0.488   0.006  0.00  0.00    -0.078 A 
ATOM      5  C3  OXE d   1      -0.951  -0.808   1.237  0.00  0.00     0.003 A 
ATOM      6  C4  OXE d   1      -1.336  -2.124   1.519  0.00  0.00    -0.002 A 
ATOM      7  C5  OXE d   1      -1.263  -3.112   0.531  0.00  0.00    -0.002 A 
ATOM      8  C6  OXE d   1      -0.809  -2.774  -0.739  0.00  0.00     0.003 A 
ENDROOT
TORSDOF 0
ENDMDL
