MODEL 1
REMARK minimizedAffinity -0.785408258
REMARK minimizedRMSD -1
REMARK  0 active torsions:
REMARK  status: ('A' for Active; 'I' for Inactive)
ROOT
ATOM      1  C2' OXE d   1       0.055   1.368  -0.452  0.00  0.00     0.078 C 
ATOM      2  C1' OXE d   1       0.059  -1.017  -1.933  0.00  0.00     0.078 C 
ATOM      3  C1  OXE d   1      -0.487  -1.062  -0.527  0.00  0.00    -0.078 A 
ATOM      4  C2  OXE d   1      -0.442   0.099   0.206  0.00  0.00    -0.078 A 
ATOM      5  C3  OXE d   1      -0.982   0.126   1.489  0.00  0.00     0.003 A 
ATOM      6  C4  OXE d   1      -1.430  -1.054   2.094  0.00  0.00    -0.002 A 
ATOM      7  C5  OXE d   1      -1.448  -2.256   1.378  0.00  0.00    -0.002 A 
ATOM      8  C6  OXE d   1      -1.020  -2.268   0.055  0.00  0.00     0.003 A 
ENDROOT
TORSDOF 0
ENDMDL
