MODEL 1
REMARK minimizedAffinity -1.98975778
REMARK minimizedRMSD -1
REMARK  0 active torsions:
REMARK  status: ('A' for Active; 'I' for Inactive)
ROOT
ATOM      1  C2' OXE d   1      -0.250   0.894  -1.950  0.00  0.00     0.078 C 
ATOM      2  C1' OXE d   1       0.732   2.298   0.274  0.00  0.00     0.078 C 
ATOM      3  C1  OXE d   1       0.175   0.915   0.505  0.00  0.00    -0.078 A 
ATOM      4  C2  OXE d   1      -0.346   0.254  -0.582  0.00  0.00    -0.078 A 
ATOM      5  C3  OXE d   1      -0.822  -1.046  -0.434  0.00  0.00     0.003 A 
ATOM      6  C4  OXE d   1      -0.916  -1.627   0.837  0.00  0.00    -0.002 A 
ATOM      7  C5  OXE d   1      -0.428  -0.955   1.962  0.00  0.00    -0.002 A 
ATOM      8  C6  OXE d   1       0.159   0.297   1.807  0.00  0.00     0.003 A 
ENDROOT
TORSDOF 0
ENDMDL
