MODEL 1
REMARK minimizedAffinity -2.86217523
REMARK minimizedRMSD -1
REMARK  0 active torsions:
REMARK  status: ('A' for Active; 'I' for Inactive)
ROOT
ATOM      1  C2' OXE d   1      -0.272   1.563  -1.646  0.00  0.00     0.078 C 
ATOM      2  C1' OXE d   1       0.189   0.167   0.745  0.00  0.00     0.078 C 
ATOM      3  C1  OXE d   1       0.640   1.604   0.671  0.00  0.00    -0.078 A 
ATOM      4  C2  OXE d   1       0.453   2.266  -0.518  0.00  0.00    -0.078 A 
ATOM      5  C3  OXE d   1       0.801   3.609  -0.622  0.00  0.00     0.003 A 
ATOM      6  C4  OXE d   1       1.480   4.249   0.422  0.00  0.00    -0.002 A 
ATOM      7  C5  OXE d   1       1.716   3.581   1.629  0.00  0.00    -0.002 A 
ATOM      8  C6  OXE d   1       1.266   2.275   1.784  0.00  0.00     0.003 A 
ENDROOT
TORSDOF 0
ENDMDL
