MODEL 1
REMARK minimizedAffinity 6.53227282
REMARK minimizedRMSD -1
REMARK  0 active torsions:
REMARK  status: ('A' for Active; 'I' for Inactive)
ROOT
ATOM      1  C   UNL d   1       3.961   1.190  -1.101  0.00  0.00     0.124 A 
ATOM      2  C1  UNL d   1       4.688   2.300  -0.694  0.00  0.00     0.062 A 
ATOM      3  C2  UNL d   1       4.622   2.734   0.626  0.00  0.00     0.162 A 
ATOM      4  C3  UNL d   1       3.827   2.057   1.551  0.00  0.00    -0.034 A 
ATOM      5  C4  UNL d   1       3.098   0.942   1.134  0.00  0.00     0.162 A 
ATOM      6  C5  UNL d   1       3.167   0.512  -0.187  0.00  0.00     0.062 A 
ATOM      7  F   UNL d   1       2.464  -0.560  -0.578  0.00  0.00    -0.097 F 
ATOM      8  F1  UNL d   1       2.324   0.268   1.997  0.00  0.00    -0.096 F 
ATOM      9  I   UNL d   1       3.726   2.703   3.527  0.00  0.00    -0.060 I 
ATOM     10  F2  UNL d   1       5.335   3.810   0.992  0.00  0.00    -0.096 F 
ATOM     11  F3  UNL d   1       5.455   2.958  -1.576  0.00  0.00    -0.097 F 
ATOM     12  F4  UNL d   1       4.025   0.776  -2.373  0.00  0.00    -0.092 F 
ENDROOT
TORSDOF 0
ENDMDL
