MODEL 1
REMARK minimizedAffinity 19.2884769
REMARK minimizedRMSD -1
REMARK  0 active torsions:
REMARK  status: ('A' for Active; 'I' for Inactive)
ROOT
ATOM      1  C   UNL d   1      -3.751   3.525   1.510  0.00  0.00     0.124 A 
ATOM      2  C1  UNL d   1      -4.234   4.300   0.464  0.00  0.00     0.062 A 
ATOM      3  C2  UNL d   1      -4.876   3.699  -0.614  0.00  0.00     0.162 A 
ATOM      4  C3  UNL d   1      -5.040   2.314  -0.653  0.00  0.00    -0.034 A 
ATOM      5  C4  UNL d   1      -4.551   1.541   0.402  0.00  0.00     0.162 A 
ATOM      6  C5  UNL d   1      -3.910   2.147   1.477  0.00  0.00     0.062 A 
ATOM      7  F   UNL d   1      -3.444   1.397   2.486  0.00  0.00    -0.097 F 
ATOM      8  F1  UNL d   1      -4.692   0.207   0.397  0.00  0.00    -0.096 F 
ATOM      9  I   UNL d   1      -6.000   1.411  -2.264  0.00  0.00    -0.060 I 
ATOM     10  F2  UNL d   1      -5.333   4.472  -1.611  0.00  0.00    -0.096 F 
ATOM     11  F3  UNL d   1      -4.081   5.632   0.492  0.00  0.00    -0.097 F 
ATOM     12  F4  UNL d   1      -3.133   4.107   2.546  0.00  0.00    -0.092 F 
ENDROOT
TORSDOF 0
ENDMDL
