MODEL 1
REMARK minimizedAffinity 8.7351141
REMARK minimizedRMSD -1
REMARK  0 active torsions:
REMARK  status: ('A' for Active; 'I' for Inactive)
ROOT
ATOM      1  C   UNL d   1      -0.384   2.410   1.608  0.00  0.00     0.124 A 
ATOM      2  C1  UNL d   1      -0.588   3.769   1.414  0.00  0.00     0.062 A 
ATOM      3  C2  UNL d   1       0.319   4.693   1.924  0.00  0.00     0.162 A 
ATOM      4  C3  UNL d   1       1.440   4.261   2.634  0.00  0.00    -0.034 A 
ATOM      5  C4  UNL d   1       1.638   2.893   2.826  0.00  0.00     0.162 A 
ATOM      6  C5  UNL d   1       0.729   1.973   2.314  0.00  0.00     0.062 A 
ATOM      7  F   UNL d   1       0.927   0.660   2.503  0.00  0.00    -0.097 F 
ATOM      8  F1  UNL d   1       2.705   2.443   3.504  0.00  0.00    -0.096 F 
ATOM      9  I   UNL d   1       2.799   5.640   3.399  0.00  0.00    -0.060 I 
ATOM     10  F2  UNL d   1       0.097   6.000   1.721  0.00  0.00    -0.096 F 
ATOM     11  F3  UNL d   1      -1.662   4.193   0.733  0.00  0.00    -0.097 F 
ATOM     12  F4  UNL d   1      -1.258   1.523   1.117  0.00  0.00    -0.092 F 
ENDROOT
TORSDOF 0
ENDMDL
