MODEL 1
REMARK minimizedAffinity 10.1768932
REMARK minimizedRMSD -1
REMARK  0 active torsions:
REMARK  status: ('A' for Active; 'I' for Inactive)
ROOT
ATOM      1  C   UNL d   1       2.287   5.975   3.644  0.00  0.00     0.124 A 
ATOM      2  C1  UNL d   1       1.663   5.973   2.404  0.00  0.00     0.062 A 
ATOM      3  C2  UNL d   1       0.274   5.978   2.319  0.00  0.00     0.162 A 
ATOM      4  C3  UNL d   1      -0.502   5.985   3.478  0.00  0.00    -0.034 A 
ATOM      5  C4  UNL d   1       0.132   5.986   4.721  0.00  0.00     0.162 A 
ATOM      6  C5  UNL d   1       1.521   5.982   4.801  0.00  0.00     0.062 A 
ATOM      7  F   UNL d   1       2.122   5.984   6.000  0.00  0.00    -0.097 F 
ATOM      8  F1  UNL d   1      -0.584   5.994   5.856  0.00  0.00    -0.096 F 
ATOM      9  I   UNL d   1      -2.580   5.992   3.355  0.00  0.00    -0.060 I 
ATOM     10  F2  UNL d   1      -0.302   5.975   1.107  0.00  0.00    -0.096 F 
ATOM     11  F3  UNL d   1       2.401   5.966   1.284  0.00  0.00    -0.097 F 
ATOM     12  F4  UNL d   1       3.624   5.970   3.722  0.00  0.00    -0.092 F 
ENDROOT
TORSDOF 0
ENDMDL
