MODEL 1
REMARK minimizedAffinity 10.6158037
REMARK minimizedRMSD -1
REMARK  0 active torsions:
REMARK  status: ('A' for Active; 'I' for Inactive)
ROOT
ATOM      1  C   UNL d   1       1.886  -0.671   0.343  0.00  0.00     0.124 A 
ATOM      2  C1  UNL d   1       1.609   0.665   0.089  0.00  0.00     0.062 A 
ATOM      3  C2  UNL d   1       2.606   1.508  -0.392  0.00  0.00     0.162 A 
ATOM      4  C3  UNL d   1       3.891   1.017  -0.623  0.00  0.00    -0.034 A 
ATOM      5  C4  UNL d   1       4.163  -0.328  -0.364  0.00  0.00     0.162 A 
ATOM      6  C5  UNL d   1       3.162  -1.166   0.116  0.00  0.00     0.062 A 
ATOM      7  F   UNL d   1       3.432  -2.457   0.361  0.00  0.00    -0.097 F 
ATOM      8  F1  UNL d   1       5.387  -0.833  -0.576  0.00  0.00    -0.096 F 
ATOM      9  I   UNL d   1       5.386   2.274  -1.342  0.00  0.00    -0.060 I 
ATOM     10  F2  UNL d   1       2.310   2.794  -0.628  0.00  0.00    -0.096 F 
ATOM     11  F3  UNL d   1       0.376   1.146   0.308  0.00  0.00    -0.097 F 
ATOM     12  F4  UNL d   1       0.924  -1.480   0.807  0.00  0.00    -0.092 F 
ENDROOT
TORSDOF 0
ENDMDL
