MODEL 1
REMARK minimizedAffinity 11.8194981
REMARK minimizedRMSD -1
REMARK  0 active torsions:
REMARK  status: ('A' for Active; 'I' for Inactive)
ROOT
ATOM      1  C   UNL d   1       3.596  -0.147  -1.953  0.00  0.00     0.124 A 
ATOM      2  C1  UNL d   1       2.832  -0.346  -0.812  0.00  0.00     0.062 A 
ATOM      3  C2  UNL d   1       2.896   0.562   0.241  0.00  0.00     0.162 A 
ATOM      4  C3  UNL d   1       3.727   1.679   0.156  0.00  0.00    -0.034 A 
ATOM      5  C4  UNL d   1       4.493   1.872  -0.995  0.00  0.00     0.162 A 
ATOM      6  C5  UNL d   1       4.426   0.961  -2.044  0.00  0.00     0.062 A 
ATOM      7  F   UNL d   1       5.165   1.155  -3.146  0.00  0.00    -0.097 F 
ATOM      8  F1  UNL d   1       5.303   2.935  -1.109  0.00  0.00    -0.096 F 
ATOM      9  I   UNL d   1       3.826   3.040   1.728  0.00  0.00    -0.060 I 
ATOM     10  F2  UNL d   1       2.146   0.345   1.332  0.00  0.00    -0.096 F 
ATOM     11  F3  UNL d   1       2.030  -1.417  -0.722  0.00  0.00    -0.097 F 
ATOM     12  F4  UNL d   1       3.533  -1.024  -2.964  0.00  0.00    -0.092 F 
ENDROOT
TORSDOF 0
ENDMDL
