MODEL 1
REMARK minimizedAffinity 17.9056664
REMARK minimizedRMSD -1
REMARK  0 active torsions:
REMARK  status: ('A' for Active; 'I' for Inactive)
ROOT
ATOM      1  C   UNL d   1       2.567   0.527  -0.673  0.00  0.00     0.124 A 
ATOM      2  C1  UNL d   1       3.795   0.820  -1.249  0.00  0.00     0.062 A 
ATOM      3  C2  UNL d   1       4.775   1.478  -0.512  0.00  0.00     0.162 A 
ATOM      4  C3  UNL d   1       4.531   1.847   0.811  0.00  0.00    -0.034 A 
ATOM      5  C4  UNL d   1       3.293   1.550   1.384  0.00  0.00     0.162 A 
ATOM      6  C5  UNL d   1       2.317   0.892   0.643  0.00  0.00     0.062 A 
ATOM      7  F   UNL d   1       1.131   0.610   1.201  0.00  0.00    -0.097 F 
ATOM      8  F1  UNL d   1       3.025   1.891   2.653  0.00  0.00    -0.096 F 
ATOM      9  I   UNL d   1       5.994   2.832   1.917  0.00  0.00    -0.060 I 
ATOM     10  F2  UNL d   1       5.953   1.748  -1.094  0.00  0.00    -0.096 F 
ATOM     11  F3  UNL d   1       4.038   0.468  -2.520  0.00  0.00    -0.097 F 
ATOM     12  F4  UNL d   1       1.625  -0.106  -1.384  0.00  0.00    -0.092 F 
ENDROOT
TORSDOF 0
ENDMDL
