MODEL 1
REMARK minimizedAffinity -0.290640324
REMARK minimizedRMSD -1
REMARK  0 active torsions:
REMARK  status: ('A' for Active; 'I' for Inactive)
ROOT
ATOM      1  C   UNL d   1       3.980   2.112   5.963  0.00  0.00     0.124 A 
ATOM      2  C1  UNL d   1       4.516   3.393   5.962  0.00  0.00     0.062 A 
ATOM      3  C2  UNL d   1       3.677   4.503   5.972  0.00  0.00     0.162 A 
ATOM      4  C3  UNL d   1       2.292   4.338   5.984  0.00  0.00    -0.034 A 
ATOM      5  C4  UNL d   1       1.760   3.048   5.984  0.00  0.00     0.162 A 
ATOM      6  C5  UNL d   1       2.603   1.941   5.974  0.00  0.00     0.062 A 
ATOM      7  F   UNL d   1       2.083   0.705   5.975  0.00  0.00    -0.097 F 
ATOM      8  F1  UNL d   1       0.433   2.853   5.996  0.00  0.00    -0.096 F 
ATOM      9  I   UNL d   1       1.034   5.996   5.999  0.00  0.00    -0.060 I 
ATOM     10  F2  UNL d   1       4.223   5.728   5.971  0.00  0.00    -0.096 F 
ATOM     11  F3  UNL d   1       5.846   3.561   5.951  0.00  0.00    -0.097 F 
ATOM     12  F4  UNL d   1       4.790   1.046   5.953  0.00  0.00    -0.092 F 
ENDROOT
TORSDOF 0
ENDMDL
