MODEL 1
REMARK minimizedAffinity 9.89439964
REMARK minimizedRMSD -1
REMARK  0 active torsions:
REMARK  status: ('A' for Active; 'I' for Inactive)
ROOT
ATOM      1  C   UNL d   1       2.888  -1.549  -1.345  0.00  0.00     0.124 A 
ATOM      2  C1  UNL d   1       2.992  -0.292  -0.766  0.00  0.00     0.062 A 
ATOM      3  C2  UNL d   1       2.415  -0.043   0.476  0.00  0.00     0.162 A 
ATOM      4  C3  UNL d   1       1.728  -1.054   1.148  0.00  0.00    -0.034 A 
ATOM      5  C4  UNL d   1       1.627  -2.316   0.559  0.00  0.00     0.162 A 
ATOM      6  C5  UNL d   1       2.206  -2.559  -0.682  0.00  0.00     0.062 A 
ATOM      7  F   UNL d   1       2.104  -3.774  -1.240  0.00  0.00    -0.097 F 
ATOM      8  F1  UNL d   1       0.974  -3.311   1.177  0.00  0.00    -0.096 F 
ATOM      9  I   UNL d   1       0.863  -0.686   3.005  0.00  0.00    -0.060 I 
ATOM     10  F2  UNL d   1       2.531   1.181   1.012  0.00  0.00    -0.096 F 
ATOM     11  F3  UNL d   1       3.650   0.687  -1.404  0.00  0.00    -0.097 F 
ATOM     12  F4  UNL d   1       3.444  -1.785  -2.540  0.00  0.00    -0.092 F 
ENDROOT
TORSDOF 0
ENDMDL
