MODEL 1
REMARK minimizedAffinity 5.98093462
REMARK minimizedRMSD -1
REMARK  2 active torsions:
REMARK  status: ('A' for Active; 'I' for Inactive)
REMARK    1  A    between atoms: C1_2  and  C2_3 
REMARK    2  A    between atoms: C2_3  and  C3_4 
ROOT
ATOM      1  C3  UNL d   1       4.293  -0.589  -3.672  0.00  0.00    -0.075 A 
ATOM      2  C4  UNL d   1       5.230  -1.571  -4.028  0.00  0.00     0.002 A 
ATOM      3  C5  UNL d   1       6.000  -1.429  -5.183  0.00  0.00     0.002 A 
ATOM      4  C6  UNL d   1       5.837  -0.313  -6.000  0.00  0.00    -0.004 A 
ATOM      5  C7  UNL d   1       4.897   0.660  -5.665  0.00  0.00     0.002 A 
ATOM      6  C8  UNL d   1       4.129   0.523  -4.508  0.00  0.00     0.002 A 
ENDROOT
BRANCH   1   7
ATOM      7  C2  UNL d   1       3.477  -0.722  -2.408  0.00  0.00     0.056 C 
BRANCH   7   8
ATOM      8  C1  UNL d   1       4.097  -0.028  -1.190  0.00  0.00     0.007 C 
ATOM      9  C   UNL d   1       3.367  -0.335   0.111  0.00  0.00     0.009 C 
ENDBRANCH   7   8
ENDBRANCH   1   7
TORSDOF 2
ENDMDL
