MODEL 1
REMARK minimizedAffinity 3.31309962
REMARK minimizedRMSD -1
REMARK  2 active torsions:
REMARK  status: ('A' for Active; 'I' for Inactive)
REMARK    1  A    between atoms: C1_2  and  C2_3 
REMARK    2  A    between atoms: C2_3  and  C3_4 
ROOT
ATOM      1  C3  UNL d   1      -4.869  -4.115  -3.301  0.00  0.00    -0.075 A 
ATOM      2  C4  UNL d   1      -5.294  -2.954  -3.963  0.00  0.00     0.002 A 
ATOM      3  C5  UNL d   1      -5.678  -3.004  -5.304  0.00  0.00     0.002 A 
ATOM      4  C6  UNL d   1      -5.632  -4.210  -6.000  0.00  0.00    -0.004 A 
ATOM      5  C7  UNL d   1      -5.195  -5.366  -5.356  0.00  0.00     0.002 A 
ATOM      6  C8  UNL d   1      -4.815  -5.319  -4.014  0.00  0.00     0.002 A 
ENDROOT
BRANCH   1   7
ATOM      7  C2  UNL d   1      -4.480  -4.073  -1.842  0.00  0.00     0.056 C 
BRANCH   7   8
ATOM      8  C1  UNL d   1      -4.324  -5.455  -1.198  0.00  0.00     0.007 C 
ATOM      9  C   UNL d   1      -2.884  -5.789  -0.836  0.00  0.00     0.009 C 
ENDBRANCH   7   8
ENDBRANCH   1   7
TORSDOF 2
ENDMDL
