MODEL 1
REMARK minimizedAffinity 7.67639112
REMARK minimizedRMSD -1
REMARK  2 active torsions:
REMARK  status: ('A' for Active; 'I' for Inactive)
REMARK    1  A    between atoms: C1_2  and  C2_3 
REMARK    2  A    between atoms: C2_3  and  C3_4 
ROOT
ATOM      1  C3  UNL d   1       0.894  -1.703   0.439  0.00  0.00    -0.075 A 
ATOM      2  C4  UNL d   1       1.219  -2.068  -0.876  0.00  0.00     0.002 A 
ATOM      3  C5  UNL d   1       0.213  -2.336  -1.805  0.00  0.00     0.002 A 
ATOM      4  C6  UNL d   1      -1.126  -2.252  -1.431  0.00  0.00    -0.004 A 
ATOM      5  C7  UNL d   1      -1.460  -1.907  -0.123  0.00  0.00     0.002 A 
ATOM      6  C8  UNL d   1      -0.455  -1.634   0.808  0.00  0.00     0.002 A 
ENDROOT
BRANCH   1   7
ATOM      7  C2  UNL d   1       1.978  -1.383   1.441  0.00  0.00     0.056 C 
BRANCH   7   8
ATOM      8  C1  UNL d   1       2.155   0.114   1.712  0.00  0.00     0.007 C 
ATOM      9  C   UNL d   1       3.170   0.775   0.788  0.00  0.00     0.009 C 
ENDBRANCH   7   8
ENDBRANCH   1   7
TORSDOF 2
ENDMDL
