MODEL 1
REMARK minimizedAffinity 7.53991652
REMARK minimizedRMSD -1
REMARK  2 active torsions:
REMARK  status: ('A' for Active; 'I' for Inactive)
REMARK    1  A    between atoms: C1_2  and  C2_3 
REMARK    2  A    between atoms: C2_3  and  C3_4 
ROOT
ATOM      1  C3  UNL d   1       2.680  -3.844   3.431  0.00  0.00    -0.075 A 
ATOM      2  C4  UNL d   1       2.045  -4.843   2.679  0.00  0.00     0.002 A 
ATOM      3  C5  UNL d   1       1.038  -4.513   1.771  0.00  0.00     0.002 A 
ATOM      4  C6  UNL d   1       0.648  -3.185   1.611  0.00  0.00    -0.004 A 
ATOM      5  C7  UNL d   1       1.260  -2.187   2.365  0.00  0.00     0.002 A 
ATOM      6  C8  UNL d   1       2.271  -2.514   3.271  0.00  0.00     0.002 A 
ENDROOT
BRANCH   1   7
ATOM      7  C2  UNL d   1       3.791  -4.191   4.394  0.00  0.00     0.056 C 
BRANCH   7   8
ATOM      8  C1  UNL d   1       4.934  -3.170   4.421  0.00  0.00     0.007 C 
ATOM      9  C   UNL d   1       6.000  -3.435   3.366  0.00  0.00     0.009 C 
ENDBRANCH   7   8
ENDBRANCH   1   7
TORSDOF 2
ENDMDL
