MODEL 1
REMARK minimizedAffinity 2.05650091
REMARK minimizedRMSD -1
REMARK  0 active torsions:
REMARK  status: ('A' for Active; 'I' for Inactive)
ROOT
ATOM      1  C   UNL d   1      -1.628   2.627  -0.090  0.00  0.00     0.172 C 
ATOM      2  N   UNL d   1      -0.382   2.348   0.585  0.00  0.00    -0.070 N 
ATOM      3  C1  UNL d   1       0.680   1.667   0.051  0.00  0.00    -0.004 A 
ATOM      4  C2  UNL d   1       1.670   1.613   1.008  0.00  0.00    -0.047 A 
ATOM      5  C3  UNL d   1       1.186   2.283   2.157  0.00  0.00    -0.047 A 
ATOM      6  C4  UNL d   1      -0.086   2.728   1.868  0.00  0.00    -0.004 A 
ENDROOT
TORSDOF 0
ENDMDL
