MODEL 1
REMARK minimizedAffinity 2.00053644
REMARK minimizedRMSD -1
REMARK  0 active torsions:
REMARK  status: ('A' for Active; 'I' for Inactive)
ROOT
ATOM      1  C   UNL d   1      -2.027   3.396   3.730  0.00  0.00     0.172 C 
ATOM      2  N   UNL d   1      -0.876   3.486   2.862  0.00  0.00    -0.070 N 
ATOM      3  C1  UNL d   1      -0.878   3.278   1.509  0.00  0.00    -0.004 A 
ATOM      4  C2  UNL d   1       0.409   3.459   1.052  0.00  0.00    -0.047 A 
ATOM      5  C3  UNL d   1       1.213   3.786   2.170  0.00  0.00    -0.047 A 
ATOM      6  C4  UNL d   1       0.392   3.797   3.277  0.00  0.00    -0.004 A 
ENDROOT
TORSDOF 0
ENDMDL
