MODEL 1
REMARK minimizedAffinity 3.1590426
REMARK minimizedRMSD -1
REMARK  0 active torsions:
REMARK  status: ('A' for Active; 'I' for Inactive)
ROOT
ATOM      1  C   UNL d   1       0.423   3.112   1.197  0.00  0.00     0.172 C 
ATOM      2  N   UNL d   1      -0.391   1.992   0.786  0.00  0.00    -0.070 N 
ATOM      3  C1  UNL d   1       0.074   0.821   0.250  0.00  0.00    -0.004 A 
ATOM      4  C2  UNL d   1      -1.012   0.012  -0.006  0.00  0.00    -0.047 A 
ATOM      5  C3  UNL d   1      -2.171   0.722   0.390  0.00  0.00    -0.047 A 
ATOM      6  C4  UNL d   1      -1.757   1.945   0.876  0.00  0.00    -0.004 A 
ENDROOT
TORSDOF 0
ENDMDL
