MODEL 1
REMARK minimizedAffinity -1.39614785
REMARK minimizedRMSD -1
REMARK  0 active torsions:
REMARK  status: ('A' for Active; 'I' for Inactive)
ROOT
ATOM      1  C   UNL d   1       3.007  -2.628  -3.307  0.00  0.00     0.172 C 
ATOM      2  N   UNL d   1       2.232  -3.843  -3.212  0.00  0.00    -0.070 N 
ATOM      3  C1  UNL d   1       0.873  -3.937  -3.353  0.00  0.00    -0.004 A 
ATOM      4  C2  UNL d   1       0.522  -5.260  -3.194  0.00  0.00    -0.047 A 
ATOM      5  C3  UNL d   1       1.712  -5.987  -2.947  0.00  0.00    -0.047 A 
ATOM      6  C4  UNL d   1       2.755  -5.085  -2.964  0.00  0.00    -0.004 A 
ENDROOT
TORSDOF 0
ENDMDL
