MODEL 1
REMARK minimizedAffinity -3.42657614
REMARK minimizedRMSD -1
REMARK  0 active torsions:
REMARK  status: ('A' for Active; 'I' for Inactive)
ROOT
ATOM      1  C   UNL d   1       0.058  -1.812   0.710  0.00  0.00     0.172 C 
ATOM      2  N   UNL d   1       0.972  -1.259  -0.261  0.00  0.00    -0.070 N 
ATOM      3  C1  UNL d   1       1.599  -0.046  -0.166  0.00  0.00    -0.004 A 
ATOM      4  C2  UNL d   1       2.385   0.112  -1.287  0.00  0.00    -0.047 A 
ATOM      5  C3  UNL d   1       2.224  -1.046  -2.084  0.00  0.00    -0.047 A 
ATOM      6  C4  UNL d   1       1.344  -1.879  -1.425  0.00  0.00    -0.004 A 
ENDROOT
TORSDOF 0
ENDMDL
