MODEL 1
REMARK minimizedAffinity -1.9465822
REMARK minimizedRMSD -1
REMARK  0 active torsions:
REMARK  status: ('A' for Active; 'I' for Inactive)
ROOT
ATOM      1  C   UNL d   1      -0.467   2.700   0.788  0.00  0.00     0.172 C 
ATOM      2  N   UNL d   1      -0.182   1.287   0.883  0.00  0.00    -0.070 N 
ATOM      3  C1  UNL d   1       1.051   0.709   0.737  0.00  0.00    -0.004 A 
ATOM      4  C2  UNL d   1       0.901  -0.651   0.898  0.00  0.00    -0.047 A 
ATOM      5  C3  UNL d   1      -0.469  -0.900   1.149  0.00  0.00    -0.047 A 
ATOM      6  C4  UNL d   1      -1.117   0.318   1.133  0.00  0.00    -0.004 A 
ENDROOT
TORSDOF 0
ENDMDL
