MODEL 1
REMARK minimizedAffinity 0.209270507
REMARK minimizedRMSD -1
REMARK  0 active torsions:
REMARK  status: ('A' for Active; 'I' for Inactive)
ROOT
ATOM      1  C   UNL d   1       1.552   1.885  -5.998  0.00  0.00     0.172 C 
ATOM      2  N   UNL d   1       2.633   2.589  -5.349  0.00  0.00    -0.070 N 
ATOM      3  C1  UNL d   1       2.867   2.624  -4.000  0.00  0.00    -0.004 A 
ATOM      4  C2  UNL d   1       3.987   3.398  -3.786  0.00  0.00    -0.047 A 
ATOM      5  C3  UNL d   1       4.441   3.845  -5.050  0.00  0.00    -0.047 A 
ATOM      6  C4  UNL d   1       3.584   3.330  -6.000  0.00  0.00    -0.004 A 
ENDROOT
TORSDOF 0
ENDMDL
