MODEL 1
REMARK minimizedAffinity -0.595627785
REMARK minimizedRMSD -1
REMARK  0 active torsions:
REMARK  status: ('A' for Active; 'I' for Inactive)
ROOT
ATOM      1  C   UNL d   1       1.773   0.475   0.528  0.00  0.00     0.172 C 
ATOM      2  N   UNL d   1       0.426   0.964   0.706  0.00  0.00    -0.070 N 
ATOM      3  C1  UNL d   1      -0.715   0.214   0.602  0.00  0.00    -0.004 A 
ATOM      4  C2  UNL d   1      -1.789   1.044   0.840  0.00  0.00    -0.047 A 
ATOM      5  C3  UNL d   1      -1.276   2.338   1.095  0.00  0.00    -0.047 A 
ATOM      6  C4  UNL d   1       0.098   2.260   1.005  0.00  0.00    -0.004 A 
ENDROOT
TORSDOF 0
ENDMDL
