MODEL 1
REMARK minimizedAffinity -0.179743141
REMARK minimizedRMSD -1
REMARK  0 active torsions:
REMARK  status: ('A' for Active; 'I' for Inactive)
ROOT
ATOM      1  C   UNL d   1       0.859   0.016   0.604  0.00  0.00     0.172 C 
ATOM      2  N   UNL d   1      -0.489   0.532   0.657  0.00  0.00    -0.070 N 
ATOM      3  C1  UNL d   1      -1.633  -0.217   0.596  0.00  0.00    -0.004 A 
ATOM      4  C2  UNL d   1      -2.706   0.645   0.679  0.00  0.00    -0.047 A 
ATOM      5  C3  UNL d   1      -2.188   1.957   0.792  0.00  0.00    -0.047 A 
ATOM      6  C4  UNL d   1      -0.813   1.858   0.776  0.00  0.00    -0.004 A 
ENDROOT
TORSDOF 0
ENDMDL
