MODEL 1
REMARK minimizedAffinity -1.77390802
REMARK minimizedRMSD -1
REMARK  0 active torsions:
REMARK  status: ('A' for Active; 'I' for Inactive)
ROOT
ATOM      1  C   UNL d   1      -3.114   2.699  -5.995  0.00  0.00     0.172 C 
ATOM      2  N   UNL d   1      -3.963   3.868  -5.994  0.00  0.00    -0.070 N 
ATOM      3  C1  UNL d   1      -5.332   3.860  -5.988  0.00  0.00    -0.004 A 
ATOM      4  C2  UNL d   1      -5.761   5.170  -5.988  0.00  0.00    -0.047 A 
ATOM      5  C3  UNL d   1      -4.610   5.993  -5.996  0.00  0.00    -0.047 A 
ATOM      6  C4  UNL d   1      -3.510   5.161  -6.000  0.00  0.00    -0.004 A 
ENDROOT
TORSDOF 0
ENDMDL
