MODEL 1
REMARK minimizedAffinity -0.320207864
REMARK minimizedRMSD -1
REMARK  0 active torsions:
REMARK  status: ('A' for Active; 'I' for Inactive)
ROOT
ATOM      1  C   UNL d   1       2.111   2.689   2.454  0.00  0.00     0.172 C 
ATOM      2  N   UNL d   1       0.998   2.102   1.746  0.00  0.00    -0.070 N 
ATOM      3  C1  UNL d   1       0.990   0.867   1.154  0.00  0.00    -0.004 A 
ATOM      4  C2  UNL d   1      -0.251   0.679   0.586  0.00  0.00    -0.047 A 
ATOM      5  C3  UNL d   1      -1.016   1.841   0.845  0.00  0.00    -0.047 A 
ATOM      6  C4  UNL d   1      -0.218   2.706   1.564  0.00  0.00    -0.004 A 
ENDROOT
TORSDOF 0
ENDMDL
