MODEL 1
REMARK minimizedAffinity 1.20627511
REMARK minimizedRMSD -1
REMARK  0 active torsions:
REMARK  status: ('A' for Active; 'I' for Inactive)
ROOT
ATOM      1  C   UNL d   1       2.419   2.328   1.782  0.00  0.00     0.172 C 
ATOM      2  N   UNL d   1       1.242   1.732   1.196  0.00  0.00    -0.070 N 
ATOM      3  C1  UNL d   1       1.194   0.524   0.554  0.00  0.00    -0.004 A 
ATOM      4  C2  UNL d   1      -0.104   0.315   0.143  0.00  0.00    -0.047 A 
ATOM      5  C3  UNL d   1      -0.863   1.437   0.551  0.00  0.00    -0.047 A 
ATOM      6  C4  UNL d   1      -0.005   2.299   1.201  0.00  0.00    -0.004 A 
ENDROOT
TORSDOF 0
ENDMDL
