MODEL 1
REMARK minimizedAffinity 2.13550735
REMARK minimizedRMSD -1
REMARK  0 active torsions:
REMARK  status: ('A' for Active; 'I' for Inactive)
ROOT
ATOM      1  C   UNL d   1       0.133   2.633   2.070  0.00  0.00     0.172 C 
ATOM      2  N   UNL d   1      -0.977   1.946   1.451  0.00  0.00    -0.070 N 
ATOM      3  C1  UNL d   1      -1.985   2.538   0.740  0.00  0.00    -0.004 A 
ATOM      4  C2  UNL d   1      -2.843   1.546   0.318  0.00  0.00    -0.047 A 
ATOM      5  C3  UNL d   1      -2.333   0.314   0.794  0.00  0.00    -0.047 A 
ATOM      6  C4  UNL d   1      -1.177   0.592   1.492  0.00  0.00    -0.004 A 
ENDROOT
TORSDOF 0
ENDMDL
