MODEL 1
REMARK minimizedAffinity 1.15098107
REMARK minimizedRMSD -1
REMARK  0 active torsions:
REMARK  status: ('A' for Active; 'I' for Inactive)
ROOT
ATOM      1  C   UNL d   1       1.554   0.186   0.391  0.00  0.00     0.172 C 
ATOM      2  N   UNL d   1       0.181   0.421   0.775  0.00  0.00    -0.070 N 
ATOM      3  C1  UNL d   1      -0.763  -0.546   0.994  0.00  0.00    -0.004 A 
ATOM      4  C2  UNL d   1      -1.939   0.084   1.341  0.00  0.00    -0.047 A 
ATOM      5  C3  UNL d   1      -1.693   1.477   1.330  0.00  0.00    -0.047 A 
ATOM      6  C4  UNL d   1      -0.372   1.658   0.976  0.00  0.00    -0.004 A 
ENDROOT
TORSDOF 0
ENDMDL
