MODEL 1
REMARK minimizedAffinity -6.31920242
REMARK minimizedRMSD -1
REMARK  0 active torsions:
REMARK  status: ('A' for Active; 'I' for Inactive)
ROOT
ATOM      1  O1  BZF d   1      -0.171   0.903  -0.706  0.00  0.00    -0.204 OA
ATOM      2  C2  BZF d   1       0.951   0.945   0.098  0.00  0.00     0.174 A 
ATOM      3  C3  BZF d   1       0.856   0.046   1.099  0.00  0.00    -0.012 A 
ATOM      4  C3A BZF d   1      -0.363  -0.662   0.855  0.00  0.00    -0.107 A 
ATOM      5  C4  BZF d   1      -0.998  -1.688   1.495  0.00  0.00     0.055 A 
ATOM      6  C5  BZF d   1      -2.211  -2.099   1.042  0.00  0.00    -0.016 A 
ATOM      7  C6  BZF d   1      -2.820  -1.505  -0.044  0.00  0.00     0.022 A 
ATOM      8  C7  BZF d   1      -2.227  -0.488  -0.715  0.00  0.00     0.029 A 
ATOM      9  C7A BZF d   1      -0.986  -0.092  -0.279  0.00  0.00     0.058 A 
ENDROOT
TORSDOF 0
ENDMDL
