MODEL 1
REMARK minimizedAffinity -0.903556705
REMARK minimizedRMSD -1
REMARK  0 active torsions:
REMARK  status: ('A' for Active; 'I' for Inactive)
ROOT
ATOM      1  O1  BZF d   1       1.731  -0.265   1.458  0.00  0.00    -0.204 OA
ATOM      2  C2  BZF d   1       1.988   0.793   0.608  0.00  0.00     0.174 A 
ATOM      3  C3  BZF d   1       0.900   1.088  -0.132  0.00  0.00    -0.012 A 
ATOM      4  C3A BZF d   1      -0.128   0.215   0.346  0.00  0.00    -0.107 A 
ATOM      5  C4  BZF d   1      -1.442   0.042   0.015  0.00  0.00     0.055 A 
ATOM      6  C5  BZF d   1      -2.151  -0.946   0.621  0.00  0.00    -0.016 A 
ATOM      7  C6  BZF d   1      -1.578  -1.781   1.558  0.00  0.00     0.022 A 
ATOM      8  C7  BZF d   1      -0.280  -1.645   1.922  0.00  0.00     0.029 A 
ATOM      9  C7A BZF d   1       0.431  -0.626   1.336  0.00  0.00     0.058 A 
ENDROOT
TORSDOF 0
ENDMDL
