MODEL 1
REMARK minimizedAffinity -0.154417604
REMARK minimizedRMSD -1
REMARK  0 active torsions:
REMARK  status: ('A' for Active; 'I' for Inactive)
ROOT
ATOM      1  O1  BZF d   1      -1.064   1.414   0.654  0.00  0.00    -0.204 OA
ATOM      2  C2  BZF d   1      -1.305   0.067   0.465  0.00  0.00     0.174 A 
ATOM      3  C3  BZF d   1      -0.174  -0.577   0.111  0.00  0.00    -0.012 A 
ATOM      4  C3A BZF d   1       0.856   0.415   0.168  0.00  0.00    -0.107 A 
ATOM      5  C4  BZF d   1       2.202   0.384  -0.061  0.00  0.00     0.055 A 
ATOM      6  C5  BZF d   1       2.911   1.541   0.009  0.00  0.00    -0.016 A 
ATOM      7  C6  BZF d   1       2.306   2.746   0.299  0.00  0.00     0.022 A 
ATOM      8  C7  BZF d   1       0.974   2.826   0.539  0.00  0.00     0.029 A 
ATOM      9  C7A BZF d   1       0.261   1.653   0.501  0.00  0.00     0.058 A 
ENDROOT
TORSDOF 0
ENDMDL
