MODEL 1
REMARK minimizedAffinity -5.41749573
REMARK minimizedRMSD -1
REMARK  0 active torsions:
REMARK  status: ('A' for Active; 'I' for Inactive)
ROOT
ATOM      1  O1  BZF d   1       1.026  -0.157  -0.959  0.00  0.00    -0.204 OA
ATOM      2  C2  BZF d   1       1.164   0.013   0.405  0.00  0.00     0.174 A 
ATOM      3  C3  BZF d   1      -0.035  -0.060   1.019  0.00  0.00    -0.012 A 
ATOM      4  C3A BZF d   1      -0.969  -0.382  -0.015  0.00  0.00    -0.107 A 
ATOM      5  C4  BZF d   1      -2.317  -0.603  -0.028  0.00  0.00     0.055 A 
ATOM      6  C5  BZF d   1      -2.939  -0.824  -1.216  0.00  0.00    -0.016 A 
ATOM      7  C6  BZF d   1      -2.246  -0.825  -2.409  0.00  0.00     0.022 A 
ATOM      8  C7  BZF d   1      -0.907  -0.616  -2.446  0.00  0.00     0.029 A 
ATOM      9  C7A BZF d   1      -0.271  -0.426  -1.244  0.00  0.00     0.058 A 
ENDROOT
TORSDOF 0
ENDMDL
