MODEL 1
REMARK minimizedAffinity -4.08061934
REMARK minimizedRMSD -1
REMARK  0 active torsions:
REMARK  status: ('A' for Active; 'I' for Inactive)
ROOT
ATOM      1  O1  BZF d   1      -0.333   0.162  -1.812  0.00  0.00    -0.204 OA
ATOM      2  C2  BZF d   1      -1.074  -0.267  -2.895  0.00  0.00     0.174 A 
ATOM      3  C3  BZF d   1      -2.136  -0.994  -2.491  0.00  0.00    -0.012 A 
ATOM      4  C3A BZF d   1      -2.104  -0.943  -1.061  0.00  0.00    -0.107 A 
ATOM      5  C4  BZF d   1      -2.907  -1.461  -0.085  0.00  0.00     0.055 A 
ATOM      6  C5  BZF d   1      -2.558  -1.289   1.217  0.00  0.00    -0.016 A 
ATOM      7  C6  BZF d   1      -1.412  -0.610   1.578  0.00  0.00     0.022 A 
ATOM      8  C7  BZF d   1      -0.588  -0.074   0.646  0.00  0.00     0.029 A 
ATOM      9  C7A BZF d   1      -0.955  -0.218  -0.670  0.00  0.00     0.058 A 
ENDROOT
TORSDOF 0
ENDMDL
