MODEL 1
REMARK minimizedAffinity -0.473237246
REMARK minimizedRMSD -1
REMARK  0 active torsions:
REMARK  status: ('A' for Active; 'I' for Inactive)
ROOT
ATOM      1  O1  BZF d   1      -0.920  -1.765   2.243  0.00  0.00    -0.204 OA
ATOM      2  C2  BZF d   1      -2.232  -1.423   1.979  0.00  0.00     0.174 A 
ATOM      3  C3  BZF d   1      -2.300  -0.520   0.979  0.00  0.00    -0.012 A 
ATOM      4  C3A BZF d   1      -0.951  -0.353   0.532  0.00  0.00    -0.107 A 
ATOM      5  C4  BZF d   1      -0.374   0.403  -0.448  0.00  0.00     0.055 A 
ATOM      6  C5  BZF d   1       0.979   0.394  -0.579  0.00  0.00    -0.016 A 
ATOM      7  C6  BZF d   1       1.784  -0.352   0.256  0.00  0.00     0.022 A 
ATOM      8  C7  BZF d   1       1.257  -1.121   1.240  0.00  0.00     0.029 A 
ATOM      9  C7A BZF d   1      -0.111  -1.141   1.353  0.00  0.00     0.058 A 
ENDROOT
TORSDOF 0
ENDMDL
