MODEL 1
REMARK minimizedAffinity -4.86214972
REMARK minimizedRMSD -1
REMARK  0 active torsions:
REMARK  status: ('A' for Active; 'I' for Inactive)
ROOT
ATOM      1  O1  BZF d   1       0.539  -0.687   0.872  0.00  0.00    -0.204 OA
ATOM      2  C2  BZF d   1       1.502  -0.187   0.017  0.00  0.00     0.174 A 
ATOM      3  C3  BZF d   1       0.960   0.149  -1.171  0.00  0.00    -0.012 A 
ATOM      4  C3A BZF d   1      -0.446  -0.074  -1.019  0.00  0.00    -0.107 A 
ATOM      5  C4  BZF d   1      -1.518   0.091  -1.849  0.00  0.00     0.055 A 
ATOM      6  C5  BZF d   1      -2.750  -0.289  -1.420  0.00  0.00    -0.016 A 
ATOM      7  C6  BZF d   1      -2.945  -0.843  -0.172  0.00  0.00     0.022 A 
ATOM      8  C7  BZF d   1      -1.913  -1.022   0.688  0.00  0.00     0.029 A 
ATOM      9  C7A BZF d   1      -0.672  -0.608   0.270  0.00  0.00     0.058 A 
ENDROOT
TORSDOF 0
ENDMDL
