MODEL 1
REMARK minimizedAffinity -5.109828
REMARK minimizedRMSD -1
REMARK  0 active torsions:
REMARK  status: ('A' for Active; 'I' for Inactive)
ROOT
ATOM      1  O1  BZF d   1      -1.680   0.585  -1.549  0.00  0.00    -0.204 OA
ATOM      2  C2  BZF d   1      -2.984   0.143  -1.432  0.00  0.00     0.174 A 
ATOM      3  C3  BZF d   1      -3.089  -0.785  -0.459  0.00  0.00    -0.012 A 
ATOM      4  C3A BZF d   1      -1.786  -0.865   0.127  0.00  0.00    -0.107 A 
ATOM      5  C4  BZF d   1      -1.261  -1.600   1.151  0.00  0.00     0.055 A 
ATOM      6  C5  BZF d   1       0.066  -1.497   1.425  0.00  0.00    -0.016 A 
ATOM      7  C6  BZF d   1       0.897  -0.675   0.693  0.00  0.00     0.022 A 
ATOM      8  C7  BZF d   1       0.421   0.076  -0.330  0.00  0.00     0.029 A 
ATOM      9  C7A BZF d   1      -0.926  -0.000  -0.588  0.00  0.00     0.058 A 
ENDROOT
TORSDOF 0
ENDMDL
