MODEL 1
REMARK minimizedAffinity -4.54109383
REMARK minimizedRMSD -1
REMARK  0 active torsions:
REMARK  status: ('A' for Active; 'I' for Inactive)
ROOT
ATOM      1  O1  BZF d   1      -2.311  -1.348   0.394  0.00  0.00    -0.204 OA
ATOM      2  C2  BZF d   1      -3.079  -1.086  -0.724  0.00  0.00     0.174 A 
ATOM      3  C3  BZF d   1      -2.406  -0.308  -1.596  0.00  0.00    -0.012 A 
ATOM      4  C3A BZF d   1      -1.103  -0.146  -1.027  0.00  0.00    -0.107 A 
ATOM      5  C4  BZF d   1       0.023   0.511  -1.433  0.00  0.00     0.055 A 
ATOM      6  C5  BZF d   1       1.106   0.536  -0.611  0.00  0.00    -0.016 A 
ATOM      7  C6  BZF d   1       1.094  -0.080   0.623  0.00  0.00     0.022 A 
ATOM      8  C7  BZF d   1       0.001  -0.747   1.067  0.00  0.00     0.029 A 
ATOM      9  C7A BZF d   1      -1.082  -0.802   0.225  0.00  0.00     0.058 A 
ENDROOT
TORSDOF 0
ENDMDL
