MODEL 1
REMARK minimizedAffinity -4.8255434
REMARK minimizedRMSD -1
REMARK  0 active torsions:
REMARK  status: ('A' for Active; 'I' for Inactive)
ROOT
ATOM      1  O1  BZF d   1       0.097  -0.015  -1.094  0.00  0.00    -0.204 OA
ATOM      2  C2  BZF d   1       0.309   0.708   0.064  0.00  0.00     0.174 A 
ATOM      3  C3  BZF d   1      -0.826   0.798   0.786  0.00  0.00    -0.012 A 
ATOM      4  C3A BZF d   1      -1.787   0.009   0.078  0.00  0.00    -0.107 A 
ATOM      5  C4  BZF d   1      -3.097  -0.303   0.305  0.00  0.00     0.055 A 
ATOM      6  C5  BZF d   1      -3.771  -1.038  -0.618  0.00  0.00    -0.016 A 
ATOM      7  C6  BZF d   1      -3.168  -1.472  -1.781  0.00  0.00     0.022 A 
ATOM      8  C7  BZF d   1      -1.869  -1.192  -2.048  0.00  0.00     0.029 A 
ATOM      9  C7A BZF d   1      -1.177  -0.478  -1.101  0.00  0.00     0.058 A 
ENDROOT
TORSDOF 0
ENDMDL
