MODEL 1
REMARK minimizedAffinity 1.48330224
REMARK minimizedRMSD -1
REMARK  0 active torsions:
REMARK  status: ('A' for Active; 'I' for Inactive)
ROOT
ATOM      1  O1  BZF d   1       1.115   0.329   1.674  0.00  0.00    -0.204 OA
ATOM      2  C2  BZF d   1       0.884  -0.294   0.464  0.00  0.00     0.174 A 
ATOM      3  C3  BZF d   1       1.383   0.437  -0.554  0.00  0.00    -0.012 A 
ATOM      4  C3A BZF d   1       2.043   1.544   0.066  0.00  0.00    -0.107 A 
ATOM      5  C4  BZF d   1       2.744   2.611  -0.419  0.00  0.00     0.055 A 
ATOM      6  C5  BZF d   1       3.197   3.554   0.449  0.00  0.00    -0.016 A 
ATOM      7  C6  BZF d   1       2.963   3.464   1.806  0.00  0.00     0.022 A 
ATOM      8  C7  BZF d   1       2.277   2.421   2.335  0.00  0.00     0.029 A 
ATOM      9  C7A BZF d   1       1.846   1.450   1.464  0.00  0.00     0.058 A 
ENDROOT
TORSDOF 0
ENDMDL
