MODEL 1
REMARK minimizedAffinity -4.69617653
REMARK minimizedRMSD -1
REMARK  0 active torsions:
REMARK  status: ('A' for Active; 'I' for Inactive)
ROOT
ATOM      1  O1  BZF d   1      -3.082  -1.575  -0.456  0.00  0.00    -0.204 OA
ATOM      2  C2  BZF d   1      -2.998  -2.164   0.790  0.00  0.00     0.174 A 
ATOM      3  C3  BZF d   1      -1.868  -1.786   1.423  0.00  0.00    -0.012 A 
ATOM      4  C3A BZF d   1      -1.251  -0.833   0.553  0.00  0.00    -0.107 A 
ATOM      5  C4  BZF d   1      -0.109  -0.089   0.635  0.00  0.00     0.055 A 
ATOM      6  C5  BZF d   1       0.248   0.692  -0.418  0.00  0.00    -0.016 A 
ATOM      7  C6  BZF d   1      -0.510   0.749  -1.570  0.00  0.00     0.022 A 
ATOM      8  C7  BZF d   1      -1.653   0.032  -1.696  0.00  0.00     0.029 A 
ATOM      9  C7A BZF d   1      -2.034  -0.733  -0.620  0.00  0.00     0.058 A 
ENDROOT
TORSDOF 0
ENDMDL
