MODEL 1
REMARK minimizedAffinity -5.43840551
REMARK minimizedRMSD -1
REMARK  0 active torsions:
REMARK  status: ('A' for Active; 'I' for Inactive)
ROOT
ATOM      1  O1  BZF d   1      -0.263  -1.685   1.280  0.00  0.00    -0.204 OA
ATOM      2  C2  BZF d   1      -1.115  -2.674   1.732  0.00  0.00     0.174 A 
ATOM      3  C3  BZF d   1      -2.337  -2.543   1.175  0.00  0.00    -0.012 A 
ATOM      4  C3A BZF d   1      -2.215  -1.457   0.252  0.00  0.00    -0.107 A 
ATOM      5  C4  BZF d   1      -3.085  -0.860  -0.615  0.00  0.00     0.055 A 
ATOM      6  C5  BZF d   1      -2.673   0.225  -1.322  0.00  0.00    -0.016 A 
ATOM      7  C6  BZF d   1      -1.401   0.742  -1.183  0.00  0.00     0.022 A 
ATOM      8  C7  BZF d   1      -0.501   0.180  -0.340  0.00  0.00     0.029 A 
ATOM      9  C7A BZF d   1      -0.904  -0.937   0.351  0.00  0.00     0.058 A 
ENDROOT
TORSDOF 0
ENDMDL
