MODEL 1
REMARK minimizedAffinity -2.72059321
REMARK minimizedRMSD -1
REMARK  0 active torsions:
REMARK  status: ('A' for Active; 'I' for Inactive)
ROOT
ATOM      1  O1  BZF d   1      -2.459  -0.225  -0.918  0.00  0.00    -0.204 OA
ATOM      2  C2  BZF d   1      -3.015  -0.650   0.274  0.00  0.00     0.174 A 
ATOM      3  C3  BZF d   1      -2.055  -0.886   1.192  0.00  0.00    -0.012 A 
ATOM      4  C3A BZF d   1      -0.829  -0.502   0.562  0.00  0.00    -0.107 A 
ATOM      5  C4  BZF d   1       0.473  -0.488   0.973  0.00  0.00     0.055 A 
ATOM      6  C5  BZF d   1       1.440  -0.124   0.091  0.00  0.00    -0.016 A 
ATOM      7  C6  BZF d   1       1.142   0.227  -1.210  0.00  0.00     0.022 A 
ATOM      8  C7  BZF d   1      -0.136   0.234  -1.662  0.00  0.00     0.029 A 
ATOM      9  C7A BZF d   1      -1.119  -0.102  -0.763  0.00  0.00     0.058 A 
ENDROOT
TORSDOF 0
ENDMDL
