MODEL 1
REMARK minimizedAffinity -3.63292766
REMARK minimizedRMSD -1
REMARK  0 active torsions:
REMARK  status: ('A' for Active; 'I' for Inactive)
ROOT
ATOM      1  O1  BZF d   1       2.198   0.818   1.883  0.00  0.00    -0.204 OA
ATOM      2  C2  BZF d   1       2.896   1.942   1.486  0.00  0.00     0.174 A 
ATOM      3  C3  BZF d   1       2.518   2.329   0.250  0.00  0.00    -0.012 A 
ATOM      4  C3A BZF d   1       1.456   1.442  -0.113  0.00  0.00    -0.107 A 
ATOM      5  C4  BZF d   1       0.661   1.331  -1.218  0.00  0.00     0.055 A 
ATOM      6  C5  BZF d   1      -0.233   0.311  -1.289  0.00  0.00    -0.016 A 
ATOM      7  C6  BZF d   1      -0.356  -0.619  -0.277  0.00  0.00     0.022 A 
ATOM      8  C7  BZF d   1       0.407  -0.548   0.841  0.00  0.00     0.029 A 
ATOM      9  C7A BZF d   1       1.288   0.502   0.930  0.00  0.00     0.058 A 
ENDROOT
TORSDOF 0
ENDMDL
