MODEL 1
REMARK minimizedAffinity -1.55180538
REMARK minimizedRMSD -1
REMARK  0 active torsions:
REMARK  status: ('A' for Active; 'I' for Inactive)
ROOT
ATOM      1  O1  BZF d   1       1.738   3.614   0.345  0.00  0.00    -0.204 OA
ATOM      2  C2  BZF d   1       2.751   3.615   1.284  0.00  0.00     0.174 A 
ATOM      3  C3  BZF d   1       2.958   2.373   1.766  0.00  0.00    -0.012 A 
ATOM      4  C3A BZF d   1       2.079   1.527   1.018  0.00  0.00    -0.107 A 
ATOM      5  C4  BZF d   1       1.837   0.183   1.025  0.00  0.00     0.055 A 
ATOM      6  C5  BZF d   1       0.863  -0.317   0.221  0.00  0.00    -0.016 A 
ATOM      7  C6  BZF d   1       0.109   0.497  -0.599  0.00  0.00     0.022 A 
ATOM      8  C7  BZF d   1       0.315   1.836  -0.644  0.00  0.00     0.029 A 
ATOM      9  C7A BZF d   1       1.322   2.340   0.143  0.00  0.00     0.058 A 
ENDROOT
TORSDOF 0
ENDMDL
