MODEL 1
REMARK minimizedAffinity -3.96126914
REMARK minimizedRMSD -1
REMARK  0 active torsions:
REMARK  status: ('A' for Active; 'I' for Inactive)
ROOT
ATOM      1  O1  BZF d   1       1.038   0.613  -0.932  0.00  0.00    -0.204 OA
ATOM      2  C2  BZF d   1       1.321   0.470   0.413  0.00  0.00     0.174 A 
ATOM      3  C3  BZF d   1       0.226   0.075   1.093  0.00  0.00    -0.012 A 
ATOM      4  C3A BZF d   1      -0.783  -0.125   0.098  0.00  0.00    -0.107 A 
ATOM      5  C4  BZF d   1      -2.085  -0.533   0.150  0.00  0.00     0.055 A 
ATOM      6  C5  BZF d   1      -2.818  -0.552  -0.994  0.00  0.00    -0.016 A 
ATOM      7  C6  BZF d   1      -2.282  -0.165  -2.205  0.00  0.00     0.022 A 
ATOM      8  C7  BZF d   1      -0.994   0.243  -2.308  0.00  0.00     0.029 A 
ATOM      9  C7A BZF d   1      -0.242   0.232  -1.159  0.00  0.00     0.058 A 
ENDROOT
TORSDOF 0
ENDMDL
