MODEL 1
REMARK minimizedAffinity 10.8005219
REMARK minimizedRMSD -1
REMARK  0 active torsions:
REMARK  status: ('A' for Active; 'I' for Inactive)
ROOT
ATOM      1  C   UNL d   1       1.585   0.997  -1.959  0.00  0.00     0.020 A 
ATOM      2  C1  UNL d   1       1.012   0.815  -3.217  0.00  0.00     0.020 A 
ATOM      3  C2  UNL d   1       0.875  -0.472  -3.742  0.00  0.00     0.034 A 
ATOM      4  C3  UNL d   1       1.310  -1.581  -3.008  0.00  0.00     0.017 A 
ATOM      5  C4  UNL d   1       1.885  -1.397  -1.745  0.00  0.00     0.017 A 
ATOM      6  C5  UNL d   1       2.020  -0.106  -1.225  0.00  0.00     0.034 A 
ATOM      7 Cl   UNL d   1       2.446  -2.717  -0.781  0.00  0.00    -0.070 Cl
ATOM      8 Cl1  UNL d   1       1.109  -3.144  -3.718  0.00  0.00    -0.070 Cl
ENDROOT
TORSDOF 0
ENDMDL
