MODEL 1
REMARK minimizedAffinity 7.49564409
REMARK minimizedRMSD -1
REMARK  0 active torsions:
REMARK  status: ('A' for Active; 'I' for Inactive)
ROOT
ATOM      1  C   UNL d   1      -4.916   4.470   1.212  0.00  0.00     0.020 A 
ATOM      2  C1  UNL d   1      -4.618   5.570   2.016  0.00  0.00     0.020 A 
ATOM      3  C2  UNL d   1      -3.537   5.517   2.898  0.00  0.00     0.034 A 
ATOM      4  C3  UNL d   1      -2.750   4.363   2.980  0.00  0.00     0.017 A 
ATOM      5  C4  UNL d   1      -3.050   3.259   2.173  0.00  0.00     0.017 A 
ATOM      6  C5  UNL d   1      -4.134   3.317   1.291  0.00  0.00     0.034 A 
ATOM      7 Cl   UNL d   1      -2.125   1.800   2.217  0.00  0.00    -0.070 Cl
ATOM      8 Cl1  UNL d   1      -1.429   4.368   4.093  0.00  0.00    -0.070 Cl
ENDROOT
TORSDOF 0
ENDMDL
