MODEL 1
REMARK minimizedAffinity 6.53708887
REMARK minimizedRMSD -1
REMARK  0 active torsions:
REMARK  status: ('A' for Active; 'I' for Inactive)
ROOT
ATOM      1  C   UNL d   1      -5.250  -0.466   5.240  0.00  0.00     0.020 A 
ATOM      2  C1  UNL d   1      -6.000  -1.140   4.277  0.00  0.00     0.020 A 
ATOM      3  C2  UNL d   1      -5.458  -1.381   3.013  0.00  0.00     0.034 A 
ATOM      4  C3  UNL d   1      -4.163  -0.947   2.708  0.00  0.00     0.017 A 
ATOM      5  C4  UNL d   1      -3.411  -0.270   3.675  0.00  0.00     0.017 A 
ATOM      6  C5  UNL d   1      -3.958  -0.032   4.939  0.00  0.00     0.034 A 
ATOM      7 Cl   UNL d   1      -1.806   0.295   3.373  0.00  0.00    -0.070 Cl
ATOM      8 Cl1  UNL d   1      -3.556  -1.279   1.124  0.00  0.00    -0.070 Cl
ENDROOT
TORSDOF 0
ENDMDL
