MODEL 1
REMARK minimizedAffinity 10.7485018
REMARK minimizedRMSD -1
REMARK  0 active torsions:
REMARK  status: ('A' for Active; 'I' for Inactive)
ROOT
ATOM      1  C   UNL d   1      -2.160   0.749   2.604  0.00  0.00     0.020 A 
ATOM      2  C1  UNL d   1      -2.619   2.037   2.879  0.00  0.00     0.020 A 
ATOM      3  C2  UNL d   1      -2.632   3.003   1.871  0.00  0.00     0.034 A 
ATOM      4  C3  UNL d   1      -2.185   2.683   0.583  0.00  0.00     0.017 A 
ATOM      5  C4  UNL d   1      -1.725   1.390   0.309  0.00  0.00     0.017 A 
ATOM      6  C5  UNL d   1      -1.714   0.427   1.322  0.00  0.00     0.034 A 
ATOM      7 Cl   UNL d   1      -1.158   0.921  -1.255  0.00  0.00    -0.070 Cl
ATOM      8 Cl1  UNL d   1      -2.228   3.928  -0.615  0.00  0.00    -0.070 Cl
ENDROOT
TORSDOF 0
ENDMDL
