MODEL 1
REMARK minimizedAffinity 12.1671972
REMARK minimizedRMSD -1
REMARK  0 active torsions:
REMARK  status: ('A' for Active; 'I' for Inactive)
ROOT
ATOM      1  C   UNL d   1      -1.498   1.641   3.371  0.00  0.00     0.020 A 
ATOM      2  C1  UNL d   1      -2.352   0.668   3.889  0.00  0.00     0.020 A 
ATOM      3  C2  UNL d   1      -2.809  -0.367   3.070  0.00  0.00     0.034 A 
ATOM      4  C3  UNL d   1      -2.414  -0.430   1.729  0.00  0.00     0.017 A 
ATOM      5  C4  UNL d   1      -1.557   0.547   1.210  0.00  0.00     0.017 A 
ATOM      6  C5  UNL d   1      -1.102   1.581   2.035  0.00  0.00     0.034 A 
ATOM      7 Cl   UNL d   1      -1.025   0.536  -0.434  0.00  0.00    -0.070 Cl
ATOM      8 Cl1  UNL d   1      -3.017  -1.738   0.774  0.00  0.00    -0.070 Cl
ENDROOT
TORSDOF 0
ENDMDL
