MODEL 1
REMARK minimizedAffinity 6.36298037
REMARK minimizedRMSD -1
REMARK  0 active torsions:
REMARK  status: ('A' for Active; 'I' for Inactive)
ROOT
ATOM      1  C   UNL d   1       2.066   0.125  -1.375  0.00  0.00     0.020 A 
ATOM      2  C1  UNL d   1       1.331  -0.708  -2.218  0.00  0.00     0.020 A 
ATOM      3  C2  UNL d   1       0.852  -0.221  -3.436  0.00  0.00     0.034 A 
ATOM      4  C3  UNL d   1       1.108   1.102  -3.815  0.00  0.00     0.017 A 
ATOM      5  C4  UNL d   1       1.845   1.937  -2.968  0.00  0.00     0.017 A 
ATOM      6  C5  UNL d   1       2.322   1.444  -1.749  0.00  0.00     0.034 A 
ATOM      7 Cl   UNL d   1       2.201   3.581  -3.366  0.00  0.00    -0.070 Cl
ATOM      8 Cl1  UNL d   1       0.486   1.637  -5.335  0.00  0.00    -0.070 Cl
ENDROOT
TORSDOF 0
ENDMDL
