MODEL 1
REMARK minimizedAffinity 10.3478174
REMARK minimizedRMSD -1
REMARK  0 active torsions:
REMARK  status: ('A' for Active; 'I' for Inactive)
ROOT
ATOM      1  C   UNL d   1      -1.497   0.007   1.909  0.00  0.00     0.020 A 
ATOM      2  C1  UNL d   1      -2.313  -0.941   2.524  0.00  0.00     0.020 A 
ATOM      3  C2  UNL d   1      -2.851  -0.684   3.787  0.00  0.00     0.034 A 
ATOM      4  C3  UNL d   1      -2.573   0.523   4.439  0.00  0.00     0.017 A 
ATOM      5  C4  UNL d   1      -1.753   1.474   3.820  0.00  0.00     0.017 A 
ATOM      6  C5  UNL d   1      -1.218   1.212   2.556  0.00  0.00     0.034 A 
ATOM      7 Cl   UNL d   1      -1.365   2.986   4.562  0.00  0.00    -0.070 Cl
ATOM      8 Cl1  UNL d   1      -3.272   0.773   5.999  0.00  0.00    -0.070 Cl
ENDROOT
TORSDOF 0
ENDMDL
