MODEL 1
REMARK minimizedAffinity 9.33611584
REMARK minimizedRMSD -1
REMARK  0 active torsions:
REMARK  status: ('A' for Active; 'I' for Inactive)
ROOT
ATOM      1  C   UNL d   1      -1.813   0.429   0.491  0.00  0.00     0.020 A 
ATOM      2  C1  UNL d   1      -2.591  -0.681   0.819  0.00  0.00     0.020 A 
ATOM      3  C2  UNL d   1      -2.987  -0.889   2.142  0.00  0.00     0.034 A 
ATOM      4  C3  UNL d   1      -2.606   0.013   3.142  0.00  0.00     0.017 A 
ATOM      5  C4  UNL d   1      -1.826   1.127   2.811  0.00  0.00     0.017 A 
ATOM      6  C5  UNL d   1      -1.432   1.331   1.485  0.00  0.00     0.034 A 
ATOM      7 Cl   UNL d   1      -1.317   2.285   3.990  0.00  0.00    -0.070 Cl
ATOM      8 Cl1  UNL d   1      -3.133  -0.307   4.756  0.00  0.00    -0.070 Cl
ENDROOT
TORSDOF 0
ENDMDL
