MODEL 1
REMARK minimizedAffinity 6.738132
REMARK minimizedRMSD -1
REMARK  0 active torsions:
REMARK  status: ('A' for Active; 'I' for Inactive)
ROOT
ATOM      1  C   UNL d   1       1.017   0.924  -2.987  0.00  0.00     0.020 A 
ATOM      2  C1  UNL d   1       2.174   1.534  -2.504  0.00  0.00     0.020 A 
ATOM      3  C2  UNL d   1       3.052   0.818  -1.688  0.00  0.00     0.034 A 
ATOM      4  C3  UNL d   1       2.776  -0.513  -1.353  0.00  0.00     0.017 A 
ATOM      5  C4  UNL d   1       1.614  -1.125  -1.839  0.00  0.00     0.017 A 
ATOM      6  C5  UNL d   1       0.738  -0.403  -2.655  0.00  0.00     0.034 A 
ATOM      7 Cl   UNL d   1       1.205  -2.763  -1.469  0.00  0.00    -0.070 Cl
ATOM      8 Cl1  UNL d   1       3.907  -1.339  -0.341  0.00  0.00    -0.070 Cl
ENDROOT
TORSDOF 0
ENDMDL
