MODEL 1
REMARK minimizedAffinity 8.16544056
REMARK minimizedRMSD -1
REMARK  0 active torsions:
REMARK  status: ('A' for Active; 'I' for Inactive)
ROOT
ATOM      1  C   UNL d   1       0.131  -2.687  -3.659  0.00  0.00     0.020 A 
ATOM      2  C1  UNL d   1       0.711  -3.722  -2.926  0.00  0.00     0.020 A 
ATOM      3  C2  UNL d   1       1.642  -3.433  -1.926  0.00  0.00     0.034 A 
ATOM      4  C3  UNL d   1       1.996  -2.106  -1.657  0.00  0.00     0.017 A 
ATOM      5  C4  UNL d   1       1.414  -1.068  -2.393  0.00  0.00     0.017 A 
ATOM      6  C5  UNL d   1       0.482  -1.363  -3.393  0.00  0.00     0.034 A 
ATOM      7 Cl   UNL d   1       1.800   0.594  -2.118  0.00  0.00    -0.070 Cl
ATOM      8 Cl1  UNL d   1       3.153  -1.821  -0.406  0.00  0.00    -0.070 Cl
ENDROOT
TORSDOF 0
ENDMDL
