MODEL 1
REMARK minimizedAffinity 9.94972897
REMARK minimizedRMSD -1
REMARK  0 active torsions:
REMARK  status: ('A' for Active; 'I' for Inactive)
ROOT
ATOM      1  C   UNL d   1       4.371   5.709   3.797  0.00  0.00     0.020 A 
ATOM      2  C1  UNL d   1       5.567   5.004   3.666  0.00  0.00     0.020 A 
ATOM      3  C2  UNL d   1       5.995   4.584   2.404  0.00  0.00     0.034 A 
ATOM      4  C3  UNL d   1       5.227   4.870   1.269  0.00  0.00     0.017 A 
ATOM      5  C4  UNL d   1       4.028   5.579   1.402  0.00  0.00     0.017 A 
ATOM      6  C5  UNL d   1       3.604   5.996   2.668  0.00  0.00     0.034 A 
ATOM      7 Cl   UNL d   1       3.027   5.969   0.048  0.00  0.00    -0.070 Cl
ATOM      8 Cl1  UNL d   1       5.818   4.322  -0.259  0.00  0.00    -0.070 Cl
ENDROOT
TORSDOF 0
ENDMDL
