MODEL 1
REMARK minimizedAffinity 9.12247372
REMARK minimizedRMSD -1
REMARK  0 active torsions:
REMARK  status: ('A' for Active; 'I' for Inactive)
ROOT
ATOM      1  C   UNL d   1      -1.165   1.016   2.608  0.00  0.00     0.020 A 
ATOM      2  C1  UNL d   1      -2.378   0.352   2.791  0.00  0.00     0.020 A 
ATOM      3  C2  UNL d   1      -2.953  -0.355   1.734  0.00  0.00     0.034 A 
ATOM      4  C3  UNL d   1      -2.317  -0.400   0.488  0.00  0.00     0.017 A 
ATOM      5  C4  UNL d   1      -1.099   0.266   0.305  0.00  0.00     0.017 A 
ATOM      6  C5  UNL d   1      -0.527   0.973   1.368  0.00  0.00     0.034 A 
ATOM      7 Cl   UNL d   1      -0.254   0.255  -1.202  0.00  0.00    -0.070 Cl
ATOM      8 Cl1  UNL d   1      -3.085  -1.294  -0.775  0.00  0.00    -0.070 Cl
ENDROOT
TORSDOF 0
ENDMDL
