MODEL 1
REMARK minimizedAffinity 5.94787359
REMARK minimizedRMSD -1
REMARK  0 active torsions:
REMARK  status: ('A' for Active; 'I' for Inactive)
ROOT
ATOM      1  C   UNL d   1       5.568   5.144   3.209  0.00  0.00     0.020 A 
ATOM      2  C1  UNL d   1       4.348   5.810   3.316  0.00  0.00     0.020 A 
ATOM      3  C2  UNL d   1       3.550   5.991   2.184  0.00  0.00     0.034 A 
ATOM      4  C3  UNL d   1       3.971   5.505   0.941  0.00  0.00     0.017 A 
ATOM      5  C4  UNL d   1       5.196   4.836   0.835  0.00  0.00     0.017 A 
ATOM      6  C5  UNL d   1       5.991   4.658   1.971  0.00  0.00     0.034 A 
ATOM      7 Cl   UNL d   1       5.783   4.209  -0.665  0.00  0.00    -0.070 Cl
ATOM      8 Cl1  UNL d   1       2.934   5.763  -0.416  0.00  0.00    -0.070 Cl
ENDROOT
TORSDOF 0
ENDMDL
