MODEL 1
REMARK minimizedAffinity 12.4406862
REMARK minimizedRMSD -1
REMARK  0 active torsions:
REMARK  status: ('A' for Active; 'I' for Inactive)
ROOT
ATOM      1  C   UNL d   1       1.472  -2.861  -2.541  0.00  0.00     0.020 A 
ATOM      2  C1  UNL d   1       1.104  -3.382  -3.781  0.00  0.00     0.020 A 
ATOM      3  C2  UNL d   1       0.704  -2.524  -4.808  0.00  0.00     0.034 A 
ATOM      4  C3  UNL d   1       0.671  -1.141  -4.597  0.00  0.00     0.017 A 
ATOM      5  C4  UNL d   1       1.040  -0.619  -3.352  0.00  0.00     0.017 A 
ATOM      6  C5  UNL d   1       1.440  -1.482  -2.327  0.00  0.00     0.034 A 
ATOM      7 Cl   UNL d   1       1.024   1.076  -3.016  0.00  0.00    -0.070 Cl
ATOM      8 Cl1  UNL d   1       0.166  -0.140  -5.911  0.00  0.00    -0.070 Cl
ENDROOT
TORSDOF 0
ENDMDL
