MODEL 1
REMARK minimizedAffinity 6.0474124
REMARK minimizedRMSD -1
REMARK  0 active torsions:
REMARK  status: ('A' for Active; 'I' for Inactive)
ROOT
ATOM      1  C   UNL d   1       2.276  -0.033  -2.425  0.00  0.00     0.020 A 
ATOM      2  C1  UNL d   1       0.998  -0.385  -1.996  0.00  0.00     0.020 A 
ATOM      3  C2  UNL d   1      -0.011   0.579  -1.942  0.00  0.00     0.034 A 
ATOM      4  C3  UNL d   1       0.257   1.900  -2.317  0.00  0.00     0.017 A 
ATOM      5  C4  UNL d   1       1.541   2.253  -2.748  0.00  0.00     0.017 A 
ATOM      6  C5  UNL d   1       2.547   1.284  -2.800  0.00  0.00     0.034 A 
ATOM      7 Cl   UNL d   1       1.947   3.863  -3.227  0.00  0.00    -0.070 Cl
ATOM      8 Cl1  UNL d   1      -1.039   3.040  -2.226  0.00  0.00    -0.070 Cl
ENDROOT
TORSDOF 0
ENDMDL
