MODEL 1
REMARK minimizedAffinity 11.4157782
REMARK minimizedRMSD -1
REMARK  0 active torsions:
REMARK  status: ('A' for Active; 'I' for Inactive)
ROOT
ATOM      1  C   UNL d   1      -4.236   5.614   2.403  0.00  0.00     0.020 A 
ATOM      2  C1  UNL d   1      -4.454   4.532   1.552  0.00  0.00     0.020 A 
ATOM      3  C2  UNL d   1      -3.714   3.358   1.711  0.00  0.00     0.034 A 
ATOM      4  C3  UNL d   1      -2.753   3.264   2.724  0.00  0.00     0.017 A 
ATOM      5  C4  UNL d   1      -2.535   4.351   3.578  0.00  0.00     0.017 A 
ATOM      6  C5  UNL d   1      -3.279   5.523   3.415  0.00  0.00     0.034 A 
ATOM      7 Cl   UNL d   1      -1.367   4.309   4.852  0.00  0.00    -0.070 Cl
ATOM      8 Cl1  UNL d   1      -1.875   1.782   2.863  0.00  0.00    -0.070 Cl
ENDROOT
TORSDOF 0
ENDMDL
