MODEL 1
REMARK minimizedAffinity 3.31110072
REMARK minimizedRMSD -1
REMARK  0 active torsions:
REMARK  status: ('A' for Active; 'I' for Inactive)
ROOT
ATOM      1  C   UNL d   1       5.967   5.999   3.046  0.00  0.00     0.020 A 
ATOM      2  C1  UNL d   1       5.547   4.916   3.817  0.00  0.00     0.020 A 
ATOM      3  C2  UNL d   1       4.924   3.825   3.207  0.00  0.00     0.034 A 
ATOM      4  C3  UNL d   1       4.718   3.815   1.823  0.00  0.00     0.017 A 
ATOM      5  C4  UNL d   1       5.140   4.902   1.050  0.00  0.00     0.017 A 
ATOM      6  C5  UNL d   1       5.764   5.992   1.665  0.00  0.00     0.034 A 
ATOM      7 Cl   UNL d   1       4.922   4.962  -0.664  0.00  0.00    -0.070 Cl
ATOM      8 Cl1  UNL d   1       3.942   2.432   1.136  0.00  0.00    -0.070 Cl
ENDROOT
TORSDOF 0
ENDMDL
