MODEL 1
REMARK minimizedAffinity 2.99248075
REMARK minimizedRMSD -1
REMARK  0 active torsions:
REMARK  status: ('A' for Active; 'I' for Inactive)
ROOT
ATOM      1  C   UNL d   1      -3.783   2.264   1.502  0.00  0.00     0.020 A 
ATOM      2  C1  UNL d   1      -2.500   2.067   2.010  0.00  0.00     0.020 A 
ATOM      3  C2  UNL d   1      -2.281   1.106   3.000  0.00  0.00     0.034 A 
ATOM      4  C3  UNL d   1      -3.347   0.340   3.485  0.00  0.00     0.017 A 
ATOM      5  C4  UNL d   1      -4.635   0.539   2.974  0.00  0.00     0.017 A 
ATOM      6  C5  UNL d   1      -4.848   1.502   1.983  0.00  0.00     0.034 A 
ATOM      7 Cl   UNL d   1      -6.000  -0.367   3.523  0.00  0.00    -0.070 Cl
ATOM      8 Cl1  UNL d   1      -3.004  -0.829   4.710  0.00  0.00    -0.070 Cl
ENDROOT
TORSDOF 0
ENDMDL
