MODEL 1
REMARK minimizedAffinity 1.78529263
REMARK minimizedRMSD -1
REMARK  0 active torsions:
REMARK  status: ('A' for Active; 'I' for Inactive)
ROOT
ATOM      1  C   UNL d   1       3.988   5.540   1.458  0.00  0.00     0.077 C 
ATOM      2  C1  UNL d   1       3.394   4.180   1.242  0.00  0.00    -0.074 A 
ATOM      3  C2  UNL d   1       4.210   3.055   1.091  0.00  0.00    -0.005 A 
ATOM      4  C3  UNL d   1       3.643   1.795   0.900  0.00  0.00     0.006 A 
ATOM      5  C4  UNL d   1       2.256   1.648   0.859  0.00  0.00    -0.005 A 
ATOM      6  C5  UNL d   1       1.423   2.762   1.009  0.00  0.00    -0.074 A 
ATOM      7  C6  UNL d   1      -0.069   2.620   0.977  0.00  0.00     0.077 C 
ATOM      8  C7  UNL d   1       2.001   4.023   1.207  0.00  0.00    -0.001 A 
ENDROOT
TORSDOF 0
ENDMDL
