MODEL 1
REMARK minimizedAffinity -0.0836749598
REMARK minimizedRMSD -1
REMARK  0 active torsions:
REMARK  status: ('A' for Active; 'I' for Inactive)
ROOT
ATOM      1  C   UNL d   1       3.228  -4.841  -1.829  0.00  0.00     0.077 C 
ATOM      2  C1  UNL d   1       3.333  -5.208  -3.279  0.00  0.00    -0.074 A 
ATOM      3  C2  UNL d   1       2.218  -5.671  -3.986  0.00  0.00    -0.005 A 
ATOM      4  C3  UNL d   1       2.329  -6.000  -5.337  0.00  0.00     0.006 A 
ATOM      5  C4  UNL d   1       3.553  -5.869  -5.994  0.00  0.00    -0.005 A 
ATOM      6  C5  UNL d   1       4.678  -5.406  -5.304  0.00  0.00    -0.074 A 
ATOM      7  C6  UNL d   1       5.999  -5.250  -5.998  0.00  0.00     0.077 C 
ATOM      8  C7  UNL d   1       4.557  -5.072  -3.949  0.00  0.00    -0.001 A 
ENDROOT
TORSDOF 0
ENDMDL
