MODEL 1
REMARK minimizedAffinity 4.98978281
REMARK minimizedRMSD -1
REMARK  0 active torsions:
REMARK  status: ('A' for Active; 'I' for Inactive)
ROOT
ATOM      1  C   UNL d   1       5.432  -5.580  -2.283  0.00  0.00     0.077 C 
ATOM      2  C1  UNL d   1       4.679  -5.647  -3.578  0.00  0.00    -0.074 A 
ATOM      3  C2  UNL d   1       5.353  -5.625  -4.804  0.00  0.00    -0.005 A 
ATOM      4  C3  UNL d   1       4.639  -5.697  -6.000  0.00  0.00     0.006 A 
ATOM      5  C4  UNL d   1       3.247  -5.792  -5.983  0.00  0.00    -0.005 A 
ATOM      6  C5  UNL d   1       2.556  -5.817  -4.768  0.00  0.00    -0.074 A 
ATOM      7  C6  UNL d   1       1.061  -5.929  -4.732  0.00  0.00     0.077 C 
ATOM      8  C7  UNL d   1       3.281  -5.751  -3.570  0.00  0.00    -0.001 A 
ENDROOT
TORSDOF 0
ENDMDL
