MODEL 1
REMARK minimizedAffinity 10.8038702
REMARK minimizedRMSD -1
REMARK  0 active torsions:
REMARK  status: ('A' for Active; 'I' for Inactive)
ROOT
ATOM      1  C   UNL d   1       1.004  -5.986  -5.937  0.00  0.00     0.077 C 
ATOM      2  C1  UNL d   1       2.244  -5.597  -5.188  0.00  0.00    -0.074 A 
ATOM      3  C2  UNL d   1       2.248  -5.526  -3.791  0.00  0.00    -0.005 A 
ATOM      4  C3  UNL d   1       3.412  -5.173  -3.108  0.00  0.00     0.006 A 
ATOM      5  C4  UNL d   1       4.581  -4.887  -3.814  0.00  0.00    -0.005 A 
ATOM      6  C5  UNL d   1       4.597  -4.954  -5.211  0.00  0.00    -0.074 A 
ATOM      7  C6  UNL d   1       5.848  -4.659  -5.984  0.00  0.00     0.077 C 
ATOM      8  C7  UNL d   1       3.426  -5.316  -5.889  0.00  0.00    -0.001 A 
ENDROOT
TORSDOF 0
ENDMDL
