MODEL 1
REMARK minimizedAffinity -2.19022584
REMARK minimizedRMSD -1
REMARK  0 active torsions:
REMARK  status: ('A' for Active; 'I' for Inactive)
ROOT
ATOM      1  C   UNL d   1       4.485  -5.073  -1.793  0.00  0.00     0.077 C 
ATOM      2  C1  UNL d   1       4.458  -5.380  -3.261  0.00  0.00    -0.074 A 
ATOM      3  C2  UNL d   1       5.643  -5.589  -3.974  0.00  0.00    -0.005 A 
ATOM      4  C3  UNL d   1       5.602  -5.883  -5.337  0.00  0.00     0.006 A 
ATOM      5  C4  UNL d   1       4.377  -5.970  -6.000  0.00  0.00    -0.005 A 
ATOM      6  C5  UNL d   1       3.182  -5.764  -5.304  0.00  0.00    -0.074 A 
ATOM      7  C6  UNL d   1       1.857  -5.863  -6.000  0.00  0.00     0.077 C 
ATOM      8  C7  UNL d   1       3.231  -5.476  -3.933  0.00  0.00    -0.001 A 
ENDROOT
TORSDOF 0
ENDMDL
