MODEL 1
REMARK minimizedAffinity -1.86128056
REMARK minimizedRMSD -1
REMARK  0 active torsions:
REMARK  status: ('A' for Active; 'I' for Inactive)
ROOT
ATOM      1  C   UNL d   1       5.733  -5.982  -2.068  0.00  0.00     0.077 C 
ATOM      2  C1  UNL d   1       5.155  -5.803  -3.440  0.00  0.00    -0.074 A 
ATOM      3  C2  UNL d   1       5.974  -5.487  -4.529  0.00  0.00    -0.005 A 
ATOM      4  C3  UNL d   1       5.424  -5.334  -5.802  0.00  0.00     0.006 A 
ATOM      5  C4  UNL d   1       4.052  -5.495  -5.998  0.00  0.00    -0.005 A 
ATOM      6  C5  UNL d   1       3.218  -5.812  -4.921  0.00  0.00    -0.074 A 
ATOM      7  C6  UNL d   1       1.742  -5.998  -5.117  0.00  0.00     0.077 C 
ATOM      8  C7  UNL d   1       3.779  -5.971  -3.647  0.00  0.00    -0.001 A 
ENDROOT
TORSDOF 0
ENDMDL
