MODEL 1
REMARK minimizedAffinity 2.05715394
REMARK minimizedRMSD -1
REMARK  0 active torsions:
REMARK  status: ('A' for Active; 'I' for Inactive)
ROOT
ATOM      1  C   UNL d   1       4.828   5.962   5.671  0.00  0.00     0.077 C 
ATOM      2  C1  UNL d   1       4.947   5.211   4.379  0.00  0.00    -0.074 A 
ATOM      3  C2  UNL d   1       5.906   4.206   4.218  0.00  0.00    -0.005 A 
ATOM      4  C3  UNL d   1       5.999   3.509   3.013  0.00  0.00     0.006 A 
ATOM      5  C4  UNL d   1       5.135   3.809   1.959  0.00  0.00    -0.005 A 
ATOM      6  C5  UNL d   1       4.170   4.811   2.102  0.00  0.00    -0.074 A 
ATOM      7  C6  UNL d   1       3.227   5.140   0.983  0.00  0.00     0.077 C 
ATOM      8  C7  UNL d   1       4.078   5.502   3.318  0.00  0.00    -0.001 A 
ENDROOT
TORSDOF 0
ENDMDL
