MODEL 1
REMARK minimizedAffinity -2.44574952
REMARK minimizedRMSD -1
REMARK  0 active torsions:
REMARK  status: ('A' for Active; 'I' for Inactive)
ROOT
ATOM      1  C   UNL d   1       3.878   0.706   0.384  0.00  0.00     0.077 C 
ATOM      2  C1  UNL d   1       3.117   1.879   0.928  0.00  0.00    -0.074 A 
ATOM      3  C2  UNL d   1       3.784   3.030   1.358  0.00  0.00    -0.005 A 
ATOM      4  C3  UNL d   1       3.063   4.117   1.853  0.00  0.00     0.006 A 
ATOM      5  C4  UNL d   1       1.670   4.063   1.923  0.00  0.00    -0.005 A 
ATOM      6  C5  UNL d   1       0.986   2.920   1.496  0.00  0.00    -0.074 A 
ATOM      7  C6  UNL d   1      -0.511   2.850   1.555  0.00  0.00     0.077 C 
ATOM      8  C7  UNL d   1       1.718   1.835   0.994  0.00  0.00    -0.001 A 
ENDROOT
TORSDOF 0
ENDMDL
