MODEL 1
REMARK minimizedAffinity -1.32627821
REMARK minimizedRMSD -1
REMARK  0 active torsions:
REMARK  status: ('A' for Active; 'I' for Inactive)
ROOT
ATOM      1  C   UNL d   1       5.999  -5.982  -2.244  0.00  0.00     0.077 C 
ATOM      2  C1  UNL d   1       5.286  -5.856  -3.558  0.00  0.00    -0.074 A 
ATOM      3  C2  UNL d   1       5.999  -5.709  -4.752  0.00  0.00    -0.005 A 
ATOM      4  C3  UNL d   1       5.322  -5.602  -5.967  0.00  0.00     0.006 A 
ATOM      5  C4  UNL d   1       3.927  -5.642  -6.000  0.00  0.00    -0.005 A 
ATOM      6  C5  UNL d   1       3.198  -5.790  -4.816  0.00  0.00    -0.074 A 
ATOM      7  C6  UNL d   1       1.699  -5.844  -4.835  0.00  0.00     0.077 C 
ATOM      8  C7  UNL d   1       3.885  -5.903  -3.600  0.00  0.00    -0.001 A 
ENDROOT
TORSDOF 0
ENDMDL
