MODEL 1
REMARK minimizedAffinity 2.17493892
REMARK minimizedRMSD -1
REMARK  0 active torsions:
REMARK  status: ('A' for Active; 'I' for Inactive)
ROOT
ATOM      1  C   UNL d   1       5.957  -4.156  -5.285  0.00  0.00     0.077 C 
ATOM      2  C1  UNL d   1       4.635  -4.793  -4.975  0.00  0.00    -0.074 A 
ATOM      3  C2  UNL d   1       3.758  -5.165  -6.000  0.00  0.00    -0.005 A 
ATOM      4  C3  UNL d   1       2.536  -5.765  -5.696  0.00  0.00     0.006 A 
ATOM      5  C4  UNL d   1       2.179  -5.999  -4.368  0.00  0.00    -0.005 A 
ATOM      6  C5  UNL d   1       3.043  -5.635  -3.330  0.00  0.00    -0.074 A 
ATOM      7  C6  UNL d   1       2.678  -5.888  -1.898  0.00  0.00     0.077 C 
ATOM      8  C7  UNL d   1       4.272  -5.039  -3.643  0.00  0.00    -0.001 A 
ENDROOT
TORSDOF 0
ENDMDL
