MODEL 1
REMARK minimizedAffinity 2.25393128
REMARK minimizedRMSD -1
REMARK  0 active torsions:
REMARK  status: ('A' for Active; 'I' for Inactive)
ROOT
ATOM      1  C   UNL d   1       4.588   1.334  -1.549  0.00  0.00     0.077 C 
ATOM      2  C1  UNL d   1       3.855   1.758  -0.312  0.00  0.00    -0.074 A 
ATOM      3  C2  UNL d   1       4.543   2.280   0.789  0.00  0.00    -0.005 A 
ATOM      4  C3  UNL d   1       3.846   2.679   1.929  0.00  0.00     0.006 A 
ATOM      5  C4  UNL d   1       2.457   2.560   1.981  0.00  0.00    -0.005 A 
ATOM      6  C5  UNL d   1       1.752   2.042   0.891  0.00  0.00    -0.074 A 
ATOM      7  C6  UNL d   1       0.258   1.917   0.926  0.00  0.00     0.077 C 
ATOM      8  C7  UNL d   1       2.458   1.650  -0.255  0.00  0.00    -0.001 A 
ENDROOT
TORSDOF 0
ENDMDL
