MODEL 1
REMARK minimizedAffinity 2.87293863
REMARK minimizedRMSD -1
REMARK  0 active torsions:
REMARK  status: ('A' for Active; 'I' for Inactive)
ROOT
ATOM      1  C   UNL d   1       3.442  -5.513  -1.691  0.00  0.00     0.077 C 
ATOM      2  C1  UNL d   1       3.471  -5.597  -3.188  0.00  0.00    -0.074 A 
ATOM      3  C2  UNL d   1       2.322  -5.931  -3.912  0.00  0.00    -0.005 A 
ATOM      4  C3  UNL d   1       2.362  -5.997  -5.305  0.00  0.00     0.006 A 
ATOM      5  C4  UNL d   1       3.550  -5.729  -5.987  0.00  0.00    -0.005 A 
ATOM      6  C5  UNL d   1       4.709  -5.393  -5.280  0.00  0.00    -0.074 A 
ATOM      7  C6  UNL d   1       5.991  -5.093  -5.998  0.00  0.00     0.077 C 
ATOM      8  C7  UNL d   1       4.659  -5.323  -3.881  0.00  0.00    -0.001 A 
ENDROOT
TORSDOF 0
ENDMDL
