MODEL 1
REMARK minimizedAffinity 4.25157833
REMARK minimizedRMSD -1
REMARK  0 active torsions:
REMARK  status: ('A' for Active; 'I' for Inactive)
ROOT
ATOM      1  C   UNL d   1       2.506  -5.915  -1.262  0.00  0.00     0.077 C 
ATOM      2  C1  UNL d   1       3.607  -5.664  -2.249  0.00  0.00    -0.074 A 
ATOM      3  C2  UNL d   1       4.851  -5.181  -1.830  0.00  0.00    -0.005 A 
ATOM      4  C3  UNL d   1       5.869  -4.962  -2.759  0.00  0.00     0.006 A 
ATOM      5  C4  UNL d   1       5.653  -5.222  -4.113  0.00  0.00    -0.005 A 
ATOM      6  C5  UNL d   1       4.416  -5.706  -4.550  0.00  0.00    -0.074 A 
ATOM      7  C6  UNL d   1       4.171  -6.000  -6.000  0.00  0.00     0.077 C 
ATOM      8  C7  UNL d   1       3.401  -5.930  -3.610  0.00  0.00    -0.001 A 
ENDROOT
TORSDOF 0
ENDMDL
