MODEL 1
REMARK minimizedAffinity -1.08660376
REMARK minimizedRMSD -1
REMARK  0 active torsions:
REMARK  status: ('A' for Active; 'I' for Inactive)
ROOT
ATOM      1  C   UNL d   1       3.396  -4.993  -1.812  0.00  0.00     0.077 C 
ATOM      2  C1  UNL d   1       3.408  -5.343  -3.270  0.00  0.00    -0.074 A 
ATOM      3  C2  UNL d   1       2.215  -5.501  -3.982  0.00  0.00    -0.005 A 
ATOM      4  C3  UNL d   1       2.243  -5.817  -5.340  0.00  0.00     0.006 A 
ATOM      5  C4  UNL d   1       3.462  -5.978  -5.999  0.00  0.00    -0.005 A 
ATOM      6  C5  UNL d   1       4.666  -5.823  -5.304  0.00  0.00    -0.074 A 
ATOM      7  C6  UNL d   1       5.985  -5.983  -6.000  0.00  0.00     0.077 C 
ATOM      8  C7  UNL d   1       4.630  -5.499  -3.941  0.00  0.00    -0.001 A 
ENDROOT
TORSDOF 0
ENDMDL
