MODEL 1
REMARK minimizedAffinity 2.67108607
REMARK minimizedRMSD -1
REMARK  0 active torsions:
REMARK  status: ('A' for Active; 'I' for Inactive)
ROOT
ATOM      1  C   UNL d   1       5.991   5.905  -5.942  0.00  0.00     0.172 C 
ATOM      2  N   UNL d   1       5.407   5.674  -4.642  0.00  0.00    -0.070 N 
ATOM      3  C1  UNL d   1       4.186   5.100  -4.406  0.00  0.00    -0.004 A 
ATOM      4  C2  UNL d   1       3.995   5.058  -3.042  0.00  0.00    -0.047 A 
ATOM      5  C3  UNL d   1       5.141   5.627  -2.437  0.00  0.00    -0.047 A 
ATOM      6  C4  UNL d   1       5.999   5.999  -3.450  0.00  0.00    -0.004 A 
ENDROOT
TORSDOF 0
ENDMDL
