MODEL 1
REMARK minimizedAffinity 8.3425312
REMARK minimizedRMSD -1
REMARK  0 active torsions:
REMARK  status: ('A' for Active; 'I' for Inactive)
ROOT
ATOM      1  C   UNL d   1      -3.632   1.216  -2.912  0.00  0.00     0.172 C 
ATOM      2  N   UNL d   1      -3.307   1.660  -1.577  0.00  0.00    -0.070 N 
ATOM      3  C1  UNL d   1      -2.984   2.941  -1.217  0.00  0.00    -0.004 A 
ATOM      4  C2  UNL d   1      -2.744   2.951   0.140  0.00  0.00    -0.047 A 
ATOM      5  C3  UNL d   1      -2.928   1.630   0.612  0.00  0.00    -0.047 A 
ATOM      6  C4  UNL d   1      -3.277   0.851  -0.471  0.00  0.00    -0.004 A 
ENDROOT
TORSDOF 0
ENDMDL
