MODEL 1
REMARK minimizedAffinity 2.71881485
REMARK minimizedRMSD -1
REMARK  0 active torsions:
REMARK  status: ('A' for Active; 'I' for Inactive)
ROOT
ATOM      1  C   UNL d   1      -5.702  -0.771  -0.990  0.00  0.00     0.172 C 
ATOM      2  N   UNL d   1      -4.804   0.085  -1.731  0.00  0.00    -0.070 N 
ATOM      3  C1  UNL d   1      -3.681  -0.324  -2.398  0.00  0.00    -0.004 A 
ATOM      4  C2  UNL d   1      -3.104   0.788  -2.973  0.00  0.00    -0.047 A 
ATOM      5  C3  UNL d   1      -3.908   1.903  -2.639  0.00  0.00    -0.047 A 
ATOM      6  C4  UNL d   1      -4.954   1.439  -1.869  0.00  0.00    -0.004 A 
ENDROOT
TORSDOF 0
ENDMDL
