MODEL 1
REMARK minimizedAffinity 7.77927113
REMARK minimizedRMSD -1
REMARK  0 active torsions:
REMARK  status: ('A' for Active; 'I' for Inactive)
ROOT
ATOM      1  C   UNL d   1       2.632  -0.601   0.901  0.00  0.00     0.172 C 
ATOM      2  N   UNL d   1       1.821  -1.263   1.895  0.00  0.00    -0.070 N 
ATOM      3  C1  UNL d   1       1.426  -2.573   1.861  0.00  0.00    -0.004 A 
ATOM      4  C2  UNL d   1       0.668  -2.816   2.986  0.00  0.00    -0.047 A 
ATOM      5  C3  UNL d   1       0.605  -1.608   3.722  0.00  0.00    -0.047 A 
ATOM      6  C4  UNL d   1       1.326  -0.663   3.024  0.00  0.00    -0.004 A 
ENDROOT
TORSDOF 0
ENDMDL
