MODEL 1
REMARK minimizedAffinity 5.4252944
REMARK minimizedRMSD -1
REMARK  0 active torsions:
REMARK  status: ('A' for Active; 'I' for Inactive)
ROOT
ATOM      1  C   UNL d   1       3.313  -1.911   1.441  0.00  0.00     0.172 C 
ATOM      2  N   UNL d   1       2.182  -1.510   2.244  0.00  0.00    -0.070 N 
ATOM      3  C1  UNL d   1       1.625  -2.239   3.260  0.00  0.00    -0.004 A 
ATOM      4  C2  UNL d   1       0.572  -1.513   3.773  0.00  0.00    -0.047 A 
ATOM      5  C3  UNL d   1       0.493  -0.306   3.039  0.00  0.00    -0.047 A 
ATOM      6  C4  UNL d   1       1.501  -0.330   2.099  0.00  0.00    -0.004 A 
ENDROOT
TORSDOF 0
ENDMDL
