MODEL 1
REMARK minimizedAffinity 2.79619265
REMARK minimizedRMSD -1
REMARK  0 active torsions:
REMARK  status: ('A' for Active; 'I' for Inactive)
ROOT
ATOM      1  C   UNL d   1      -4.310  -2.789  -3.404  0.00  0.00     0.172 C 
ATOM      2  N   UNL d   1      -4.519  -3.929  -4.266  0.00  0.00    -0.070 N 
ATOM      3  C1  UNL d   1      -4.119  -5.212  -4.003  0.00  0.00    -0.004 A 
ATOM      4  C2  UNL d   1      -4.504  -6.000  -5.066  0.00  0.00    -0.047 A 
ATOM      5  C3  UNL d   1      -5.158  -5.162  -6.000  0.00  0.00    -0.047 A 
ATOM      6  C4  UNL d   1      -5.153  -3.885  -5.479  0.00  0.00    -0.004 A 
ENDROOT
TORSDOF 0
ENDMDL
