MODEL 1
REMARK minimizedAffinity -1.71317351
REMARK minimizedRMSD -1
REMARK  0 active torsions:
REMARK  status: ('A' for Active; 'I' for Inactive)
ROOT
ATOM      1  C   UNL d   1      -5.618  -2.413  -4.975  0.00  0.00     0.172 C 
ATOM      2  N   UNL d   1      -5.261  -3.783  -5.261  0.00  0.00    -0.070 N 
ATOM      3  C1  UNL d   1      -5.999  -4.887  -4.925  0.00  0.00    -0.004 A 
ATOM      4  C2  UNL d   1      -5.321  -6.000  -5.373  0.00  0.00    -0.047 A 
ATOM      5  C3  UNL d   1      -4.134  -5.550  -5.999  0.00  0.00    -0.047 A 
ATOM      6  C4  UNL d   1      -4.123  -4.174  -5.915  0.00  0.00    -0.004 A 
ENDROOT
TORSDOF 0
ENDMDL
