MODEL 1
REMARK minimizedAffinity 8.30803013
REMARK minimizedRMSD -1
REMARK  0 active torsions:
REMARK  status: ('A' for Active; 'I' for Inactive)
ROOT
ATOM      1  C   UNL d   1      -5.132   2.166  -4.960  0.00  0.00     0.172 C 
ATOM      2  N   UNL d   1      -5.090   1.389  -3.743  0.00  0.00    -0.070 N 
ATOM      3  C1  UNL d   1      -5.624   1.763  -2.538  0.00  0.00    -0.004 A 
ATOM      4  C2  UNL d   1      -5.375   0.753  -1.635  0.00  0.00    -0.047 A 
ATOM      5  C3  UNL d   1      -4.666  -0.263  -2.319  0.00  0.00    -0.047 A 
ATOM      6  C4  UNL d   1      -4.504   0.157  -3.623  0.00  0.00    -0.004 A 
ENDROOT
TORSDOF 0
ENDMDL
