MODEL 1
REMARK minimizedAffinity 7.26999998
REMARK minimizedRMSD -1
REMARK  0 active torsions:
REMARK  status: ('A' for Active; 'I' for Inactive)
ROOT
ATOM      1  C   UNL d   1       5.999  -0.747  -5.339  0.00  0.00     0.172 C 
ATOM      2  N   UNL d   1       4.822  -0.475  -4.549  0.00  0.00    -0.070 N 
ATOM      3  C1  UNL d   1       4.489  -1.093  -3.372  0.00  0.00    -0.004 A 
ATOM      4  C2  UNL d   1       3.299  -0.555  -2.934  0.00  0.00    -0.047 A 
ATOM      5  C3  UNL d   1       2.901   0.419  -3.881  0.00  0.00    -0.047 A 
ATOM      6  C4  UNL d   1       3.862   0.448  -4.869  0.00  0.00    -0.004 A 
ENDROOT
TORSDOF 0
ENDMDL
