MODEL 1
REMARK minimizedAffinity 3.16489983
REMARK minimizedRMSD -1
REMARK  0 active torsions:
REMARK  status: ('A' for Active; 'I' for Inactive)
ROOT
ATOM      1  C   UNL d   1       4.464   5.008  -1.664  0.00  0.00     0.172 C 
ATOM      2  N   UNL d   1       4.860   5.276  -3.027  0.00  0.00    -0.070 N 
ATOM      3  C1  UNL d   1       5.983   5.958  -3.412  0.00  0.00    -0.004 A 
ATOM      4  C2  UNL d   1       6.000   5.998  -4.790  0.00  0.00    -0.047 A 
ATOM      5  C3  UNL d   1       4.847   5.318  -5.248  0.00  0.00    -0.047 A 
ATOM      6  C4  UNL d   1       4.159   4.881  -4.135  0.00  0.00    -0.004 A 
ENDROOT
TORSDOF 0
ENDMDL
