MODEL 1
REMARK minimizedAffinity 1.92965126
REMARK minimizedRMSD -1
REMARK  0 active torsions:
REMARK  status: ('A' for Active; 'I' for Inactive)
ROOT
ATOM      1  C   UNL d   1      -1.273  -0.887   0.389  0.00  0.00     0.172 C 
ATOM      2  N   UNL d   1      -0.340  -1.910   0.799  0.00  0.00    -0.070 N 
ATOM      3  C1  UNL d   1       1.016  -1.875   0.613  0.00  0.00    -0.004 A 
ATOM      4  C2  UNL d   1       1.545  -3.032   1.142  0.00  0.00    -0.047 A 
ATOM      5  C3  UNL d   1       0.469  -3.790   1.663  0.00  0.00    -0.047 A 
ATOM      6  C4  UNL d   1      -0.686  -3.072   1.437  0.00  0.00    -0.004 A 
ENDROOT
TORSDOF 0
ENDMDL
