MODEL 1
REMARK minimizedAffinity 4.29360247
REMARK minimizedRMSD -1
REMARK  0 active torsions:
REMARK  status: ('A' for Active; 'I' for Inactive)
ROOT
ATOM      1  C   UNL d   1       1.349  -1.901   1.221  0.00  0.00     0.172 C 
ATOM      2  N   UNL d   1       0.354  -2.018   0.181  0.00  0.00    -0.070 N 
ATOM      3  C1  UNL d   1       0.607  -2.263  -1.143  0.00  0.00    -0.004 A 
ATOM      4  C2  UNL d   1      -0.601  -2.300  -1.804  0.00  0.00    -0.047 A 
ATOM      5  C3  UNL d   1      -1.616  -2.069  -0.845  0.00  0.00    -0.047 A 
ATOM      6  C4  UNL d   1      -0.997  -1.897   0.375  0.00  0.00    -0.004 A 
ENDROOT
TORSDOF 0
ENDMDL
