MODEL 1
REMARK minimizedAffinity -3.70281005
REMARK minimizedRMSD -1
REMARK  1 active torsions:
REMARK  status: ('A' for Active; 'I' for Inactive)
REMARK    1  A    between atoms: C1_2  and  C2_3 
ROOT
ATOM      1  C2  UNL d   1      -0.127   0.017  -0.123  0.00  0.00    -0.076 A 
ATOM      2  C3  UNL d   1      -0.141  -1.148  -0.909  0.00  0.00     0.004 A 
ATOM      3  C4  UNL d   1       0.925  -2.046  -0.878  0.00  0.00    -0.003 A 
ATOM      4  C5  UNL d   1       2.022  -1.793  -0.061  0.00  0.00     0.000 A 
ATOM      5  C6  UNL d   1       2.044  -0.650   0.738  0.00  0.00     0.000 A 
ATOM      6  C7  UNL d   1       0.970   0.257   0.732  0.00  0.00    -0.073 A 
ATOM      7  C8  UNL d   1       1.049   1.475   1.609  0.00  0.00     0.078 C 
ENDROOT
BRANCH   1   8
ATOM      8  C1  UNL d   1      -1.300   0.968  -0.218  0.00  0.00     0.053 C 
ATOM      9  C   UNL d   1      -2.520   0.464   0.537  0.00  0.00     0.018 C 
ENDBRANCH   1   8
TORSDOF 1
ENDMDL
