MODEL 1
REMARK minimizedAffinity -3.72325206
REMARK minimizedRMSD -1
REMARK  1 active torsions:
REMARK  status: ('A' for Active; 'I' for Inactive)
REMARK    1  A    between atoms: C1_2  and  C2_3 
ROOT
ATOM      1  C2  UNL d   1      -0.287   0.140  -0.119  0.00  0.00    -0.076 A 
ATOM      2  C3  UNL d   1       0.457   0.933   0.772  0.00  0.00     0.004 A 
ATOM      3  C4  UNL d   1       1.752   0.574   1.141  0.00  0.00    -0.003 A 
ATOM      4  C5  UNL d   1       2.325  -0.583   0.625  0.00  0.00     0.000 A 
ATOM      5  C6  UNL d   1       1.608  -1.372  -0.274  0.00  0.00     0.000 A 
ATOM      6  C7  UNL d   1       0.307  -1.016  -0.669  0.00  0.00    -0.073 A 
ATOM      7  C8  UNL d   1      -0.423  -1.907  -1.636  0.00  0.00     0.078 C 
ENDROOT
BRANCH   1   8
ATOM      8  C1  UNL d   1      -1.697   0.565  -0.462  0.00  0.00     0.053 C 
ATOM      9  C   UNL d   1      -2.574   0.724   0.771  0.00  0.00     0.018 C 
ENDBRANCH   1   8
TORSDOF 1
ENDMDL
