MODEL 1
REMARK minimizedAffinity -3.13036585
REMARK minimizedRMSD -1
REMARK  1 active torsions:
REMARK  status: ('A' for Active; 'I' for Inactive)
REMARK    1  A    between atoms: C1_2  and  C2_3 
ROOT
ATOM      1  C2  UNL d   1       0.531  -0.002   0.147  0.00  0.00    -0.076 A 
ATOM      2  C3  UNL d   1       0.982   0.346   1.432  0.00  0.00     0.004 A 
ATOM      3  C4  UNL d   1       2.122  -0.243   1.976  0.00  0.00    -0.003 A 
ATOM      4  C5  UNL d   1       2.829  -1.190   1.244  0.00  0.00     0.000 A 
ATOM      5  C6  UNL d   1       2.406  -1.534  -0.040  0.00  0.00     0.000 A 
ATOM      6  C7  UNL d   1       1.268  -0.937  -0.609  0.00  0.00    -0.073 A 
ATOM      7  C8  UNL d   1       0.854  -1.351  -1.995  0.00  0.00     0.078 C 
ENDROOT
BRANCH   1   8
ATOM      8  C1  UNL d   1      -0.727   0.651  -0.380  0.00  0.00     0.053 C 
ATOM      9  C   UNL d   1      -1.972  -0.181  -0.110  0.00  0.00     0.018 C 
ENDBRANCH   1   8
TORSDOF 1
ENDMDL
