MODEL 1
REMARK minimizedAffinity 11.6415806
REMARK minimizedRMSD -1
REMARK  0 active torsions:
REMARK  status: ('A' for Active; 'I' for Inactive)
ROOT
ATOM      1  C   UNL d   1       1.041  -2.205   0.852  0.00  0.00     0.124 A 
ATOM      2  C1  UNL d   1       2.204  -1.450   0.915  0.00  0.00     0.062 A 
ATOM      3  C2  UNL d   1       2.151  -0.069   0.753  0.00  0.00     0.162 A 
ATOM      4  C3  UNL d   1       0.930   0.567   0.529  0.00  0.00    -0.034 A 
ATOM      5  C4  UNL d   1      -0.235  -0.199   0.466  0.00  0.00     0.162 A 
ATOM      6  C5  UNL d   1      -0.177  -1.580   0.628  0.00  0.00     0.062 A 
ATOM      7  F   UNL d   1      -1.302  -2.308   0.567  0.00  0.00    -0.097 F 
ATOM      8  F1  UNL d   1      -1.426   0.380   0.252  0.00  0.00    -0.096 F 
ATOM      9  I   UNL d   1       0.846   2.633   0.287  0.00  0.00    -0.060 I 
ATOM     10  F2  UNL d   1       3.290   0.636   0.819  0.00  0.00    -0.096 F 
ATOM     11  F3  UNL d   1       3.382  -2.053   1.130  0.00  0.00    -0.097 F 
ATOM     12  F4  UNL d   1       1.095  -3.535   1.007  0.00  0.00    -0.092 F 
ENDROOT
TORSDOF 0
ENDMDL
