MODEL 1
REMARK minimizedAffinity 25.16675
REMARK minimizedRMSD -1
REMARK  0 active torsions:
REMARK  status: ('A' for Active; 'I' for Inactive)
ROOT
ATOM      1  C   UNL d   1       1.510   0.426   0.872  0.00  0.00     0.124 A 
ATOM      2  C1  UNL d   1       2.780  -0.033   0.551  0.00  0.00     0.062 A 
ATOM      3  C2  UNL d   1       3.779   0.866   0.189  0.00  0.00     0.162 A 
ATOM      4  C3  UNL d   1       3.512   2.234   0.147  0.00  0.00    -0.034 A 
ATOM      5  C4  UNL d   1       2.233   2.689   0.470  0.00  0.00     0.162 A 
ATOM      6  C5  UNL d   1       1.238   1.786   0.831  0.00  0.00     0.062 A 
ATOM      7  F   UNL d   1       0.011   2.232   1.141  0.00  0.00    -0.097 F 
ATOM      8  F1  UNL d   1       1.942   3.998   0.440  0.00  0.00    -0.096 F 
ATOM      9  I   UNL d   1       5.003   3.582  -0.393  0.00  0.00    -0.060 I 
ATOM     10  F2  UNL d   1       4.997   0.394  -0.116  0.00  0.00    -0.096 F 
ATOM     11  F3  UNL d   1       3.045  -1.347   0.588  0.00  0.00    -0.097 F 
ATOM     12  F4  UNL d   1       0.550  -0.441   1.218  0.00  0.00    -0.092 F 
ENDROOT
TORSDOF 0
ENDMDL
