MODEL 1
REMARK minimizedAffinity 14.5483122
REMARK minimizedRMSD -1
REMARK  0 active torsions:
REMARK  status: ('A' for Active; 'I' for Inactive)
ROOT
ATOM      1  C   UNL d   1       2.647  -0.520   2.910  0.00  0.00     0.124 A 
ATOM      2  C1  UNL d   1       4.016  -0.652   2.728  0.00  0.00     0.062 A 
ATOM      3  C2  UNL d   1       4.573  -0.492   1.462  0.00  0.00     0.162 A 
ATOM      4  C3  UNL d   1       3.760  -0.197   0.368  0.00  0.00    -0.034 A 
ATOM      5  C4  UNL d   1       2.383  -0.066   0.559  0.00  0.00     0.162 A 
ATOM      6  C5  UNL d   1       1.832  -0.227   1.826  0.00  0.00     0.062 A 
ATOM      7  F   UNL d   1       0.508  -0.099   2.000  0.00  0.00    -0.097 F 
ATOM      8  F1  UNL d   1       1.572   0.217  -0.472  0.00  0.00    -0.096 F 
ATOM      9  I   UNL d   1       4.588   0.043  -1.526  0.00  0.00    -0.060 I 
ATOM     10  F2  UNL d   1       5.900  -0.625   1.316  0.00  0.00    -0.096 F 
ATOM     11  F3  UNL d   1       4.806  -0.935   3.774  0.00  0.00    -0.097 F 
ATOM     12  F4  UNL d   1       2.114  -0.675   4.129  0.00  0.00    -0.092 F 
ENDROOT
TORSDOF 0
ENDMDL
