MODEL 1
REMARK minimizedAffinity 14.451911
REMARK minimizedRMSD -1
REMARK  0 active torsions:
REMARK  status: ('A' for Active; 'I' for Inactive)
ROOT
ATOM      1  C   UNL d   1       4.247   0.161   1.571  0.00  0.00     0.124 A 
ATOM      2  C1  UNL d   1       3.868   0.110   0.237  0.00  0.00     0.062 A 
ATOM      3  C2  UNL d   1       2.560  -0.219  -0.107  0.00  0.00     0.162 A 
ATOM      4  C3  UNL d   1       1.621  -0.500   0.885  0.00  0.00    -0.034 A 
ATOM      5  C4  UNL d   1       2.009  -0.448   2.225  0.00  0.00     0.162 A 
ATOM      6  C5  UNL d   1       3.318  -0.118   2.564  0.00  0.00     0.062 A 
ATOM      7  F   UNL d   1       3.682  -0.070   3.853  0.00  0.00    -0.097 F 
ATOM      8  F1  UNL d   1       1.132  -0.712   3.204  0.00  0.00    -0.096 F 
ATOM      9  I   UNL d   1      -0.336  -0.993   0.374  0.00  0.00    -0.060 I 
ATOM     10  F2  UNL d   1       2.222  -0.261  -1.405  0.00  0.00    -0.096 F 
ATOM     11  F3  UNL d   1       4.764   0.378  -0.724  0.00  0.00    -0.097 F 
ATOM     12  F4  UNL d   1       5.506   0.477   1.900  0.00  0.00    -0.092 F 
ENDROOT
TORSDOF 0
ENDMDL
