MODEL 1
REMARK minimizedAffinity 6.34647894
REMARK minimizedRMSD -1
REMARK  0 active torsions:
REMARK  status: ('A' for Active; 'I' for Inactive)
ROOT
ATOM      1  C   UNL d   1      -2.329  -5.981  -3.472  0.00  0.00     0.124 A 
ATOM      2  C1  UNL d   1      -1.702  -5.979  -4.710  0.00  0.00     0.062 A 
ATOM      3  C2  UNL d   1      -0.312  -5.984  -4.790  0.00  0.00     0.162 A 
ATOM      4  C3  UNL d   1       0.460  -5.992  -3.629  0.00  0.00    -0.034 A 
ATOM      5  C4  UNL d   1      -0.178  -5.992  -2.387  0.00  0.00     0.162 A 
ATOM      6  C5  UNL d   1      -1.567  -5.987  -2.312  0.00  0.00     0.062 A 
ATOM      7  F   UNL d   1      -2.172  -5.989  -1.115  0.00  0.00    -0.097 F 
ATOM      8  F1  UNL d   1       0.534  -6.000  -1.250  0.00  0.00    -0.096 F 
ATOM      9  I   UNL d   1       2.538  -6.000  -3.745  0.00  0.00    -0.060 I 
ATOM     10  F2  UNL d   1       0.267  -5.983  -6.000  0.00  0.00    -0.096 F 
ATOM     11  F3  UNL d   1      -2.436  -5.972  -5.832  0.00  0.00    -0.097 F 
ATOM     12  F4  UNL d   1      -3.666  -5.975  -3.397  0.00  0.00    -0.092 F 
ENDROOT
TORSDOF 0
ENDMDL
