MODEL 1
REMARK minimizedAffinity 2.41735339
REMARK minimizedRMSD -1
REMARK  0 active torsions:
REMARK  status: ('A' for Active; 'I' for Inactive)
ROOT
ATOM      1  C   UNL d   1      -2.047  -5.778  -3.664  0.00  0.00     0.124 A 
ATOM      2  C1  UNL d   1      -1.510  -5.736  -2.385  0.00  0.00     0.062 A 
ATOM      3  C2  UNL d   1      -0.131  -5.782  -2.203  0.00  0.00     0.162 A 
ATOM      4  C3  UNL d   1       0.722  -5.871  -3.304  0.00  0.00    -0.034 A 
ATOM      5  C4  UNL d   1       0.174  -5.914  -4.587  0.00  0.00     0.162 A 
ATOM      6  C5  UNL d   1      -1.205  -5.867  -4.763  0.00  0.00     0.062 A 
ATOM      7  F   UNL d   1      -1.723  -5.909  -6.000  0.00  0.00    -0.097 F 
ATOM      8  F1  UNL d   1       0.964  -5.999  -5.667  0.00  0.00    -0.096 F 
ATOM      9  I   UNL d   1       2.784  -5.941  -3.036  0.00  0.00    -0.060 I 
ATOM     10  F2  UNL d   1       0.361  -5.739  -0.956  0.00  0.00    -0.096 F 
ATOM     11  F3  UNL d   1      -2.321  -5.650  -1.321  0.00  0.00    -0.097 F 
ATOM     12  F4  UNL d   1      -3.375  -5.734  -3.836  0.00  0.00    -0.092 F 
ENDROOT
TORSDOF 0
ENDMDL
