MODEL 1
REMARK minimizedAffinity 1.86276543
REMARK minimizedRMSD -1
REMARK  0 active torsions:
REMARK  status: ('A' for Active; 'I' for Inactive)
ROOT
ATOM      1  C   UNL d   1      -1.934  -5.978  -2.400  0.00  0.00     0.124 A 
ATOM      2  C1  UNL d   1      -2.231  -5.982  -3.755  0.00  0.00     0.062 A 
ATOM      3  C2  UNL d   1      -1.206  -5.988  -4.696  0.00  0.00     0.162 A 
ATOM      4  C3  UNL d   1       0.127  -5.990  -4.285  0.00  0.00    -0.034 A 
ATOM      5  C4  UNL d   1       0.418  -5.986  -2.919  0.00  0.00     0.162 A 
ATOM      6  C5  UNL d   1      -0.611  -5.980  -1.983  0.00  0.00     0.062 A 
ATOM      7  F   UNL d   1      -0.322  -5.976  -0.673  0.00  0.00    -0.097 F 
ATOM      8  F1  UNL d   1       1.688  -5.988  -2.489  0.00  0.00    -0.096 F 
ATOM      9  I   UNL d   1       1.664  -5.999  -5.689  0.00  0.00    -0.060 I 
ATOM     10  F2  UNL d   1      -1.522  -5.991  -6.000  0.00  0.00    -0.096 F 
ATOM     11  F3  UNL d   1      -3.509  -5.979  -4.161  0.00  0.00    -0.097 F 
ATOM     12  F4  UNL d   1      -2.923  -5.972  -1.496  0.00  0.00    -0.092 F 
ENDROOT
TORSDOF 0
ENDMDL
