MODEL 1
REMARK minimizedAffinity 12.8532181
REMARK minimizedRMSD -1
REMARK  0 active torsions:
REMARK  status: ('A' for Active; 'I' for Inactive)
ROOT
ATOM      1  C   UNL d   1       1.573  -5.978  -3.688  0.00  0.00     0.124 A 
ATOM      2  C1  UNL d   1       1.130  -5.976  -2.372  0.00  0.00     0.062 A 
ATOM      3  C2  UNL d   1      -0.233  -5.974  -2.092  0.00  0.00     0.162 A 
ATOM      4  C3  UNL d   1      -1.165  -5.974  -3.130  0.00  0.00    -0.034 A 
ATOM      5  C4  UNL d   1      -0.712  -5.976  -4.451  0.00  0.00     0.162 A 
ATOM      6  C5  UNL d   1       0.651  -5.978  -4.726  0.00  0.00     0.062 A 
ATOM      7  F   UNL d   1       1.077  -5.980  -5.997  0.00  0.00    -0.097 F 
ATOM      8  F1  UNL d   1      -1.581  -5.976  -5.473  0.00  0.00    -0.096 F 
ATOM      9  I   UNL d   1      -3.205  -5.971  -2.716  0.00  0.00    -0.060 I 
ATOM     10  F2  UNL d   1      -0.632  -5.972  -0.812  0.00  0.00    -0.096 F 
ATOM     11  F3  UNL d   1       2.018  -5.976  -1.368  0.00  0.00    -0.097 F 
ATOM     12  F4  UNL d   1       2.885  -5.980  -3.954  0.00  0.00    -0.092 F 
ENDROOT
TORSDOF 0
ENDMDL
