MODEL 1
REMARK minimizedAffinity 20.4571304
REMARK minimizedRMSD -1
REMARK  0 active torsions:
REMARK  status: ('A' for Active; 'I' for Inactive)
ROOT
ATOM      1  C   UNL d   1       4.399  -0.559   1.030  0.00  0.00     0.124 A 
ATOM      2  C1  UNL d   1       3.657  -0.516   2.202  0.00  0.00     0.062 A 
ATOM      3  C2  UNL d   1       2.292  -0.251   2.157  0.00  0.00     0.162 A 
ATOM      4  C3  UNL d   1       1.658  -0.027   0.935  0.00  0.00    -0.034 A 
ATOM      5  C4  UNL d   1       2.411  -0.070  -0.240  0.00  0.00     0.162 A 
ATOM      6  C5  UNL d   1       3.776  -0.336  -0.190  0.00  0.00     0.062 A 
ATOM      7  F   UNL d   1       4.491  -0.376  -1.323  0.00  0.00    -0.097 F 
ATOM      8  F1  UNL d   1       1.834   0.141  -1.432  0.00  0.00    -0.096 F 
ATOM      9  I   UNL d   1      -0.383   0.370   0.863  0.00  0.00    -0.060 I 
ATOM     10  F2  UNL d   1       1.599  -0.216   3.305  0.00  0.00    -0.096 F 
ATOM     11  F3  UNL d   1       4.257  -0.730   3.382  0.00  0.00    -0.097 F 
ATOM     12  F4  UNL d   1       5.713  -0.813   1.076  0.00  0.00    -0.092 F 
ENDROOT
TORSDOF 0
ENDMDL
