MODEL 1
REMARK minimizedAffinity 2.21069384
REMARK minimizedRMSD -1
REMARK  0 active torsions:
REMARK  status: ('A' for Active; 'I' for Inactive)
ROOT
ATOM      1  C   UNL d   1       0.854  -4.936  -3.676  0.00  0.00     0.124 A 
ATOM      2  C1  UNL d   1       0.121  -4.876  -4.853  0.00  0.00     0.062 A 
ATOM      3  C2  UNL d   1      -1.237  -5.180  -4.847  0.00  0.00     0.162 A 
ATOM      4  C3  UNL d   1      -1.872  -5.545  -3.660  0.00  0.00    -0.034 A 
ATOM      5  C4  UNL d   1      -1.128  -5.604  -2.481  0.00  0.00     0.162 A 
ATOM      6  C5  UNL d   1       0.230  -5.300  -2.491  0.00  0.00     0.062 A 
ATOM      7  F   UNL d   1       0.937  -5.358  -1.353  0.00  0.00    -0.097 F 
ATOM      8  F1  UNL d   1      -1.706  -5.952  -1.322  0.00  0.00    -0.096 F 
ATOM      9  I   UNL d   1      -3.903  -6.000  -3.648  0.00  0.00    -0.060 I 
ATOM     10  F2  UNL d   1      -1.921  -5.114  -5.999  0.00  0.00    -0.096 F 
ATOM     11  F3  UNL d   1       0.723  -4.526  -5.999  0.00  0.00    -0.097 F 
ATOM     12  F4  UNL d   1       2.161  -4.644  -3.684  0.00  0.00    -0.092 F 
ENDROOT
TORSDOF 0
ENDMDL
