MODEL 1
REMARK minimizedAffinity 19.5594597
REMARK minimizedRMSD -1
REMARK  0 active torsions:
REMARK  status: ('A' for Active; 'I' for Inactive)
ROOT
ATOM      1  C   UNL d   1       1.878  -5.824  -3.698  0.00  0.00     0.124 A 
ATOM      2  C1  UNL d   1       1.462  -5.734  -2.376  0.00  0.00     0.062 A 
ATOM      3  C2  UNL d   1       0.105  -5.732  -2.068  0.00  0.00     0.162 A 
ATOM      4  C3  UNL d   1      -0.848  -5.821  -3.083  0.00  0.00    -0.034 A 
ATOM      5  C4  UNL d   1      -0.422  -5.911  -4.410  0.00  0.00     0.162 A 
ATOM      6  C5  UNL d   1       0.936  -5.912  -4.713  0.00  0.00     0.062 A 
ATOM      7  F   UNL d   1       1.335  -5.999  -5.990  0.00  0.00    -0.097 F 
ATOM      8  F1  UNL d   1      -1.311  -5.998  -5.411  0.00  0.00    -0.096 F 
ATOM      9  I   UNL d   1      -2.878  -5.819  -2.627  0.00  0.00    -0.060 I 
ATOM     10  F2  UNL d   1      -0.268  -5.644  -0.783  0.00  0.00    -0.096 F 
ATOM     11  F3  UNL d   1       2.370  -5.648  -1.394  0.00  0.00    -0.097 F 
ATOM     12  F4  UNL d   1       3.184  -5.825  -3.991  0.00  0.00    -0.092 F 
ENDROOT
TORSDOF 0
ENDMDL
