MODEL 1
REMARK minimizedAffinity 12.2656679
REMARK minimizedRMSD -1
REMARK  0 active torsions:
REMARK  status: ('A' for Active; 'I' for Inactive)
ROOT
ATOM      1  C   UNL d   1       4.669  -0.071   1.282  0.00  0.00     0.124 A 
ATOM      2  C1  UNL d   1       4.032   0.036   0.054  0.00  0.00     0.062 A 
ATOM      3  C2  UNL d   1       2.649   0.185  -0.007  0.00  0.00     0.162 A 
ATOM      4  C3  UNL d   1       1.894   0.227   1.165  0.00  0.00    -0.034 A 
ATOM      5  C4  UNL d   1       2.542   0.117   2.397  0.00  0.00     0.162 A 
ATOM      6  C5  UNL d   1       3.924  -0.031   2.452  0.00  0.00     0.062 A 
ATOM      7  F   UNL d   1       4.538  -0.135   3.640  0.00  0.00    -0.097 F 
ATOM      8  F1  UNL d   1       1.846   0.154   3.543  0.00  0.00    -0.096 F 
ATOM      9  I   UNL d   1      -0.174   0.448   1.079  0.00  0.00    -0.060 I 
ATOM     10  F2  UNL d   1       2.060   0.286  -1.207  0.00  0.00    -0.096 F 
ATOM     11  F3  UNL d   1       4.749  -0.003  -1.078  0.00  0.00    -0.097 F 
ATOM     12  F4  UNL d   1       6.000  -0.214   1.337  0.00  0.00    -0.092 F 
ENDROOT
TORSDOF 0
ENDMDL
