MODEL 1
REMARK minimizedAffinity 22.4592113
REMARK minimizedRMSD -1
REMARK  0 active torsions:
REMARK  status: ('A' for Active; 'I' for Inactive)
ROOT
ATOM      1  C   UNL d   1      -3.559   1.658  -3.876  0.00  0.00     0.124 A 
ATOM      2  C1  UNL d   1      -3.699   0.699  -2.882  0.00  0.00     0.062 A 
ATOM      3  C2  UNL d   1      -2.605   0.333  -2.103  0.00  0.00     0.162 A 
ATOM      4  C3  UNL d   1      -1.360   0.926  -2.315  0.00  0.00    -0.034 A 
ATOM      5  C4  UNL d   1      -1.227   1.888  -3.317  0.00  0.00     0.162 A 
ATOM      6  C5  UNL d   1      -2.323   2.251  -4.093  0.00  0.00     0.062 A 
ATOM      7  F   UNL d   1      -2.186   3.177  -5.053  0.00  0.00    -0.097 F 
ATOM      8  F1  UNL d   1      -0.044   2.478  -3.548  0.00  0.00    -0.096 F 
ATOM      9  I   UNL d   1       0.279   0.380  -1.154  0.00  0.00    -0.060 I 
ATOM     10  F2  UNL d   1      -2.769  -0.596  -1.150  0.00  0.00    -0.096 F 
ATOM     11  F3  UNL d   1      -4.891   0.124  -2.671  0.00  0.00    -0.097 F 
ATOM     12  F4  UNL d   1      -4.613   2.008  -4.624  0.00  0.00    -0.092 F 
ENDROOT
TORSDOF 0
ENDMDL
