MODEL 1
REMARK minimizedAffinity 7.21686316
REMARK minimizedRMSD -1
REMARK  0 active torsions:
REMARK  status: ('A' for Active; 'I' for Inactive)
ROOT
ATOM      1  C   UNL d   1       0.619  -2.530   1.320  0.00  0.00     0.124 A 
ATOM      2  C1  UNL d   1       0.616  -2.914  -0.014  0.00  0.00     0.062 A 
ATOM      3  C2  UNL d   1       0.392  -1.971  -1.013  0.00  0.00     0.162 A 
ATOM      4  C3  UNL d   1       0.170  -0.634  -0.683  0.00  0.00    -0.034 A 
ATOM      5  C4  UNL d   1       0.173  -0.256   0.661  0.00  0.00     0.162 A 
ATOM      6  C5  UNL d   1       0.398  -1.202   1.656  0.00  0.00     0.062 A 
ATOM      7  F   UNL d   1       0.400  -0.830   2.944  0.00  0.00    -0.097 F 
ATOM      8  F1  UNL d   1      -0.037   1.021   1.015  0.00  0.00    -0.096 F 
ATOM      9  I   UNL d   1      -0.166   0.779  -2.173  0.00  0.00    -0.060 I 
ATOM     10  F2  UNL d   1       0.395  -2.370  -2.294  0.00  0.00    -0.096 F 
ATOM     11  F3  UNL d   1       0.829  -4.196  -0.342  0.00  0.00    -0.097 F 
ATOM     12  F4  UNL d   1       0.834  -3.439   2.279  0.00  0.00    -0.092 F 
ENDROOT
TORSDOF 0
ENDMDL
