MODEL 1
REMARK minimizedAffinity 0.327238113
REMARK minimizedRMSD -1
REMARK  0 active torsions:
REMARK  status: ('A' for Active; 'I' for Inactive)
ROOT
ATOM      1  C   UNL d   1       0.008   0.848  -1.014  0.00  0.00     0.078 C 
ATOM      2  C1  UNL d   1       0.156   0.083   0.267  0.00  0.00    -0.077 A 
ATOM      3  C2  UNL d   1      -0.595   0.422   1.400  0.00  0.00    -0.001 A 
ATOM      4  C3  UNL d   1      -0.440  -0.292   2.589  0.00  0.00     0.003 A 
ATOM      5  C4  UNL d   1       0.466  -1.349   2.657  0.00  0.00    -0.005 A 
ATOM      6  C5  UNL d   1       1.219  -1.692   1.536  0.00  0.00     0.003 A 
ATOM      7  C6  UNL d   1       1.065  -0.979   0.346  0.00  0.00    -0.001 A 
ENDROOT
TORSDOF 0
ENDMDL
