MODEL 1
REMARK minimizedAffinity -5.83016634
REMARK minimizedRMSD -1
REMARK  0 active torsions:
REMARK  status: ('A' for Active; 'I' for Inactive)
ROOT
ATOM      1  C   UNL d   1      -0.080   0.982  -0.666  0.00  0.00     0.078 C 
ATOM      2  C1  UNL d   1       0.504   0.098   0.395  0.00  0.00    -0.077 A 
ATOM      3  C2  UNL d   1       1.511  -0.826   0.091  0.00  0.00    -0.001 A 
ATOM      4  C3  UNL d   1       2.038  -1.649   1.088  0.00  0.00     0.003 A 
ATOM      5  C4  UNL d   1       1.563  -1.558   2.394  0.00  0.00    -0.005 A 
ATOM      6  C5  UNL d   1       0.559  -0.643   2.706  0.00  0.00     0.003 A 
ATOM      7  C6  UNL d   1       0.031   0.181   1.711  0.00  0.00    -0.001 A 
ENDROOT
TORSDOF 0
ENDMDL
