MODEL 1
REMARK minimizedAffinity -2.90591621
REMARK minimizedRMSD -1
REMARK  0 active torsions:
REMARK  status: ('A' for Active; 'I' for Inactive)
ROOT
ATOM      1  C   UNL d   1      -0.207   0.023  -0.894  0.00  0.00     0.078 C 
ATOM      2  C1  UNL d   1       0.367  -0.761   0.248  0.00  0.00    -0.077 A 
ATOM      3  C2  UNL d   1       1.472  -1.601   0.062  0.00  0.00    -0.001 A 
ATOM      4  C3  UNL d   1       1.990  -2.333   1.132  0.00  0.00     0.003 A 
ATOM      5  C4  UNL d   1       1.410  -2.232   2.395  0.00  0.00    -0.005 A 
ATOM      6  C5  UNL d   1       0.309  -1.400   2.589  0.00  0.00     0.003 A 
ATOM      7  C6  UNL d   1      -0.210  -0.668   1.520  0.00  0.00    -0.001 A 
ENDROOT
TORSDOF 0
ENDMDL
