MODEL 1
REMARK minimizedAffinity -3.28263688
REMARK minimizedRMSD -1
REMARK  0 active torsions:
REMARK  status: ('A' for Active; 'I' for Inactive)
ROOT
ATOM      1  C   UNL d   1       0.643  -0.985   2.581  0.00  0.00     0.078 C 
ATOM      2  C1  UNL d   1       0.342  -0.380   1.243  0.00  0.00    -0.077 A 
ATOM      3  C2  UNL d   1      -0.279   0.871   1.140  0.00  0.00    -0.001 A 
ATOM      4  C3  UNL d   1      -0.562   1.418  -0.112  0.00  0.00     0.003 A 
ATOM      5  C4  UNL d   1      -0.229   0.720  -1.272  0.00  0.00    -0.005 A 
ATOM      6  C5  UNL d   1       0.387  -0.526  -1.180  0.00  0.00     0.003 A 
ATOM      7  C6  UNL d   1       0.671  -1.075   0.072  0.00  0.00    -0.001 A 
ENDROOT
TORSDOF 0
ENDMDL
