MODEL 1
REMARK minimizedAffinity -2.37375379
REMARK minimizedRMSD -1
REMARK  0 active torsions:
REMARK  status: ('A' for Active; 'I' for Inactive)
ROOT
ATOM      1  C   UNL d   1      -0.315   0.643  -1.437  0.00  0.00     0.078 C 
ATOM      2  C1  UNL d   1      -0.094   0.096  -0.058  0.00  0.00    -0.077 A 
ATOM      3  C2  UNL d   1       1.141  -0.450   0.311  0.00  0.00    -0.001 A 
ATOM      4  C3  UNL d   1       1.331  -0.963   1.595  0.00  0.00     0.003 A 
ATOM      5  C4  UNL d   1       0.288  -0.937   2.520  0.00  0.00    -0.005 A 
ATOM      6  C5  UNL d   1      -0.945  -0.398   2.161  0.00  0.00     0.003 A 
ATOM      7  C6  UNL d   1      -1.136   0.116   0.877  0.00  0.00    -0.001 A 
ENDROOT
TORSDOF 0
ENDMDL
