MODEL 1
REMARK minimizedAffinity -4.64812183
REMARK minimizedRMSD -1
REMARK  0 active torsions:
REMARK  status: ('A' for Active; 'I' for Inactive)
ROOT
ATOM      1  C   UNL d   1      -0.667   0.679  -1.159  0.00  0.00     0.078 C 
ATOM      2  C1  UNL d   1      -0.176   0.078   0.124  0.00  0.00    -0.077 A 
ATOM      3  C2  UNL d   1       1.191  -0.134   0.345  0.00  0.00    -0.001 A 
ATOM      4  C3  UNL d   1       1.633  -0.703   1.540  0.00  0.00     0.003 A 
ATOM      5  C4  UNL d   1       0.715  -1.066   2.523  0.00  0.00    -0.005 A 
ATOM      6  C5  UNL d   1      -0.647  -0.861   2.312  0.00  0.00     0.003 A 
ATOM      7  C6  UNL d   1      -1.091  -0.292   1.117  0.00  0.00    -0.001 A 
ENDROOT
TORSDOF 0
ENDMDL
