MODEL 1
REMARK minimizedAffinity -5.75660467
REMARK minimizedRMSD -1
REMARK  0 active torsions:
REMARK  status: ('A' for Active; 'I' for Inactive)
ROOT
ATOM      1  C   UNL d   1      -0.220   0.366  -0.368  0.00  0.00     0.078 C 
ATOM      2  C1  UNL d   1       0.742  -0.424   0.470  0.00  0.00    -0.077 A 
ATOM      3  C2  UNL d   1       1.633  -1.331  -0.117  0.00  0.00    -0.001 A 
ATOM      4  C3  UNL d   1       2.515  -2.066   0.676  0.00  0.00     0.003 A 
ATOM      5  C4  UNL d   1       2.514  -1.903   2.060  0.00  0.00    -0.005 A 
ATOM      6  C5  UNL d   1       1.630  -1.005   2.653  0.00  0.00     0.003 A 
ATOM      7  C6  UNL d   1       0.747  -0.268   1.862  0.00  0.00    -0.001 A 
ENDROOT
TORSDOF 0
ENDMDL
