MODEL 1
REMARK minimizedAffinity -2.59819341
REMARK minimizedRMSD -1
REMARK  0 active torsions:
REMARK  status: ('A' for Active; 'I' for Inactive)
ROOT
ATOM      1  C   UNL d   1      -0.114   1.639  -2.258  0.00  0.00     0.078 C 
ATOM      2  C1  UNL d   1      -0.336   0.957  -0.941  0.00  0.00    -0.077 A 
ATOM      3  C2  UNL d   1      -0.836  -0.349  -0.880  0.00  0.00    -0.001 A 
ATOM      4  C3  UNL d   1      -1.047  -0.967   0.354  0.00  0.00     0.003 A 
ATOM      5  C4  UNL d   1      -0.761  -0.286   1.536  0.00  0.00    -0.005 A 
ATOM      6  C5  UNL d   1      -0.265   1.015   1.485  0.00  0.00     0.003 A 
ATOM      7  C6  UNL d   1      -0.053   1.634   0.252  0.00  0.00    -0.001 A 
ENDROOT
TORSDOF 0
ENDMDL
