MODEL 1
REMARK minimizedAffinity -5.03149605
REMARK minimizedRMSD -1
REMARK  0 active torsions:
REMARK  status: ('A' for Active; 'I' for Inactive)
ROOT
ATOM      1  C   UNL d   1       1.859  -1.561   2.608  0.00  0.00     0.078 C 
ATOM      2  C1  UNL d   1       1.218  -1.321   1.273  0.00  0.00    -0.077 A 
ATOM      3  C2  UNL d   1      -0.033  -0.700   1.175  0.00  0.00    -0.001 A 
ATOM      4  C3  UNL d   1      -0.622  -0.491  -0.073  0.00  0.00     0.003 A 
ATOM      5  C4  UNL d   1       0.033  -0.901  -1.233  0.00  0.00    -0.005 A 
ATOM      6  C5  UNL d   1       1.278  -1.522  -1.145  0.00  0.00     0.003 A 
ATOM      7  C6  UNL d   1       1.868  -1.731   0.102  0.00  0.00    -0.001 A 
ENDROOT
TORSDOF 0
ENDMDL
