MODEL 1
REMARK minimizedAffinity -5.71797705
REMARK minimizedRMSD -1
REMARK  0 active torsions:
REMARK  status: ('A' for Active; 'I' for Inactive)
ROOT
ATOM      1  C   UNL d   1       2.724  -2.314  -0.199  0.00  0.00     0.078 C 
ATOM      2  C1  UNL d   1       1.598  -1.679   0.561  0.00  0.00    -0.077 A 
ATOM      3  C2  UNL d   1       0.655  -0.872  -0.088  0.00  0.00    -0.001 A 
ATOM      4  C3  UNL d   1      -0.383  -0.280   0.633  0.00  0.00     0.003 A 
ATOM      5  C4  UNL d   1      -0.487  -0.486   2.008  0.00  0.00    -0.005 A 
ATOM      6  C5  UNL d   1       0.448  -1.285   2.662  0.00  0.00     0.003 A 
ATOM      7  C6  UNL d   1       1.487  -1.879   1.943  0.00  0.00    -0.001 A 
ENDROOT
TORSDOF 0
ENDMDL
