MODEL 1
REMARK minimizedAffinity 4.58420038
REMARK minimizedRMSD -1
REMARK  0 active torsions:
REMARK  status: ('A' for Active; 'I' for Inactive)
ROOT
ATOM      1  C1  DEN d   1       3.655   5.546  -5.263  0.00  0.00     0.130 A 
ATOM      2  C2  DEN d   1       4.862   5.918  -5.996  0.00  0.00    -0.031 A 
ATOM      3  C3  DEN d   1       5.992   5.918  -5.045  0.00  0.00     0.027 A 
ATOM      4  C4  DEN d   1       5.991   5.377  -2.524  0.00  0.00     0.027 A 
ATOM      5  C5  DEN d   1       5.202   5.019  -1.453  0.00  0.00    -0.003 A 
ATOM      6  C6  DEN d   1       3.848   4.846  -1.568  0.00  0.00     0.001 A 
ATOM      7  C7  DEN d   1       3.248   4.987  -2.792  0.00  0.00     0.017 A 
ATOM      8  C8  DEN d   1       4.036   5.355  -3.875  0.00  0.00    -0.094 A 
ATOM      9  C9  DEN d   1       5.405   5.513  -3.740  0.00  0.00    -0.072 A 
ENDROOT
TORSDOF 0
ENDMDL
