MODEL 1
REMARK minimizedAffinity 15.542366
REMARK minimizedRMSD -1
REMARK  0 active torsions:
REMARK  status: ('A' for Active; 'I' for Inactive)
ROOT
ATOM      1  C1  DEN d   1       2.116   1.454   2.912  0.00  0.00     0.130 A 
ATOM      2  C2  DEN d   1       2.489   1.435   1.500  0.00  0.00    -0.031 A 
ATOM      3  C3  DEN d   1       2.406   0.039   1.026  0.00  0.00     0.027 A 
ATOM      4  C4  DEN d   1       1.736  -2.082   2.332  0.00  0.00     0.027 A 
ATOM      5  C5  DEN d   1       1.348  -2.568   3.561  0.00  0.00    -0.003 A 
ATOM      6  C6  DEN d   1       1.222  -1.759   4.659  0.00  0.00     0.001 A 
ATOM      7  C7  DEN d   1       1.443  -0.412   4.539  0.00  0.00     0.017 A 
ATOM      8  C8  DEN d   1       1.843   0.084   3.305  0.00  0.00    -0.094 A 
ATOM      9  C9  DEN d   1       1.952  -0.748   2.204  0.00  0.00    -0.072 A 
ENDROOT
TORSDOF 0
ENDMDL
