MODEL 1
REMARK minimizedAffinity 5.44382858
REMARK minimizedRMSD -1
REMARK  0 active torsions:
REMARK  status: ('A' for Active; 'I' for Inactive)
ROOT
ATOM      1  C1  DEN d   1      -5.250  -2.731  -2.326  0.00  0.00     0.130 A 
ATOM      2  C2  DEN d   1      -4.765  -3.800  -1.457  0.00  0.00    -0.031 A 
ATOM      3  C3  DEN d   1      -4.542  -4.999  -2.290  0.00  0.00     0.027 A 
ATOM      4  C4  DEN d   1      -4.894  -5.300  -4.828  0.00  0.00     0.027 A 
ATOM      5  C5  DEN d   1      -5.303  -4.677  -5.986  0.00  0.00    -0.003 A 
ATOM      6  C6  DEN d   1      -5.752  -3.383  -6.000  0.00  0.00     0.001 A 
ATOM      7  C7  DEN d   1      -5.759  -2.655  -4.840  0.00  0.00     0.017 A 
ATOM      8  C8  DEN d   1      -5.355  -3.278  -3.666  0.00  0.00    -0.094 A 
ATOM      9  C9  DEN d   1      -4.893  -4.584  -3.675  0.00  0.00    -0.072 A 
ENDROOT
TORSDOF 0
ENDMDL
