MODEL 1
REMARK minimizedAffinity 12.8651428
REMARK minimizedRMSD -1
REMARK  0 active torsions:
REMARK  status: ('A' for Active; 'I' for Inactive)
ROOT
ATOM      1  C1  DEN d   1       5.161   1.119  -6.000  0.00  0.00     0.130 A 
ATOM      2  C2  DEN d   1       4.214   1.827  -5.142  0.00  0.00    -0.031 A 
ATOM      3  C3  DEN d   1       3.736   0.883  -4.112  0.00  0.00     0.027 A 
ATOM      4  C4  DEN d   1       4.371  -1.592  -3.761  0.00  0.00     0.027 A 
ATOM      5  C5  DEN d   1       5.127  -2.637  -4.245  0.00  0.00    -0.003 A 
ATOM      6  C6  DEN d   1       5.915  -2.513  -5.359  0.00  0.00     0.001 A 
ATOM      7  C7  DEN d   1       6.000  -1.305  -6.000  0.00  0.00     0.017 A 
ATOM      8  C8  DEN d   1       5.234  -0.250  -5.522  0.00  0.00    -0.094 A 
ATOM      9  C9  DEN d   1       4.453  -0.391  -4.388  0.00  0.00    -0.072 A 
ENDROOT
TORSDOF 0
ENDMDL
