MODEL 1
REMARK minimizedAffinity 2.73050666
REMARK minimizedRMSD -1
REMARK  0 active torsions:
REMARK  status: ('A' for Active; 'I' for Inactive)
ROOT
ATOM      1  C1  DEN d   1       1.055   0.112   0.795  0.00  0.00     0.130 A 
ATOM      2  C2  DEN d   1       1.963  -0.703   1.598  0.00  0.00    -0.031 A 
ATOM      3  C3  DEN d   1       3.275  -0.027   1.631  0.00  0.00     0.027 A 
ATOM      4  C4  DEN d   1       3.985   2.193   0.526  0.00  0.00     0.027 A 
ATOM      5  C5  DEN d   1       3.563   3.238  -0.266  0.00  0.00    -0.003 A 
ATOM      6  C6  DEN d   1       2.296   3.296  -0.784  0.00  0.00     0.001 A 
ATOM      7  C7  DEN d   1       1.392   2.314  -0.478  0.00  0.00     0.017 A 
ATOM      8  C8  DEN d   1       1.812   1.253   0.314  0.00  0.00    -0.094 A 
ATOM      9  C9  DEN d   1       3.093   1.219   0.838  0.00  0.00    -0.072 A 
ENDROOT
TORSDOF 0
ENDMDL
