MODEL 1
REMARK minimizedAffinity 0.449575305
REMARK minimizedRMSD -1
REMARK  0 active torsions:
REMARK  status: ('A' for Active; 'I' for Inactive)
ROOT
ATOM      1  C1  DEN d   1       1.122   0.946   4.751  0.00  0.00     0.130 A 
ATOM      2  C2  DEN d   1       0.942   1.983   3.739  0.00  0.00    -0.031 A 
ATOM      3  C3  DEN d   1       1.202   1.380   2.416  0.00  0.00     0.027 A 
ATOM      4  C4  DEN d   1       1.856  -1.047   1.839  0.00  0.00     0.027 A 
ATOM      5  C5  DEN d   1       2.138  -2.288   2.365  0.00  0.00    -0.003 A 
ATOM      6  C6  DEN d   1       2.135  -2.529   3.713  0.00  0.00     0.001 A 
ATOM      7  C7  DEN d   1       1.799  -1.523   4.581  0.00  0.00     0.017 A 
ATOM      8  C8  DEN d   1       1.521  -0.267   4.059  0.00  0.00    -0.094 A 
ATOM      9  C9  DEN d   1       1.518  -0.047   2.692  0.00  0.00    -0.072 A 
ENDROOT
TORSDOF 0
ENDMDL
