MODEL 1
REMARK minimizedAffinity 1.16532302
REMARK minimizedRMSD -1
REMARK  0 active torsions:
REMARK  status: ('A' for Active; 'I' for Inactive)
ROOT
ATOM      1  C1  DEN d   1      -5.494  -3.321  -2.269  0.00  0.00     0.130 A 
ATOM      2  C2  DEN d   1      -5.772  -4.394  -1.318  0.00  0.00    -0.031 A 
ATOM      3  C3  DEN d   1      -6.000  -5.635  -2.084  0.00  0.00     0.027 A 
ATOM      4  C4  DEN d   1      -5.943  -6.000  -4.637  0.00  0.00     0.027 A 
ATOM      5  C5  DEN d   1      -5.760  -5.383  -5.855  0.00  0.00    -0.003 A 
ATOM      6  C6  DEN d   1      -5.511  -4.041  -5.964  0.00  0.00     0.001 A 
ATOM      7  C7  DEN d   1      -5.393  -3.278  -4.832  0.00  0.00     0.017 A 
ATOM      8  C8  DEN d   1      -5.584  -3.891  -3.601  0.00  0.00    -0.094 A 
ATOM      9  C9  DEN d   1      -5.823  -5.252  -3.511  0.00  0.00    -0.072 A 
ENDROOT
TORSDOF 0
ENDMDL
