MODEL 1
REMARK minimizedAffinity 17.9404392
REMARK minimizedRMSD -1
REMARK  0 active torsions:
REMARK  status: ('A' for Active; 'I' for Inactive)
ROOT
ATOM      1  C   UNL d   1      -0.633  -0.954   2.506  0.00  0.00     0.023 A 
ATOM      2  C1  UNL d   1      -0.145  -0.999   1.200  0.00  0.00     0.003 A 
ATOM      3  C2  UNL d   1       0.952  -0.216   0.836  0.00  0.00     0.048 A 
ATOM      4  C3  UNL d   1       1.557   0.610   1.783  0.00  0.00     0.023 A 
ATOM      5  C4  UNL d   1       1.073   0.657   3.091  0.00  0.00     0.048 A 
ATOM      6  C5  UNL d   1      -0.025  -0.127   3.450  0.00  0.00     0.003 A 
ATOM      7  I   UNL d   1       3.191   1.776   1.243  0.00  0.00    -0.146 I 
ENDROOT
TORSDOF 0
ENDMDL
