MODEL 1
REMARK minimizedAffinity 6.9342103
REMARK minimizedRMSD -1
REMARK  0 active torsions:
REMARK  status: ('A' for Active; 'I' for Inactive)
ROOT
ATOM      1  C   UNL d   1      -3.401  -1.433   2.933  0.00  0.00     0.023 A 
ATOM      2  C1  UNL d   1      -3.131  -0.141   2.481  0.00  0.00     0.003 A 
ATOM      3  C2  UNL d   1      -1.825   0.350   2.505  0.00  0.00     0.048 A 
ATOM      4  C3  UNL d   1      -0.792  -0.456   2.982  0.00  0.00     0.023 A 
ATOM      5  C4  UNL d   1      -1.056  -1.749   3.435  0.00  0.00     0.048 A 
ATOM      6  C5  UNL d   1      -2.364  -2.236   3.409  0.00  0.00     0.003 A 
ATOM      7  I   UNL d   1       1.154   0.273   3.019  0.00  0.00    -0.146 I 
ENDROOT
TORSDOF 0
ENDMDL
