MODEL 1
REMARK minimizedAffinity 14.493063
REMARK minimizedRMSD -1
REMARK  0 active torsions:
REMARK  status: ('A' for Active; 'I' for Inactive)
ROOT
ATOM      1  C   UNL d   1       4.361   2.516   2.786  0.00  0.00     0.023 A 
ATOM      2  C1  UNL d   1       3.651   2.215   1.624  0.00  0.00     0.003 A 
ATOM      3  C2  UNL d   1       2.606   1.289   1.662  0.00  0.00     0.048 A 
ATOM      4  C3  UNL d   1       2.276   0.669   2.867  0.00  0.00     0.023 A 
ATOM      5  C4  UNL d   1       2.983   0.968   4.033  0.00  0.00     0.048 A 
ATOM      6  C5  UNL d   1       4.028   1.893   3.989  0.00  0.00     0.003 A 
ATOM      7  I   UNL d   1       0.720  -0.708   2.927  0.00  0.00    -0.146 I 
ENDROOT
TORSDOF 0
ENDMDL
