MODEL 1
REMARK minimizedAffinity 12.4971228
REMARK minimizedRMSD -1
REMARK  0 active torsions:
REMARK  status: ('A' for Active; 'I' for Inactive)
ROOT
ATOM      1  C   UNL d   1       1.353  -0.489  -4.935  0.00  0.00     0.023 A 
ATOM      2  C1  UNL d   1       0.380  -1.150  -5.685  0.00  0.00     0.003 A 
ATOM      3  C2  UNL d   1       0.532  -2.504  -5.992  0.00  0.00     0.048 A 
ATOM      4  C3  UNL d   1       1.660  -3.191  -5.545  0.00  0.00     0.023 A 
ATOM      5  C4  UNL d   1       2.636  -2.534  -4.794  0.00  0.00     0.048 A 
ATOM      6  C5  UNL d   1       2.480  -1.181  -4.490  0.00  0.00     0.003 A 
ATOM      7  I   UNL d   1       1.889  -5.206  -6.000  0.00  0.00    -0.146 I 
ENDROOT
TORSDOF 0
ENDMDL
