MODEL 1
REMARK minimizedAffinity 8.49273491
REMARK minimizedRMSD -1
REMARK  0 active torsions:
REMARK  status: ('A' for Active; 'I' for Inactive)
ROOT
ATOM      1  C   UNL d   1       5.829   2.525   4.682  0.00  0.00     0.023 A 
ATOM      2  C1  UNL d   1       5.173   3.741   4.874  0.00  0.00     0.003 A 
ATOM      3  C2  UNL d   1       3.829   3.759   5.252  0.00  0.00     0.048 A 
ATOM      4  C3  UNL d   1       3.147   2.557   5.437  0.00  0.00     0.023 A 
ATOM      5  C4  UNL d   1       3.800   1.338   5.247  0.00  0.00     0.048 A 
ATOM      6  C5  UNL d   1       5.143   1.325   4.868  0.00  0.00     0.003 A 
ATOM      7  I   UNL d   1       1.147   2.581   6.000  0.00  0.00    -0.146 I 
ENDROOT
TORSDOF 0
ENDMDL
