MODEL 1
REMARK minimizedAffinity 5.54289818
REMARK minimizedRMSD -1
REMARK  0 active torsions:
REMARK  status: ('A' for Active; 'I' for Inactive)
ROOT
ATOM      1  C   UNL d   1       0.716  -0.883   2.627  0.00  0.00     0.023 A 
ATOM      2  C1  UNL d   1       1.463  -1.021   3.797  0.00  0.00     0.003 A 
ATOM      3  C2  UNL d   1       1.437  -0.015   4.765  0.00  0.00     0.048 A 
ATOM      4  C3  UNL d   1       0.662   1.125   4.558  0.00  0.00     0.023 A 
ATOM      5  C4  UNL d   1      -0.088   1.267   3.389  0.00  0.00     0.048 A 
ATOM      6  C5  UNL d   1      -0.059   0.259   2.423  0.00  0.00     0.003 A 
ATOM      7  I   UNL d   1       0.623   2.623   5.998  0.00  0.00    -0.146 I 
ENDROOT
TORSDOF 0
ENDMDL
