MODEL 1
REMARK minimizedAffinity 4.68290043
REMARK minimizedRMSD -1
REMARK  0 active torsions:
REMARK  status: ('A' for Active; 'I' for Inactive)
ROOT
ATOM      1  C   UNL d   1       4.262   6.000   2.060  0.00  0.00     0.023 A 
ATOM      2  C1  UNL d   1       3.969   4.811   1.393  0.00  0.00     0.003 A 
ATOM      3  C2  UNL d   1       4.165   3.584   2.031  0.00  0.00     0.048 A 
ATOM      4  C3  UNL d   1       4.653   3.554   3.337  0.00  0.00     0.023 A 
ATOM      5  C4  UNL d   1       4.946   4.742   4.009  0.00  0.00     0.048 A 
ATOM      6  C5  UNL d   1       4.750   5.965   3.367  0.00  0.00     0.003 A 
ATOM      7  I   UNL d   1       4.945   1.729   4.289  0.00  0.00    -0.146 I 
ENDROOT
TORSDOF 0
ENDMDL
