MODEL 1
REMARK minimizedAffinity 8.97093773
REMARK minimizedRMSD -1
REMARK  0 active torsions:
REMARK  status: ('A' for Active; 'I' for Inactive)
ROOT
ATOM      1  C   UNL d   1      -0.743  -0.200  -4.064  0.00  0.00     0.023 A 
ATOM      2  C1  UNL d   1       0.009  -0.458  -5.210  0.00  0.00     0.003 A 
ATOM      3  C2  UNL d   1       0.019  -1.738  -5.767  0.00  0.00     0.048 A 
ATOM      4  C3  UNL d   1      -0.726  -2.756  -5.173  0.00  0.00     0.023 A 
ATOM      5  C4  UNL d   1      -1.481  -2.503  -4.027  0.00  0.00     0.048 A 
ATOM      6  C5  UNL d   1      -1.488  -1.221  -3.473  0.00  0.00     0.003 A 
ATOM      7  I   UNL d   1      -0.713  -4.663  -6.000  0.00  0.00    -0.146 I 
ENDROOT
TORSDOF 0
ENDMDL
