MODEL 1
REMARK minimizedAffinity 6.5575161
REMARK minimizedRMSD -1
REMARK  0 active torsions:
REMARK  status: ('A' for Active; 'I' for Inactive)
ROOT
ATOM      1  C   UNL d   1      -0.096  -0.260   2.614  0.00  0.00     0.023 A 
ATOM      2  C1  UNL d   1      -0.593  -1.508   2.989  0.00  0.00     0.003 A 
ATOM      3  C2  UNL d   1       0.145  -2.326   3.847  0.00  0.00     0.048 A 
ATOM      4  C3  UNL d   1       1.379  -1.889   4.327  0.00  0.00     0.023 A 
ATOM      5  C4  UNL d   1       1.880  -0.641   3.955  0.00  0.00     0.048 A 
ATOM      6  C5  UNL d   1       1.139   0.173   3.097  0.00  0.00     0.003 A 
ATOM      7  I   UNL d   1       2.480  -3.105   5.604  0.00  0.00    -0.146 I 
ENDROOT
TORSDOF 0
ENDMDL
