MODEL 1
REMARK minimizedAffinity -3.21674371
REMARK minimizedRMSD -1
REMARK  0 active torsions:
REMARK  status: ('A' for Active; 'I' for Inactive)
ROOT
ATOM      1  C1  DEN d   1       6.000  -1.227  -4.811  0.00  0.00     0.130 A 
ATOM      2  C2  DEN d   1       5.248  -0.617  -3.717  0.00  0.00    -0.031 A 
ATOM      3  C3  DEN d   1       4.229  -1.587  -3.268  0.00  0.00     0.027 A 
ATOM      4  C4  DEN d   1       3.748  -3.962  -4.152  0.00  0.00     0.027 A 
ATOM      5  C5  DEN d   1       4.117  -4.911  -5.080  0.00  0.00    -0.003 A 
ATOM      6  C6  DEN d   1       5.109  -4.687  -5.998  0.00  0.00     0.001 A 
ATOM      7  C7  DEN d   1       5.797  -3.502  -5.979  0.00  0.00     0.017 A 
ATOM      8  C8  DEN d   1       5.425  -2.538  -5.051  0.00  0.00    -0.094 A 
ATOM      9  C9  DEN d   1       4.428  -2.788  -4.123  0.00  0.00    -0.072 A 
ENDROOT
TORSDOF 0
ENDMDL
