MODEL 1
REMARK minimizedAffinity 10.9990759
REMARK minimizedRMSD -1
REMARK  0 active torsions:
REMARK  status: ('A' for Active; 'I' for Inactive)
ROOT
ATOM      1  C1  DEN d   1       0.728   1.868  -3.472  0.00  0.00     0.130 A 
ATOM      2  C2  DEN d   1      -0.453   1.694  -2.631  0.00  0.00    -0.031 A 
ATOM      3  C3  DEN d   1      -0.418   2.727  -1.576  0.00  0.00     0.027 A 
ATOM      4  C4  DEN d   1       1.337   4.572  -1.169  0.00  0.00     0.027 A 
ATOM      5  C5  DEN d   1       2.524   5.111  -1.615  0.00  0.00    -0.003 A 
ATOM      6  C6  DEN d   1       3.207   4.589  -2.681  0.00  0.00     0.001 A 
ATOM      7  C7  DEN d   1       2.686   3.524  -3.366  0.00  0.00     0.017 A 
ATOM      8  C8  DEN d   1       1.493   2.971  -2.918  0.00  0.00    -0.094 A 
ATOM      9  C9  DEN d   1       0.811   3.520  -1.846  0.00  0.00    -0.072 A 
ENDROOT
TORSDOF 0
ENDMDL
