MODEL 1
REMARK minimizedAffinity -0.829989374
REMARK minimizedRMSD -1
REMARK  0 active torsions:
REMARK  status: ('A' for Active; 'I' for Inactive)
ROOT
ATOM      1  C1  DEN d   1      -3.470   0.725  -3.080  0.00  0.00     0.130 A 
ATOM      2  C2  DEN d   1      -2.232   0.872  -3.841  0.00  0.00    -0.031 A 
ATOM      3  C3  DEN d   1      -2.130   2.279  -4.280  0.00  0.00     0.027 A 
ATOM      4  C4  DEN d   1      -3.758   4.233  -3.853  0.00  0.00     0.027 A 
ATOM      5  C5  DEN d   1      -4.952   4.592  -3.267  0.00  0.00    -0.003 A 
ATOM      6  C6  DEN d   1      -5.745   3.688  -2.613  0.00  0.00     0.001 A 
ATOM      7  C7  DEN d   1      -5.333   2.387  -2.489  0.00  0.00     0.017 A 
ATOM      8  C8  DEN d   1      -4.134   2.016  -3.083  0.00  0.00    -0.094 A 
ATOM      9  C9  DEN d   1      -3.340   2.948  -3.730  0.00  0.00    -0.072 A 
ENDROOT
TORSDOF 0
ENDMDL
