MODEL 1
REMARK minimizedAffinity 3.07758832
REMARK minimizedRMSD -1
REMARK  0 active torsions:
REMARK  status: ('A' for Active; 'I' for Inactive)
ROOT
ATOM      1  C1  DEN d   1       5.999   6.000  -2.712  0.00  0.00     0.130 A 
ATOM      2  C2  DEN d   1       5.961   5.544  -4.099  0.00  0.00    -0.031 A 
ATOM      3  C3  DEN d   1       4.671   4.859  -4.318  0.00  0.00     0.027 A 
ATOM      4  C4  DEN d   1       2.739   4.466  -2.656  0.00  0.00     0.027 A 
ATOM      5  C5  DEN d   1       2.316   4.661  -1.359  0.00  0.00    -0.003 A 
ATOM      6  C6  DEN d   1       3.099   5.280  -0.421  0.00  0.00     0.001 A 
ATOM      7  C7  DEN d   1       4.329   5.768  -0.778  0.00  0.00     0.017 A 
ATOM      8  C8  DEN d   1       4.765   5.569  -2.082  0.00  0.00    -0.094 A 
ATOM      9  C9  DEN d   1       3.953   4.951  -3.018  0.00  0.00    -0.072 A 
ENDROOT
TORSDOF 0
ENDMDL
