MODEL 1
REMARK minimizedAffinity 1.53762841
REMARK minimizedRMSD -1
REMARK  0 active torsions:
REMARK  status: ('A' for Active; 'I' for Inactive)
ROOT
ATOM      1  C1  DEN d   1       3.979  -5.257  -4.751  0.00  0.00     0.130 A 
ATOM      2  C2  DEN d   1       5.021  -6.000  -5.455  0.00  0.00    -0.031 A 
ATOM      3  C3  DEN d   1       5.997  -5.026  -5.984  0.00  0.00     0.027 A 
ATOM      4  C4  DEN d   1       5.999  -2.455  -5.778  0.00  0.00     0.027 A 
ATOM      5  C5  DEN d   1       5.314  -1.368  -5.281  0.00  0.00    -0.003 A 
ATOM      6  C6  DEN d   1       4.128  -1.498  -4.608  0.00  0.00     0.001 A 
ATOM      7  C7  DEN d   1       3.614  -2.746  -4.374  0.00  0.00     0.017 A 
ATOM      8  C8  DEN d   1       4.295  -3.846  -4.878  0.00  0.00    -0.094 A 
ATOM      9  C9  DEN d   1       5.498  -3.695  -5.545  0.00  0.00    -0.072 A 
ENDROOT
TORSDOF 0
ENDMDL
