MODEL 1
REMARK minimizedAffinity 14.5132933
REMARK minimizedRMSD -1
REMARK  0 active torsions:
REMARK  status: ('A' for Active; 'I' for Inactive)
ROOT
ATOM      1  C1  DEN d   1      -2.528   1.011  -1.735  0.00  0.00     0.130 A 
ATOM      2  C2  DEN d   1      -1.595   0.296  -2.602  0.00  0.00    -0.031 A 
ATOM      3  C3  DEN d   1      -1.458   1.063  -3.856  0.00  0.00     0.027 A 
ATOM      4  C4  DEN d   1      -2.590   3.279  -4.535  0.00  0.00     0.027 A 
ATOM      5  C5  DEN d   1      -3.472   4.258  -4.134  0.00  0.00    -0.003 A 
ATOM      6  C6  DEN d   1      -4.122   4.206  -2.930  0.00  0.00     0.001 A 
ATOM      7  C7  DEN d   1      -3.865   3.176  -2.064  0.00  0.00     0.017 A 
ATOM      8  C8  DEN d   1      -2.982   2.182  -2.464  0.00  0.00    -0.094 A 
ATOM      9  C9  DEN d   1      -2.326   2.259  -3.681  0.00  0.00    -0.072 A 
ENDROOT
TORSDOF 0
ENDMDL
