MODEL 1
REMARK minimizedAffinity 19.5205116
REMARK minimizedRMSD -1
REMARK  1 active torsions:
REMARK  status: ('A' for Active; 'I' for Inactive)
REMARK    1  A    between atoms: C1_2  and  C2_3 
ROOT
ATOM      1  C2  UNL d   1       4.046   3.550   5.229  0.00  0.00    -0.076 A 
ATOM      2  C3  UNL d   1       5.425   3.655   5.482  0.00  0.00     0.004 A 
ATOM      3  C4  UNL d   1       5.995   4.869   5.859  0.00  0.00    -0.003 A 
ATOM      4  C5  UNL d   1       5.195   5.999   5.990  0.00  0.00     0.000 A 
ATOM      5  C6  UNL d   1       3.823   5.910   5.760  0.00  0.00     0.000 A 
ATOM      6  C7  UNL d   1       3.229   4.689   5.395  0.00  0.00    -0.073 A 
ATOM      7  C8  UNL d   1       1.745   4.651   5.154  0.00  0.00     0.078 C 
ENDROOT
BRANCH   1   8
ATOM      8  C1  UNL d   1       3.488   2.213   4.796  0.00  0.00     0.053 C 
ATOM      9  C   UNL d   1       3.250   1.274   5.969  0.00  0.00     0.018 C 
ENDBRANCH   1   8
TORSDOF 1
ENDMDL
