MODEL 1
REMARK minimizedAffinity 17.4622002
REMARK minimizedRMSD -1
REMARK  1 active torsions:
REMARK  status: ('A' for Active; 'I' for Inactive)
REMARK    1  A    between atoms: C1_2  and  C2_3 
ROOT
ATOM      1  C2  UNL d   1      -1.569  -2.970  -1.338  0.00  0.00    -0.076 A 
ATOM      2  C3  UNL d   1      -0.840  -2.660  -2.499  0.00  0.00     0.004 A 
ATOM      3  C4  UNL d   1      -1.105  -1.499  -3.224  0.00  0.00    -0.003 A 
ATOM      4  C5  UNL d   1      -2.104  -0.630  -2.799  0.00  0.00     0.000 A 
ATOM      5  C6  UNL d   1      -2.826  -0.914  -1.640  0.00  0.00     0.000 A 
ATOM      6  C7  UNL d   1      -2.559  -2.071  -0.888  0.00  0.00    -0.073 A 
ATOM      7  C8  UNL d   1      -3.372  -2.330   0.351  0.00  0.00     0.078 C 
ENDROOT
BRANCH   1   8
ATOM      8  C1  UNL d   1      -1.254  -4.256  -0.607  0.00  0.00     0.053 C 
ATOM      9  C   UNL d   1      -1.409  -5.482  -1.494  0.00  0.00     0.018 C 
ENDBRANCH   1   8
TORSDOF 1
ENDMDL
