MODEL 1
REMARK minimizedAffinity 17.5252151
REMARK minimizedRMSD -1
REMARK  1 active torsions:
REMARK  status: ('A' for Active; 'I' for Inactive)
REMARK    1  A    between atoms: C1_2  and  C2_3 
ROOT
ATOM      1  C2  UNL d   1       4.012   1.238  -1.749  0.00  0.00    -0.076 A 
ATOM      2  C3  UNL d   1       5.136   1.583  -2.520  0.00  0.00     0.004 A 
ATOM      3  C4  UNL d   1       5.947   0.601  -3.085  0.00  0.00    -0.003 A 
ATOM      4  C5  UNL d   1       5.648  -0.743  -2.889  0.00  0.00     0.000 A 
ATOM      5  C6  UNL d   1       4.526  -1.103  -2.142  0.00  0.00     0.000 A 
ATOM      6  C7  UNL d   1       3.689  -0.125  -1.579  0.00  0.00    -0.073 A 
ATOM      7  C8  UNL d   1       2.496  -0.570  -0.778  0.00  0.00     0.078 C 
ENDROOT
BRANCH   1   8
ATOM      8  C1  UNL d   1       3.184   2.347  -1.138  0.00  0.00     0.053 C 
ATOM      9  C   UNL d   1       4.007   3.266  -0.249  0.00  0.00     0.018 C 
ENDBRANCH   1   8
TORSDOF 1
ENDMDL
