MODEL 1
REMARK minimizedAffinity 11.1453009
REMARK minimizedRMSD -1
REMARK  1 active torsions:
REMARK  status: ('A' for Active; 'I' for Inactive)
REMARK    1  A    between atoms: C1_2  and  C2_3 
ROOT
ATOM      1  C2  UNL d   1      -0.412  -4.779   2.055  0.00  0.00    -0.076 A 
ATOM      2  C3  UNL d   1       0.266  -3.610   2.442  0.00  0.00     0.004 A 
ATOM      3  C4  UNL d   1       0.275  -2.481   1.625  0.00  0.00    -0.003 A 
ATOM      4  C5  UNL d   1      -0.395  -2.502   0.407  0.00  0.00     0.000 A 
ATOM      5  C6  UNL d   1      -1.088  -3.647   0.014  0.00  0.00     0.000 A 
ATOM      6  C7  UNL d   1      -1.120  -4.788   0.834  0.00  0.00    -0.073 A 
ATOM      7  C8  UNL d   1      -1.877  -5.998   0.359  0.00  0.00     0.078 C 
ENDROOT
BRANCH   1   8
ATOM      8  C1  UNL d   1      -0.363  -5.981   2.970  0.00  0.00     0.053 C 
ATOM      9  C   UNL d   1      -0.806  -5.653   4.388  0.00  0.00     0.018 C 
ENDBRANCH   1   8
TORSDOF 1
ENDMDL
