MODEL 1
REMARK minimizedAffinity 15.73804
REMARK minimizedRMSD -1
REMARK  1 active torsions:
REMARK  status: ('A' for Active; 'I' for Inactive)
REMARK    1  A    between atoms: C1_2  and  C2_3 
ROOT
ATOM      1  C2  UNL d   1      -0.416   0.760  -3.609  0.00  0.00    -0.076 A 
ATOM      2  C3  UNL d   1      -0.035   1.945  -4.263  0.00  0.00     0.004 A 
ATOM      3  C4  UNL d   1      -0.984   2.893  -4.639  0.00  0.00    -0.003 A 
ATOM      4  C5  UNL d   1      -2.330   2.673  -4.368  0.00  0.00     0.000 A 
ATOM      5  C6  UNL d   1      -2.724   1.511  -3.705  0.00  0.00     0.000 A 
ATOM      6  C7  UNL d   1      -1.778   0.552  -3.304  0.00  0.00    -0.073 A 
ATOM      7  C8  UNL d   1      -2.259  -0.686  -2.598  0.00  0.00     0.078 C 
ENDROOT
BRANCH   1   8
ATOM      8  C1  UNL d   1       0.655  -0.245  -3.249  0.00  0.00     0.053 C 
ATOM      9  C   UNL d   1       1.778   0.369  -2.427  0.00  0.00     0.018 C 
ENDBRANCH   1   8
TORSDOF 1
ENDMDL
