MODEL 1
REMARK minimizedAffinity 24.7350407
REMARK minimizedRMSD -1
REMARK  1 active torsions:
REMARK  status: ('A' for Active; 'I' for Inactive)
REMARK    1  A    between atoms: C1_2  and  C2_3 
ROOT
ATOM      1  C2  UNL d   1       5.145   3.754   3.748  0.00  0.00    -0.076 A 
ATOM      2  C3  UNL d   1       5.809   4.975   3.534  0.00  0.00     0.004 A 
ATOM      3  C4  UNL d   1       5.868   5.944   4.533  0.00  0.00    -0.003 A 
ATOM      4  C5  UNL d   1       5.265   5.709   5.764  0.00  0.00     0.000 A 
ATOM      5  C6  UNL d   1       4.617   4.497   6.000  0.00  0.00     0.000 A 
ATOM      6  C7  UNL d   1       4.562   3.502   5.008  0.00  0.00    -0.073 A 
ATOM      7  C8  UNL d   1       3.845   2.216   5.315  0.00  0.00     0.078 C 
ENDROOT
BRANCH   1   8
ATOM      8  C1  UNL d   1       5.090   2.751   2.618  0.00  0.00     0.053 C 
ATOM      9  C   UNL d   1       4.733   3.393   1.286  0.00  0.00     0.018 C 
ENDBRANCH   1   8
TORSDOF 1
ENDMDL
