MODEL 1
REMARK minimizedAffinity 12.6540546
REMARK minimizedRMSD -1
REMARK  1 active torsions:
REMARK  status: ('A' for Active; 'I' for Inactive)
REMARK    1  A    between atoms: C1_2  and  C2_3 
ROOT
ATOM      1  C2  UNL d   1       4.584   1.851  -2.248  0.00  0.00    -0.076 A 
ATOM      2  C3  UNL d   1       4.203   0.678  -2.923  0.00  0.00     0.004 A 
ATOM      3  C4  UNL d   1       3.066  -0.032  -2.540  0.00  0.00    -0.003 A 
ATOM      4  C5  UNL d   1       2.292   0.419  -1.477  0.00  0.00     0.000 A 
ATOM      5  C6  UNL d   1       2.645   1.590  -0.808  0.00  0.00     0.000 A 
ATOM      6  C7  UNL d   1       3.779   2.327  -1.191  0.00  0.00    -0.073 A 
ATOM      7  C8  UNL d   1       4.118   3.580  -0.430  0.00  0.00     0.078 C 
ENDROOT
BRANCH   1   8
ATOM      8  C1  UNL d   1       5.842   2.564  -2.690  0.00  0.00     0.053 C 
ATOM      9  C   UNL d   1       5.996   2.591  -4.203  0.00  0.00     0.018 C 
ENDBRANCH   1   8
TORSDOF 1
ENDMDL
