MODEL 1
REMARK minimizedAffinity 15.2014179
REMARK minimizedRMSD -1
REMARK  1 active torsions:
REMARK  status: ('A' for Active; 'I' for Inactive)
REMARK    1  A    between atoms: C1_2  and  C2_3 
ROOT
ATOM      1  C2  UNL d   1       5.284   3.542   4.584  0.00  0.00    -0.076 A 
ATOM      2  C3  UNL d   1       5.920   4.795   4.547  0.00  0.00     0.004 A 
ATOM      3  C4  UNL d   1       5.383   5.892   5.218  0.00  0.00    -0.003 A 
ATOM      4  C5  UNL d   1       4.201   5.754   5.937  0.00  0.00     0.000 A 
ATOM      5  C6  UNL d   1       3.566   4.514   5.999  0.00  0.00     0.000 A 
ATOM      6  C7  UNL d   1       4.103   3.394   5.342  0.00  0.00    -0.073 A 
ATOM      7  C8  UNL d   1       3.372   2.082   5.437  0.00  0.00     0.078 C 
ENDROOT
BRANCH   1   8
ATOM      8  C1  UNL d   1       5.898   2.394   3.814  0.00  0.00     0.053 C 
ATOM      9  C   UNL d   1       5.299   2.237   2.425  0.00  0.00     0.018 C 
ENDBRANCH   1   8
TORSDOF 1
ENDMDL
