MODEL 1
REMARK minimizedAffinity 10.6744671
REMARK minimizedRMSD -1
REMARK  1 active torsions:
REMARK  status: ('A' for Active; 'I' for Inactive)
REMARK    1  A    between atoms: C1_2  and  C2_3 
ROOT
ATOM      1  C2  UNL d   1       5.309   3.531   4.522  0.00  0.00    -0.076 A 
ATOM      2  C3  UNL d   1       5.894   4.785   4.273  0.00  0.00     0.004 A 
ATOM      3  C4  UNL d   1       5.389   5.942   4.863  0.00  0.00    -0.003 A 
ATOM      4  C5  UNL d   1       4.292   5.865   5.713  0.00  0.00     0.000 A 
ATOM      5  C6  UNL d   1       3.709   4.627   5.985  0.00  0.00     0.000 A 
ATOM      6  C7  UNL d   1       4.216   3.449   5.411  0.00  0.00    -0.073 A 
ATOM      7  C8  UNL d   1       3.545   2.142   5.735  0.00  0.00     0.078 C 
ENDROOT
BRANCH   1   8
ATOM      8  C1  UNL d   1       5.882   2.314   3.832  0.00  0.00     0.053 C 
ATOM      9  C   UNL d   1       5.820   2.420   2.316  0.00  0.00     0.018 C 
ENDBRANCH   1   8
TORSDOF 1
ENDMDL
