MODEL 1
REMARK minimizedAffinity 28.8293991
REMARK minimizedRMSD -1
REMARK  1 active torsions:
REMARK  status: ('A' for Active; 'I' for Inactive)
REMARK    1  A    between atoms: C1_2  and  C2_3 
ROOT
ATOM      1  C2  UNL d   1       0.863   1.678  -3.034  0.00  0.00    -0.076 A 
ATOM      2  C3  UNL d   1       1.725   2.556  -2.355  0.00  0.00     0.004 A 
ATOM      3  C4  UNL d   1       2.602   2.089  -1.378  0.00  0.00    -0.003 A 
ATOM      4  C5  UNL d   1       2.632   0.735  -1.064  0.00  0.00     0.000 A 
ATOM      5  C6  UNL d   1       1.796  -0.154  -1.740  0.00  0.00     0.000 A 
ATOM      6  C7  UNL d   1       0.918   0.299  -2.739  0.00  0.00    -0.073 A 
ATOM      7  C8  UNL d   1       0.034  -0.703  -3.432  0.00  0.00     0.078 C 
ENDROOT
BRANCH   1   8
ATOM      8  C1  UNL d   1      -0.086   2.246  -4.065  0.00  0.00     0.053 C 
ATOM      9  C   UNL d   1      -1.534   2.218  -3.602  0.00  0.00     0.018 C 
ENDBRANCH   1   8
TORSDOF 1
ENDMDL
