MODEL 1
REMARK minimizedAffinity 14.4299965
REMARK minimizedRMSD -1
REMARK  1 active torsions:
REMARK  status: ('A' for Active; 'I' for Inactive)
REMARK    1  A    between atoms: C1_2  and  C2_3 
ROOT
ATOM      1  C2  UNL d   1       5.238   3.513   4.845  0.00  0.00    -0.076 A 
ATOM      2  C3  UNL d   1       5.989   4.701   4.869  0.00  0.00     0.004 A 
ATOM      3  C4  UNL d   1       5.472   5.866   5.433  0.00  0.00    -0.003 A 
ATOM      4  C5  UNL d   1       4.195   5.862   5.984  0.00  0.00     0.000 A 
ATOM      5  C6  UNL d   1       3.442   4.688   5.984  0.00  0.00     0.000 A 
ATOM      6  C7  UNL d   1       3.955   3.501   5.434  0.00  0.00    -0.073 A 
ATOM      7  C8  UNL d   1       3.097   2.265   5.456  0.00  0.00     0.078 C 
ENDROOT
BRANCH   1   8
ATOM      8  C1  UNL d   1       5.840   2.288   4.195  0.00  0.00     0.053 C 
ATOM      9  C   UNL d   1       5.261   2.016   2.815  0.00  0.00     0.018 C 
ENDBRANCH   1   8
TORSDOF 1
ENDMDL
