MODEL 1
REMARK minimizedAffinity 24.1144238
REMARK minimizedRMSD -1
REMARK  1 active torsions:
REMARK  status: ('A' for Active; 'I' for Inactive)
REMARK    1  A    between atoms: C1_2  and  C2_3 
ROOT
ATOM      1  C2  UNL d   1      -0.774  -3.312  -0.225  0.00  0.00    -0.076 A 
ATOM      2  C3  UNL d   1      -0.852  -4.168  -1.337  0.00  0.00     0.004 A 
ATOM      3  C4  UNL d   1      -1.196  -3.680  -2.596  0.00  0.00    -0.003 A 
ATOM      4  C5  UNL d   1      -1.469  -2.326  -2.763  0.00  0.00     0.000 A 
ATOM      5  C6  UNL d   1      -1.380  -1.460  -1.674  0.00  0.00     0.000 A 
ATOM      6  C7  UNL d   1      -1.017  -1.934  -0.402  0.00  0.00    -0.073 A 
ATOM      7  C8  UNL d   1      -0.943  -0.955   0.739  0.00  0.00     0.078 C 
ENDROOT
BRANCH   1   8
ATOM      8  C1  UNL d   1      -0.422  -3.904   1.122  0.00  0.00     0.053 C 
ATOM      9  C   UNL d   1      -0.850  -5.358   1.249  0.00  0.00     0.018 C 
ENDBRANCH   1   8
TORSDOF 1
ENDMDL
