MODEL 1
REMARK minimizedAffinity 11.3188267
REMARK minimizedRMSD -1
REMARK  1 active torsions:
REMARK  status: ('A' for Active; 'I' for Inactive)
REMARK    1  A    between atoms: C1_2  and  C2_3 
ROOT
ATOM      1  C2  UNL d   1       4.868   0.689  -5.261  0.00  0.00    -0.077 A 
ATOM      2  C3  UNL d   1       5.741  -0.291  -5.755  0.00  0.00     0.002 A 
ATOM      3  C4  UNL d   1       5.860  -1.522  -5.108  0.00  0.00     0.002 A 
ATOM      4  C5  UNL d   1       5.107  -1.786  -3.966  0.00  0.00    -0.004 A 
ATOM      5  C6  UNL d   1       4.238  -0.818  -3.465  0.00  0.00     0.002 A 
ATOM      6  C7  UNL d   1       4.118   0.414  -4.110  0.00  0.00     0.002 A 
ENDROOT
BRANCH   1   7
ATOM      7  C1  UNL d   1       4.702   1.999  -5.985  0.00  0.00     0.055 C 
ATOM      8  C   UNL d   1       6.000   2.793  -6.000  0.00  0.00     0.019 C 
ENDBRANCH   1   7
TORSDOF 1
ENDMDL
