MODEL 1
REMARK minimizedAffinity 9.74161243
REMARK minimizedRMSD -1
REMARK  1 active torsions:
REMARK  status: ('A' for Active; 'I' for Inactive)
REMARK    1  A    between atoms: C1_2  and  C2_3 
ROOT
ATOM      1  C2  UNL d   1      -3.166   2.038  -0.891  0.00  0.00    -0.077 A 
ATOM      2  C3  UNL d   1      -4.506   2.157  -1.287  0.00  0.00     0.002 A 
ATOM      3  C4  UNL d   1      -4.875   1.912  -2.611  0.00  0.00     0.002 A 
ATOM      4  C5  UNL d   1      -3.912   1.543  -3.548  0.00  0.00    -0.004 A 
ATOM      5  C6  UNL d   1      -2.577   1.424  -3.164  0.00  0.00     0.002 A 
ATOM      6  C7  UNL d   1      -2.206   1.670  -1.842  0.00  0.00     0.002 A 
ENDROOT
BRANCH   1   7
ATOM      7  C1  UNL d   1      -2.773   2.254   0.547  0.00  0.00     0.055 C 
ATOM      8  C   UNL d   1      -1.297   1.959   0.768  0.00  0.00     0.019 C 
ENDBRANCH   1   7
TORSDOF 1
ENDMDL
