MODEL 1
REMARK minimizedAffinity 9.21258831
REMARK minimizedRMSD -1
REMARK  1 active torsions:
REMARK  status: ('A' for Active; 'I' for Inactive)
REMARK    1  A    between atoms: C1_2  and  C2_3 
ROOT
ATOM      1  C2  UNL d   1       4.133   0.288  -3.475  0.00  0.00    -0.077 A 
ATOM      2  C3  UNL d   1       5.075  -0.519  -4.128  0.00  0.00     0.002 A 
ATOM      3  C4  UNL d   1       5.563  -0.159  -5.385  0.00  0.00     0.002 A 
ATOM      4  C5  UNL d   1       5.117   1.010  -5.999  0.00  0.00    -0.004 A 
ATOM      5  C6  UNL d   1       4.178   1.818  -5.359  0.00  0.00     0.002 A 
ATOM      6  C7  UNL d   1       3.689   1.459  -4.102  0.00  0.00     0.002 A 
ENDROOT
BRANCH   1   7
ATOM      7  C1  UNL d   1       3.643  -0.073  -2.097  0.00  0.00     0.055 C 
ATOM      8  C   UNL d   1       2.647  -1.222  -2.147  0.00  0.00     0.019 C 
ENDBRANCH   1   7
TORSDOF 1
ENDMDL
