MODEL 1
REMARK minimizedAffinity 3.30053997
REMARK minimizedRMSD -1
REMARK  1 active torsions:
REMARK  status: ('A' for Active; 'I' for Inactive)
REMARK    1  A    between atoms: C1_2  and  C2_3 
ROOT
ATOM      1  C2  UNL d   1       4.191  -0.715  -3.631  0.00  0.00    -0.077 A 
ATOM      2  C3  UNL d   1       3.831   0.330  -4.494  0.00  0.00     0.002 A 
ATOM      3  C4  UNL d   1       4.550   0.555  -5.669  0.00  0.00     0.002 A 
ATOM      4  C5  UNL d   1       5.630  -0.263  -5.995  0.00  0.00    -0.004 A 
ATOM      5  C6  UNL d   1       5.997  -1.304  -5.142  0.00  0.00     0.002 A 
ATOM      6  C7  UNL d   1       5.280  -1.529  -3.966  0.00  0.00     0.002 A 
ENDROOT
BRANCH   1   7
ATOM      7  C1  UNL d   1       3.387  -0.989  -2.387  0.00  0.00     0.055 C 
ATOM      8  C   UNL d   1       2.100  -1.734  -2.713  0.00  0.00     0.019 C 
ENDBRANCH   1   7
TORSDOF 1
ENDMDL
