MODEL 1
REMARK minimizedAffinity 5.40287495
REMARK minimizedRMSD -1
REMARK  1 active torsions:
REMARK  status: ('A' for Active; 'I' for Inactive)
REMARK    1  A    between atoms: C1_2  and  C2_3 
ROOT
ATOM      1  C2  UNL d   1      -4.079  -5.041  -4.483  0.00  0.00    -0.077 A 
ATOM      2  C3  UNL d   1      -4.107  -3.639  -4.485  0.00  0.00     0.002 A 
ATOM      3  C4  UNL d   1      -5.061  -2.953  -5.238  0.00  0.00     0.002 A 
ATOM      4  C5  UNL d   1      -5.997  -3.660  -5.991  0.00  0.00    -0.004 A 
ATOM      5  C6  UNL d   1      -5.976  -5.054  -5.997  0.00  0.00     0.002 A 
ATOM      6  C7  UNL d   1      -5.022  -5.742  -5.245  0.00  0.00     0.002 A 
ENDROOT
BRANCH   1   7
ATOM      7  C1  UNL d   1      -3.081  -5.783  -3.632  0.00  0.00     0.055 C 
ATOM      8  C   UNL d   1      -3.400  -5.638  -2.151  0.00  0.00     0.019 C 
ENDBRANCH   1   7
TORSDOF 1
ENDMDL
