MODEL 1
REMARK minimizedAffinity 14.7717972
REMARK minimizedRMSD -1
REMARK  1 active torsions:
REMARK  status: ('A' for Active; 'I' for Inactive)
REMARK    1  A    between atoms: C1_2  and  C2_3 
ROOT
ATOM      1  C2  UNL d   1      -3.780   2.024  -2.246  0.00  0.00    -0.077 A 
ATOM      2  C3  UNL d   1      -3.791   2.075  -3.647  0.00  0.00     0.002 A 
ATOM      3  C4  UNL d   1      -4.897   2.587  -4.327  0.00  0.00     0.002 A 
ATOM      4  C5  UNL d   1      -5.999   3.055  -3.615  0.00  0.00    -0.004 A 
ATOM      5  C6  UNL d   1      -6.000   3.007  -2.221  0.00  0.00     0.002 A 
ATOM      6  C7  UNL d   1      -4.895   2.495  -1.540  0.00  0.00     0.002 A 
ENDROOT
BRANCH   1   7
ATOM      7  C1  UNL d   1      -2.568   1.518  -1.509  0.00  0.00     0.055 C 
ATOM      8  C   UNL d   1      -2.603   1.921  -0.042  0.00  0.00     0.019 C 
ENDBRANCH   1   7
TORSDOF 1
ENDMDL
