MODEL 1
REMARK minimizedAffinity 5.71519899
REMARK minimizedRMSD -1
REMARK  1 active torsions:
REMARK  status: ('A' for Active; 'I' for Inactive)
REMARK    1  A    between atoms: C1_2  and  C2_3 
ROOT
ATOM      1  C2  UNL d   1      -4.424   2.264  -2.135  0.00  0.00    -0.077 A 
ATOM      2  C3  UNL d   1      -5.686   2.801  -1.846  0.00  0.00     0.002 A 
ATOM      3  C4  UNL d   1      -5.938   3.384  -0.602  0.00  0.00     0.002 A 
ATOM      4  C5  UNL d   1      -4.931   3.439   0.360  0.00  0.00    -0.004 A 
ATOM      5  C6  UNL d   1      -3.673   2.906   0.082  0.00  0.00     0.002 A 
ATOM      6  C7  UNL d   1      -3.421   2.322  -1.159  0.00  0.00     0.002 A 
ENDROOT
BRANCH   1   7
ATOM      7  C1  UNL d   1      -4.136   1.679  -3.493  0.00  0.00     0.055 C 
ATOM      8  C   UNL d   1      -4.845   2.457  -4.592  0.00  0.00     0.019 C 
ENDBRANCH   1   7
TORSDOF 1
ENDMDL
