MODEL 1
REMARK minimizedAffinity -3.35659742
REMARK minimizedRMSD -1
REMARK  0 active torsions:
REMARK  status: ('A' for Active; 'I' for Inactive)
ROOT
ATOM      1  C   UNL d   1       1.060  -0.716   2.934  0.00  0.00     0.172 C 
ATOM      2  N   UNL d   1       0.477  -0.412   1.649  0.00  0.00    -0.070 N 
ATOM      3  C1  UNL d   1       1.114  -0.509   0.440  0.00  0.00    -0.004 A 
ATOM      4  C2  UNL d   1       0.220  -0.134  -0.539  0.00  0.00    -0.047 A 
ATOM      5  C3  UNL d   1      -0.996   0.202   0.103  0.00  0.00    -0.047 A 
ATOM      6  C4  UNL d   1      -0.809   0.020   1.457  0.00  0.00    -0.004 A 
ENDROOT
TORSDOF 0
ENDMDL
