MODEL 1
REMARK minimizedAffinity -3.69601154
REMARK minimizedRMSD -1
REMARK  0 active torsions:
REMARK  status: ('A' for Active; 'I' for Inactive)
ROOT
ATOM      1  C   UNL d   1       2.552  -1.229   0.296  0.00  0.00     0.172 C 
ATOM      2  N   UNL d   1       1.296  -0.934   0.944  0.00  0.00    -0.070 N 
ATOM      3  C1  UNL d   1       0.979  -1.227   2.243  0.00  0.00    -0.004 A 
ATOM      4  C2  UNL d   1      -0.306  -0.785   2.474  0.00  0.00    -0.047 A 
ATOM      5  C3  UNL d   1      -0.778  -0.207   1.272  0.00  0.00    -0.047 A 
ATOM      6  C4  UNL d   1       0.234  -0.312   0.341  0.00  0.00    -0.004 A 
ENDROOT
TORSDOF 0
ENDMDL
