MODEL 1
REMARK minimizedAffinity -2.2030232
REMARK minimizedRMSD -1
REMARK  0 active torsions:
REMARK  status: ('A' for Active; 'I' for Inactive)
ROOT
ATOM      1  C   UNL d   1      -0.264  -0.376   1.980  0.00  0.00     0.172 C 
ATOM      2  N   UNL d   1      -0.030  -0.214   0.564  0.00  0.00    -0.070 N 
ATOM      3  C1  UNL d   1       0.749  -1.028  -0.214  0.00  0.00    -0.004 A 
ATOM      4  C2  UNL d   1       0.714  -0.540  -1.502  0.00  0.00    -0.047 A 
ATOM      5  C3  UNL d   1      -0.114   0.608  -1.498  0.00  0.00    -0.047 A 
ATOM      6  C4  UNL d   1      -0.561   0.787  -0.206  0.00  0.00    -0.004 A 
ENDROOT
TORSDOF 0
ENDMDL
