MODEL 1
REMARK minimizedAffinity -2.11779809
REMARK minimizedRMSD -1
REMARK  0 active torsions:
REMARK  status: ('A' for Active; 'I' for Inactive)
ROOT
ATOM      1  C   UNL d   1      -1.230  -0.420  -0.135  0.00  0.00     0.172 C 
ATOM      2  N   UNL d   1       0.096  -0.036  -0.558  0.00  0.00    -0.070 N 
ATOM      3  C1  UNL d   1       1.131  -0.894  -0.820  0.00  0.00    -0.004 A 
ATOM      4  C2  UNL d   1       2.221  -0.140  -1.194  0.00  0.00    -0.047 A 
ATOM      5  C3  UNL d   1       1.829   1.220  -1.155  0.00  0.00    -0.047 A 
ATOM      6  C4  UNL d   1       0.509   1.255  -0.758  0.00  0.00    -0.004 A 
ENDROOT
TORSDOF 0
ENDMDL
