MODEL 1
REMARK minimizedAffinity -2.30662298
REMARK minimizedRMSD -1
REMARK  0 active torsions:
REMARK  status: ('A' for Active; 'I' for Inactive)
ROOT
ATOM      1  C   UNL d   1      -0.529   0.330  -1.617  0.00  0.00     0.172 C 
ATOM      2  N   UNL d   1      -0.870   1.695  -1.941  0.00  0.00    -0.070 N 
ATOM      3  C1  UNL d   1      -0.017   2.765  -1.892  0.00  0.00    -0.004 A 
ATOM      4  C2  UNL d   1      -0.722   3.885  -2.274  0.00  0.00    -0.047 A 
ATOM      5  C3  UNL d   1      -2.046   3.475  -2.562  0.00  0.00    -0.047 A 
ATOM      6  C4  UNL d   1      -2.110   2.114  -2.347  0.00  0.00    -0.004 A 
ENDROOT
TORSDOF 0
ENDMDL
