MODEL 1
REMARK minimizedAffinity -0.191740736
REMARK minimizedRMSD -1
REMARK  0 active torsions:
REMARK  status: ('A' for Active; 'I' for Inactive)
ROOT
ATOM      1  C   UNL d   1      -1.217   2.898  -1.959  0.00  0.00     0.172 C 
ATOM      2  N   UNL d   1      -0.496   1.831  -1.307  0.00  0.00    -0.070 N 
ATOM      3  C1  UNL d   1      -1.057   0.822  -0.571  0.00  0.00    -0.004 A 
ATOM      4  C2  UNL d   1      -0.038   0.010  -0.121  0.00  0.00    -0.047 A 
ATOM      5  C3  UNL d   1       1.177   0.551  -0.603  0.00  0.00    -0.047 A 
ATOM      6  C4  UNL d   1       0.865   1.677  -1.334  0.00  0.00    -0.004 A 
ENDROOT
TORSDOF 0
ENDMDL
