MODEL 1
REMARK minimizedAffinity -3.18390083
REMARK minimizedRMSD -1
REMARK  0 active torsions:
REMARK  status: ('A' for Active; 'I' for Inactive)
ROOT
ATOM      1  C   UNL d   1      -0.420   0.079  -0.602  0.00  0.00     0.172 C 
ATOM      2  N   UNL d   1       0.178  -0.400   0.622  0.00  0.00    -0.070 N 
ATOM      3  C1  UNL d   1       1.521  -0.499   0.869  0.00  0.00    -0.004 A 
ATOM      4  C2  UNL d   1       1.680  -0.997   2.144  0.00  0.00    -0.047 A 
ATOM      5  C3  UNL d   1       0.388  -1.204   2.682  0.00  0.00    -0.047 A 
ATOM      6  C4  UNL d   1      -0.524  -0.826   1.719  0.00  0.00    -0.004 A 
ENDROOT
TORSDOF 0
ENDMDL
