MODEL 1
REMARK minimizedAffinity -3.42136621
REMARK minimizedRMSD -1
REMARK  0 active torsions:
REMARK  status: ('A' for Active; 'I' for Inactive)
ROOT
ATOM      1  C   UNL d   1      -1.526  -0.192   0.396  0.00  0.00     0.172 C 
ATOM      2  N   UNL d   1      -0.280  -0.333   1.112  0.00  0.00    -0.070 N 
ATOM      3  C1  UNL d   1      -0.076  -1.124   2.211  0.00  0.00    -0.004 A 
ATOM      4  C2  UNL d   1       1.240  -0.981   2.595  0.00  0.00    -0.047 A 
ATOM      5  C3  UNL d   1       1.847  -0.072   1.696  0.00  0.00    -0.047 A 
ATOM      6  C4  UNL d   1       0.883   0.314   0.789  0.00  0.00    -0.004 A 
ENDROOT
TORSDOF 0
ENDMDL
