MODEL 1
REMARK minimizedAffinity -0.49794957
REMARK minimizedRMSD -1
REMARK  0 active torsions:
REMARK  status: ('A' for Active; 'I' for Inactive)
ROOT
ATOM      1  C   UNL d   1      -0.238   0.152  -0.687  0.00  0.00     0.172 C 
ATOM      2  N   UNL d   1      -0.202  -0.051   0.742  0.00  0.00    -0.070 N 
ATOM      3  C1  UNL d   1      -0.211   0.937   1.690  0.00  0.00    -0.004 A 
ATOM      4  C2  UNL d   1      -0.169   0.334   2.928  0.00  0.00    -0.047 A 
ATOM      5  C3  UNL d   1      -0.131  -1.065   2.718  0.00  0.00    -0.047 A 
ATOM      6  C4  UNL d   1      -0.153  -1.275   1.355  0.00  0.00    -0.004 A 
ENDROOT
TORSDOF 0
ENDMDL
