MODEL 1
REMARK minimizedAffinity -0.209534675
REMARK minimizedRMSD -1
REMARK  0 active torsions:
REMARK  status: ('A' for Active; 'I' for Inactive)
ROOT
ATOM      1  C   UNL d   1      -1.371  -0.768   1.317  0.00  0.00     0.172 C 
ATOM      2  N   UNL d   1      -0.001  -0.752   1.772  0.00  0.00    -0.070 N 
ATOM      3  C1  UNL d   1       1.108  -0.822   0.971  0.00  0.00    -0.004 A 
ATOM      4  C2  UNL d   1       2.220  -0.777   1.784  0.00  0.00    -0.047 A 
ATOM      5  C3  UNL d   1       1.764  -0.678   3.120  0.00  0.00    -0.047 A 
ATOM      6  C4  UNL d   1       0.386  -0.665   3.084  0.00  0.00    -0.004 A 
ENDROOT
TORSDOF 0
ENDMDL
