MODEL 1
REMARK minimizedAffinity 0.71805346
REMARK minimizedRMSD -1
REMARK  0 active torsions:
REMARK  status: ('A' for Active; 'I' for Inactive)
ROOT
ATOM      1  C1  BNZ d   1      -1.304   2.346   2.577  0.00  0.00     0.000 A 
ATOM      2  C2  BNZ d   1      -1.540   1.136   3.174  0.00  0.00     0.000 A 
ATOM      3  C3  BNZ d   1      -0.505   0.325   3.546  0.00  0.00     0.000 A 
ATOM      4  C4  BNZ d   1       0.762   0.705   3.284  0.00  0.00     0.000 A 
ATOM      5  C5  BNZ d   1       1.017   1.917   2.675  0.00  0.00     0.000 A 
ATOM      6  C6  BNZ d   1      -0.026   2.749   2.337  0.00  0.00     0.000 A 
ENDROOT
TORSDOF 0
ENDMDL
