MODEL 1
REMARK minimizedAffinity 1.15275788
REMARK minimizedRMSD -1
REMARK  0 active torsions:
REMARK  status: ('A' for Active; 'I' for Inactive)
ROOT
ATOM      1  C1  BNZ d   1      -1.394   4.376  -1.522  0.00  0.00     0.000 A 
ATOM      2  C2  BNZ d   1      -0.567   5.453  -1.701  0.00  0.00     0.000 A 
ATOM      3  C3  BNZ d   1       0.678   5.481  -1.139  0.00  0.00     0.000 A 
ATOM      4  C4  BNZ d   1       1.081   4.451  -0.367  0.00  0.00     0.000 A 
ATOM      5  C5  BNZ d   1       0.256   3.361  -0.170  0.00  0.00     0.000 A 
ATOM      6  C6  BNZ d   1      -0.983   3.320  -0.769  0.00  0.00     0.000 A 
ENDROOT
TORSDOF 0
ENDMDL
