MODEL 1
REMARK minimizedAffinity 2.81097984
REMARK minimizedRMSD -1
REMARK  0 active torsions:
REMARK  status: ('A' for Active; 'I' for Inactive)
ROOT
ATOM      1  C1  BNZ d   1      -0.679   1.806  -0.628  0.00  0.00     0.000 A 
ATOM      2  C2  BNZ d   1      -1.014   1.078   0.483  0.00  0.00     0.000 A 
ATOM      3  C3  BNZ d   1      -0.627   1.486   1.729  0.00  0.00     0.000 A 
ATOM      4  C4  BNZ d   1       0.127   2.596   1.859  0.00  0.00     0.000 A 
ATOM      5  C5  BNZ d   1       0.481   3.335   0.748  0.00  0.00     0.000 A 
ATOM      6  C6  BNZ d   1       0.057   2.943  -0.501  0.00  0.00     0.000 A 
ENDROOT
TORSDOF 0
ENDMDL
