MODEL 1
REMARK minimizedAffinity 5.85421371
REMARK minimizedRMSD -1
REMARK  0 active torsions:
REMARK  status: ('A' for Active; 'I' for Inactive)
ROOT
ATOM      1  C1  BNZ d   1      -0.677   2.977  -1.289  0.00  0.00     0.000 A 
ATOM      2  C2  BNZ d   1      -1.761   3.098  -2.116  0.00  0.00     0.000 A 
ATOM      3  C3  BNZ d   1      -2.354   4.312  -2.320  0.00  0.00     0.000 A 
ATOM      4  C4  BNZ d   1      -1.888   5.396  -1.666  0.00  0.00     0.000 A 
ATOM      5  C5  BNZ d   1      -0.801   5.288  -0.821  0.00  0.00     0.000 A 
ATOM      6  C6  BNZ d   1      -0.182   4.071  -0.649  0.00  0.00     0.000 A 
ENDROOT
TORSDOF 0
ENDMDL
