MODEL 1
REMARK minimizedAffinity 2.08543324
REMARK minimizedRMSD -1
REMARK  0 active torsions:
REMARK  status: ('A' for Active; 'I' for Inactive)
ROOT
ATOM      1  C1  BNZ d   1       0.658   3.412  -1.050  0.00  0.00     0.000 A 
ATOM      2  C2  BNZ d   1      -0.711   3.372  -1.033  0.00  0.00     0.000 A 
ATOM      3  C3  BNZ d   1      -1.447   4.428  -1.493  0.00  0.00     0.000 A 
ATOM      4  C4  BNZ d   1      -0.815   5.536  -1.931  0.00  0.00     0.000 A 
ATOM      5  C5  BNZ d   1       0.564   5.595  -1.945  0.00  0.00     0.000 A 
ATOM      6  C6  BNZ d   1       1.302   4.515  -1.518  0.00  0.00     0.000 A 
ENDROOT
TORSDOF 0
ENDMDL
