MODEL 1
REMARK minimizedAffinity 0.653991401
REMARK minimizedRMSD -1
REMARK  0 active torsions:
REMARK  status: ('A' for Active; 'I' for Inactive)
ROOT
ATOM      1  C1  BNZ d   1      -0.423   4.454   0.357  0.00  0.00     0.000 A 
ATOM      2  C2  BNZ d   1      -1.544   5.239   0.418  0.00  0.00     0.000 A 
ATOM      3  C3  BNZ d   1      -1.929   5.993  -0.655  0.00  0.00     0.000 A 
ATOM      4  C4  BNZ d   1      -1.172   5.994  -1.771  0.00  0.00     0.000 A 
ATOM      5  C5  BNZ d   1      -0.034   5.216  -1.845  0.00  0.00     0.000 A 
ATOM      6  C6  BNZ d   1       0.329   4.427  -0.777  0.00  0.00     0.000 A 
ENDROOT
TORSDOF 0
ENDMDL
