MODEL 1
REMARK minimizedAffinity 2.1406064
REMARK minimizedRMSD -1
REMARK  0 active torsions:
REMARK  status: ('A' for Active; 'I' for Inactive)
ROOT
ATOM      1  C1  BNZ d   1      -1.018   3.505   0.485  0.00  0.00     0.000 A 
ATOM      2  C2  BNZ d   1      -1.049   4.507  -0.447  0.00  0.00     0.000 A 
ATOM      3  C3  BNZ d   1      -0.036   4.651  -1.354  0.00  0.00     0.000 A 
ATOM      4  C4  BNZ d   1       1.023   3.818  -1.302  0.00  0.00     0.000 A 
ATOM      5  C5  BNZ d   1       1.073   2.808  -0.362  0.00  0.00     0.000 A 
ATOM      6  C6  BNZ d   1       0.033   2.642   0.524  0.00  0.00     0.000 A 
ENDROOT
TORSDOF 0
ENDMDL
