MODEL 1
REMARK minimizedAffinity 4.93868637
REMARK minimizedRMSD -1
REMARK  0 active torsions:
REMARK  status: ('A' for Active; 'I' for Inactive)
ROOT
ATOM      1  C1  BNZ d   1       0.081   4.120  -1.979  0.00  0.00     0.000 A 
ATOM      2  C2  BNZ d   1       0.331   3.215  -0.981  0.00  0.00     0.000 A 
ATOM      3  C3  BNZ d   1      -0.084   3.453   0.299  0.00  0.00     0.000 A 
ATOM      4  C4  BNZ d   1      -0.712   4.611   0.588  0.00  0.00     0.000 A 
ATOM      5  C5  BNZ d   1      -0.964   5.537  -0.404  0.00  0.00     0.000 A 
ATOM      6  C6  BNZ d   1      -0.579   5.277  -1.700  0.00  0.00     0.000 A 
ENDROOT
TORSDOF 0
ENDMDL
