MODEL 1
REMARK minimizedAffinity 2.31978607
REMARK minimizedRMSD -1
REMARK  0 active torsions:
REMARK  status: ('A' for Active; 'I' for Inactive)
ROOT
ATOM      1  C1  BNZ d   1      -2.749  -5.998  -5.457  0.00  0.00     0.000 A 
ATOM      2  C2  BNZ d   1      -4.052  -5.995  -5.879  0.00  0.00     0.000 A 
ATOM      3  C3  BNZ d   1      -4.746  -4.823  -5.999  0.00  0.00     0.000 A 
ATOM      4  C4  BNZ d   1      -4.150  -3.662  -5.659  0.00  0.00     0.000 A 
ATOM      5  C5  BNZ d   1      -2.840  -3.650  -5.223  0.00  0.00     0.000 A 
ATOM      6  C6  BNZ d   1      -2.133  -4.827  -5.141  0.00  0.00     0.000 A 
ENDROOT
TORSDOF 0
ENDMDL
