MODEL 1
REMARK minimizedAffinity 1.88561308
REMARK minimizedRMSD -1
REMARK  0 active torsions:
REMARK  status: ('A' for Active; 'I' for Inactive)
ROOT
ATOM      1  C   UNL d   1       4.125   2.511  -5.073  0.00  0.00     0.172 C 
ATOM      2  N   UNL d   1       4.001   3.930  -5.309  0.00  0.00    -0.070 N 
ATOM      3  C1  UNL d   1       4.898   4.707  -5.993  0.00  0.00    -0.004 A 
ATOM      4  C2  UNL d   1       4.419   5.999  -5.999  0.00  0.00    -0.047 A 
ATOM      5  C3  UNL d   1       3.192   5.999  -5.293  0.00  0.00    -0.047 A 
ATOM      6  C4  UNL d   1       2.958   4.706  -4.877  0.00  0.00    -0.004 A 
ENDROOT
TORSDOF 0
ENDMDL
