MODEL 1
REMARK minimizedAffinity 1.88615131
REMARK minimizedRMSD -1
REMARK  0 active torsions:
REMARK  status: ('A' for Active; 'I' for Inactive)
ROOT
ATOM      1  C   UNL d   1       0.538   5.933  -5.729  0.00  0.00     0.172 C 
ATOM      2  N   UNL d   1       1.871   5.423  -5.515  0.00  0.00    -0.070 N 
ATOM      3  C1  UNL d   1       2.191   4.298  -4.802  0.00  0.00    -0.004 A 
ATOM      4  C2  UNL d   1       3.561   4.153  -4.833  0.00  0.00    -0.047 A 
ATOM      5  C3  UNL d   1       4.083   5.229  -5.590  0.00  0.00    -0.047 A 
ATOM      6  C4  UNL d   1       3.016   5.999  -6.000  0.00  0.00    -0.004 A 
ENDROOT
TORSDOF 0
ENDMDL
