MODEL 1
REMARK minimizedAffinity 0.734748363
REMARK minimizedRMSD -1
REMARK  0 active torsions:
REMARK  status: ('A' for Active; 'I' for Inactive)
ROOT
ATOM      1  C   UNL d   1       5.017   5.723  -5.958  0.00  0.00     0.172 C 
ATOM      2  N   UNL d   1       3.660   5.238  -5.868  0.00  0.00    -0.070 N 
ATOM      3  C1  UNL d   1       2.530   5.999  -5.999  0.00  0.00    -0.004 A 
ATOM      4  C2  UNL d   1       1.441   5.167  -5.850  0.00  0.00    -0.047 A 
ATOM      5  C3  UNL d   1       1.935   3.861  -5.619  0.00  0.00    -0.047 A 
ATOM      6  C4  UNL d   1       3.312   3.933  -5.636  0.00  0.00    -0.004 A 
ENDROOT
TORSDOF 0
ENDMDL
