MODEL 1
REMARK minimizedAffinity 7.46104336
REMARK minimizedRMSD -1
REMARK  0 active torsions:
REMARK  status: ('A' for Active; 'I' for Inactive)
ROOT
ATOM      1  C   UNL d   1       1.979   0.953   2.104  0.00  0.00     0.172 C 
ATOM      2  N   UNL d   1       3.124   1.407   1.351  0.00  0.00    -0.070 N 
ATOM      3  C1  UNL d   1       3.753   2.614   1.505  0.00  0.00    -0.004 A 
ATOM      4  C2  UNL d   1       4.796   2.664   0.605  0.00  0.00    -0.047 A 
ATOM      5  C3  UNL d   1       4.793   1.446  -0.114  0.00  0.00    -0.047 A 
ATOM      6  C4  UNL d   1       3.748   0.686   0.368  0.00  0.00    -0.004 A 
ENDROOT
TORSDOF 0
ENDMDL
