MODEL 1
REMARK minimizedAffinity -0.146693841
REMARK minimizedRMSD -1
REMARK  0 active torsions:
REMARK  status: ('A' for Active; 'I' for Inactive)
ROOT
ATOM      1  C   UNL d   1       5.938   3.218  -6.000  0.00  0.00     0.172 C 
ATOM      2  N   UNL d   1       4.812   4.121  -5.990  0.00  0.00    -0.070 N 
ATOM      3  C1  UNL d   1       3.493   3.752  -5.970  0.00  0.00    -0.004 A 
ATOM      4  C2  UNL d   1       2.733   4.902  -5.966  0.00  0.00    -0.047 A 
ATOM      5  C3  UNL d   1       3.626   6.000  -5.985  0.00  0.00    -0.047 A 
ATOM      6  C4  UNL d   1       4.907   5.488  -6.000  0.00  0.00    -0.004 A 
ENDROOT
TORSDOF 0
ENDMDL
