MODEL 1
REMARK minimizedAffinity -1.16266191
REMARK minimizedRMSD -1
REMARK  0 active torsions:
REMARK  status: ('A' for Active; 'I' for Inactive)
ROOT
ATOM      1  C   UNL d   1       2.403   5.970  -5.719  0.00  0.00     0.172 C 
ATOM      2  N   UNL d   1       3.700   5.344  -5.829  0.00  0.00    -0.070 N 
ATOM      3  C1  UNL d   1       4.899   6.000  -5.906  0.00  0.00    -0.004 A 
ATOM      4  C2  UNL d   1       5.894   5.051  -5.999  0.00  0.00    -0.047 A 
ATOM      5  C3  UNL d   1       5.271   3.780  -5.977  0.00  0.00    -0.047 A 
ATOM      6  C4  UNL d   1       3.912   3.991  -5.871  0.00  0.00    -0.004 A 
ENDROOT
TORSDOF 0
ENDMDL
