MODEL 1
REMARK minimizedAffinity 4.31423807
REMARK minimizedRMSD -1
REMARK  0 active torsions:
REMARK  status: ('A' for Active; 'I' for Inactive)
ROOT
ATOM      1  C   UNL d   1      -2.743  -0.134  -1.842  0.00  0.00     0.172 C 
ATOM      2  N   UNL d   1      -2.637   1.116  -2.558  0.00  0.00    -0.070 N 
ATOM      3  C1  UNL d   1      -3.155   1.371  -3.799  0.00  0.00    -0.004 A 
ATOM      4  C2  UNL d   1      -2.841   2.672  -4.128  0.00  0.00    -0.047 A 
ATOM      5  C3  UNL d   1      -2.108   3.217  -3.048  0.00  0.00    -0.047 A 
ATOM      6  C4  UNL d   1      -1.996   2.232  -2.089  0.00  0.00    -0.004 A 
ENDROOT
TORSDOF 0
ENDMDL
