MODEL 1
REMARK minimizedAffinity 0.729769111
REMARK minimizedRMSD -1
REMARK  0 active torsions:
REMARK  status: ('A' for Active; 'I' for Inactive)
ROOT
ATOM      1  C   UNL d   1       5.081   2.449  -5.043  0.00  0.00     0.172 C 
ATOM      2  N   UNL d   1       5.050   3.871  -5.293  0.00  0.00    -0.070 N 
ATOM      3  C1  UNL d   1       5.999   4.582  -5.979  0.00  0.00    -0.004 A 
ATOM      4  C2  UNL d   1       5.605   5.902  -5.999  0.00  0.00    -0.047 A 
ATOM      5  C3  UNL d   1       4.377   5.988  -5.300  0.00  0.00    -0.047 A 
ATOM      6  C4  UNL d   1       4.057   4.717  -4.874  0.00  0.00    -0.004 A 
ENDROOT
TORSDOF 0
ENDMDL
