MODEL 1
REMARK minimizedAffinity 7.30170584
REMARK minimizedRMSD -1
REMARK  0 active torsions:
REMARK  status: ('A' for Active; 'I' for Inactive)
ROOT
ATOM      1  C   UNL d   1       4.855  -4.905   2.513  0.00  0.00     0.172 C 
ATOM      2  N   UNL d   1       5.244  -4.420   3.816  0.00  0.00    -0.070 N 
ATOM      3  C1  UNL d   1       5.165  -5.126   4.987  0.00  0.00    -0.004 A 
ATOM      4  C2  UNL d   1       5.630  -4.316   6.000  0.00  0.00    -0.047 A 
ATOM      5  C3  UNL d   1       6.000  -3.080   5.418  0.00  0.00    -0.047 A 
ATOM      6  C4  UNL d   1       5.750  -3.172   4.065  0.00  0.00    -0.004 A 
ENDROOT
TORSDOF 0
ENDMDL
