MODEL 1
REMARK minimizedAffinity 6.65367222
REMARK minimizedRMSD -1
REMARK  0 active torsions:
REMARK  status: ('A' for Active; 'I' for Inactive)
ROOT
ATOM      1  C   UNL d   1       1.824   5.965  -5.122  0.00  0.00     0.172 C 
ATOM      2  N   UNL d   1       3.079   5.332  -5.450  0.00  0.00    -0.070 N 
ATOM      3  C1  UNL d   1       3.282   3.985  -5.586  0.00  0.00    -0.004 A 
ATOM      4  C2  UNL d   1       4.610   3.788  -5.901  0.00  0.00    -0.047 A 
ATOM      5  C3  UNL d   1       5.226   5.060  -5.954  0.00  0.00    -0.047 A 
ATOM      6  C4  UNL d   1       4.256   5.998  -5.671  0.00  0.00    -0.004 A 
ENDROOT
TORSDOF 0
ENDMDL
