MODEL 1
REMARK minimizedAffinity 8.70821953
REMARK minimizedRMSD -1
REMARK  0 active torsions:
REMARK  status: ('A' for Active; 'I' for Inactive)
ROOT
ATOM      1  N1  IND d   1      -2.316  -2.406   3.355  0.00  0.00    -0.196 N 
ATOM      2  C2  IND d   1      -3.313  -1.610   2.863  0.00  0.00     0.054 A 
ATOM      3  C3  IND d   1      -2.821  -0.399   2.520  0.00  0.00    -0.031 A 
ATOM      4  C4  IND d   1      -0.395   0.460   2.584  0.00  0.00     0.051 A 
ATOM      5  C5  IND d   1       0.862   0.108   2.990  0.00  0.00    -0.031 A 
ATOM      6  C6  IND d   1       1.129  -1.126   3.546  0.00  0.00     0.015 A 
ATOM      7  C7  IND d   1       0.148  -2.062   3.709  0.00  0.00    -0.016 A 
ATOM      8  C8  IND d   1      -1.131  -1.706   3.304  0.00  0.00    -0.047 A 
ATOM      9  C9  IND d   1      -1.417  -0.440   2.778  0.00  0.00    -0.096 A 
ATOM     10  HN1 IND d   1      -2.413  -3.209   3.646  0.00  0.00     0.298 HD
ENDROOT
TORSDOF 0
ENDMDL
