MODEL 1
REMARK minimizedAffinity 20.0158291
REMARK minimizedRMSD -1
REMARK  0 active torsions:
REMARK  status: ('A' for Active; 'I' for Inactive)
ROOT
ATOM      1  N1  IND d   1      -2.275  -1.278   3.258  0.00  0.00    -0.196 N 
ATOM      2  C2  IND d   1      -2.817  -0.551   2.234  0.00  0.00     0.054 A 
ATOM      3  C3  IND d   1      -1.855   0.154   1.597  0.00  0.00    -0.031 A 
ATOM      4  C4  IND d   1       0.687   0.188   2.001  0.00  0.00     0.051 A 
ATOM      5  C5  IND d   1       1.649  -0.285   2.849  0.00  0.00    -0.031 A 
ATOM      6  C6  IND d   1       1.347  -1.131   3.895  0.00  0.00     0.015 A 
ATOM      7  C7  IND d   1       0.067  -1.548   4.128  0.00  0.00    -0.016 A 
ATOM      8  C8  IND d   1      -0.914  -1.065   3.273  0.00  0.00    -0.047 A 
ATOM      9  C9  IND d   1      -0.620  -0.172   2.235  0.00  0.00    -0.096 A 
ATOM     10  HN1 IND d   1      -2.711  -1.782   3.800  0.00  0.00     0.298 HD
ENDROOT
TORSDOF 0
ENDMDL
