MODEL 1
REMARK minimizedAffinity 8.74620914
REMARK minimizedRMSD -1
REMARK  0 active torsions:
REMARK  status: ('A' for Active; 'I' for Inactive)
ROOT
ATOM      1  N1  IND d   1       5.859   5.353   4.235  0.00  0.00    -0.196 N 
ATOM      2  C2  IND d   1       4.851   5.994   4.900  0.00  0.00     0.054 A 
ATOM      3  C3  IND d   1       3.724   5.997   4.155  0.00  0.00    -0.031 A 
ATOM      4  C4  IND d   1       3.277   4.922   1.858  0.00  0.00     0.051 A 
ATOM      5  C5  IND d   1       3.902   4.260   0.839  0.00  0.00    -0.031 A 
ATOM      6  C6  IND d   1       5.238   3.919   0.902  0.00  0.00     0.015 A 
ATOM      7  C7  IND d   1       5.999   4.219   1.997  0.00  0.00    -0.016 A 
ATOM      8  C8  IND d   1       5.369   4.897   3.031  0.00  0.00    -0.047 A 
ATOM      9  C9  IND d   1       4.025   5.284   2.954  0.00  0.00    -0.096 A 
ATOM     10  HN1 IND d   1       6.664   5.251   4.520  0.00  0.00     0.298 HD
ENDROOT
TORSDOF 0
ENDMDL
