MODEL 1
REMARK minimizedAffinity 17.7007351
REMARK minimizedRMSD -1
REMARK  0 active torsions:
REMARK  status: ('A' for Active; 'I' for Inactive)
ROOT
ATOM      1  N1  IND d   1       1.832  -0.750  -4.052  0.00  0.00    -0.196 N 
ATOM      2  C2  IND d   1       0.684  -0.010  -4.112  0.00  0.00     0.054 A 
ATOM      3  C3  IND d   1      -0.277  -0.686  -4.780  0.00  0.00    -0.031 A 
ATOM      4  C4  IND d   1      -0.218  -3.062  -5.770  0.00  0.00     0.051 A 
ATOM      5  C5  IND d   1       0.624  -4.115  -5.994  0.00  0.00    -0.031 A 
ATOM      6  C6  IND d   1       1.937  -4.101  -5.572  0.00  0.00     0.015 A 
ATOM      7  C7  IND d   1       2.457  -3.033  -4.896  0.00  0.00    -0.016 A 
ATOM      8  C8  IND d   1       1.607  -1.959  -4.672  0.00  0.00    -0.047 A 
ATOM      9  C9  IND d   1       0.285  -1.950  -5.136  0.00  0.00    -0.096 A 
ATOM     10  HN1 IND d   1       2.570  -0.502  -3.687  0.00  0.00     0.298 HD
ENDROOT
TORSDOF 0
ENDMDL
