MODEL 1
REMARK minimizedAffinity 15.718174
REMARK minimizedRMSD -1
REMARK  0 active torsions:
REMARK  status: ('A' for Active; 'I' for Inactive)
ROOT
ATOM      1  N1  IND d   1       1.164  -1.874   2.998  0.00  0.00    -0.196 N 
ATOM      2  C2  IND d   1       2.308  -1.555   3.675  0.00  0.00     0.054 A 
ATOM      3  C3  IND d   1       2.337  -0.232   3.952  0.00  0.00    -0.031 A 
ATOM      4  C4  IND d   1       0.569   1.578   3.477  0.00  0.00     0.051 A 
ATOM      5  C5  IND d   1      -0.628   1.776   2.847  0.00  0.00    -0.031 A 
ATOM      6  C6  IND d   1      -1.304   0.746   2.226  0.00  0.00     0.015 A 
ATOM      7  C7  IND d   1      -0.811  -0.528   2.220  0.00  0.00    -0.016 A 
ATOM      8  C8  IND d   1       0.408  -0.731   2.852  0.00  0.00    -0.047 A 
ATOM      9  C9  IND d   1       1.119   0.318   3.448  0.00  0.00    -0.096 A 
ATOM     10  HN1 IND d   1       0.952  -2.656   2.711  0.00  0.00     0.298 HD
ENDROOT
TORSDOF 0
ENDMDL
