MODEL 1
REMARK minimizedAffinity -2.36686921
REMARK minimizedRMSD -1
REMARK  1 active torsions:
REMARK  status: ('A' for Active; 'I' for Inactive)
REMARK    1  A    between atoms: C1_2  and  C2_3 
ROOT
ATOM      1  C2  UNL d   1       2.100   0.860   1.309  0.00  0.00    -0.077 A 
ATOM      2  C3  UNL d   1       2.940   0.878   2.431  0.00  0.00     0.002 A 
ATOM      3  C4  UNL d   1       2.859  -0.132   3.391  0.00  0.00     0.002 A 
ATOM      4  C5  UNL d   1       1.943  -1.171   3.237  0.00  0.00    -0.004 A 
ATOM      5  C6  UNL d   1       1.102  -1.197   2.125  0.00  0.00     0.002 A 
ATOM      6  C7  UNL d   1       1.180  -0.187   1.165  0.00  0.00     0.002 A 
ENDROOT
BRANCH   1   7
ATOM      7  C1  UNL d   1       2.220   1.922   0.248  0.00  0.00     0.055 C 
ATOM      8  C   UNL d   1       1.042   2.885   0.293  0.00  0.00     0.019 C 
ENDBRANCH   1   7
TORSDOF 1
ENDMDL
