MODEL 1
REMARK minimizedAffinity -5.05070877
REMARK minimizedRMSD -1
REMARK  1 active torsions:
REMARK  status: ('A' for Active; 'I' for Inactive)
REMARK    1  A    between atoms: C1_2  and  C2_3 
ROOT
ATOM      1  C2  UNL d   1       1.012  -1.241   1.210  0.00  0.00    -0.077 A 
ATOM      2  C3  UNL d   1       0.218  -0.283   0.564  0.00  0.00     0.002 A 
ATOM      3  C4  UNL d   1       0.724   0.991   0.298  0.00  0.00     0.002 A 
ATOM      4  C5  UNL d   1       2.026   1.317   0.671  0.00  0.00    -0.004 A 
ATOM      5  C6  UNL d   1       2.823   0.372   1.316  0.00  0.00     0.002 A 
ATOM      6  C7  UNL d   1       2.319  -0.901   1.583  0.00  0.00     0.002 A 
ENDROOT
BRANCH   1   7
ATOM      7  C1  UNL d   1       0.485  -2.631   1.454  0.00  0.00     0.055 C 
ATOM      8  C   UNL d   1      -1.035  -2.640   1.534  0.00  0.00     0.019 C 
ENDBRANCH   1   7
TORSDOF 1
ENDMDL
