MODEL 1
REMARK minimizedAffinity -3.06108189
REMARK minimizedRMSD -1
REMARK  1 active torsions:
REMARK  status: ('A' for Active; 'I' for Inactive)
REMARK    1  A    between atoms: C1_2  and  C2_3 
ROOT
ATOM      1  C2  UNL d   1      -0.035  -0.011   0.614  0.00  0.00    -0.077 A 
ATOM      2  C3  UNL d   1       0.675   0.955   1.340  0.00  0.00     0.002 A 
ATOM      3  C4  UNL d   1       1.929   0.656   1.876  0.00  0.00     0.002 A 
ATOM      4  C5  UNL d   1       2.485  -0.608   1.689  0.00  0.00    -0.004 A 
ATOM      5  C6  UNL d   1       1.785  -1.577   0.971  0.00  0.00     0.002 A 
ATOM      6  C7  UNL d   1       0.532  -1.280   0.435  0.00  0.00     0.002 A 
ENDROOT
BRANCH   1   7
ATOM      7  C1  UNL d   1      -1.366   0.325  -0.007  0.00  0.00     0.055 C 
ATOM      8  C   UNL d   1      -1.383  -0.005  -1.492  0.00  0.00     0.019 C 
ENDBRANCH   1   7
TORSDOF 1
ENDMDL
