MODEL 1
REMARK minimizedAffinity 3.26206303
REMARK minimizedRMSD -1
REMARK  1 active torsions:
REMARK  status: ('A' for Active; 'I' for Inactive)
REMARK    1  A    between atoms: C1_2  and  C2_3 
ROOT
ATOM      1  C2  UNL d   1       1.585   1.199   1.111  0.00  0.00    -0.077 A 
ATOM      2  C3  UNL d   1       0.648   0.290   0.601  0.00  0.00     0.002 A 
ATOM      3  C4  UNL d   1      -0.468   0.746  -0.104  0.00  0.00     0.002 A 
ATOM      4  C5  UNL d   1      -0.655   2.112  -0.307  0.00  0.00    -0.004 A 
ATOM      5  C6  UNL d   1       0.270   3.024   0.198  0.00  0.00     0.002 A 
ATOM      6  C7  UNL d   1       1.386   2.570   0.904  0.00  0.00     0.002 A 
ENDROOT
BRANCH   1   7
ATOM      7  C1  UNL d   1       2.815   0.706   1.828  0.00  0.00     0.055 C 
ATOM      8  C   UNL d   1       2.455   0.027   3.142  0.00  0.00     0.019 C 
ENDBRANCH   1   7
TORSDOF 1
ENDMDL
