MODEL 1
REMARK minimizedAffinity -4.92497873
REMARK minimizedRMSD -1
REMARK  1 active torsions:
REMARK  status: ('A' for Active; 'I' for Inactive)
REMARK    1  A    between atoms: C1_2  and  C2_3 
ROOT
ATOM      1  C2  UNL d   1       1.868   0.044   1.140  0.00  0.00    -0.077 A 
ATOM      2  C3  UNL d   1       1.109  -1.106   1.400  0.00  0.00     0.002 A 
ATOM      3  C4  UNL d   1       1.379  -1.893   2.521  0.00  0.00     0.002 A 
ATOM      4  C5  UNL d   1       2.405  -1.536   3.393  0.00  0.00    -0.004 A 
ATOM      5  C6  UNL d   1       3.167  -0.396   3.143  0.00  0.00     0.002 A 
ATOM      6  C7  UNL d   1       2.899   0.391   2.022  0.00  0.00     0.002 A 
ENDROOT
BRANCH   1   7
ATOM      7  C1  UNL d   1       1.546   0.921  -0.041  0.00  0.00     0.055 C 
ATOM      8  C   UNL d   1       0.251   1.689   0.176  0.00  0.00     0.019 C 
ENDBRANCH   1   7
TORSDOF 1
ENDMDL
