MODEL 1
REMARK minimizedAffinity 0.134326085
REMARK minimizedRMSD -1
REMARK  1 active torsions:
REMARK  status: ('A' for Active; 'I' for Inactive)
REMARK    1  A    between atoms: C1_2  and  C2_3 
ROOT
ATOM      1  C2  UNL d   1       3.703  -1.530  -5.993  0.00  0.00    -0.077 A 
ATOM      2  C3  UNL d   1       5.080  -1.793  -5.992  0.00  0.00     0.002 A 
ATOM      3  C4  UNL d   1       6.000  -0.742  -5.996  0.00  0.00     0.002 A 
ATOM      4  C5  UNL d   1       5.553   0.577  -5.996  0.00  0.00    -0.004 A 
ATOM      5  C6  UNL d   1       4.185   0.849  -5.999  0.00  0.00     0.002 A 
ATOM      6  C7  UNL d   1       3.265  -0.200  -5.996  0.00  0.00     0.002 A 
ENDROOT
BRANCH   1   7
ATOM      7  C1  UNL d   1       2.710  -2.661  -5.939  0.00  0.00     0.055 C 
ATOM      8  C   UNL d   1       2.990  -3.589  -4.765  0.00  0.00     0.019 C 
ENDBRANCH   1   7
TORSDOF 1
ENDMDL
