MODEL 1
REMARK minimizedAffinity 8.91643238
REMARK minimizedRMSD -1
REMARK  1 active torsions:
REMARK  status: ('A' for Active; 'I' for Inactive)
REMARK    1  A    between atoms: C1_2  and  C2_3 
ROOT
ATOM      1  C2  UNL d   1      -1.330  -2.893  -1.491  0.00  0.00    -0.077 A 
ATOM      2  C3  UNL d   1      -1.429  -2.091  -0.346  0.00  0.00     0.002 A 
ATOM      3  C4  UNL d   1      -0.425  -2.117   0.624  0.00  0.00     0.002 A 
ATOM      4  C5  UNL d   1       0.686  -2.941   0.457  0.00  0.00    -0.004 A 
ATOM      5  C6  UNL d   1       0.793  -3.745  -0.678  0.00  0.00     0.002 A 
ATOM      6  C7  UNL d   1      -0.211  -3.720  -1.648  0.00  0.00     0.002 A 
ENDROOT
BRANCH   1   7
ATOM      7  C1  UNL d   1      -2.388  -2.830  -2.562  0.00  0.00     0.055 C 
ATOM      8  C   UNL d   1      -2.402  -1.471  -3.246  0.00  0.00     0.019 C 
ENDBRANCH   1   7
TORSDOF 1
ENDMDL
