MODEL 1
REMARK minimizedAffinity 14.4024
REMARK minimizedRMSD -1
REMARK  0 active torsions:
REMARK  status: ('A' for Active; 'I' for Inactive)
ROOT
ATOM      1  C2' OXE d   1       1.410   0.731   3.539  0.00  0.00     0.078 C 
ATOM      2  C1' OXE d   1       3.912  -0.354   2.873  0.00  0.00     0.078 C 
ATOM      3  C1  OXE d   1       3.141   0.354   1.787  0.00  0.00    -0.078 A 
ATOM      4  C2  OXE d   1       1.898   0.841   2.110  0.00  0.00    -0.078 A 
ATOM      5  C3  OXE d   1       1.168   1.551   1.161  0.00  0.00     0.003 A 
ATOM      6  C4  OXE d   1       1.621   1.640  -0.161  0.00  0.00    -0.002 A 
ATOM      7  C5  OXE d   1       2.867   1.116  -0.521  0.00  0.00    -0.002 A 
ATOM      8  C6  OXE d   1       3.657   0.509   0.449  0.00  0.00     0.003 A 
ENDROOT
TORSDOF 0
ENDMDL
