MODEL 1
REMARK minimizedAffinity 18.5183468
REMARK minimizedRMSD -1
REMARK  0 active torsions:
REMARK  status: ('A' for Active; 'I' for Inactive)
ROOT
ATOM      1  C2' OXE d   1      -3.481  -3.071  -1.896  0.00  0.00     0.078 C 
ATOM      2  C1' OXE d   1      -2.358  -5.439  -2.902  0.00  0.00     0.078 C 
ATOM      3  C1  OXE d   1      -2.437  -4.250  -3.827  0.00  0.00    -0.078 A 
ATOM      4  C2  OXE d   1      -3.031  -3.110  -3.341  0.00  0.00    -0.078 A 
ATOM      5  C3  OXE d   1      -3.080  -1.967  -4.133  0.00  0.00     0.003 A 
ATOM      6  C4  OXE d   1      -2.670  -2.013  -5.471  0.00  0.00    -0.002 A 
ATOM      7  C5  OXE d   1      -2.099  -3.176  -5.998  0.00  0.00    -0.002 A 
ATOM      8  C6  OXE d   1      -1.936  -4.288  -5.178  0.00  0.00     0.003 A 
ENDROOT
TORSDOF 0
ENDMDL
