MODEL 1
REMARK minimizedAffinity 12.9628229
REMARK minimizedRMSD -1
REMARK  0 active torsions:
REMARK  status: ('A' for Active; 'I' for Inactive)
ROOT
ATOM      1  C2' OXE d   1      -3.001  -2.992  -1.219  0.00  0.00     0.078 C 
ATOM      2  C1' OXE d   1      -0.785  -2.421   0.406  0.00  0.00     0.078 C 
ATOM      3  C1  OXE d   1      -1.546  -3.694   0.677  0.00  0.00    -0.078 A 
ATOM      4  C2  OXE d   1      -2.657  -3.943  -0.092  0.00  0.00    -0.078 A 
ATOM      5  C3  OXE d   1      -3.363  -5.130   0.080  0.00  0.00     0.003 A 
ATOM      6  C4  OXE d   1      -3.043  -5.999   1.130  0.00  0.00    -0.002 A 
ATOM      7  C5  OXE d   1      -1.940  -5.745   1.951  0.00  0.00    -0.002 A 
ATOM      8  C6  OXE d   1      -1.157  -4.621   1.711  0.00  0.00     0.003 A 
ENDROOT
TORSDOF 0
ENDMDL
