MODEL 1
REMARK minimizedAffinity 21.8845081
REMARK minimizedRMSD -1
REMARK  0 active torsions:
REMARK  status: ('A' for Active; 'I' for Inactive)
ROOT
ATOM      1  C2' OXE d   1      -1.898  -2.632  -5.662  0.00  0.00     0.078 C 
ATOM      2  C1' OXE d   1      -0.922  -5.008  -4.529  0.00  0.00     0.078 C 
ATOM      3  C1  OXE d   1      -1.913  -4.201  -3.728  0.00  0.00    -0.078 A 
ATOM      4  C2  OXE d   1      -2.350  -3.016  -4.270  0.00  0.00    -0.078 A 
ATOM      5  C3  OXE d   1      -3.306  -2.261  -3.597  0.00  0.00     0.003 A 
ATOM      6  C4  OXE d   1      -3.711  -2.619  -2.305  0.00  0.00    -0.002 A 
ATOM      7  C5  OXE d   1      -3.248  -3.801  -1.718  0.00  0.00    -0.002 A 
ATOM      8  C6  OXE d   1      -2.384  -4.624  -2.432  0.00  0.00     0.003 A 
ENDROOT
TORSDOF 0
ENDMDL
