MODEL 1
REMARK minimizedAffinity 7.63878727
REMARK minimizedRMSD -1
REMARK  0 active torsions:
REMARK  status: ('A' for Active; 'I' for Inactive)
ROOT
ATOM      1  C2' OXE d   1       0.884   1.110   1.933  0.00  0.00     0.078 C 
ATOM      2  C1' OXE d   1       1.605   3.505   0.657  0.00  0.00     0.078 C 
ATOM      3  C1  OXE d   1       2.138   2.215   0.085  0.00  0.00    -0.078 A 
ATOM      4  C2  OXE d   1       1.818   1.052   0.744  0.00  0.00    -0.078 A 
ATOM      5  C3  OXE d   1       2.238  -0.171   0.227  0.00  0.00     0.003 A 
ATOM      6  C4  OXE d   1       3.110  -0.216  -0.867  0.00  0.00    -0.002 A 
ATOM      7  C5  OXE d   1       3.480   0.960  -1.529  0.00  0.00    -0.002 A 
ATOM      8  C6  OXE d   1       2.970   2.177  -1.092  0.00  0.00     0.003 A 
ENDROOT
TORSDOF 0
ENDMDL
