MODEL 1
REMARK minimizedAffinity 11.7048655
REMARK minimizedRMSD -1
REMARK  0 active torsions:
REMARK  status: ('A' for Active; 'I' for Inactive)
ROOT
ATOM      1  C2' OXE d   1      -1.252  -2.028   2.782  0.00  0.00     0.078 C 
ATOM      2  C1' OXE d   1      -3.896  -1.495   2.005  0.00  0.00     0.078 C 
ATOM      3  C1  OXE d   1      -2.943  -2.002   0.953  0.00  0.00    -0.078 A 
ATOM      4  C2  OXE d   1      -1.639  -2.216   1.331  0.00  0.00    -0.078 A 
ATOM      5  C3  OXE d   1      -0.731  -2.736   0.413  0.00  0.00     0.003 A 
ATOM      6  C4  OXE d   1      -1.095  -2.897  -0.930  0.00  0.00    -0.002 A 
ATOM      7  C5  OXE d   1      -2.407  -2.647  -1.345  0.00  0.00    -0.002 A 
ATOM      8  C6  OXE d   1      -3.352  -2.240  -0.409  0.00  0.00     0.003 A 
ENDROOT
TORSDOF 0
ENDMDL
