MODEL 1
REMARK minimizedAffinity 20.8317871
REMARK minimizedRMSD -1
REMARK  0 active torsions:
REMARK  status: ('A' for Active; 'I' for Inactive)
ROOT
ATOM      1  C2' OXE d   1       1.053   3.085   0.049  0.00  0.00     0.078 C 
ATOM      2  C1' OXE d   1       1.141   0.664   1.467  0.00  0.00     0.078 C 
ATOM      3  C1  OXE d   1       1.764   0.698   0.094  0.00  0.00    -0.078 A 
ATOM      4  C2  OXE d   1       1.676   1.874  -0.611  0.00  0.00    -0.078 A 
ATOM      5  C3  OXE d   1       2.282   1.976  -1.860  0.00  0.00     0.003 A 
ATOM      6  C4  OXE d   1       2.847   0.848  -2.468  0.00  0.00    -0.002 A 
ATOM      7  C5  OXE d   1       2.912  -0.370  -1.783  0.00  0.00    -0.002 A 
ATOM      8  C6  OXE d   1       2.415  -0.450  -0.487  0.00  0.00     0.003 A 
ENDROOT
TORSDOF 0
ENDMDL
