MODEL 1
REMARK minimizedAffinity 18.8897972
REMARK minimizedRMSD -1
REMARK  0 active torsions:
REMARK  status: ('A' for Active; 'I' for Inactive)
ROOT
ATOM      1  C2' OXE d   1       2.023  -0.661  -0.468  0.00  0.00     0.078 C 
ATOM      2  C1' OXE d   1      -0.151  -2.212   0.397  0.00  0.00     0.078 C 
ATOM      3  C1  OXE d   1       0.072  -0.878   1.065  0.00  0.00    -0.078 A 
ATOM      4  C2  OXE d   1       1.166  -0.147   0.668  0.00  0.00    -0.078 A 
ATOM      5  C3  OXE d   1       1.386   1.115   1.213  0.00  0.00     0.003 A 
ATOM      6  C4  OXE d   1       0.594   1.578   2.270  0.00  0.00    -0.002 A 
ATOM      7  C5  OXE d   1      -0.501   0.832   2.717  0.00  0.00    -0.002 A 
ATOM      8  C6  OXE d   1      -0.800  -0.377   2.098  0.00  0.00     0.003 A 
ENDROOT
TORSDOF 0
ENDMDL
