MODEL 1
REMARK minimizedAffinity 11.6801214
REMARK minimizedRMSD -1
REMARK  0 active torsions:
REMARK  status: ('A' for Active; 'I' for Inactive)
ROOT
ATOM      1  C2' OXE d   1      -3.691  -5.985   2.246  0.00  0.00     0.078 C 
ATOM      2  C1' OXE d   1      -1.111  -6.000   3.351  0.00  0.00     0.078 C 
ATOM      3  C1  OXE d   1      -1.575  -4.739   2.665  0.00  0.00    -0.078 A 
ATOM      4  C2  OXE d   1      -2.821  -4.757   2.086  0.00  0.00    -0.078 A 
ATOM      5  C3  OXE d   1      -3.319  -3.603   1.488  0.00  0.00     0.003 A 
ATOM      6  C4  OXE d   1      -2.504  -2.475   1.336  0.00  0.00    -0.002 A 
ATOM      7  C5  OXE d   1      -1.217  -2.450   1.883  0.00  0.00    -0.002 A 
ATOM      8  C6  OXE d   1      -0.754  -3.556   2.586  0.00  0.00     0.003 A 
ENDROOT
TORSDOF 0
ENDMDL
