MODEL 1
REMARK minimizedAffinity 8.98811722
REMARK minimizedRMSD -1
REMARK  0 active torsions:
REMARK  status: ('A' for Active; 'I' for Inactive)
ROOT
ATOM      1  C2' OXE d   1       1.098   3.184   0.904  0.00  0.00     0.078 C 
ATOM      2  C1' OXE d   1       1.040   0.807   2.395  0.00  0.00     0.078 C 
ATOM      3  C1  OXE d   1       1.899   0.839   1.156  0.00  0.00    -0.078 A 
ATOM      4  C2  OXE d   1       1.885   1.991   0.407  0.00  0.00    -0.078 A 
ATOM      5  C3  OXE d   1       2.702   2.093  -0.716  0.00  0.00     0.003 A 
ATOM      6  C4  OXE d   1       3.419   0.982  -1.174  0.00  0.00    -0.002 A 
ATOM      7  C5  OXE d   1       3.416  -0.214  -0.447  0.00  0.00    -0.002 A 
ATOM      8  C6  OXE d   1       2.697  -0.288   0.740  0.00  0.00     0.003 A 
ENDROOT
TORSDOF 0
ENDMDL
