MODEL 1
REMARK minimizedAffinity 20.7988071
REMARK minimizedRMSD -1
REMARK  0 active torsions:
REMARK  status: ('A' for Active; 'I' for Inactive)
ROOT
ATOM      1  C2' OXE d   1       6.000  -0.495  -0.524  0.00  0.00     0.078 C 
ATOM      2  C1' OXE d   1       3.194  -0.520  -0.590  0.00  0.00     0.078 C 
ATOM      3  C1  OXE d   1       3.913   0.362  -1.580  0.00  0.00    -0.078 A 
ATOM      4  C2  OXE d   1       5.285   0.403  -1.510  0.00  0.00    -0.078 A 
ATOM      5  C3  OXE d   1       6.000   1.157  -2.436  0.00  0.00     0.003 A 
ATOM      6  C4  OXE d   1       5.330   1.993  -3.338  0.00  0.00    -0.002 A 
ATOM      7  C5  OXE d   1       3.933   1.996  -3.399  0.00  0.00    -0.002 A 
ATOM      8  C6  OXE d   1       3.212   1.156  -2.558  0.00  0.00     0.003 A 
ENDROOT
TORSDOF 0
ENDMDL
