MODEL 1
REMARK minimizedAffinity 14.8733463
REMARK minimizedRMSD -1
REMARK  0 active torsions:
REMARK  status: ('A' for Active; 'I' for Inactive)
ROOT
ATOM      1  C2' OXE d   1      -2.864  -3.392  -0.663  0.00  0.00     0.078 C 
ATOM      2  C1' OXE d   1      -3.750  -6.000  -0.117  0.00  0.00     0.078 C 
ATOM      3  C1  OXE d   1      -2.831  -5.345   0.884  0.00  0.00    -0.078 A 
ATOM      4  C2  OXE d   1      -2.365  -4.087   0.586  0.00  0.00    -0.078 A 
ATOM      5  C3  OXE d   1      -1.559  -3.416   1.501  0.00  0.00     0.003 A 
ATOM      6  C4  OXE d   1      -1.093  -4.069   2.648  0.00  0.00    -0.002 A 
ATOM      7  C5  OXE d   1      -1.524  -5.365   2.951  0.00  0.00    -0.002 A 
ATOM      8  C6  OXE d   1      -2.424  -6.000   2.103  0.00  0.00     0.003 A 
ENDROOT
TORSDOF 0
ENDMDL
