MODEL 1
REMARK minimizedAffinity 16.4946251
REMARK minimizedRMSD -1
REMARK  0 active torsions:
REMARK  status: ('A' for Active; 'I' for Inactive)
ROOT
ATOM      1  C2' OXE d   1       0.457  -0.003   3.283  0.00  0.00     0.078 C 
ATOM      2  C1' OXE d   1       1.012   0.793   0.648  0.00  0.00     0.078 C 
ATOM      3  C1  OXE d   1       0.114  -0.403   0.848  0.00  0.00    -0.078 A 
ATOM      4  C2  OXE d   1      -0.115  -0.813   2.139  0.00  0.00    -0.078 A 
ATOM      5  C3  OXE d   1      -0.980  -1.877   2.382  0.00  0.00     0.003 A 
ATOM      6  C4  OXE d   1      -1.496  -2.627   1.318  0.00  0.00    -0.002 A 
ATOM      7  C5  OXE d   1      -1.244  -2.250  -0.005  0.00  0.00    -0.002 A 
ATOM      8  C6  OXE d   1      -0.478  -1.117  -0.257  0.00  0.00     0.003 A 
ENDROOT
TORSDOF 0
ENDMDL
