MODEL 1
REMARK minimizedAffinity 8.06886101
REMARK minimizedRMSD -1
REMARK  0 active torsions:
REMARK  status: ('A' for Active; 'I' for Inactive)
ROOT
ATOM      1  C2' OXE d   1      -4.878   3.232   2.571  0.00  0.00     0.078 C 
ATOM      2  C1' OXE d   1      -3.003   2.939   4.639  0.00  0.00     0.078 C 
ATOM      3  C1  OXE d   1      -4.052   4.013   4.787  0.00  0.00    -0.078 A 
ATOM      4  C2  OXE d   1      -4.937   4.179   3.750  0.00  0.00    -0.078 A 
ATOM      5  C3  OXE d   1      -5.959   5.119   3.859  0.00  0.00     0.003 A 
ATOM      6  C4  OXE d   1      -5.999   5.998   4.948  0.00  0.00    -0.002 A 
ATOM      7  C5  OXE d   1      -5.083   5.871   5.997  0.00  0.00    -0.002 A 
ATOM      8  C6  OXE d   1      -4.132   4.858   5.953  0.00  0.00     0.003 A 
ENDROOT
TORSDOF 0
ENDMDL
