MODEL 1
REMARK minimizedAffinity 15.8860855
REMARK minimizedRMSD -1
REMARK  0 active torsions:
REMARK  status: ('A' for Active; 'I' for Inactive)
ROOT
ATOM      1  C2' OXE d   1      -0.921   3.001   3.624  0.00  0.00     0.078 C 
ATOM      2  C1' OXE d   1      -0.494   4.173   1.109  0.00  0.00     0.078 C 
ATOM      3  C1  OXE d   1       0.042   2.782   1.336  0.00  0.00    -0.078 A 
ATOM      4  C2  OXE d   1      -0.131   2.234   2.585  0.00  0.00    -0.078 A 
ATOM      5  C3  OXE d   1       0.295   0.932   2.831  0.00  0.00     0.003 A 
ATOM      6  C4  OXE d   1       1.033   0.233   1.868  0.00  0.00    -0.002 A 
ATOM      7  C5  OXE d   1       1.255   0.788   0.603  0.00  0.00    -0.002 A 
ATOM      8  C6  OXE d   1       0.730   2.042   0.308  0.00  0.00     0.003 A 
ENDROOT
TORSDOF 0
ENDMDL
