MODEL 1
REMARK minimizedAffinity 12.9316711
REMARK minimizedRMSD -1
REMARK  0 active torsions:
REMARK  status: ('A' for Active; 'I' for Inactive)
ROOT
ATOM      1  C2' OXE d   1       3.757  -0.328   1.051  0.00  0.00     0.078 C 
ATOM      2  C1' OXE d   1       1.368   1.066   0.575  0.00  0.00     0.078 C 
ATOM      3  C1  OXE d   1       2.419   1.082  -0.506  0.00  0.00    -0.078 A 
ATOM      4  C2  OXE d   1       3.603   0.436  -0.246  0.00  0.00    -0.078 A 
ATOM      5  C3  OXE d   1       4.585   0.374  -1.231  0.00  0.00     0.003 A 
ATOM      6  C4  OXE d   1       4.439   1.092  -2.424  0.00  0.00    -0.002 A 
ATOM      7  C5  OXE d   1       3.257   1.790  -2.692  0.00  0.00    -0.002 A 
ATOM      8  C6  OXE d   1       2.222   1.760  -1.764  0.00  0.00     0.003 A 
ENDROOT
TORSDOF 0
ENDMDL
