MODEL 1
REMARK minimizedAffinity 16.0709229
REMARK minimizedRMSD -1
REMARK  0 active torsions:
REMARK  status: ('A' for Active; 'I' for Inactive)
ROOT
ATOM      1  C2' OXE d   1      -2.950   2.324   4.181  0.00  0.00     0.078 C 
ATOM      2  C1' OXE d   1      -5.226   2.668   2.573  0.00  0.00     0.078 C 
ATOM      3  C1  OXE d   1      -5.056   3.587   3.757  0.00  0.00    -0.078 A 
ATOM      4  C2  OXE d   1      -3.964   3.381   4.565  0.00  0.00    -0.078 A 
ATOM      5  C3  OXE d   1      -3.730   4.235   5.639  0.00  0.00     0.003 A 
ATOM      6  C4  OXE d   1      -4.678   5.203   5.994  0.00  0.00    -0.002 A 
ATOM      7  C5  OXE d   1      -5.817   5.403   5.207  0.00  0.00    -0.002 A 
ATOM      8  C6  OXE d   1      -5.999   4.633   4.064  0.00  0.00     0.003 A 
ENDROOT
TORSDOF 0
ENDMDL
