MODEL 1
REMARK minimizedAffinity -4.04806519
REMARK minimizedRMSD -1
REMARK  1 active torsions:
REMARK  status: ('A' for Active; 'I' for Inactive)
REMARK    1  A    between atoms: N_2  and  C1_3 
ROOT
ATOM      1  C1  UNL d   1       0.783   0.135  -0.853  0.00  0.00     0.143 A 
ATOM      2  C2  UNL d   1      -0.401   0.521  -0.217  0.00  0.00    -0.057 A 
ATOM      3  C3  UNL d   1      -0.417   0.868   1.140  0.00  0.00     0.033 A 
ATOM      4  C4  UNL d   1       0.750   0.806   1.893  0.00  0.00    -0.042 A 
ATOM      5  C5  UNL d   1       1.934   0.400   1.288  0.00  0.00     0.033 A 
ATOM      6  C6  UNL d   1       1.945   0.062  -0.068  0.00  0.00    -0.057 A 
ENDROOT
BRANCH   1   7
ATOM      7  N   UNL d   1       0.845  -0.316  -2.174  0.00  0.00    -0.732 N 
ATOM      8  C   UNL d   1       1.916   0.111  -3.049  0.00  0.00     0.284 C 
ATOM      9  H3  UNL d   1       0.606  -1.302  -2.259  0.00  0.00     0.395 HD
ENDBRANCH   1   7
TORSDOF 1
ENDMDL
