MODEL 1
REMARK minimizedAffinity -5.1000123
REMARK minimizedRMSD -1
REMARK  1 active torsions:
REMARK  status: ('A' for Active; 'I' for Inactive)
REMARK    1  A    between atoms: N_2  and  C1_3 
ROOT
ATOM      1  C1  UNL d   1      -1.451   0.013   1.790  0.00  0.00     0.143 A 
ATOM      2  C2  UNL d   1      -0.905   0.066   0.503  0.00  0.00    -0.057 A 
ATOM      3  C3  UNL d   1       0.481   0.079   0.301  0.00  0.00     0.033 A 
ATOM      4  C4  UNL d   1       1.348   0.070   1.389  0.00  0.00    -0.042 A 
ATOM      5  C5  UNL d   1       0.827   0.043   2.678  0.00  0.00     0.033 A 
ATOM      6  C6  UNL d   1      -0.557   0.023   2.872  0.00  0.00    -0.057 A 
ENDROOT
BRANCH   1   7
ATOM      7  N   UNL d   1      -2.819   0.097   2.058  0.00  0.00    -0.732 N 
ATOM      8  C   UNL d   1      -3.763   0.378   0.998  0.00  0.00     0.284 C 
ATOM      9  H3  UNL d   1      -3.131  -0.617   2.713  0.00  0.00     0.395 HD
ENDBRANCH   1   7
TORSDOF 1
ENDMDL
