MODEL 1
REMARK minimizedAffinity -4.74427986
REMARK minimizedRMSD -1
REMARK  1 active torsions:
REMARK  status: ('A' for Active; 'I' for Inactive)
REMARK    1  A    between atoms: N_2  and  C1_3 
ROOT
ATOM      1  C1  UNL d   1      -0.385  -0.258   0.907  0.00  0.00     0.143 A 
ATOM      2  C2  UNL d   1       0.439  -0.899   1.838  0.00  0.00    -0.057 A 
ATOM      3  C3  UNL d   1       0.023  -1.095   3.161  0.00  0.00     0.033 A 
ATOM      4  C4  UNL d   1      -1.216  -0.627   3.584  0.00  0.00    -0.042 A 
ATOM      5  C5  UNL d   1      -2.041   0.035   2.681  0.00  0.00     0.033 A 
ATOM      6  C6  UNL d   1      -1.624   0.222   1.360  0.00  0.00    -0.057 A 
ENDROOT
BRANCH   1   7
ATOM      7  N   UNL d   1       0.010   0.054  -0.396  0.00  0.00    -0.732 N 
ATOM      8  C   UNL d   1       0.448  -0.985  -1.303  0.00  0.00     0.284 C 
ATOM      9  H3  UNL d   1      -0.588   0.756  -0.826  0.00  0.00     0.395 HD
ENDBRANCH   1   7
TORSDOF 1
ENDMDL
