MODEL 1
REMARK minimizedAffinity -1.98170149
REMARK minimizedRMSD -1
REMARK  1 active torsions:
REMARK  status: ('A' for Active; 'I' for Inactive)
REMARK    1  A    between atoms: N_2  and  C1_3 
ROOT
ATOM      1  C1  UNL d   1       1.134   0.856   2.386  0.00  0.00     0.143 A 
ATOM      2  C2  UNL d   1      -0.145   0.289   2.389  0.00  0.00    -0.057 A 
ATOM      3  C3  UNL d   1      -0.640  -0.391   1.269  0.00  0.00     0.033 A 
ATOM      4  C4  UNL d   1       0.128  -0.492   0.114  0.00  0.00    -0.042 A 
ATOM      5  C5  UNL d   1       1.392   0.085   0.080  0.00  0.00     0.033 A 
ATOM      6  C6  UNL d   1       1.883   0.757   1.203  0.00  0.00    -0.057 A 
ENDROOT
BRANCH   1   7
ATOM      7  N   UNL d   1       1.644   1.629   3.432  0.00  0.00    -0.732 N 
ATOM      8  C   UNL d   1       1.222   3.002   3.607  0.00  0.00     0.284 C 
ATOM      9  H3  UNL d   1       1.722   1.104   4.301  0.00  0.00     0.395 HD
ENDBRANCH   1   7
TORSDOF 1
ENDMDL
