MODEL 1
REMARK minimizedAffinity -5.2004447
REMARK minimizedRMSD -1
REMARK  1 active torsions:
REMARK  status: ('A' for Active; 'I' for Inactive)
REMARK    1  A    between atoms: N_2  and  C1_3 
ROOT
ATOM      1  C1  UNL d   1      -0.370  -0.041   0.067  0.00  0.00     0.143 A 
ATOM      2  C2  UNL d   1       0.440  -0.272   1.184  0.00  0.00    -0.057 A 
ATOM      3  C3  UNL d   1      -0.099  -0.316   2.476  0.00  0.00     0.033 A 
ATOM      4  C4  UNL d   1      -1.459  -0.099   2.676  0.00  0.00    -0.042 A 
ATOM      5  C5  UNL d   1      -2.279   0.158   1.583  0.00  0.00     0.033 A 
ATOM      6  C6  UNL d   1      -1.735   0.193   0.295  0.00  0.00    -0.057 A 
ENDROOT
BRANCH   1   7
ATOM      7  N   UNL d   1       0.121   0.112  -1.232  0.00  0.00    -0.732 N 
ATOM      8  C   UNL d   1       0.346  -1.042  -2.075  0.00  0.00     0.284 C 
ATOM      9  H3  UNL d   1      -0.296   0.905  -1.714  0.00  0.00     0.395 HD
ENDBRANCH   1   7
TORSDOF 1
ENDMDL
