MODEL 1
REMARK minimizedAffinity -3.12874365
REMARK minimizedRMSD -1
REMARK  1 active torsions:
REMARK  status: ('A' for Active; 'I' for Inactive)
REMARK    1  A    between atoms: N_2  and  C1_3 
ROOT
ATOM      1  C1  UNL d   1       2.365  -0.903  -3.221  0.00  0.00     0.143 A 
ATOM      2  C2  UNL d   1       1.510  -1.699  -3.990  0.00  0.00    -0.057 A 
ATOM      3  C3  UNL d   1       0.139  -1.424  -4.071  0.00  0.00     0.033 A 
ATOM      4  C4  UNL d   1      -0.406  -0.361  -3.358  0.00  0.00    -0.042 A 
ATOM      5  C5  UNL d   1       0.422   0.428  -2.568  0.00  0.00     0.033 A 
ATOM      6  C6  UNL d   1       1.790   0.152  -2.496  0.00  0.00    -0.057 A 
ENDROOT
BRANCH   1   7
ATOM      7  N   UNL d   1       3.719  -1.184  -3.022  0.00  0.00    -0.732 N 
ATOM      8  C   UNL d   1       4.738  -0.452  -3.743  0.00  0.00     0.284 C 
ATOM      9  H3  UNL d   1       3.942  -1.352  -2.043  0.00  0.00     0.395 HD
ENDBRANCH   1   7
TORSDOF 1
ENDMDL
