MODEL 1
REMARK minimizedAffinity 2.67368269
REMARK minimizedRMSD -1
REMARK  1 active torsions:
REMARK  status: ('A' for Active; 'I' for Inactive)
REMARK    1  A    between atoms: N_2  and  C1_3 
ROOT
ATOM      1  C1  UNL d   1       2.844   1.907   1.538  0.00  0.00     0.143 A 
ATOM      2  C2  UNL d   1       2.228   1.181   0.513  0.00  0.00    -0.057 A 
ATOM      3  C3  UNL d   1       0.981   0.574   0.701  0.00  0.00     0.033 A 
ATOM      4  C4  UNL d   1       0.339   0.656   1.932  0.00  0.00    -0.042 A 
ATOM      5  C5  UNL d   1       0.944   1.351   2.974  0.00  0.00     0.033 A 
ATOM      6  C6  UNL d   1       2.187   1.961   2.777  0.00  0.00    -0.057 A 
ENDROOT
BRANCH   1   7
ATOM      7  N   UNL d   1       4.128   2.450   1.444  0.00  0.00    -0.732 N 
ATOM      8  C   UNL d   1       5.236   1.851   2.157  0.00  0.00     0.284 C 
ATOM      9  H3  UNL d   1       4.355   2.749   0.498  0.00  0.00     0.395 HD
ENDBRANCH   1   7
TORSDOF 1
ENDMDL
