MODEL 1
REMARK minimizedAffinity -4.19812107
REMARK minimizedRMSD -1
REMARK  1 active torsions:
REMARK  status: ('A' for Active; 'I' for Inactive)
REMARK    1  A    between atoms: N_2  and  C1_3 
ROOT
ATOM      1  C1  UNL d   1      -1.532  -0.123   1.714  0.00  0.00     0.143 A 
ATOM      2  C2  UNL d   1      -0.961  -0.238   0.442  0.00  0.00    -0.057 A 
ATOM      3  C3  UNL d   1       0.402   0.006   0.234  0.00  0.00     0.033 A 
ATOM      4  C4  UNL d   1       1.215   0.398   1.293  0.00  0.00    -0.042 A 
ATOM      5  C5  UNL d   1       0.663   0.542   2.561  0.00  0.00     0.033 A 
ATOM      6  C6  UNL d   1      -0.697   0.291   2.764  0.00  0.00    -0.057 A 
ENDROOT
BRANCH   1   7
ATOM      7  N   UNL d   1      -2.899  -0.256   1.967  0.00  0.00    -0.732 N 
ATOM      8  C   UNL d   1      -3.837   0.740   1.494  0.00  0.00     0.284 C 
ATOM      9  H3  UNL d   1      -3.223  -1.215   1.861  0.00  0.00     0.395 HD
ENDBRANCH   1   7
TORSDOF 1
ENDMDL
