MODEL 1
REMARK minimizedAffinity 0.294305474
REMARK minimizedRMSD -1
REMARK  1 active torsions:
REMARK  status: ('A' for Active; 'I' for Inactive)
REMARK    1  A    between atoms: N_2  and  C1_3 
ROOT
ATOM      1  C1  UNL d   1       0.525   0.707  -0.107  0.00  0.00     0.143 A 
ATOM      2  C2  UNL d   1       0.636   1.599   0.965  0.00  0.00    -0.057 A 
ATOM      3  C3  UNL d   1       1.578   1.398   1.982  0.00  0.00     0.033 A 
ATOM      4  C4  UNL d   1       2.407   0.282   1.960  0.00  0.00    -0.042 A 
ATOM      5  C5  UNL d   1       2.298  -0.631   0.917  0.00  0.00     0.033 A 
ATOM      6  C6  UNL d   1       1.360  -0.422  -0.099  0.00  0.00    -0.057 A 
ENDROOT
BRANCH   1   7
ATOM      7  N   UNL d   1      -0.456   0.798  -1.097  0.00  0.00    -0.732 N 
ATOM      8  C   UNL d   1      -1.772   0.234  -0.885  0.00  0.00     0.284 C 
ATOM      9  H3  UNL d   1      -0.463   1.707  -1.554  0.00  0.00     0.395 HD
ENDBRANCH   1   7
TORSDOF 1
ENDMDL
