MODEL 1
REMARK minimizedAffinity -3.84880853
REMARK minimizedRMSD -1
REMARK  1 active torsions:
REMARK  status: ('A' for Active; 'I' for Inactive)
REMARK    1  A    between atoms: N_2  and  C1_3 
ROOT
ATOM      1  C1  UNL d   1       0.541   0.142   0.405  0.00  0.00     0.143 A 
ATOM      2  C2  UNL d   1       1.143   1.100   1.229  0.00  0.00    -0.057 A 
ATOM      3  C3  UNL d   1       0.707   1.303   2.544  0.00  0.00     0.033 A 
ATOM      4  C4  UNL d   1      -0.360   0.569   3.051  0.00  0.00    -0.042 A 
ATOM      5  C5  UNL d   1      -0.989  -0.371   2.242  0.00  0.00     0.033 A 
ATOM      6  C6  UNL d   1      -0.545  -0.574   0.932  0.00  0.00    -0.057 A 
ENDROOT
BRANCH   1   7
ATOM      7  N   UNL d   1       0.864  -0.038  -0.942  0.00  0.00    -0.732 N 
ATOM      8  C   UNL d   1      -0.156  -0.401  -1.902  0.00  0.00     0.284 C 
ATOM      9  H3  UNL d   1       1.523   0.659  -1.280  0.00  0.00     0.395 HD
ENDBRANCH   1   7
TORSDOF 1
ENDMDL
