MODEL 1
REMARK minimizedAffinity -0.491968095
REMARK minimizedRMSD -1
REMARK  1 active torsions:
REMARK  status: ('A' for Active; 'I' for Inactive)
REMARK    1  A    between atoms: N_2  and  C1_3 
ROOT
ATOM      1  C1  UNL d   1      -0.692  -0.051   2.025  0.00  0.00     0.143 A 
ATOM      2  C2  UNL d   1      -0.123   1.174   2.389  0.00  0.00    -0.057 A 
ATOM      3  C3  UNL d   1       0.607   1.937   1.470  0.00  0.00     0.033 A 
ATOM      4  C4  UNL d   1       0.807   1.472   0.174  0.00  0.00    -0.042 A 
ATOM      5  C5  UNL d   1       0.271   0.245  -0.202  0.00  0.00     0.033 A 
ATOM      6  C6  UNL d   1      -0.463  -0.509   0.718  0.00  0.00    -0.057 A 
ENDROOT
BRANCH   1   7
ATOM      7  N   UNL d   1      -1.345  -0.902   2.921  0.00  0.00    -0.732 N 
ATOM      8  C   UNL d   1      -1.175  -2.336   2.832  0.00  0.00     0.284 C 
ATOM      9  H3  UNL d   1      -1.342  -0.541   3.872  0.00  0.00     0.395 HD
ENDBRANCH   1   7
TORSDOF 1
ENDMDL
