MODEL 1
REMARK minimizedAffinity -3.03098774
REMARK minimizedRMSD -1
REMARK  1 active torsions:
REMARK  status: ('A' for Active; 'I' for Inactive)
REMARK    1  A    between atoms: N_2  and  C1_3 
ROOT
ATOM      1  C1  UNL d   1       0.035  -0.089   0.388  0.00  0.00     0.143 A 
ATOM      2  C2  UNL d   1       1.026   0.754   0.903  0.00  0.00    -0.057 A 
ATOM      3  C3  UNL d   1       1.195   2.056   0.419  0.00  0.00     0.033 A 
ATOM      4  C4  UNL d   1       0.393   2.531  -0.613  0.00  0.00    -0.042 A 
ATOM      5  C5  UNL d   1      -0.582   1.703  -1.157  0.00  0.00     0.033 A 
ATOM      6  C6  UNL d   1      -0.751   0.405  -0.665  0.00  0.00    -0.057 A 
ENDROOT
BRANCH   1   7
ATOM      7  N   UNL d   1      -0.119  -1.427   0.759  0.00  0.00    -0.732 N 
ATOM      8  C   UNL d   1      -1.310  -1.867   1.452  0.00  0.00     0.284 C 
ATOM      9  H3  UNL d   1       0.205  -2.069   0.039  0.00  0.00     0.395 HD
ENDBRANCH   1   7
TORSDOF 1
ENDMDL
