MODEL 1
REMARK minimizedAffinity 0.703854442
REMARK minimizedRMSD -1
REMARK  1 active torsions:
REMARK  status: ('A' for Active; 'I' for Inactive)
REMARK    1  A    between atoms: N_2  and  C1_3 
ROOT
ATOM      1  C1  UNL d   1       0.774   1.083   2.411  0.00  0.00     0.143 A 
ATOM      2  C2  UNL d   1       0.479  -0.117   1.755  0.00  0.00    -0.057 A 
ATOM      3  C3  UNL d   1       0.516  -0.209   0.358  0.00  0.00     0.033 A 
ATOM      4  C4  UNL d   1       0.822   0.909  -0.411  0.00  0.00    -0.042 A 
ATOM      5  C5  UNL d   1       1.094   2.119   0.219  0.00  0.00     0.033 A 
ATOM      6  C6  UNL d   1       1.062   2.202   1.615  0.00  0.00    -0.057 A 
ENDROOT
BRANCH   1   7
ATOM      7  N   UNL d   1       0.657   1.263   3.791  0.00  0.00    -0.732 N 
ATOM      8  C   UNL d   1       1.765   0.955   4.671  0.00  0.00     0.284 C 
ATOM      9  H3  UNL d   1       0.162   2.119   4.031  0.00  0.00     0.395 HD
ENDBRANCH   1   7
TORSDOF 1
ENDMDL
