MODEL 1
REMARK minimizedAffinity -5.02902937
REMARK minimizedRMSD -1
REMARK  1 active torsions:
REMARK  status: ('A' for Active; 'I' for Inactive)
REMARK    1  A    between atoms: N_2  and  C1_3 
ROOT
ATOM      1  C1  UNL d   1       0.465   0.197   0.098  0.00  0.00     0.143 A 
ATOM      2  C2  UNL d   1      -0.084   0.477   1.353  0.00  0.00    -0.057 A 
ATOM      3  C3  UNL d   1       0.410   1.522   2.145  0.00  0.00     0.033 A 
ATOM      4  C4  UNL d   1       1.484   2.288   1.704  0.00  0.00    -0.042 A 
ATOM      5  C5  UNL d   1       2.062   2.011   0.470  0.00  0.00     0.033 A 
ATOM      6  C6  UNL d   1       1.560   0.971  -0.318  0.00  0.00    -0.057 A 
ENDROOT
BRANCH   1   7
ATOM      7  N   UNL d   1       0.084  -0.890  -0.693  0.00  0.00    -0.732 N 
ATOM      8  C   UNL d   1      -1.184  -0.885  -1.390  0.00  0.00     0.284 C 
ATOM      9  H3  UNL d   1       0.857  -1.264  -1.239  0.00  0.00     0.395 HD
ENDBRANCH   1   7
TORSDOF 1
ENDMDL
