MODEL 1
REMARK minimizedAffinity -2.08165312
REMARK minimizedRMSD -1
REMARK  1 active torsions:
REMARK  status: ('A' for Active; 'I' for Inactive)
REMARK    1  A    between atoms: N_2  and  C1_3 
ROOT
ATOM      1  C1  UNL d   1      -0.972   0.661  -0.885  0.00  0.00     0.143 A 
ATOM      2  C2  UNL d   1       0.206   1.405  -1.014  0.00  0.00    -0.057 A 
ATOM      3  C3  UNL d   1       1.149   1.457   0.019  0.00  0.00     0.033 A 
ATOM      4  C4  UNL d   1       0.917   0.786   1.215  0.00  0.00    -0.042 A 
ATOM      5  C5  UNL d   1      -0.258   0.061   1.375  0.00  0.00     0.033 A 
ATOM      6  C6  UNL d   1      -1.193   0.007   0.337  0.00  0.00    -0.057 A 
ENDROOT
BRANCH   1   7
ATOM      7  N   UNL d   1      -1.993   0.650  -1.838  0.00  0.00    -0.732 N 
ATOM      8  C   UNL d   1      -2.055  -0.391  -2.841  0.00  0.00     0.284 C 
ATOM      9  H3  UNL d   1      -2.896   0.900  -1.442  0.00  0.00     0.395 HD
ENDBRANCH   1   7
TORSDOF 1
ENDMDL
