MODEL 1
REMARK minimizedAffinity -4.91143894
REMARK minimizedRMSD -1
REMARK  1 active torsions:
REMARK  status: ('A' for Active; 'I' for Inactive)
REMARK    1  A    between atoms: N_2  and  C1_3 
ROOT
ATOM      1  C1  UNL d   1       0.428   0.010   0.665  0.00  0.00     0.143 A 
ATOM      2  C2  UNL d   1       1.343   0.733  -0.107  0.00  0.00    -0.057 A 
ATOM      3  C3  UNL d   1       1.539   2.105   0.094  0.00  0.00     0.033 A 
ATOM      4  C4  UNL d   1       0.799   2.786   1.054  0.00  0.00    -0.042 A 
ATOM      5  C5  UNL d   1      -0.135   2.092   1.817  0.00  0.00     0.033 A 
ATOM      6  C6  UNL d   1      -0.320   0.721   1.616  0.00  0.00    -0.057 A 
ENDROOT
BRANCH   1   7
ATOM      7  N   UNL d   1       0.118  -1.334   0.447  0.00  0.00    -0.732 N 
ATOM      8  C   UNL d   1      -0.680  -2.071   1.404  0.00  0.00     0.284 C 
ATOM      9  H3  UNL d   1      -0.116  -1.526  -0.524  0.00  0.00     0.395 HD
ENDBRANCH   1   7
TORSDOF 1
ENDMDL
