MODEL 1
REMARK minimizedAffinity 4.17098188
REMARK minimizedRMSD -1
REMARK  1 active torsions:
REMARK  status: ('A' for Active; 'I' for Inactive)
REMARK    1  A    between atoms: N_2  and  C1_3 
ROOT
ATOM      1  C1  UNL d   1       1.435   1.143   0.547  0.00  0.00     0.143 A 
ATOM      2  C2  UNL d   1       2.590   0.862  -0.192  0.00  0.00    -0.057 A 
ATOM      3  C3  UNL d   1       2.598  -0.134  -1.175  0.00  0.00     0.033 A 
ATOM      4  C4  UNL d   1       1.456  -0.890  -1.418  0.00  0.00    -0.042 A 
ATOM      5  C5  UNL d   1       0.304  -0.646  -0.678  0.00  0.00     0.033 A 
ATOM      6  C6  UNL d   1       0.300   0.355   0.298  0.00  0.00    -0.057 A 
ENDROOT
BRANCH   1   7
ATOM      7  N   UNL d   1       1.391   2.054   1.605  0.00  0.00    -0.732 N 
ATOM      8  C   UNL d   1       1.440   1.594   2.976  0.00  0.00     0.284 C 
ATOM      9  H3  UNL d   1       1.949   2.885   1.426  0.00  0.00     0.395 HD
ENDBRANCH   1   7
TORSDOF 1
ENDMDL
