MODEL 1
REMARK minimizedAffinity -3.58107996
REMARK minimizedRMSD -1
REMARK  1 active torsions:
REMARK  status: ('A' for Active; 'I' for Inactive)
REMARK    1  A    between atoms: N_2  and  C1_3 
ROOT
ATOM      1  C1  UNL d   1      -0.578   0.564   1.714  0.00  0.00     0.143 A 
ATOM      2  C2  UNL d   1      -0.188   1.856   2.080  0.00  0.00    -0.057 A 
ATOM      3  C3  UNL d   1       0.756   2.570   1.332  0.00  0.00     0.033 A 
ATOM      4  C4  UNL d   1       1.349   1.990   0.215  0.00  0.00    -0.042 A 
ATOM      5  C5  UNL d   1       0.996   0.697  -0.153  0.00  0.00     0.033 A 
ATOM      6  C6  UNL d   1       0.048  -0.008   0.595  0.00  0.00    -0.057 A 
ENDROOT
BRANCH   1   7
ATOM      7  N   UNL d   1      -1.437  -0.234   2.473  0.00  0.00    -0.732 N 
ATOM      8  C   UNL d   1      -1.027  -1.552   2.909  0.00  0.00     0.284 C 
ATOM      9  H3  UNL d   1      -1.941   0.299   3.178  0.00  0.00     0.395 HD
ENDBRANCH   1   7
TORSDOF 1
ENDMDL
