MODEL 1
REMARK minimizedAffinity -3.80944014
REMARK minimizedRMSD -1
REMARK  1 active torsions:
REMARK  status: ('A' for Active; 'I' for Inactive)
REMARK    1  A    between atoms: N_2  and  C1_3 
ROOT
ATOM      1  C1  UNL d   1       0.047   0.164  -0.081  0.00  0.00     0.143 A 
ATOM      2  C2  UNL d   1      -0.681   0.348   1.099  0.00  0.00    -0.057 A 
ATOM      3  C3  UNL d   1      -0.366   1.378   1.993  0.00  0.00     0.033 A 
ATOM      4  C4  UNL d   1       0.705   2.227   1.736  0.00  0.00    -0.042 A 
ATOM      5  C5  UNL d   1       1.458   2.047   0.581  0.00  0.00     0.033 A 
ATOM      6  C6  UNL d   1       1.134   1.021  -0.311  0.00  0.00    -0.057 A 
ENDROOT
BRANCH   1   7
ATOM      7  N   UNL d   1      -0.156  -0.902  -0.961  0.00  0.00    -0.732 N 
ATOM      8  C   UNL d   1      -1.167  -0.824  -1.994  0.00  0.00     0.284 C 
ATOM      9  H3  UNL d   1       0.718  -1.325  -1.266  0.00  0.00     0.395 HD
ENDBRANCH   1   7
TORSDOF 1
ENDMDL
