MODEL 1
REMARK minimizedAffinity 8.83539772
REMARK minimizedRMSD -1
REMARK  1 active torsions:
REMARK  status: ('A' for Active; 'I' for Inactive)
REMARK    1  A    between atoms: N_2  and  C1_3 
ROOT
ATOM      1  C1  UNL d   1       0.463   1.974  -0.597  0.00  0.00     0.143 A 
ATOM      2  C2  UNL d   1       1.497   1.906  -1.537  0.00  0.00    -0.057 A 
ATOM      3  C3  UNL d   1       1.539   2.774  -2.635  0.00  0.00     0.033 A 
ATOM      4  C4  UNL d   1       0.528   3.709  -2.829  0.00  0.00    -0.042 A 
ATOM      5  C5  UNL d   1      -0.523   3.778  -1.921  0.00  0.00     0.033 A 
ATOM      6  C6  UNL d   1      -0.556   2.913  -0.823  0.00  0.00    -0.057 A 
ENDROOT
BRANCH   1   7
ATOM      7  N   UNL d   1       0.313   1.074   0.461  0.00  0.00    -0.732 N 
ATOM      8  C   UNL d   1      -0.090  -0.293   0.214  0.00  0.00     0.284 C 
ATOM      9  H3  UNL d   1       1.046   1.172   1.161  0.00  0.00     0.395 HD
ENDBRANCH   1   7
TORSDOF 1
ENDMDL
