MODEL 1
REMARK minimizedAffinity 6.53829527
REMARK minimizedRMSD -1
REMARK  1 active torsions:
REMARK  status: ('A' for Active; 'I' for Inactive)
REMARK    1  A    between atoms: N_2  and  C1_3 
ROOT
ATOM      1  C1  UNL d   1      -0.030   0.283  -4.845  0.00  0.00     0.143 A 
ATOM      2  C2  UNL d   1       1.071   0.612  -4.048  0.00  0.00    -0.057 A 
ATOM      3  C3  UNL d   1       1.460  -0.200  -2.975  0.00  0.00     0.033 A 
ATOM      4  C4  UNL d   1       0.734  -1.345  -2.663  0.00  0.00    -0.042 A 
ATOM      5  C5  UNL d   1      -0.379  -1.678  -3.427  0.00  0.00     0.033 A 
ATOM      6  C6  UNL d   1      -0.758  -0.866  -4.500  0.00  0.00    -0.057 A 
ENDROOT
BRANCH   1   7
ATOM      7  N   UNL d   1      -0.525   1.101  -5.863  0.00  0.00    -0.732 N 
ATOM      8  C   UNL d   1      -0.493   2.542  -5.732  0.00  0.00     0.284 C 
ATOM      9  H3  UNL d   1      -0.276   0.762  -6.790  0.00  0.00     0.395 HD
ENDBRANCH   1   7
TORSDOF 1
ENDMDL
