MODEL 1
REMARK minimizedAffinity -0.493285239
REMARK minimizedRMSD -1
REMARK  1 active torsions:
REMARK  status: ('A' for Active; 'I' for Inactive)
REMARK    1  A    between atoms: N_2  and  C1_3 
ROOT
ATOM      1  C1  UNL d   1       2.003   1.625   2.718  0.00  0.00     0.143 A 
ATOM      2  C2  UNL d   1       0.710   2.019   3.079  0.00  0.00    -0.057 A 
ATOM      3  C3  UNL d   1      -0.407   1.617   2.336  0.00  0.00     0.033 A 
ATOM      4  C4  UNL d   1      -0.247   0.834   1.198  0.00  0.00    -0.042 A 
ATOM      5  C5  UNL d   1       1.031   0.451   0.805  0.00  0.00     0.033 A 
ATOM      6  C6  UNL d   1       2.141   0.850   1.555  0.00  0.00    -0.057 A 
ENDROOT
BRANCH   1   7
ATOM      7  N   UNL d   1       3.161   2.073   3.358  0.00  0.00    -0.732 N 
ATOM      8  C   UNL d   1       3.577   3.454   3.246  0.00  0.00     0.284 C 
ATOM      9  H3  UNL d   1       3.264   1.681   4.292  0.00  0.00     0.395 HD
ENDBRANCH   1   7
TORSDOF 1
ENDMDL
