MODEL 1
REMARK minimizedAffinity 7.72675276
REMARK minimizedRMSD -1
REMARK  1 active torsions:
REMARK  status: ('A' for Active; 'I' for Inactive)
REMARK    1  A    between atoms: N_2  and  C1_3 
ROOT
ATOM      1  C1  UNL d   1       2.074   2.180   1.167  0.00  0.00     0.143 A 
ATOM      2  C2  UNL d   1       0.961   1.511   1.688  0.00  0.00    -0.057 A 
ATOM      3  C3  UNL d   1       0.651   1.572   3.052  0.00  0.00     0.033 A 
ATOM      4  C4  UNL d   1       1.467   2.281   3.926  0.00  0.00    -0.042 A 
ATOM      5  C5  UNL d   1       2.593   2.933   3.435  0.00  0.00     0.033 A 
ATOM      6  C6  UNL d   1       2.894   2.874   2.070  0.00  0.00    -0.057 A 
ENDROOT
BRANCH   1   7
ATOM      7  N   UNL d   1       2.490   2.078  -0.163  0.00  0.00    -0.732 N 
ATOM      8  C   UNL d   1       3.893   1.927  -0.486  0.00  0.00     0.284 C 
ATOM      9  H3  UNL d   1       1.870   1.495  -0.720  0.00  0.00     0.395 HD
ENDBRANCH   1   7
TORSDOF 1
ENDMDL
