MODEL 1
REMARK minimizedAffinity -0.169580415
REMARK minimizedRMSD -1
REMARK  1 active torsions:
REMARK  status: ('A' for Active; 'I' for Inactive)
REMARK    1  A    between atoms: N_2  and  C1_3 
ROOT
ATOM      1  C1  UNL d   1       2.381  -1.809  -0.859  0.00  0.00     0.143 A 
ATOM      2  C2  UNL d   1       2.923  -2.646  -1.841  0.00  0.00    -0.057 A 
ATOM      3  C3  UNL d   1       4.058  -2.270  -2.570  0.00  0.00     0.033 A 
ATOM      4  C4  UNL d   1       4.655  -1.033  -2.349  0.00  0.00    -0.042 A 
ATOM      5  C5  UNL d   1       4.119  -0.175  -1.396  0.00  0.00     0.033 A 
ATOM      6  C6  UNL d   1       2.990  -0.559  -0.667  0.00  0.00    -0.057 A 
ENDROOT
BRANCH   1   7
ATOM      7  N   UNL d   1       1.198  -2.084  -0.170  0.00  0.00    -0.732 N 
ATOM      8  C   UNL d   1      -0.088  -1.847  -0.790  0.00  0.00     0.284 C 
ATOM      9  H3  UNL d   1       1.249  -2.950   0.361  0.00  0.00     0.395 HD
ENDBRANCH   1   7
TORSDOF 1
ENDMDL
