MODEL 1
REMARK minimizedAffinity 7.09877443
REMARK minimizedRMSD -1
REMARK  1 active torsions:
REMARK  status: ('A' for Active; 'I' for Inactive)
REMARK    1  A    between atoms: N_2  and  C1_3 
ROOT
ATOM      1  C1  UNL d   1       0.038  -0.130  -0.669  0.00  0.00     0.143 A 
ATOM      2  C2  UNL d   1       0.849  -1.210  -0.305  0.00  0.00    -0.057 A 
ATOM      3  C3  UNL d   1       0.556  -2.512  -0.727  0.00  0.00     0.033 A 
ATOM      4  C4  UNL d   1      -0.572  -2.762  -1.501  0.00  0.00    -0.042 A 
ATOM      5  C5  UNL d   1      -1.406  -1.707  -1.854  0.00  0.00     0.033 A 
ATOM      6  C6  UNL d   1      -1.105  -0.408  -1.435  0.00  0.00    -0.057 A 
ENDROOT
BRANCH   1   7
ATOM      7  N   UNL d   1       0.221   1.173  -0.199  0.00  0.00    -0.732 N 
ATOM      8  C   UNL d   1       0.827   1.413   1.093  0.00  0.00     0.284 C 
ATOM      9  H3  UNL d   1       0.533   1.809  -0.930  0.00  0.00     0.395 HD
ENDBRANCH   1   7
TORSDOF 1
ENDMDL
