MODEL 1
REMARK minimizedAffinity -0.994280338
REMARK minimizedRMSD -1
REMARK  1 active torsions:
REMARK  status: ('A' for Active; 'I' for Inactive)
REMARK    1  A    between atoms: N_2  and  C1_3 
ROOT
ATOM      1  C1  UNL d   1       1.919  -2.712  -1.156  0.00  0.00     0.143 A 
ATOM      2  C2  UNL d   1       2.169  -1.600  -0.345  0.00  0.00    -0.057 A 
ATOM      3  C3  UNL d   1       1.123  -0.896   0.264  0.00  0.00     0.033 A 
ATOM      4  C4  UNL d   1      -0.197  -1.276   0.049  0.00  0.00    -0.042 A 
ATOM      5  C5  UNL d   1      -0.471  -2.363  -0.774  0.00  0.00     0.033 A 
ATOM      6  C6  UNL d   1       0.578  -3.066  -1.374  0.00  0.00    -0.057 A 
ENDROOT
BRANCH   1   7
ATOM      7  N   UNL d   1       2.909  -3.394  -1.869  0.00  0.00    -0.732 N 
ATOM      8  C   UNL d   1       3.423  -2.859  -3.111  0.00  0.00     0.284 C 
ATOM      9  H3  UNL d   1       3.621  -3.791  -1.261  0.00  0.00     0.395 HD
ENDBRANCH   1   7
TORSDOF 1
ENDMDL
