MODEL 1
REMARK minimizedAffinity 0.154853076
REMARK minimizedRMSD -1
REMARK  1 active torsions:
REMARK  status: ('A' for Active; 'I' for Inactive)
REMARK    1  A    between atoms: N_2  and  C1_3 
ROOT
ATOM      1  C1  UNL d   1       2.224  -1.900  -0.762  0.00  0.00     0.143 A 
ATOM      2  C2  UNL d   1       2.649  -2.673  -1.848  0.00  0.00    -0.057 A 
ATOM      3  C3  UNL d   1       3.659  -2.224  -2.707  0.00  0.00     0.033 A 
ATOM      4  C4  UNL d   1       4.243  -0.977  -2.511  0.00  0.00    -0.042 A 
ATOM      5  C5  UNL d   1       3.819  -0.181  -1.453  0.00  0.00     0.033 A 
ATOM      6  C6  UNL d   1       2.814  -0.638  -0.595  0.00  0.00    -0.057 A 
ENDROOT
BRANCH   1   7
ATOM      7  N   UNL d   1       1.156  -2.248   0.070  0.00  0.00    -0.732 N 
ATOM      8  C   UNL d   1      -0.207  -2.177  -0.411  0.00  0.00     0.284 C 
ATOM      9  H3  UNL d   1       1.355  -3.071   0.634  0.00  0.00     0.395 HD
ENDBRANCH   1   7
TORSDOF 1
ENDMDL
