MODEL 1
REMARK minimizedAffinity 4.40512943
REMARK minimizedRMSD -1
REMARK  0 active torsions:
REMARK  status: ('A' for Active; 'I' for Inactive)
ROOT
ATOM      1  C1  DEN d   1       3.710   2.992  -2.631  0.00  0.00     0.130 A 
ATOM      2  C2  DEN d   1       4.131   1.694  -3.151  0.00  0.00    -0.031 A 
ATOM      3  C3  DEN d   1       4.505   1.870  -4.569  0.00  0.00     0.027 A 
ATOM      4  C4  DEN d   1       4.477   4.016  -6.000  0.00  0.00     0.027 A 
ATOM      5  C5  DEN d   1       4.185   5.362  -5.999  0.00  0.00    -0.003 A 
ATOM      6  C6  DEN d   1       3.686   6.000  -4.895  0.00  0.00     0.001 A 
ATOM      7  C7  DEN d   1       3.507   5.301  -3.730  0.00  0.00     0.017 A 
ATOM      8  C8  DEN d   1       3.792   3.942  -3.725  0.00  0.00    -0.094 A 
ATOM      9  C9  DEN d   1       4.307   3.318  -4.849  0.00  0.00    -0.072 A 
ENDROOT
TORSDOF 0
ENDMDL
