MODEL 1
REMARK minimizedAffinity 3.73709774
REMARK minimizedRMSD -1
REMARK  0 active torsions:
REMARK  status: ('A' for Active; 'I' for Inactive)
ROOT
ATOM      1  C1  DEN d   1       4.731   2.606  -3.999  0.00  0.00     0.130 A 
ATOM      2  C2  DEN d   1       3.488   1.847  -3.897  0.00  0.00    -0.031 A 
ATOM      3  C3  DEN d   1       2.415   2.641  -4.528  0.00  0.00     0.027 A 
ATOM      4  C4  DEN d   1       2.558   4.957  -5.653  0.00  0.00     0.027 A 
ATOM      5  C5  DEN d   1       3.399   6.000  -5.973  0.00  0.00    -0.003 A 
ATOM      6  C6  DEN d   1       4.726   5.999  -5.630  0.00  0.00     0.001 A 
ATOM      7  C7  DEN d   1       5.260   4.915  -4.986  0.00  0.00     0.017 A 
ATOM      8  C8  DEN d   1       4.416   3.863  -4.654  0.00  0.00    -0.094 A 
ATOM      9  C9  DEN d   1       3.081   3.877  -5.020  0.00  0.00    -0.072 A 
ENDROOT
TORSDOF 0
ENDMDL
