MODEL 1
REMARK minimizedAffinity 0.505587339
REMARK minimizedRMSD -1
REMARK  0 active torsions:
REMARK  status: ('A' for Active; 'I' for Inactive)
ROOT
ATOM      1  C1  DEN d   1       2.283   6.000  -5.661  0.00  0.00     0.130 A 
ATOM      2  C2  DEN d   1       1.395   5.143  -4.879  0.00  0.00    -0.031 A 
ATOM      3  C3  DEN d   1       2.226   4.139  -4.185  0.00  0.00     0.027 A 
ATOM      4  C4  DEN d   1       4.786   3.832  -4.239  0.00  0.00     0.027 A 
ATOM      5  C5  DEN d   1       5.963   4.311  -4.770  0.00  0.00    -0.003 A 
ATOM      6  C6  DEN d   1       5.992   5.357  -5.655  0.00  0.00     0.001 A 
ATOM      7  C7  DEN d   1       4.826   5.987  -6.000  0.00  0.00     0.017 A 
ATOM      8  C8  DEN d   1       3.635   5.505  -5.474  0.00  0.00    -0.094 A 
ATOM      9  C9  DEN d   1       3.627   4.454  -4.572  0.00  0.00    -0.072 A 
ENDROOT
TORSDOF 0
ENDMDL
