MODEL 1
REMARK minimizedAffinity 10.0998783
REMARK minimizedRMSD -1
REMARK  0 active torsions:
REMARK  status: ('A' for Active; 'I' for Inactive)
ROOT
ATOM      1  C1  DEN d   1       2.987   3.367  -2.318  0.00  0.00     0.130 A 
ATOM      2  C2  DEN d   1       3.735   2.153  -2.632  0.00  0.00    -0.031 A 
ATOM      3  C3  DEN d   1       4.185   2.245  -4.036  0.00  0.00     0.027 A 
ATOM      4  C4  DEN d   1       3.803   4.141  -5.742  0.00  0.00     0.027 A 
ATOM      5  C5  DEN d   1       3.216   5.371  -5.941  0.00  0.00    -0.003 A 
ATOM      6  C6  DEN d   1       2.488   5.999  -4.965  0.00  0.00     0.001 A 
ATOM      7  C7  DEN d   1       2.367   5.419  -3.729  0.00  0.00     0.017 A 
ATOM      8  C8  DEN d   1       2.950   4.175  -3.524  0.00  0.00    -0.094 A 
ATOM      9  C9  DEN d   1       3.692   3.562  -4.520  0.00  0.00    -0.072 A 
ENDROOT
TORSDOF 0
ENDMDL
