MODEL 1
REMARK minimizedAffinity 1.83195376
REMARK minimizedRMSD -1
REMARK  0 active torsions:
REMARK  status: ('A' for Active; 'I' for Inactive)
ROOT
ATOM      1  C1  DEN d   1       5.318   4.017  -4.735  0.00  0.00     0.130 A 
ATOM      2  C2  DEN d   1       6.000   5.131  -5.389  0.00  0.00    -0.031 A 
ATOM      3  C3  DEN d   1       4.973   6.000  -5.999  0.00  0.00     0.027 A 
ATOM      4  C4  DEN d   1       2.408   5.731  -5.992  0.00  0.00     0.027 A 
ATOM      5  C5  DEN d   1       1.364   4.936  -5.574  0.00  0.00    -0.003 A 
ATOM      6  C6  DEN d   1       1.564   3.771  -4.883  0.00  0.00     0.001 A 
ATOM      7  C7  DEN d   1       2.837   3.391  -4.549  0.00  0.00     0.017 A 
ATOM      8  C8  DEN d   1       3.896   4.183  -4.973  0.00  0.00    -0.094 A 
ATOM      9  C9  DEN d   1       3.671   5.364  -5.660  0.00  0.00    -0.072 A 
ENDROOT
TORSDOF 0
ENDMDL
