MODEL 1
REMARK minimizedAffinity 2.13867879
REMARK minimizedRMSD -1
REMARK  0 active torsions:
REMARK  status: ('A' for Active; 'I' for Inactive)
ROOT
ATOM      1  C1  DEN d   1       2.109   6.000  -5.998  0.00  0.00     0.130 A 
ATOM      2  C2  DEN d   1       1.128   5.107  -5.389  0.00  0.00    -0.031 A 
ATOM      3  C3  DEN d   1       1.860   4.067  -4.639  0.00  0.00     0.027 A 
ATOM      4  C4  DEN d   1       4.406   3.757  -4.361  0.00  0.00     0.027 A 
ATOM      5  C5  DEN d   1       5.642   4.259  -4.703  0.00  0.00    -0.003 A 
ATOM      6  C6  DEN d   1       5.786   5.347  -5.522  0.00  0.00     0.001 A 
ATOM      7  C7  DEN d   1       4.675   5.997  -5.990  0.00  0.00     0.017 A 
ATOM      8  C8  DEN d   1       3.425   5.492  -5.655  0.00  0.00    -0.094 A 
ATOM      9  C9  DEN d   1       3.300   4.398  -4.816  0.00  0.00    -0.072 A 
ENDROOT
TORSDOF 0
ENDMDL
