MODEL 1
REMARK minimizedAffinity 8.56203651
REMARK minimizedRMSD -1
REMARK  0 active torsions:
REMARK  status: ('A' for Active; 'I' for Inactive)
ROOT
ATOM      1  C1  DEN d   1      -3.664  -5.018  -0.734  0.00  0.00     0.130 A 
ATOM      2  C2  DEN d   1      -3.353  -6.000  -1.769  0.00  0.00    -0.031 A 
ATOM      3  C3  DEN d   1      -2.899  -5.269  -2.970  0.00  0.00     0.027 A 
ATOM      4  C4  DEN d   1      -2.644  -2.727  -3.323  0.00  0.00     0.027 A 
ATOM      5  C5  DEN d   1      -2.799  -1.491  -2.734  0.00  0.00    -0.003 A 
ATOM      6  C6  DEN d   1      -3.281  -1.344  -1.461  0.00  0.00     0.001 A 
ATOM      7  C7  DEN d   1      -3.583  -2.454  -0.717  0.00  0.00     0.017 A 
ATOM      8  C8  DEN d   1      -3.437  -3.703  -1.305  0.00  0.00    -0.094 A 
ATOM      9  C9  DEN d   1      -2.937  -3.832  -2.590  0.00  0.00    -0.072 A 
ENDROOT
TORSDOF 0
ENDMDL
