MODEL 1
REMARK minimizedAffinity 2.04725289
REMARK minimizedRMSD -1
REMARK  0 active torsions:
REMARK  status: ('A' for Active; 'I' for Inactive)
ROOT
ATOM      1  C1  DEN d   1      -0.745   2.356   2.782  0.00  0.00     0.130 A 
ATOM      2  C2  DEN d   1       0.240   1.335   2.432  0.00  0.00    -0.031 A 
ATOM      3  C3  DEN d   1      -0.422   0.017   2.507  0.00  0.00     0.027 A 
ATOM      4  C4  DEN d   1      -2.864  -0.539   3.121  0.00  0.00     0.027 A 
ATOM      5  C5  DEN d   1      -4.075  -0.006   3.504  0.00  0.00    -0.003 A 
ATOM      6  C6  DEN d   1      -4.250   1.338   3.704  0.00  0.00     0.001 A 
ATOM      7  C7  DEN d   1      -3.209   2.199   3.479  0.00  0.00     0.017 A 
ATOM      8  C8  DEN d   1      -1.983   1.668   3.099  0.00  0.00    -0.094 A 
ATOM      9  C9  DEN d   1      -1.830   0.308   2.890  0.00  0.00    -0.072 A 
ENDROOT
TORSDOF 0
ENDMDL
