MODEL 1
REMARK minimizedAffinity 5.58868265
REMARK minimizedRMSD -1
REMARK  0 active torsions:
REMARK  status: ('A' for Active; 'I' for Inactive)
ROOT
ATOM      1  C1  DEN d   1      -1.453   2.998   2.308  0.00  0.00     0.130 A 
ATOM      2  C2  DEN d   1      -0.127   2.560   1.881  0.00  0.00    -0.031 A 
ATOM      3  C3  DEN d   1      -0.037   1.102   2.098  0.00  0.00     0.027 A 
ATOM      4  C4  DEN d   1      -1.814  -0.512   3.043  0.00  0.00     0.027 A 
ATOM      5  C5  DEN d   1      -3.090  -0.602   3.553  0.00  0.00    -0.003 A 
ATOM      6  C6  DEN d   1      -3.891   0.497   3.714  0.00  0.00     0.001 A 
ATOM      7  C7  DEN d   1      -3.441   1.729   3.320  0.00  0.00     0.017 A 
ATOM      8  C8  DEN d   1      -2.152   1.829   2.811  0.00  0.00    -0.094 A 
ATOM      9  C9  DEN d   1      -1.362   0.705   2.645  0.00  0.00    -0.072 A 
ENDROOT
TORSDOF 0
ENDMDL
