MODEL 1
REMARK minimizedAffinity 6.81037235
REMARK minimizedRMSD -1
REMARK  0 active torsions:
REMARK  status: ('A' for Active; 'I' for Inactive)
ROOT
ATOM      1  C1  DEN d   1      -3.898  -3.057  -1.448  0.00  0.00     0.130 A 
ATOM      2  C2  DEN d   1      -3.644  -1.687  -1.012  0.00  0.00    -0.031 A 
ATOM      3  C3  DEN d   1      -2.383  -1.679  -0.243  0.00  0.00     0.027 A 
ATOM      4  C4  DEN d   1      -0.805  -3.644   0.306  0.00  0.00     0.027 A 
ATOM      5  C5  DEN d   1      -0.607  -4.999   0.160  0.00  0.00    -0.003 A 
ATOM      6  C6  DEN d   1      -1.501  -5.801  -0.498  0.00  0.00     0.001 A 
ATOM      7  C7  DEN d   1      -2.614  -5.247  -1.074  0.00  0.00     0.017 A 
ATOM      8  C8  DEN d   1      -2.825  -3.883  -0.924  0.00  0.00    -0.094 A 
ATOM      9  C9  DEN d   1      -1.902  -3.087  -0.266  0.00  0.00    -0.072 A 
ENDROOT
TORSDOF 0
ENDMDL
