MODEL 1
REMARK minimizedAffinity -4.30946398
REMARK minimizedRMSD -1
REMARK  0 active torsions:
REMARK  status: ('A' for Active; 'I' for Inactive)
ROOT
ATOM      1  C1  DEN d   1      -0.180   2.340   2.027  0.00  0.00     0.130 A 
ATOM      2  C2  DEN d   1       0.851   1.568   1.339  0.00  0.00    -0.031 A 
ATOM      3  C3  DEN d   1       0.357   0.186   1.180  0.00  0.00     0.027 A 
ATOM      4  C4  DEN d   1      -1.895  -0.828   1.924  0.00  0.00     0.027 A 
ATOM      5  C5  DEN d   1      -3.090  -0.565   2.558  0.00  0.00    -0.003 A 
ATOM      6  C6  DEN d   1      -3.381   0.665   3.085  0.00  0.00     0.001 A 
ATOM      7  C7  DEN d   1      -2.485   1.692   2.948  0.00  0.00     0.017 A 
ATOM      8  C8  DEN d   1      -1.276   1.433   2.317  0.00  0.00    -0.094 A 
ATOM      9  C9  DEN d   1      -1.005   0.186   1.780  0.00  0.00    -0.072 A 
ENDROOT
TORSDOF 0
ENDMDL
