MODEL 1
REMARK minimizedAffinity 13.6987057
REMARK minimizedRMSD -1
REMARK  0 active torsions:
REMARK  status: ('A' for Active; 'I' for Inactive)
ROOT
ATOM      1  C1  DEN d   1       5.272   4.645  -5.930  0.00  0.00     0.130 A 
ATOM      2  C2  DEN d   1       4.715   5.993  -6.000  0.00  0.00    -0.031 A 
ATOM      3  C3  DEN d   1       3.440   6.000  -5.255  0.00  0.00     0.027 A 
ATOM      4  C4  DEN d   1       2.283   4.065  -4.002  0.00  0.00     0.027 A 
ATOM      5  C5  DEN d   1       2.368   2.730  -3.673  0.00  0.00    -0.003 A 
ATOM      6  C6  DEN d   1       3.402   1.938  -4.099  0.00  0.00     0.001 A 
ATOM      7  C7  DEN d   1       4.415   2.485  -4.840  0.00  0.00     0.017 A 
ATOM      8  C8  DEN d   1       4.332   3.829  -5.182  0.00  0.00    -0.094 A 
ATOM      9  C9  DEN d   1       3.286   4.616  -4.732  0.00  0.00    -0.072 A 
ENDROOT
TORSDOF 0
ENDMDL
