MODEL 1
REMARK minimizedAffinity 11.3659096
REMARK minimizedRMSD -1
REMARK  0 active torsions:
REMARK  status: ('A' for Active; 'I' for Inactive)
ROOT
ATOM      1  C1  DEN d   1       1.296   0.003   3.277  0.00  0.00     0.130 A 
ATOM      2  C2  DEN d   1       0.666  -1.190   3.835  0.00  0.00    -0.031 A 
ATOM      3  C3  DEN d   1      -0.798  -1.014   3.752  0.00  0.00     0.027 A 
ATOM      4  C4  DEN d   1      -2.142   0.977   2.814  0.00  0.00     0.027 A 
ATOM      5  C5  DEN d   1      -2.046   2.226   2.242  0.00  0.00    -0.003 A 
ATOM      6  C6  DEN d   1      -0.840   2.831   2.008  0.00  0.00     0.001 A 
ATOM      7  C7  DEN d   1       0.321   2.169   2.306  0.00  0.00     0.017 A 
ATOM      8  C8  DEN d   1       0.232   0.912   2.890  0.00  0.00    -0.094 A 
ATOM      9  C9  DEN d   1      -0.996   0.312   3.107  0.00  0.00    -0.072 A 
ENDROOT
TORSDOF 0
ENDMDL
