MODEL 1
REMARK minimizedAffinity 6.13707542
REMARK minimizedRMSD -1
REMARK  0 active torsions:
REMARK  status: ('A' for Active; 'I' for Inactive)
ROOT
ATOM      1  C1  DEN d   1      -1.099  -1.464   2.294  0.00  0.00     0.130 A 
ATOM      2  C2  DEN d   1      -2.158  -2.306   2.843  0.00  0.00    -0.031 A 
ATOM      3  C3  DEN d   1      -3.234  -1.423   3.334  0.00  0.00     0.027 A 
ATOM      4  C4  DEN d   1      -3.367   1.152   3.294  0.00  0.00     0.027 A 
ATOM      5  C5  DEN d   1      -2.702   2.305   2.938  0.00  0.00    -0.003 A 
ATOM      6  C6  DEN d   1      -1.452   2.284   2.377  0.00  0.00     0.001 A 
ATOM      7  C7  DEN d   1      -0.846   1.083   2.115  0.00  0.00     0.017 A 
ATOM      8  C8  DEN d   1      -1.507  -0.083   2.479  0.00  0.00    -0.094 A 
ATOM      9  C9  DEN d   1      -2.775  -0.041   3.033  0.00  0.00    -0.072 A 
ENDROOT
TORSDOF 0
ENDMDL
