MODEL 1
REMARK minimizedAffinity 6.18379402
REMARK minimizedRMSD -1
REMARK  0 active torsions:
REMARK  status: ('A' for Active; 'I' for Inactive)
ROOT
ATOM      1  C1  DEN d   1      -3.247   1.507   4.228  0.00  0.00     0.130 A 
ATOM      2  C2  DEN d   1      -4.539   2.184   4.158  0.00  0.00    -0.031 A 
ATOM      3  C3  DEN d   1      -4.470   3.189   3.078  0.00  0.00     0.027 A 
ATOM      4  C4  DEN d   1      -2.499   3.756   1.513  0.00  0.00     0.027 A 
ATOM      5  C5  DEN d   1      -1.192   3.455   1.200  0.00  0.00    -0.003 A 
ATOM      6  C6  DEN d   1      -0.473   2.516   1.891  0.00  0.00     0.001 A 
ATOM      7  C7  DEN d   1      -1.072   1.811   2.901  0.00  0.00     0.017 A 
ATOM      8  C8  DEN d   1      -2.388   2.114   3.227  0.00  0.00    -0.094 A 
ATOM      9  C9  DEN d   1      -3.101   3.058   2.509  0.00  0.00    -0.072 A 
ENDROOT
TORSDOF 0
ENDMDL
