MODEL 1
REMARK minimizedAffinity 3.03768682
REMARK minimizedRMSD -1
REMARK  0 active torsions:
REMARK  status: ('A' for Active; 'I' for Inactive)
ROOT
ATOM      1  C1  DEN d   1      -2.247  -0.039   3.194  0.00  0.00     0.130 A 
ATOM      2  C2  DEN d   1      -3.259   0.998   3.017  0.00  0.00    -0.031 A 
ATOM      3  C3  DEN d   1      -2.596   2.194   2.459  0.00  0.00     0.027 A 
ATOM      4  C4  DEN d   1      -0.113   2.535   1.850  0.00  0.00     0.027 A 
ATOM      5  C5  DEN d   1       1.131   1.943   1.834  0.00  0.00    -0.003 A 
ATOM      6  C6  DEN d   1       1.340   0.671   2.298  0.00  0.00     0.001 A 
ATOM      7  C7  DEN d   1       0.281  -0.067   2.756  0.00  0.00     0.017 A 
ATOM      8  C8  DEN d   1      -0.974   0.526   2.782  0.00  0.00    -0.094 A 
ATOM      9  C9  DEN d   1      -1.168   1.808   2.298  0.00  0.00    -0.072 A 
ENDROOT
TORSDOF 0
ENDMDL
