MODEL 1
REMARK minimizedAffinity -0.589436412
REMARK minimizedRMSD -1
REMARK  1 active torsions:
REMARK  status: ('A' for Active; 'I' for Inactive)
REMARK    1  A    between atoms: C1_2  and  C2_3 
ROOT
ATOM      1  C2  UNL d   1       1.171  -0.729   0.662  0.00  0.00    -0.077 A 
ATOM      2  C3  UNL d   1       2.261  -0.286   1.424  0.00  0.00     0.002 A 
ATOM      3  C4  UNL d   1       2.481   1.080   1.614  0.00  0.00     0.002 A 
ATOM      4  C5  UNL d   1       1.614   2.012   1.048  0.00  0.00    -0.004 A 
ATOM      5  C6  UNL d   1       0.528   1.581   0.287  0.00  0.00     0.002 A 
ATOM      6  C7  UNL d   1       0.307   0.217   0.095  0.00  0.00     0.002 A 
ENDROOT
BRANCH   1   7
ATOM      7  C1  UNL d   1       0.904  -2.203   0.497  0.00  0.00     0.055 C 
ATOM      8  C   UNL d   1      -0.255  -2.657   1.374  0.00  0.00     0.019 C 
ENDBRANCH   1   7
TORSDOF 1
ENDMDL
