MODEL 1
REMARK minimizedAffinity -5.37069321
REMARK minimizedRMSD -1
REMARK  1 active torsions:
REMARK  status: ('A' for Active; 'I' for Inactive)
REMARK    1  A    between atoms: C1_2  and  C2_3 
ROOT
ATOM      1  C2  UNL d   1       0.085   0.339   0.350  0.00  0.00    -0.077 A 
ATOM      2  C3  UNL d   1       0.703  -0.884   0.647  0.00  0.00     0.002 A 
ATOM      3  C4  UNL d   1       2.088  -0.954   0.808  0.00  0.00     0.002 A 
ATOM      4  C5  UNL d   1       2.866   0.194   0.677  0.00  0.00    -0.004 A 
ATOM      5  C6  UNL d   1       2.260   1.415   0.380  0.00  0.00     0.002 A 
ATOM      6  C7  UNL d   1       0.876   1.487   0.218  0.00  0.00     0.002 A 
ENDROOT
BRANCH   1   7
ATOM      7  C1  UNL d   1      -1.414   0.426   0.224  0.00  0.00     0.055 C 
ATOM      8  C   UNL d   1      -1.856   0.302  -1.226  0.00  0.00     0.019 C 
ENDBRANCH   1   7
TORSDOF 1
ENDMDL
