MODEL 1
REMARK minimizedAffinity -5.66339397
REMARK minimizedRMSD -1
REMARK  1 active torsions:
REMARK  status: ('A' for Active; 'I' for Inactive)
REMARK    1  A    between atoms: C1_2  and  C2_3 
ROOT
ATOM      1  C2  UNL d   1       0.822  -0.051  -0.062  0.00  0.00    -0.077 A 
ATOM      2  C3  UNL d   1       1.369  -1.300   0.263  0.00  0.00     0.002 A 
ATOM      3  C4  UNL d   1       2.523  -1.383   1.045  0.00  0.00     0.002 A 
ATOM      4  C5  UNL d   1       3.136  -0.222   1.511  0.00  0.00    -0.004 A 
ATOM      5  C6  UNL d   1       2.600   1.025   1.191  0.00  0.00     0.002 A 
ATOM      6  C7  UNL d   1       1.448   1.110   0.409  0.00  0.00     0.002 A 
ENDROOT
BRANCH   1   7
ATOM      7  C1  UNL d   1      -0.451   0.039  -0.864  0.00  0.00     0.055 C 
ATOM      8  C   UNL d   1      -1.648   0.333   0.028  0.00  0.00     0.019 C 
ENDBRANCH   1   7
TORSDOF 1
ENDMDL
