MODEL 1
REMARK minimizedAffinity -3.30067277
REMARK minimizedRMSD -1
REMARK  1 active torsions:
REMARK  status: ('A' for Active; 'I' for Inactive)
REMARK    1  A    between atoms: C1_2  and  C2_3 
ROOT
ATOM      1  C2  UNL d   1       1.534  -0.634   0.470  0.00  0.00    -0.077 A 
ATOM      2  C3  UNL d   1       0.772   0.233  -0.325  0.00  0.00     0.002 A 
ATOM      3  C4  UNL d   1      -0.580  -0.026  -0.557  0.00  0.00     0.002 A 
ATOM      4  C5  UNL d   1      -1.182  -1.149   0.007  0.00  0.00    -0.004 A 
ATOM      5  C6  UNL d   1      -0.432  -2.018   0.798  0.00  0.00     0.002 A 
ATOM      6  C7  UNL d   1       0.920  -1.761   1.030  0.00  0.00     0.002 A 
ENDROOT
BRANCH   1   7
ATOM      7  C1  UNL d   1       2.981  -0.330   0.761  0.00  0.00     0.055 C 
ATOM      8  C   UNL d   1       3.116   0.785   1.789  0.00  0.00     0.019 C 
ENDBRANCH   1   7
TORSDOF 1
ENDMDL
