MODEL 1
REMARK minimizedAffinity -3.8615694
REMARK minimizedRMSD -1
REMARK  1 active torsions:
REMARK  status: ('A' for Active; 'I' for Inactive)
REMARK    1  A    between atoms: C1_2  and  C2_3 
ROOT
ATOM      1  C2  UNL d   1      -1.518  -0.365  -0.860  0.00  0.00    -0.077 A 
ATOM      2  C3  UNL d   1      -0.839   0.858  -0.955  0.00  0.00     0.002 A 
ATOM      3  C4  UNL d   1       0.200   1.159  -0.072  0.00  0.00     0.002 A 
ATOM      4  C5  UNL d   1       0.571   0.242   0.908  0.00  0.00    -0.004 A 
ATOM      5  C6  UNL d   1      -0.099  -0.976   1.012  0.00  0.00     0.002 A 
ATOM      6  C7  UNL d   1      -1.138  -1.279   0.132  0.00  0.00     0.002 A 
ENDROOT
BRANCH   1   7
ATOM      7  C1  UNL d   1      -2.606  -0.713  -1.842  0.00  0.00     0.055 C 
ATOM      8  C   UNL d   1      -2.902   0.452  -2.775  0.00  0.00     0.019 C 
ENDBRANCH   1   7
TORSDOF 1
ENDMDL
