MODEL 1
REMARK minimizedAffinity -4.81082678
REMARK minimizedRMSD -1
REMARK  1 active torsions:
REMARK  status: ('A' for Active; 'I' for Inactive)
REMARK    1  A    between atoms: C1_2  and  C2_3 
ROOT
ATOM      1  C2  UNL d   1      -0.269   0.255   0.056  0.00  0.00    -0.077 A 
ATOM      2  C3  UNL d   1       0.082   1.591  -0.185  0.00  0.00     0.002 A 
ATOM      3  C4  UNL d   1       1.399   2.018  -0.003  0.00  0.00     0.002 A 
ATOM      4  C5  UNL d   1       2.374   1.116   0.416  0.00  0.00    -0.004 A 
ATOM      5  C6  UNL d   1       2.034  -0.214   0.660  0.00  0.00     0.002 A 
ATOM      6  C7  UNL d   1       0.719  -0.643   0.480  0.00  0.00     0.002 A 
ENDROOT
BRANCH   1   7
ATOM      7  C1  UNL d   1      -1.678  -0.219  -0.188  0.00  0.00     0.055 C 
ATOM      8  C   UNL d   1      -2.147   0.134  -1.591  0.00  0.00     0.019 C 
ENDBRANCH   1   7
TORSDOF 1
ENDMDL
