MODEL 1
REMARK minimizedAffinity -4.29169321
REMARK minimizedRMSD -1
REMARK  0 active torsions:
REMARK  status: ('A' for Active; 'I' for Inactive)
ROOT
ATOM      1  C2' OXE d   1      -0.694  -0.086   0.540  0.00  0.00     0.078 C 
ATOM      2  C1' OXE d   1       0.864   1.772  -0.875  0.00  0.00     0.078 C 
ATOM      3  C1  OXE d   1       1.205   0.310  -1.023  0.00  0.00    -0.078 A 
ATOM      4  C2  OXE d   1       0.467  -0.588  -0.290  0.00  0.00    -0.078 A 
ATOM      5  C3  OXE d   1       0.704  -1.953  -0.431  0.00  0.00     0.003 A 
ATOM      6  C4  OXE d   1       1.787  -2.409  -1.194  0.00  0.00    -0.002 A 
ATOM      7  C5  OXE d   1       2.576  -1.508  -1.916  0.00  0.00    -0.002 A 
ATOM      8  C6  OXE d   1       2.272  -0.151  -1.876  0.00  0.00     0.003 A 
ENDROOT
TORSDOF 0
ENDMDL
