MODEL 1
REMARK minimizedAffinity -1.98135519
REMARK minimizedRMSD -1
REMARK  0 active torsions:
REMARK  status: ('A' for Active; 'I' for Inactive)
ROOT
ATOM      1  C2' OXE d   1       0.149  -1.820   1.360  0.00  0.00     0.078 C 
ATOM      2  C1' OXE d   1      -1.316   0.574   1.385  0.00  0.00     0.078 C 
ATOM      3  C1  OXE d   1      -0.238   0.420   0.342  0.00  0.00    -0.078 A 
ATOM      4  C2  OXE d   1       0.506  -0.735   0.367  0.00  0.00    -0.078 A 
ATOM      5  C3  OXE d   1       1.476  -0.951  -0.607  0.00  0.00     0.003 A 
ATOM      6  C4  OXE d   1       1.807   0.062  -1.515  0.00  0.00    -0.002 A 
ATOM      7  C5  OXE d   1       1.089   1.262  -1.532  0.00  0.00    -0.002 A 
ATOM      8  C6  OXE d   1       0.038   1.440  -0.640  0.00  0.00     0.003 A 
ENDROOT
TORSDOF 0
ENDMDL
