MODEL 1
REMARK minimizedAffinity -1.85808229
REMARK minimizedRMSD -1
REMARK  0 active torsions:
REMARK  status: ('A' for Active; 'I' for Inactive)
ROOT
ATOM      1  C2' OXE d   1       1.578   0.785  -1.930  0.00  0.00     0.078 C 
ATOM      2  C1' OXE d   1       1.039  -1.765  -0.889  0.00  0.00     0.078 C 
ATOM      3  C1  OXE d   1       0.408  -0.579  -0.205  0.00  0.00    -0.078 A 
ATOM      4  C2  OXE d   1       0.714   0.669  -0.692  0.00  0.00    -0.078 A 
ATOM      5  C3  OXE d   1       0.116   1.794  -0.133  0.00  0.00     0.003 A 
ATOM      6  C4  OXE d   1      -0.673   1.679   1.018  0.00  0.00    -0.002 A 
ATOM      7  C5  OXE d   1      -0.966   0.421   1.555  0.00  0.00    -0.002 A 
ATOM      8  C6  OXE d   1      -0.469  -0.719   0.932  0.00  0.00     0.003 A 
ENDROOT
TORSDOF 0
ENDMDL
