MODEL 1
REMARK minimizedAffinity -2.93368411
REMARK minimizedRMSD -1
REMARK  0 active torsions:
REMARK  status: ('A' for Active; 'I' for Inactive)
ROOT
ATOM      1  C2' OXE d   1      -0.126  -1.315   1.699  0.00  0.00     0.078 C 
ATOM      2  C1' OXE d   1      -2.168   0.588   1.403  0.00  0.00     0.078 C 
ATOM      3  C1  OXE d   1      -0.963   0.704   0.504  0.00  0.00    -0.078 A 
ATOM      4  C2  OXE d   1       0.053  -0.204   0.688  0.00  0.00    -0.078 A 
ATOM      5  C3  OXE d   1       1.163  -0.175  -0.151  0.00  0.00     0.003 A 
ATOM      6  C4  OXE d   1       1.325   0.863  -1.077  0.00  0.00    -0.002 A 
ATOM      7  C5  OXE d   1       0.321   1.821  -1.252  0.00  0.00    -0.002 A 
ATOM      8  C6  OXE d   1      -0.845   1.731  -0.501  0.00  0.00     0.003 A 
ENDROOT
TORSDOF 0
ENDMDL
