MODEL 1
REMARK minimizedAffinity -5.1249404
REMARK minimizedRMSD -1
REMARK  0 active torsions:
REMARK  status: ('A' for Active; 'I' for Inactive)
ROOT
ATOM      1  C2' OXE d   1      -0.251  -0.309   1.044  0.00  0.00     0.078 C 
ATOM      2  C1' OXE d   1       1.119   1.868  -0.079  0.00  0.00     0.078 C 
ATOM      3  C1  OXE d   1       1.218   0.537  -0.781  0.00  0.00    -0.078 A 
ATOM      4  C2  OXE d   1       0.583  -0.533  -0.199  0.00  0.00    -0.078 A 
ATOM      5  C3  OXE d   1       0.596  -1.772  -0.835  0.00  0.00     0.003 A 
ATOM      6  C4  OXE d   1       1.378  -1.973  -1.979  0.00  0.00    -0.002 A 
ATOM      7  C5  OXE d   1       2.066  -0.905  -2.566  0.00  0.00    -0.002 A 
ATOM      8  C6  OXE d   1       1.962   0.363  -2.005  0.00  0.00     0.003 A 
ENDROOT
TORSDOF 0
ENDMDL
