MODEL 1
REMARK minimizedAffinity -1.41575372
REMARK minimizedRMSD -1
REMARK  0 active torsions:
REMARK  status: ('A' for Active; 'I' for Inactive)
ROOT
ATOM      1  C2' OXE d   1      -2.419  -0.004   1.350  0.00  0.00     0.078 C 
ATOM      2  C1' OXE d   1      -0.006  -1.337   1.880  0.00  0.00     0.078 C 
ATOM      3  C1  OXE d   1       0.004  -0.255   0.829  0.00  0.00    -0.078 A 
ATOM      4  C2  OXE d   1      -1.191   0.360   0.543  0.00  0.00    -0.078 A 
ATOM      5  C3  OXE d   1      -1.228   1.402  -0.379  0.00  0.00     0.003 A 
ATOM      6  C4  OXE d   1      -0.090   1.725  -1.128  0.00  0.00    -0.002 A 
ATOM      7  C5  OXE d   1       1.129   1.084  -0.881  0.00  0.00    -0.002 A 
ATOM      8  C6  OXE d   1       1.202   0.124   0.121  0.00  0.00     0.003 A 
ENDROOT
TORSDOF 0
ENDMDL
