MODEL 1
REMARK minimizedAffinity -3.50339937
REMARK minimizedRMSD -1
REMARK  0 active torsions:
REMARK  status: ('A' for Active; 'I' for Inactive)
ROOT
ATOM      1  C2' OXE d   1      -1.057  -0.069   1.055  0.00  0.00     0.078 C 
ATOM      2  C1' OXE d   1       0.359  -2.403   0.402  0.00  0.00     0.078 C 
ATOM      3  C1  OXE d   1       0.866  -1.094  -0.151  0.00  0.00    -0.078 A 
ATOM      4  C2  OXE d   1       0.140   0.037   0.135  0.00  0.00    -0.078 A 
ATOM      5  C3  OXE d   1       0.594   1.277  -0.305  0.00  0.00     0.003 A 
ATOM      6  C4  OXE d   1       1.696   1.365  -1.163  0.00  0.00    -0.002 A 
ATOM      7  C5  OXE d   1       2.426   0.220  -1.500  0.00  0.00    -0.002 A 
ATOM      8  C6  OXE d   1       2.050  -1.009  -0.969  0.00  0.00     0.003 A 
ENDROOT
TORSDOF 0
ENDMDL
