MODEL 1
REMARK minimizedAffinity -3.28439045
REMARK minimizedRMSD -1
REMARK  0 active torsions:
REMARK  status: ('A' for Active; 'I' for Inactive)
ROOT
ATOM      1  C2' OXE d   1       2.926  -1.097  -2.509  0.00  0.00     0.078 C 
ATOM      2  C1' OXE d   1       1.525  -3.033  -1.036  0.00  0.00     0.078 C 
ATOM      3  C1  OXE d   1       1.198  -1.583  -0.781  0.00  0.00    -0.078 A 
ATOM      4  C2  OXE d   1       1.922  -0.641  -1.473  0.00  0.00    -0.078 A 
ATOM      5  C3  OXE d   1       1.623   0.710  -1.316  0.00  0.00     0.003 A 
ATOM      6  C4  OXE d   1       0.699   1.123  -0.348  0.00  0.00    -0.002 A 
ATOM      7  C5  OXE d   1      -0.020   0.182   0.395  0.00  0.00    -0.002 A 
ATOM      8  C6  OXE d   1       0.186  -1.173   0.161  0.00  0.00     0.003 A 
ENDROOT
TORSDOF 0
ENDMDL
