MODEL 1
REMARK minimizedAffinity -1.97980535
REMARK minimizedRMSD -1
REMARK  0 active torsions:
REMARK  status: ('A' for Active; 'I' for Inactive)
ROOT
ATOM      1  C2' OXE d   1       0.400   0.330   0.822  0.00  0.00     0.078 C 
ATOM      2  C1' OXE d   1      -1.269   0.867  -1.371  0.00  0.00     0.078 C 
ATOM      3  C1  OXE d   1      -1.894   0.848   0.002  0.00  0.00    -0.078 A 
ATOM      4  C2  OXE d   1      -1.079   0.538   1.064  0.00  0.00    -0.078 A 
ATOM      5  C3  OXE d   1      -1.593   0.560   2.357  0.00  0.00     0.003 A 
ATOM      6  C4  OXE d   1      -2.965   0.744   2.571  0.00  0.00    -0.002 A 
ATOM      7  C5  OXE d   1      -3.820   1.021   1.499  0.00  0.00    -0.002 A 
ATOM      8  C6  OXE d   1      -3.294   1.119   0.216  0.00  0.00     0.003 A 
ENDROOT
TORSDOF 0
ENDMDL
