MODEL 1
REMARK minimizedAffinity -3.5230515
REMARK minimizedRMSD -1
REMARK  0 active torsions:
REMARK  status: ('A' for Active; 'I' for Inactive)
ROOT
ATOM      1  C2' OXE d   1      -2.516   0.698   1.770  0.00  0.00     0.078 C 
ATOM      2  C1' OXE d   1      -0.415  -1.111   2.211  0.00  0.00     0.078 C 
ATOM      3  C1  OXE d   1      -0.299  -0.171   1.037  0.00  0.00    -0.078 A 
ATOM      4  C2  OXE d   1      -1.353   0.679   0.801  0.00  0.00    -0.078 A 
ATOM      5  C3  OXE d   1      -1.273   1.604  -0.236  0.00  0.00     0.003 A 
ATOM      6  C4  OXE d   1      -0.199   1.573  -1.133  0.00  0.00    -0.002 A 
ATOM      7  C5  OXE d   1       0.866   0.688  -0.934  0.00  0.00    -0.002 A 
ATOM      8  C6  OXE d   1       0.852  -0.159   0.168  0.00  0.00     0.003 A 
ENDROOT
TORSDOF 0
ENDMDL
