MODEL 1
REMARK minimizedAffinity -2.82968163
REMARK minimizedRMSD -1
REMARK  0 active torsions:
REMARK  status: ('A' for Active; 'I' for Inactive)
ROOT
ATOM      1  C2' OXE d   1       0.149  -0.083  -0.092  0.00  0.00     0.078 C 
ATOM      2  C1' OXE d   1      -1.070   2.340  -0.815  0.00  0.00     0.078 C 
ATOM      3  C1  OXE d   1      -1.777   1.471   0.195  0.00  0.00    -0.078 A 
ATOM      4  C2  OXE d   1      -1.196   0.266   0.507  0.00  0.00    -0.078 A 
ATOM      5  C3  OXE d   1      -1.778  -0.550   1.474  0.00  0.00     0.003 A 
ATOM      6  C4  OXE d   1      -3.027  -0.225   2.016  0.00  0.00    -0.002 A 
ATOM      7  C5  OXE d   1      -3.655   0.979   1.681  0.00  0.00    -0.002 A 
ATOM      8  C6  OXE d   1      -3.024   1.857   0.806  0.00  0.00     0.003 A 
ENDROOT
TORSDOF 0
ENDMDL
