MODEL 1
REMARK minimizedAffinity -1.34222436
REMARK minimizedRMSD -1
REMARK  0 active torsions:
REMARK  status: ('A' for Active; 'I' for Inactive)
ROOT
ATOM      1  C2' OXE d   1       0.966   0.865  -0.679  0.00  0.00     0.078 C 
ATOM      2  C1' OXE d   1       0.240  -1.434   0.760  0.00  0.00     0.078 C 
ATOM      3  C1  OXE d   1      -0.727  -0.276   0.748  0.00  0.00    -0.078 A 
ATOM      4  C2  OXE d   1      -0.343   0.862   0.080  0.00  0.00    -0.078 A 
ATOM      5  C3  OXE d   1      -1.221   1.939  -0.008  0.00  0.00     0.003 A 
ATOM      6  C4  OXE d   1      -2.426   1.932   0.706  0.00  0.00    -0.002 A 
ATOM      7  C5  OXE d   1      -2.818   0.798   1.425  0.00  0.00    -0.002 A 
ATOM      8  C6  OXE d   1      -2.001  -0.328   1.422  0.00  0.00     0.003 A 
ENDROOT
TORSDOF 0
ENDMDL
