MODEL 1
REMARK minimizedAffinity -3.60314703
REMARK minimizedRMSD -1
REMARK  0 active torsions:
REMARK  status: ('A' for Active; 'I' for Inactive)
ROOT
ATOM      1  C2' OXE d   1       1.155   1.954  -0.414  0.00  0.00     0.078 C 
ATOM      2  C1' OXE d   1      -0.401  -0.004   0.860  0.00  0.00     0.078 C 
ATOM      3  C1  OXE d   1       0.649  -0.467  -0.120  0.00  0.00    -0.078 A 
ATOM      4  C2  OXE d   1       1.374   0.500  -0.773  0.00  0.00    -0.078 A 
ATOM      5  C3  OXE d   1       2.391   0.127  -1.646  0.00  0.00     0.003 A 
ATOM      6  C4  OXE d   1       2.580  -1.220  -1.980  0.00  0.00    -0.002 A 
ATOM      7  C5  OXE d   1       1.826  -2.219  -1.356  0.00  0.00    -0.002 A 
ATOM      8  C6  OXE d   1       0.887  -1.862  -0.394  0.00  0.00     0.003 A 
ENDROOT
TORSDOF 0
ENDMDL
