MODEL 1
REMARK minimizedAffinity -1.84756935
REMARK minimizedRMSD -1
REMARK  0 active torsions:
REMARK  status: ('A' for Active; 'I' for Inactive)
ROOT
ATOM      1  C2' OXE d   1      -2.888   0.413   1.435  0.00  0.00     0.078 C 
ATOM      2  C1' OXE d   1      -0.495  -1.000   1.833  0.00  0.00     0.078 C 
ATOM      3  C1  OXE d   1      -0.482   0.142   0.848  0.00  0.00    -0.078 A 
ATOM      4  C2  OXE d   1      -1.668   0.798   0.625  0.00  0.00    -0.078 A 
ATOM      5  C3  OXE d   1      -1.699   1.894  -0.233  0.00  0.00     0.003 A 
ATOM      6  C4  OXE d   1      -0.570   2.237  -0.986  0.00  0.00    -0.002 A 
ATOM      7  C5  OXE d   1       0.639   1.556  -0.803  0.00  0.00    -0.002 A 
ATOM      8  C6  OXE d   1       0.710   0.536   0.139  0.00  0.00     0.003 A 
ENDROOT
TORSDOF 0
ENDMDL
