MODEL 1
REMARK minimizedAffinity -1.72667491
REMARK minimizedRMSD -1
REMARK  0 active torsions:
REMARK  status: ('A' for Active; 'I' for Inactive)
ROOT
ATOM      1  C2' OXE d   1      -1.171   0.233   0.572  0.00  0.00     0.078 C 
ATOM      2  C1' OXE d   1      -0.287   2.473  -0.871  0.00  0.00     0.078 C 
ATOM      3  C1  OXE d   1       0.565   1.229  -0.911  0.00  0.00    -0.078 A 
ATOM      4  C2  OXE d   1       0.149   0.153  -0.165  0.00  0.00    -0.078 A 
ATOM      5  C3  OXE d   1       0.869  -1.037  -0.210  0.00  0.00     0.003 A 
ATOM      6  C4  OXE d   1       2.094  -1.099  -0.885  0.00  0.00    -0.002 A 
ATOM      7  C5  OXE d   1       2.556  -0.002  -1.619  0.00  0.00    -0.002 A 
ATOM      8  C6  OXE d   1       1.784   1.153  -1.677  0.00  0.00     0.003 A 
ENDROOT
TORSDOF 0
ENDMDL
