MODEL 1
REMARK minimizedAffinity -0.0687424466
REMARK minimizedRMSD -1
REMARK  0 active torsions:
REMARK  status: ('A' for Active; 'I' for Inactive)
ROOT
ATOM      1  C2' OXE d   1      -0.477  -1.921   1.874  0.00  0.00     0.078 C 
ATOM      2  C1' OXE d   1      -2.385   0.138   1.845  0.00  0.00     0.078 C 
ATOM      3  C1  OXE d   1      -1.226   0.239   0.885  0.00  0.00    -0.078 A 
ATOM      4  C2  OXE d   1      -0.272  -0.749   0.939  0.00  0.00    -0.078 A 
ATOM      5  C3  OXE d   1       0.789  -0.733   0.038  0.00  0.00     0.003 A 
ATOM      6  C4  OXE d   1       0.976   0.360  -0.817  0.00  0.00    -0.002 A 
ATOM      7  C5  OXE d   1       0.038   1.397  -0.860  0.00  0.00    -0.002 A 
ATOM      8  C6  OXE d   1      -1.088   1.331  -0.048  0.00  0.00     0.003 A 
ENDROOT
TORSDOF 0
ENDMDL
