MODEL 1
REMARK minimizedAffinity -2.55703473
REMARK minimizedRMSD -1
REMARK  0 active torsions:
REMARK  status: ('A' for Active; 'I' for Inactive)
ROOT
ATOM      1  C2' OXE d   1       1.193   2.193  -0.454  0.00  0.00     0.078 C 
ATOM      2  C1' OXE d   1       2.016   0.345  -2.400  0.00  0.00     0.078 C 
ATOM      3  C1  OXE d   1       1.291  -0.185  -1.189  0.00  0.00    -0.078 A 
ATOM      4  C2  OXE d   1       0.933   0.721  -0.219  0.00  0.00    -0.078 A 
ATOM      5  C3  OXE d   1       0.214   0.293   0.893  0.00  0.00     0.003 A 
ATOM      6  C4  OXE d   1      -0.014  -1.072   1.107  0.00  0.00    -0.002 A 
ATOM      7  C5  OXE d   1       0.377  -2.016   0.152  0.00  0.00    -0.002 A 
ATOM      8  C6  OXE d   1       0.991  -1.586  -1.019  0.00  0.00     0.003 A 
ENDROOT
TORSDOF 0
ENDMDL
