MODEL 1
REMARK minimizedAffinity -2.70076394
REMARK minimizedRMSD -1
REMARK  1 active torsions:
REMARK  status: ('A' for Active; 'I' for Inactive)
REMARK    1  A    between atoms: C1_2  and  C2_3 
ROOT
ATOM      1  C2  UNL d   1       1.280   2.264   0.438  0.00  0.00    -0.076 A 
ATOM      2  C3  UNL d   1       1.518   3.647   0.519  0.00  0.00     0.004 A 
ATOM      3  C4  UNL d   1       1.665   4.419  -0.632  0.00  0.00    -0.003 A 
ATOM      4  C5  UNL d   1       1.577   3.820  -1.884  0.00  0.00     0.000 A 
ATOM      5  C6  UNL d   1       1.324   2.452  -1.984  0.00  0.00     0.000 A 
ATOM      6  C7  UNL d   1       1.157   1.663  -0.833  0.00  0.00    -0.073 A 
ATOM      7  C8  UNL d   1       0.892   0.192  -0.999  0.00  0.00     0.078 C 
ENDROOT
BRANCH   1   8
ATOM      8  C1  UNL d   1       1.156   1.474   1.721  0.00  0.00     0.053 C 
ATOM      9  C   UNL d   1       2.474   0.847   2.149  0.00  0.00     0.018 C 
ENDBRANCH   1   8
TORSDOF 1
ENDMDL
