MODEL 1
REMARK minimizedAffinity -2.9292326
REMARK minimizedRMSD -1
REMARK  1 active torsions:
REMARK  status: ('A' for Active; 'I' for Inactive)
REMARK    1  A    between atoms: C1_2  and  C2_3 
ROOT
ATOM      1  C2  UNL d   1       1.284   1.479  -0.466  0.00  0.00    -0.076 A 
ATOM      2  C3  UNL d   1       0.752   0.185  -0.599  0.00  0.00     0.004 A 
ATOM      3  C4  UNL d   1       0.572  -0.392  -1.855  0.00  0.00    -0.003 A 
ATOM      4  C5  UNL d   1       0.923   0.317  -2.999  0.00  0.00     0.000 A 
ATOM      5  C6  UNL d   1       1.469   1.595  -2.885  0.00  0.00     0.000 A 
ATOM      6  C7  UNL d   1       1.672   2.184  -1.625  0.00  0.00    -0.073 A 
ATOM      7  C8  UNL d   1       2.259   3.567  -1.561  0.00  0.00     0.078 C 
ENDROOT
BRANCH   1   8
ATOM      8  C1  UNL d   1       1.431   2.062   0.921  0.00  0.00     0.053 C 
ATOM      9  C   UNL d   1       1.000   1.092   2.010  0.00  0.00     0.018 C 
ENDBRANCH   1   8
TORSDOF 1
ENDMDL
