MODEL 1
REMARK minimizedAffinity 0.762031734
REMARK minimizedRMSD -1
REMARK  1 active torsions:
REMARK  status: ('A' for Active; 'I' for Inactive)
REMARK    1  A    between atoms: C1_2  and  C2_3 
ROOT
ATOM      1  C2  UNL d   1       0.830  -1.874  -1.551  0.00  0.00    -0.076 A 
ATOM      2  C3  UNL d   1      -0.258  -2.584  -2.087  0.00  0.00     0.004 A 
ATOM      3  C4  UNL d   1      -0.747  -3.729  -1.460  0.00  0.00    -0.003 A 
ATOM      4  C5  UNL d   1      -0.156  -4.182  -0.286  0.00  0.00     0.000 A 
ATOM      5  C6  UNL d   1       0.913  -3.480   0.270  0.00  0.00     0.000 A 
ATOM      6  C7  UNL d   1       1.408  -2.315  -0.341  0.00  0.00    -0.073 A 
ATOM      7  C8  UNL d   1       2.567  -1.600   0.299  0.00  0.00     0.078 C 
ENDROOT
BRANCH   1   8
ATOM      8  C1  UNL d   1       1.334  -0.654  -2.289  0.00  0.00     0.053 C 
ATOM      9  C   UNL d   1       0.908   0.646  -1.625  0.00  0.00     0.018 C 
ENDBRANCH   1   8
TORSDOF 1
ENDMDL
