MODEL 1
REMARK minimizedAffinity 2.32051301
REMARK minimizedRMSD -1
REMARK  1 active torsions:
REMARK  status: ('A' for Active; 'I' for Inactive)
REMARK    1  A    between atoms: C1_2  and  C2_3 
ROOT
ATOM      1  C2  UNL d   1       1.275   2.128  -1.039  0.00  0.00    -0.076 A 
ATOM      2  C3  UNL d   1       1.324   0.819  -1.549  0.00  0.00     0.004 A 
ATOM      3  C4  UNL d   1       1.468  -0.277  -0.700  0.00  0.00    -0.003 A 
ATOM      4  C5  UNL d   1       1.566  -0.082   0.673  0.00  0.00     0.000 A 
ATOM      5  C6  UNL d   1       1.502   1.208   1.198  0.00  0.00     0.000 A 
ATOM      6  C7  UNL d   1       1.340   2.323   0.358  0.00  0.00    -0.073 A 
ATOM      7  C8  UNL d   1       1.283   3.692   0.977  0.00  0.00     0.078 C 
ENDROOT
BRANCH   1   8
ATOM      8  C1  UNL d   1       1.144   3.279  -2.010  0.00  0.00     0.053 C 
ATOM      9  C   UNL d   1       1.976   4.485  -1.600  0.00  0.00     0.018 C 
ENDBRANCH   1   8
TORSDOF 1
ENDMDL
