MODEL 1
REMARK minimizedAffinity -6.36804056
REMARK minimizedRMSD -1
REMARK  1 active torsions:
REMARK  status: ('A' for Active; 'I' for Inactive)
REMARK    1  A    between atoms: C1_2  and  C2_3 
ROOT
ATOM      1  C2  UNL d   1       1.222   2.575   0.891  0.00  0.00    -0.076 A 
ATOM      2  C3  UNL d   1       0.908   1.222   1.108  0.00  0.00     0.004 A 
ATOM      3  C4  UNL d   1       0.787   0.334   0.040  0.00  0.00    -0.003 A 
ATOM      4  C5  UNL d   1       0.979   0.784  -1.261  0.00  0.00     0.000 A 
ATOM      5  C6  UNL d   1       1.308   2.118  -1.494  0.00  0.00     0.000 A 
ATOM      6  C7  UNL d   1       1.450   3.024  -0.428  0.00  0.00    -0.073 A 
ATOM      7  C8  UNL d   1       1.801   4.453  -0.737  0.00  0.00     0.078 C 
ENDROOT
BRANCH   1   8
ATOM      8  C1  UNL d   1       1.314   3.498   2.085  0.00  0.00     0.053 C 
ATOM      9  C   UNL d   1       2.455   3.128   3.020  0.00  0.00     0.018 C 
ENDBRANCH   1   8
TORSDOF 1
ENDMDL
