MODEL 1
REMARK minimizedAffinity 7.98858213
REMARK minimizedRMSD -1
REMARK  1 active torsions:
REMARK  status: ('A' for Active; 'I' for Inactive)
REMARK    1  A    between atoms: C1_2  and  C2_3 
ROOT
ATOM      1  C2  UNL d   1       1.596   1.059  -0.742  0.00  0.00    -0.076 A 
ATOM      2  C3  UNL d   1       0.851   0.399  -1.735  0.00  0.00     0.004 A 
ATOM      3  C4  UNL d   1       0.329  -0.874  -1.513  0.00  0.00    -0.003 A 
ATOM      4  C5  UNL d   1       0.543  -1.508  -0.294  0.00  0.00     0.000 A 
ATOM      5  C6  UNL d   1       1.264  -0.861   0.709  0.00  0.00     0.000 A 
ATOM      6  C7  UNL d   1       1.784   0.429   0.507  0.00  0.00    -0.073 A 
ATOM      7  C8  UNL d   1       2.559   1.078   1.620  0.00  0.00     0.078 C 
ENDROOT
BRANCH   1   8
ATOM      8  C1  UNL d   1       2.161   2.427  -1.050  0.00  0.00     0.053 C 
ATOM      9  C   UNL d   1       1.543   3.046  -2.295  0.00  0.00     0.018 C 
ENDBRANCH   1   8
TORSDOF 1
ENDMDL
