MODEL 1
REMARK minimizedAffinity -0.182201579
REMARK minimizedRMSD -1
REMARK  1 active torsions:
REMARK  status: ('A' for Active; 'I' for Inactive)
REMARK    1  A    between atoms: C1_2  and  C2_3 
ROOT
ATOM      1  C2  UNL d   1       1.011   0.280  -1.700  0.00  0.00    -0.076 A 
ATOM      2  C3  UNL d   1       0.893   1.462  -2.452  0.00  0.00     0.004 A 
ATOM      3  C4  UNL d   1       0.994   2.712  -1.844  0.00  0.00    -0.003 A 
ATOM      4  C5  UNL d   1       1.215   2.801  -0.474  0.00  0.00     0.000 A 
ATOM      5  C6  UNL d   1       1.352   1.639   0.284  0.00  0.00     0.000 A 
ATOM      6  C7  UNL d   1       1.269   0.371  -0.316  0.00  0.00    -0.073 A 
ATOM      7  C8  UNL d   1       1.419  -0.850   0.551  0.00  0.00     0.078 C 
ENDROOT
BRANCH   1   8
ATOM      8  C1  UNL d   1       0.866  -1.047  -2.410  0.00  0.00     0.053 C 
ATOM      9  C   UNL d   1       1.639  -1.096  -3.719  0.00  0.00     0.018 C 
ENDBRANCH   1   8
TORSDOF 1
ENDMDL
