MODEL 1
REMARK minimizedAffinity -1.75656867
REMARK minimizedRMSD -1
REMARK  1 active torsions:
REMARK  status: ('A' for Active; 'I' for Inactive)
REMARK    1  A    between atoms: C1_2  and  C2_3 
ROOT
ATOM      1  C2  UNL d   1       1.468   2.282  -0.678  0.00  0.00    -0.076 A 
ATOM      2  C3  UNL d   1       1.372   2.807   0.622  0.00  0.00     0.004 A 
ATOM      3  C4  UNL d   1       1.048   1.990   1.704  0.00  0.00    -0.003 A 
ATOM      4  C5  UNL d   1       0.814   0.634   1.502  0.00  0.00     0.000 A 
ATOM      5  C6  UNL d   1       0.922   0.093   0.222  0.00  0.00     0.000 A 
ATOM      6  C7  UNL d   1       1.265   0.900  -0.877  0.00  0.00    -0.073 A 
ATOM      7  C8  UNL d   1       1.361   0.265  -2.237  0.00  0.00     0.078 C 
ENDROOT
BRANCH   1   8
ATOM      8  C1  UNL d   1       1.797   3.222  -1.816  0.00  0.00     0.053 C 
ATOM      9  C   UNL d   1       1.826   4.679  -1.379  0.00  0.00     0.018 C 
ENDBRANCH   1   8
TORSDOF 1
ENDMDL
