MODEL 1
REMARK minimizedAffinity -0.955306411
REMARK minimizedRMSD -1
REMARK  1 active torsions:
REMARK  status: ('A' for Active; 'I' for Inactive)
REMARK    1  A    between atoms: C1_2  and  C2_3 
ROOT
ATOM      1  C2  UNL d   1       1.094   1.329  -0.062  0.00  0.00    -0.076 A 
ATOM      2  C3  UNL d   1       1.096  -0.058  -0.293  0.00  0.00     0.004 A 
ATOM      3  C4  UNL d   1       1.380  -0.574  -1.556  0.00  0.00    -0.003 A 
ATOM      4  C5  UNL d   1       1.669   0.289  -2.608  0.00  0.00     0.000 A 
ATOM      5  C6  UNL d   1       1.689   1.666  -2.392  0.00  0.00     0.000 A 
ATOM      6  C7  UNL d   1       1.420   2.202  -1.121  0.00  0.00    -0.073 A 
ATOM      7  C8  UNL d   1       1.450   3.696  -0.946  0.00  0.00     0.078 C 
ENDROOT
BRANCH   1   8
ATOM      8  C1  UNL d   1       0.751   1.831   1.323  0.00  0.00     0.053 C 
ATOM      9  C   UNL d   1       1.490   1.076   2.416  0.00  0.00     0.018 C 
ENDBRANCH   1   8
TORSDOF 1
ENDMDL
