MODEL 1
REMARK minimizedAffinity -1.75201356
REMARK minimizedRMSD -1
REMARK  1 active torsions:
REMARK  status: ('A' for Active; 'I' for Inactive)
REMARK    1  A    between atoms: C1_2  and  C2_3 
ROOT
ATOM      1  C2  UNL d   1       1.296   3.189  -0.713  0.00  0.00    -0.076 A 
ATOM      2  C3  UNL d   1       0.677   3.249  -1.974  0.00  0.00     0.004 A 
ATOM      3  C4  UNL d   1       0.191   2.097  -2.590  0.00  0.00    -0.003 A 
ATOM      4  C5  UNL d   1       0.315   0.866  -1.955  0.00  0.00     0.000 A 
ATOM      5  C6  UNL d   1       0.910   0.791  -0.696  0.00  0.00     0.000 A 
ATOM      6  C7  UNL d   1       1.391   1.945  -0.054  0.00  0.00    -0.073 A 
ATOM      7  C8  UNL d   1       2.029   1.805   1.301  0.00  0.00     0.078 C 
ENDROOT
BRANCH   1   8
ATOM      8  C1  UNL d   1       1.828   4.468  -0.107  0.00  0.00     0.053 C 
ATOM      9  C   UNL d   1       1.842   5.621  -1.098  0.00  0.00     0.018 C 
ENDBRANCH   1   8
TORSDOF 1
ENDMDL
