MODEL 1
REMARK minimizedAffinity 13.660121
REMARK minimizedRMSD -1
REMARK  2 active torsions:
REMARK  status: ('A' for Active; 'I' for Inactive)
REMARK    1  A    between atoms: C1_2  and  C2_3 
REMARK    2  A    between atoms: C2_3  and  C3_4 
ROOT
ATOM      1  C3  UNL d   1      -2.974   4.221  -2.314  0.00  0.00    -0.075 A 
ATOM      2  C4  UNL d   1      -2.956   3.341  -3.406  0.00  0.00     0.002 A 
ATOM      3  C5  UNL d   1      -2.555   3.784  -4.666  0.00  0.00     0.002 A 
ATOM      4  C6  UNL d   1      -2.177   5.112  -4.853  0.00  0.00    -0.004 A 
ATOM      5  C7  UNL d   1      -2.208   5.999  -3.779  0.00  0.00     0.002 A 
ATOM      6  C8  UNL d   1      -2.604   5.557  -2.516  0.00  0.00     0.002 A 
ENDROOT
BRANCH   1   7
ATOM      7  C2  UNL d   1      -3.379   3.740  -0.941  0.00  0.00     0.056 C 
BRANCH   7   8
ATOM      8  C1  UNL d   1      -4.870   3.412  -0.810  0.00  0.00     0.007 C 
ATOM      9  C   UNL d   1      -5.646   4.453  -0.014  0.00  0.00     0.009 C 
ENDBRANCH   7   8
ENDBRANCH   1   7
TORSDOF 2
ENDMDL
