MODEL 1
REMARK minimizedAffinity 18.0995159
REMARK minimizedRMSD -1
REMARK  2 active torsions:
REMARK  status: ('A' for Active; 'I' for Inactive)
REMARK    1  A    between atoms: C1_2  and  C2_3 
REMARK    2  A    between atoms: C2_3  and  C3_4 
ROOT
ATOM      1  C3  UNL d   1       3.218  -4.828  -5.740  0.00  0.00    -0.075 A 
ATOM      2  C4  UNL d   1       4.120  -5.901  -5.783  0.00  0.00     0.002 A 
ATOM      3  C5  UNL d   1       5.490  -5.670  -5.907  0.00  0.00     0.002 A 
ATOM      4  C6  UNL d   1       5.974  -4.367  -6.000  0.00  0.00    -0.004 A 
ATOM      5  C7  UNL d   1       5.086  -3.294  -5.975  0.00  0.00     0.002 A 
ATOM      6  C8  UNL d   1       3.715  -3.522  -5.847  0.00  0.00     0.002 A 
ENDROOT
BRANCH   1   7
ATOM      7  C2  UNL d   1       1.736  -5.071  -5.577  0.00  0.00     0.056 C 
BRANCH   7   8
ATOM      8  C1  UNL d   1       1.341  -5.612  -4.199  0.00  0.00     0.007 C 
ATOM      9  C   UNL d   1       0.993  -4.516  -3.201  0.00  0.00     0.009 C 
ENDBRANCH   7   8
ENDBRANCH   1   7
TORSDOF 2
ENDMDL
