MODEL 1
REMARK minimizedAffinity 21.2991199
REMARK minimizedRMSD -1
REMARK  2 active torsions:
REMARK  status: ('A' for Active; 'I' for Inactive)
REMARK    1  A    between atoms: C1_2  and  C2_3 
REMARK    2  A    between atoms: C2_3  and  C3_4 
ROOT
ATOM      1  C3  UNL d   1       1.356  -0.058   2.619  0.00  0.00    -0.075 A 
ATOM      2  C4  UNL d   1       0.032  -0.402   2.314  0.00  0.00     0.002 A 
ATOM      3  C5  UNL d   1      -0.945  -0.414   3.310  0.00  0.00     0.002 A 
ATOM      4  C6  UNL d   1      -0.608  -0.091   4.623  0.00  0.00    -0.004 A 
ATOM      5  C7  UNL d   1       0.708   0.236   4.940  0.00  0.00     0.002 A 
ATOM      6  C8  UNL d   1       1.686   0.253   3.944  0.00  0.00     0.002 A 
ENDROOT
BRANCH   1   7
ATOM      7  C2  UNL d   1       2.411  -0.015   1.539  0.00  0.00     0.056 C 
BRANCH   7   8
ATOM      8  C1  UNL d   1       3.259   1.262   1.546  0.00  0.00     0.007 C 
ATOM      9  C   UNL d   1       4.685   1.033   2.030  0.00  0.00     0.009 C 
ENDBRANCH   7   8
ENDBRANCH   1   7
TORSDOF 2
ENDMDL
