MODEL 1
REMARK minimizedAffinity 19.5857239
REMARK minimizedRMSD -1
REMARK  2 active torsions:
REMARK  status: ('A' for Active; 'I' for Inactive)
REMARK    1  A    between atoms: C1_2  and  C2_3 
REMARK    2  A    between atoms: C2_3  and  C3_4 
ROOT
ATOM      1  C3  UNL d   1       2.827  -5.289   3.232  0.00  0.00    -0.075 A 
ATOM      2  C4  UNL d   1       1.998  -4.586   4.118  0.00  0.00     0.002 A 
ATOM      3  C5  UNL d   1       2.269  -4.577   5.487  0.00  0.00     0.002 A 
ATOM      4  C6  UNL d   1       3.365  -5.276   5.987  0.00  0.00    -0.004 A 
ATOM      5  C7  UNL d   1       4.187  -5.991   5.118  0.00  0.00     0.002 A 
ATOM      6  C8  UNL d   1       3.920  -5.998   3.748  0.00  0.00     0.002 A 
ENDROOT
BRANCH   1   7
ATOM      7  C2  UNL d   1       2.556  -5.279   1.747  0.00  0.00     0.056 C 
BRANCH   7   8
ATOM      8  C1  UNL d   1       2.330  -3.880   1.164  0.00  0.00     0.007 C 
ATOM      9  C   UNL d   1       2.459  -3.834  -0.353  0.00  0.00     0.009 C 
ENDBRANCH   7   8
ENDBRANCH   1   7
TORSDOF 2
ENDMDL
