MODEL 1
REMARK minimizedAffinity 14.8899164
REMARK minimizedRMSD -1
REMARK  2 active torsions:
REMARK  status: ('A' for Active; 'I' for Inactive)
REMARK    1  A    between atoms: C1_2  and  C2_3 
REMARK    2  A    between atoms: C2_3  and  C3_4 
ROOT
ATOM      1  C3  UNL d   1      -2.771   4.639  -2.982  0.00  0.00    -0.075 A 
ATOM      2  C4  UNL d   1      -2.460   5.891  -3.531  0.00  0.00     0.002 A 
ATOM      3  C5  UNL d   1      -2.025   5.997  -4.852  0.00  0.00     0.002 A 
ATOM      4  C6  UNL d   1      -1.887   4.854  -5.637  0.00  0.00    -0.004 A 
ATOM      5  C7  UNL d   1      -2.178   3.604  -5.097  0.00  0.00     0.002 A 
ATOM      6  C8  UNL d   1      -2.617   3.495  -3.776  0.00  0.00     0.002 A 
ENDROOT
BRANCH   1   7
ATOM      7  C2  UNL d   1      -3.270   4.521  -1.561  0.00  0.00     0.056 C 
BRANCH   7   8
ATOM      8  C1  UNL d   1      -4.738   4.098  -1.449  0.00  0.00     0.007 C 
ATOM      9  C   UNL d   1      -5.258   4.107  -0.018  0.00  0.00     0.009 C 
ENDBRANCH   7   8
ENDBRANCH   1   7
TORSDOF 2
ENDMDL
