MODEL 1
REMARK minimizedAffinity 15.3965435
REMARK minimizedRMSD -1
REMARK  2 active torsions:
REMARK  status: ('A' for Active; 'I' for Inactive)
REMARK    1  A    between atoms: C1_2  and  C2_3 
REMARK    2  A    between atoms: C2_3  and  C3_4 
ROOT
ATOM      1  C3  UNL d   1      -0.144  -2.166   2.489  0.00  0.00    -0.075 A 
ATOM      2  C4  UNL d   1      -0.014  -1.060   3.342  0.00  0.00     0.002 A 
ATOM      3  C5  UNL d   1       1.062  -0.183   3.206  0.00  0.00     0.002 A 
ATOM      4  C6  UNL d   1       2.025  -0.405   2.224  0.00  0.00    -0.004 A 
ATOM      5  C7  UNL d   1       1.915  -1.510   1.382  0.00  0.00     0.002 A 
ATOM      6  C8  UNL d   1       0.837  -2.386   1.513  0.00  0.00     0.002 A 
ENDROOT
BRANCH   1   7
ATOM      7  C2  UNL d   1      -1.322  -3.103   2.613  0.00  0.00     0.056 C 
BRANCH   7   8
ATOM      8  C1  UNL d   1      -2.658  -2.395   2.865  0.00  0.00     0.007 C 
ATOM      9  C   UNL d   1      -3.451  -3.001   4.014  0.00  0.00     0.009 C 
ENDBRANCH   7   8
ENDBRANCH   1   7
TORSDOF 2
ENDMDL
