MODEL 1
REMARK minimizedAffinity 11.7482719
REMARK minimizedRMSD -1
REMARK  2 active torsions:
REMARK  status: ('A' for Active; 'I' for Inactive)
REMARK    1  A    between atoms: C1_2  and  C2_3 
REMARK    2  A    between atoms: C2_3  and  C3_4 
ROOT
ATOM      1  C3  UNL d   1      -1.656   3.636  -3.522  0.00  0.00    -0.075 A 
ATOM      2  C4  UNL d   1      -2.184   3.328  -4.784  0.00  0.00     0.002 A 
ATOM      3  C5  UNL d   1      -2.553   4.345  -5.665  0.00  0.00     0.002 A 
ATOM      4  C6  UNL d   1      -2.408   5.680  -5.293  0.00  0.00    -0.004 A 
ATOM      5  C7  UNL d   1      -1.900   5.997  -4.035  0.00  0.00     0.002 A 
ATOM      6  C8  UNL d   1      -1.526   4.982  -3.153  0.00  0.00     0.002 A 
ENDROOT
BRANCH   1   7
ATOM      7  C2  UNL d   1      -1.227   2.540  -2.576  0.00  0.00     0.056 C 
BRANCH   7   8
ATOM      8  C1  UNL d   1       0.247   2.614  -2.162  0.00  0.00     0.007 C 
ATOM      9  C   UNL d   1       0.444   3.078  -0.725  0.00  0.00     0.009 C 
ENDBRANCH   7   8
ENDBRANCH   1   7
TORSDOF 2
ENDMDL
