MODEL 1
REMARK minimizedAffinity 22.6430206
REMARK minimizedRMSD -1
REMARK  2 active torsions:
REMARK  status: ('A' for Active; 'I' for Inactive)
REMARK    1  A    between atoms: C1_2  and  C2_3 
REMARK    2  A    between atoms: C2_3  and  C3_4 
ROOT
ATOM      1  C3  UNL d   1       1.990   0.042   2.314  0.00  0.00    -0.075 A 
ATOM      2  C4  UNL d   1       2.037   0.416   3.665  0.00  0.00     0.002 A 
ATOM      3  C5  UNL d   1       0.896   0.329   4.464  0.00  0.00     0.002 A 
ATOM      4  C6  UNL d   1      -0.305  -0.121   3.921  0.00  0.00    -0.004 A 
ATOM      5  C7  UNL d   1      -0.368  -0.479   2.576  0.00  0.00     0.002 A 
ATOM      6  C8  UNL d   1       0.773  -0.397   1.775  0.00  0.00     0.002 A 
ENDROOT
BRANCH   1   7
ATOM      7  C2  UNL d   1       3.228   0.106   1.451  0.00  0.00     0.056 C 
BRANCH   7   8
ATOM      8  C1  UNL d   1       4.322   1.029   1.998  0.00  0.00     0.007 C 
ATOM      9  C   UNL d   1       4.576   2.245   1.118  0.00  0.00     0.009 C 
ENDBRANCH   7   8
ENDBRANCH   1   7
TORSDOF 2
ENDMDL
