MODEL 1
REMARK minimizedAffinity 8.96596527
REMARK minimizedRMSD -1
REMARK  2 active torsions:
REMARK  status: ('A' for Active; 'I' for Inactive)
REMARK    1  A    between atoms: C1_2  and  C2_3 
REMARK    2  A    between atoms: C2_3  and  C3_4 
ROOT
ATOM      1  C3  UNL d   1       2.010  -0.268   3.058  0.00  0.00    -0.075 A 
ATOM      2  C4  UNL d   1       2.254   0.068   4.398  0.00  0.00     0.002 A 
ATOM      3  C5  UNL d   1       1.239  -0.035   5.350  0.00  0.00     0.002 A 
ATOM      4  C6  UNL d   1      -0.032  -0.464   4.974  0.00  0.00    -0.004 A 
ATOM      5  C7  UNL d   1      -0.290  -0.785   3.643  0.00  0.00     0.002 A 
ATOM      6  C8  UNL d   1       0.725  -0.686   2.689  0.00  0.00     0.002 A 
ENDROOT
BRANCH   1   7
ATOM      7  C2  UNL d   1       3.112  -0.186   2.029  0.00  0.00     0.056 C 
BRANCH   7   8
ATOM      8  C1  UNL d   1       4.378   0.519   2.525  0.00  0.00     0.007 C 
ATOM      9  C   UNL d   1       5.488  -0.447   2.919  0.00  0.00     0.009 C 
ENDBRANCH   7   8
ENDBRANCH   1   7
TORSDOF 2
ENDMDL
