MODEL 1
REMARK minimizedAffinity 8.16342258
REMARK minimizedRMSD -1
REMARK  2 active torsions:
REMARK  status: ('A' for Active; 'I' for Inactive)
REMARK    1  A    between atoms: C1_2  and  C2_3 
REMARK    2  A    between atoms: C2_3  and  C3_4 
ROOT
ATOM      1  C3  UNL d   1       0.056  -1.872   2.669  0.00  0.00    -0.075 A 
ATOM      2  C4  UNL d   1       0.744  -0.685   2.963  0.00  0.00     0.002 A 
ATOM      3  C5  UNL d   1       1.922  -0.363   2.288  0.00  0.00     0.002 A 
ATOM      4  C6  UNL d   1       2.431  -1.225   1.320  0.00  0.00    -0.004 A 
ATOM      5  C7  UNL d   1       1.766  -2.414   1.031  0.00  0.00     0.002 A 
ATOM      6  C8  UNL d   1       0.585  -2.737   1.702  0.00  0.00     0.002 A 
ENDROOT
BRANCH   1   7
ATOM      7  C2  UNL d   1      -1.234  -2.212   3.375  0.00  0.00     0.056 C 
BRANCH   7   8
ATOM      8  C1  UNL d   1      -1.861  -3.536   2.924  0.00  0.00     0.007 C 
ATOM      9  C   UNL d   1      -2.483  -3.463   1.536  0.00  0.00     0.009 C 
ENDBRANCH   7   8
ENDBRANCH   1   7
TORSDOF 2
ENDMDL
