MODEL 1
REMARK minimizedAffinity 18.0251713
REMARK minimizedRMSD -1
REMARK  2 active torsions:
REMARK  status: ('A' for Active; 'I' for Inactive)
REMARK    1  A    between atoms: C1_2  and  C2_3 
REMARK    2  A    between atoms: C2_3  and  C3_4 
ROOT
ATOM      1  C3  UNL d   1      -1.844  -2.591   2.121  0.00  0.00    -0.075 A 
ATOM      2  C4  UNL d   1      -2.297  -1.560   2.956  0.00  0.00     0.002 A 
ATOM      3  C5  UNL d   1      -1.533  -0.407   3.138  0.00  0.00     0.002 A 
ATOM      4  C6  UNL d   1      -0.302  -0.276   2.498  0.00  0.00    -0.004 A 
ATOM      5  C7  UNL d   1       0.166  -1.301   1.679  0.00  0.00     0.002 A 
ATOM      6  C8  UNL d   1      -0.599  -2.453   1.491  0.00  0.00     0.002 A 
ENDROOT
BRANCH   1   7
ATOM      7  C2  UNL d   1      -2.680  -3.828   1.896  0.00  0.00     0.056 C 
BRANCH   7   8
ATOM      8  C1  UNL d   1      -3.741  -3.673   0.802  0.00  0.00     0.007 C 
ATOM      9  C   UNL d   1      -3.780  -4.847  -0.167  0.00  0.00     0.009 C 
ENDBRANCH   7   8
ENDBRANCH   1   7
TORSDOF 2
ENDMDL
