MODEL 1
REMARK minimizedAffinity 8.25631618
REMARK minimizedRMSD -1
REMARK  2 active torsions:
REMARK  status: ('A' for Active; 'I' for Inactive)
REMARK    1  A    between atoms: C1_2  and  C2_3 
REMARK    2  A    between atoms: C2_3  and  C3_4 
ROOT
ATOM      1  C3  UNL d   1       1.145  -1.530   2.303  0.00  0.00    -0.075 A 
ATOM      2  C4  UNL d   1       0.398  -2.679   2.006  0.00  0.00     0.002 A 
ATOM      3  C5  UNL d   1      -0.853  -2.881   2.589  0.00  0.00     0.002 A 
ATOM      4  C6  UNL d   1      -1.368  -1.945   3.483  0.00  0.00    -0.004 A 
ATOM      5  C7  UNL d   1      -0.627  -0.808   3.798  0.00  0.00     0.002 A 
ATOM      6  C8  UNL d   1       0.623  -0.600   3.213  0.00  0.00     0.002 A 
ENDROOT
BRANCH   1   7
ATOM      7  C2  UNL d   1       2.486  -1.290   1.652  0.00  0.00     0.056 C 
BRANCH   7   8
ATOM      8  C1  UNL d   1       3.251  -0.091   2.222  0.00  0.00     0.007 C 
ATOM      9  C   UNL d   1       3.404   1.052   1.227  0.00  0.00     0.009 C 
ENDBRANCH   7   8
ENDBRANCH   1   7
TORSDOF 2
ENDMDL
