MODEL 1
REMARK minimizedAffinity 3.99394178
REMARK minimizedRMSD -1
REMARK  2 active torsions:
REMARK  status: ('A' for Active; 'I' for Inactive)
REMARK    1  A    between atoms: C1_2  and  C2_3 
REMARK    2  A    between atoms: C2_3  and  C3_4 
ROOT
ATOM      1  C3  UNL d   1       0.519  -1.232   2.488  0.00  0.00    -0.075 A 
ATOM      2  C4  UNL d   1      -0.201  -2.365   2.082  0.00  0.00     0.002 A 
ATOM      3  C5  UNL d   1      -1.102  -2.981   2.951  0.00  0.00     0.002 A 
ATOM      4  C6  UNL d   1      -1.286  -2.479   4.238  0.00  0.00    -0.004 A 
ATOM      5  C7  UNL d   1      -0.564  -1.364   4.657  0.00  0.00     0.002 A 
ATOM      6  C8  UNL d   1       0.335  -0.744   3.788  0.00  0.00     0.002 A 
ENDROOT
BRANCH   1   7
ATOM      7  C2  UNL d   1       1.474  -0.544   1.542  0.00  0.00     0.056 C 
BRANCH   7   8
ATOM      8  C1  UNL d   1       2.868  -1.179   1.491  0.00  0.00     0.007 C 
ATOM      9  C   UNL d   1       3.915  -0.389   2.264  0.00  0.00     0.009 C 
ENDBRANCH   7   8
ENDBRANCH   1   7
TORSDOF 2
ENDMDL
