MODEL 1
REMARK minimizedAffinity 8.53022671
REMARK minimizedRMSD -1
REMARK  0 active torsions:
REMARK  status: ('A' for Active; 'I' for Inactive)
ROOT
ATOM      1  C   UNL d   1      -2.046  -1.591  -2.226  0.00  0.00    -0.002 A 
ATOM      2  C1  UNL d   1      -0.984  -0.963  -2.862  0.00  0.00     0.010 A 
ATOM      3  C2  UNL d   1      -1.214   0.043  -3.802  0.00  0.00     0.041 A 
ATOM      4  C3  UNL d   1      -2.541   0.413  -4.094  0.00  0.00    -0.075 A 
ATOM      5  S   UNL d   1      -3.063   1.620  -5.209  0.00  0.00     0.015 SA
ATOM      6  C4  UNL d   1      -4.707   1.331  -4.868  0.00  0.00     0.022 A 
ATOM      7  C5  UNL d   1      -4.873   0.342  -3.928  0.00  0.00     0.026 A 
ATOM      8  C6  UNL d   1      -3.627  -0.204  -3.466  0.00  0.00    -0.082 A 
ATOM      9  C7  UNL d   1      -3.362  -1.221  -2.518  0.00  0.00     0.045 A 
ENDROOT
TORSDOF 0
ENDMDL
