MODEL 1
REMARK minimizedAffinity 10.2403088
REMARK minimizedRMSD -1
REMARK  0 active torsions:
REMARK  status: ('A' for Active; 'I' for Inactive)
ROOT
ATOM      1  C   UNL d   1       0.720  -4.089   0.255  0.00  0.00    -0.002 A 
ATOM      2  C1  UNL d   1      -0.394  -3.840  -0.535  0.00  0.00     0.010 A 
ATOM      3  C2  UNL d   1      -0.598  -2.579  -1.097  0.00  0.00     0.041 A 
ATOM      4  C3  UNL d   1       0.347  -1.562  -0.853  0.00  0.00    -0.075 A 
ATOM      5  S   UNL d   1       0.305   0.059  -1.438  0.00  0.00     0.015 SA
ATOM      6  C4  UNL d   1       1.765   0.458  -0.655  0.00  0.00     0.022 A 
ATOM      7  C5  UNL d   1       2.285  -0.607   0.041  0.00  0.00     0.026 A 
ATOM      8  C6  UNL d   1       1.477  -1.789  -0.061  0.00  0.00    -0.082 A 
ATOM      9  C7  UNL d   1       1.654  -3.078   0.496  0.00  0.00     0.045 A 
ENDROOT
TORSDOF 0
ENDMDL
