MODEL 1
REMARK minimizedAffinity 14.974021
REMARK minimizedRMSD -1
REMARK  0 active torsions:
REMARK  status: ('A' for Active; 'I' for Inactive)
ROOT
ATOM      1  C   UNL d   1      -5.634   1.692  -5.587  0.00  0.00    -0.002 A 
ATOM      2  C1  UNL d   1      -6.000   1.692  -4.248  0.00  0.00     0.010 A 
ATOM      3  C2  UNL d   1      -5.214   1.039  -3.297  0.00  0.00     0.041 A 
ATOM      4  C3  UNL d   1      -4.041   0.382  -3.717  0.00  0.00    -0.075 A 
ATOM      5  S   UNL d   1      -2.923  -0.483  -2.729  0.00  0.00     0.015 SA
ATOM      6  C4  UNL d   1      -1.933  -0.872  -4.061  0.00  0.00     0.022 A 
ATOM      7  C5  UNL d   1      -2.428  -0.363  -5.238  0.00  0.00     0.026 A 
ATOM      8  C6  UNL d   1      -3.651   0.368  -5.059  0.00  0.00    -0.082 A 
ATOM      9  C7  UNL d   1      -4.470   1.038  -6.000  0.00  0.00     0.045 A 
ENDROOT
TORSDOF 0
ENDMDL
