MODEL 1
REMARK minimizedAffinity 5.78591871
REMARK minimizedRMSD -1
REMARK  0 active torsions:
REMARK  status: ('A' for Active; 'I' for Inactive)
ROOT
ATOM      1  C   UNL d   1       4.223   1.133   0.869  0.00  0.00    -0.002 A 
ATOM      2  C1  UNL d   1       3.513   0.037   0.400  0.00  0.00     0.010 A 
ATOM      3  C2  UNL d   1       2.125   0.099   0.255  0.00  0.00     0.041 A 
ATOM      4  C3  UNL d   1       1.458   1.293   0.591  0.00  0.00    -0.075 A 
ATOM      5  S   UNL d   1      -0.236   1.600   0.493  0.00  0.00     0.015 SA
ATOM      6  C4  UNL d   1      -0.057   3.193   1.071  0.00  0.00     0.022 A 
ATOM      7  C5  UNL d   1       1.257   3.500   1.338  0.00  0.00     0.026 A 
ATOM      8  C6  UNL d   1       2.151   2.411   1.065  0.00  0.00    -0.082 A 
ATOM      9  C7  UNL d   1       3.557   2.316   1.201  0.00  0.00     0.045 A 
ENDROOT
TORSDOF 0
ENDMDL
