MODEL 1
REMARK minimizedAffinity 13.7071524
REMARK minimizedRMSD -1
REMARK  0 active torsions:
REMARK  status: ('A' for Active; 'I' for Inactive)
ROOT
ATOM      1  C   UNL d   1       1.064  -0.757  -2.397  0.00  0.00    -0.002 A 
ATOM      2  C1  UNL d   1       2.188  -1.010  -1.624  0.00  0.00     0.010 A 
ATOM      3  C2  UNL d   1       2.344  -0.399  -0.378  0.00  0.00     0.041 A 
ATOM      4  C3  UNL d   1       1.342   0.477   0.082  0.00  0.00    -0.075 A 
ATOM      5  S   UNL d   1       1.319   1.338   1.576  0.00  0.00     0.015 SA
ATOM      6  C4  UNL d   1      -0.184   2.060   1.222  0.00  0.00     0.022 A 
ATOM      7  C5  UNL d   1      -0.671   1.666  -0.001  0.00  0.00     0.026 A 
ATOM      8  C6  UNL d   1       0.200   0.747  -0.678  0.00  0.00    -0.082 A 
ATOM      9  C7  UNL d   1       0.071   0.112  -1.938  0.00  0.00     0.045 A 
ENDROOT
TORSDOF 0
ENDMDL
