MODEL 1
REMARK minimizedAffinity 8.72135544
REMARK minimizedRMSD -1
REMARK  0 active torsions:
REMARK  status: ('A' for Active; 'I' for Inactive)
ROOT
ATOM      1  C   UNL d   1       1.414   2.836   0.447  0.00  0.00    -0.002 A 
ATOM      2  C1  UNL d   1       0.377   2.170  -0.190  0.00  0.00     0.010 A 
ATOM      3  C2  UNL d   1       0.454   0.795  -0.423  0.00  0.00     0.041 A 
ATOM      4  C3  UNL d   1       1.600   0.095   0.002  0.00  0.00    -0.075 A 
ATOM      5  S   UNL d   1       1.912  -1.592  -0.175  0.00  0.00     0.015 SA
ATOM      6  C4  UNL d   1       3.429  -1.467   0.592  0.00  0.00     0.022 A 
ATOM      7  C5  UNL d   1       3.706  -0.178   0.980  0.00  0.00     0.026 A 
ATOM      8  C6  UNL d   1       2.656   0.744   0.647  0.00  0.00    -0.082 A 
ATOM      9  C7  UNL d   1       2.549   2.138   0.867  0.00  0.00     0.045 A 
ENDROOT
TORSDOF 0
ENDMDL
