MODEL 1
REMARK minimizedAffinity 2.32275057
REMARK minimizedRMSD -1
REMARK  0 active torsions:
REMARK  status: ('A' for Active; 'I' for Inactive)
ROOT
ATOM      1  C   UNL d   1      -1.580  -0.497   2.546  0.00  0.00     0.172 C 
ATOM      2  N   UNL d   1      -0.208  -0.568   2.100  0.00  0.00    -0.070 N 
ATOM      3  C1  UNL d   1       0.713   0.441   2.188  0.00  0.00    -0.004 A 
ATOM      4  C2  UNL d   1       1.898  -0.021   1.657  0.00  0.00    -0.047 A 
ATOM      5  C3  UNL d   1       1.681  -1.354   1.234  0.00  0.00    -0.047 A 
ATOM      6  C4  UNL d   1       0.369  -1.667   1.521  0.00  0.00    -0.004 A 
ENDROOT
TORSDOF 0
ENDMDL
