MODEL 1
REMARK minimizedAffinity 6.39202213
REMARK minimizedRMSD -1
REMARK  0 active torsions:
REMARK  status: ('A' for Active; 'I' for Inactive)
ROOT
ATOM      1  C   UNL d   1       2.317  -0.196   2.918  0.00  0.00     0.172 C 
ATOM      2  N   UNL d   1       1.144  -0.857   2.397  0.00  0.00    -0.070 N 
ATOM      3  C1  UNL d   1       1.142  -1.980   1.614  0.00  0.00    -0.004 A 
ATOM      4  C2  UNL d   1      -0.169  -2.294   1.329  0.00  0.00    -0.047 A 
ATOM      5  C3  UNL d   1      -0.984  -1.324   1.962  0.00  0.00    -0.047 A 
ATOM      6  C4  UNL d   1      -0.145  -0.447   2.616  0.00  0.00    -0.004 A 
ENDROOT
TORSDOF 0
ENDMDL
