MODEL 1
REMARK minimizedAffinity 3.96763325
REMARK minimizedRMSD -1
REMARK  0 active torsions:
REMARK  status: ('A' for Active; 'I' for Inactive)
ROOT
ATOM      1  C   UNL d   1      -0.617  -1.845   1.019  0.00  0.00     0.172 C 
ATOM      2  N   UNL d   1      -1.762  -1.481   0.219  0.00  0.00    -0.070 N 
ATOM      3  C1  UNL d   1      -1.821  -1.506  -1.149  0.00  0.00    -0.004 A 
ATOM      4  C2  UNL d   1      -3.080  -1.090  -1.525  0.00  0.00    -0.047 A 
ATOM      5  C3  UNL d   1      -3.802  -0.804  -0.343  0.00  0.00    -0.047 A 
ATOM      6  C4  UNL d   1      -2.963  -1.055   0.722  0.00  0.00    -0.004 A 
ENDROOT
TORSDOF 0
ENDMDL
