MODEL 1
REMARK minimizedAffinity 11.360611
REMARK minimizedRMSD -1
REMARK  0 active torsions:
REMARK  status: ('A' for Active; 'I' for Inactive)
ROOT
ATOM      1  C   UNL d   1      -1.974  -1.857  -2.447  0.00  0.00     0.172 C 
ATOM      2  N   UNL d   1      -2.128  -1.826  -1.011  0.00  0.00    -0.070 N 
ATOM      3  C1  UNL d   1      -3.092  -1.135  -0.327  0.00  0.00    -0.004 A 
ATOM      4  C2  UNL d   1      -2.899  -1.363   1.019  0.00  0.00    -0.047 A 
ATOM      5  C3  UNL d   1      -1.779  -2.219   1.147  0.00  0.00    -0.047 A 
ATOM      6  C4  UNL d   1      -1.322  -2.490  -0.125  0.00  0.00    -0.004 A 
ENDROOT
TORSDOF 0
ENDMDL
