MODEL 1
REMARK minimizedAffinity 5.97364712
REMARK minimizedRMSD -1
REMARK  0 active torsions:
REMARK  status: ('A' for Active; 'I' for Inactive)
ROOT
ATOM      1  C   UNL d   1       2.997  -0.005  -2.402  0.00  0.00     0.172 C 
ATOM      2  N   UNL d   1       4.193   0.137  -3.198  0.00  0.00    -0.070 N 
ATOM      3  C1  UNL d   1       4.752   1.322  -3.594  0.00  0.00    -0.004 A 
ATOM      4  C2  UNL d   1       5.878   1.032  -4.334  0.00  0.00    -0.047 A 
ATOM      5  C3  UNL d   1       6.000  -0.377  -4.385  0.00  0.00    -0.047 A 
ATOM      6  C4  UNL d   1       4.943  -0.906  -3.674  0.00  0.00    -0.004 A 
ENDROOT
TORSDOF 0
ENDMDL
