MODEL 1
REMARK minimizedAffinity 7.84839392
REMARK minimizedRMSD -1
REMARK  0 active torsions:
REMARK  status: ('A' for Active; 'I' for Inactive)
ROOT
ATOM      1  C   UNL d   1       5.249   5.985   1.054  0.00  0.00     0.172 C 
ATOM      2  N   UNL d   1       5.243   4.648   0.510  0.00  0.00    -0.070 N 
ATOM      3  C1  UNL d   1       4.490   3.602   0.971  0.00  0.00    -0.004 A 
ATOM      4  C2  UNL d   1       4.768   2.503   0.187  0.00  0.00    -0.047 A 
ATOM      5  C3  UNL d   1       5.723   2.903  -0.779  0.00  0.00    -0.047 A 
ATOM      6  C4  UNL d   1       5.999   4.236  -0.556  0.00  0.00    -0.004 A 
ENDROOT
TORSDOF 0
ENDMDL
