MODEL 1
REMARK minimizedAffinity 3.33725619
REMARK minimizedRMSD -1
REMARK  0 active torsions:
REMARK  status: ('A' for Active; 'I' for Inactive)
ROOT
ATOM      1  C   UNL d   1      -4.445   2.878  -5.921  0.00  0.00     0.172 C 
ATOM      2  N   UNL d   1      -4.842   4.135  -5.333  0.00  0.00    -0.070 N 
ATOM      3  C1  UNL d   1      -5.984   4.830  -5.629  0.00  0.00    -0.004 A 
ATOM      4  C2  UNL d   1      -5.995   5.972  -4.859  0.00  0.00    -0.047 A 
ATOM      5  C3  UNL d   1      -4.818   5.965  -4.073  0.00  0.00    -0.047 A 
ATOM      6  C4  UNL d   1      -4.123   4.816  -4.387  0.00  0.00    -0.004 A 
ENDROOT
TORSDOF 0
ENDMDL
