MODEL 1
REMARK minimizedAffinity 4.86433029
REMARK minimizedRMSD -1
REMARK  0 active torsions:
REMARK  status: ('A' for Active; 'I' for Inactive)
ROOT
ATOM      1  C   UNL d   1      -6.000   6.000   1.327  0.00  0.00     0.172 C 
ATOM      2  N   UNL d   1      -4.994   4.984   1.121  0.00  0.00    -0.070 N 
ATOM      3  C1  UNL d   1      -5.018   3.719   1.644  0.00  0.00    -0.004 A 
ATOM      4  C2  UNL d   1      -3.884   3.063   1.216  0.00  0.00    -0.047 A 
ATOM      5  C3  UNL d   1      -3.152   3.966   0.408  0.00  0.00    -0.047 A 
ATOM      6  C4  UNL d   1      -3.862   5.147   0.367  0.00  0.00    -0.004 A 
ENDROOT
TORSDOF 0
ENDMDL
