MODEL 1
REMARK minimizedAffinity 7.8216176
REMARK minimizedRMSD -1
REMARK  0 active torsions:
REMARK  status: ('A' for Active; 'I' for Inactive)
ROOT
ATOM      1  C   UNL d   1       5.070   5.999   0.797  0.00  0.00     0.172 C 
ATOM      2  N   UNL d   1       5.287   4.639   0.364  0.00  0.00    -0.070 N 
ATOM      3  C1  UNL d   1       4.824   3.516   0.997  0.00  0.00    -0.004 A 
ATOM      4  C2  UNL d   1       5.242   2.421   0.273  0.00  0.00    -0.047 A 
ATOM      5  C3  UNL d   1       5.983   2.901  -0.832  0.00  0.00    -0.047 A 
ATOM      6  C4  UNL d   1       5.995   4.278  -0.751  0.00  0.00    -0.004 A 
ENDROOT
TORSDOF 0
ENDMDL
