MODEL 1
REMARK minimizedAffinity 4.50764084
REMARK minimizedRMSD -1
REMARK  0 active torsions:
REMARK  status: ('A' for Active; 'I' for Inactive)
ROOT
ATOM      1  C   UNL d   1      -4.261  -2.289   1.165  0.00  0.00     0.172 C 
ATOM      2  N   UNL d   1      -2.960  -1.801   0.772  0.00  0.00    -0.070 N 
ATOM      3  C1  UNL d   1      -2.009  -1.293   1.617  0.00  0.00    -0.004 A 
ATOM      4  C2  UNL d   1      -0.915  -0.940   0.857  0.00  0.00    -0.047 A 
ATOM      5  C3  UNL d   1      -1.219  -1.246  -0.491  0.00  0.00    -0.047 A 
ATOM      6  C4  UNL d   1      -2.491  -1.778  -0.515  0.00  0.00    -0.004 A 
ENDROOT
TORSDOF 0
ENDMDL
