MODEL 1
REMARK minimizedAffinity 3.96922731
REMARK minimizedRMSD -1
REMARK  0 active torsions:
REMARK  status: ('A' for Active; 'I' for Inactive)
ROOT
ATOM      1  C   UNL d   1       2.780   6.000   5.920  0.00  0.00     0.172 C 
ATOM      2  N   UNL d   1       3.819   4.997   5.950  0.00  0.00    -0.070 N 
ATOM      3  C1  UNL d   1       5.166   5.244   5.959  0.00  0.00    -0.004 A 
ATOM      4  C2  UNL d   1       5.817   4.029   5.990  0.00  0.00    -0.047 A 
ATOM      5  C3  UNL d   1       4.827   3.018   6.000  0.00  0.00    -0.047 A 
ATOM      6  C4  UNL d   1       3.599   3.645   5.974  0.00  0.00    -0.004 A 
ENDROOT
TORSDOF 0
ENDMDL
