MODEL 1
REMARK minimizedAffinity 5.80137968
REMARK minimizedRMSD -1
REMARK  0 active torsions:
REMARK  status: ('A' for Active; 'I' for Inactive)
ROOT
ATOM      1  C   UNL d   1      -3.026   0.850   5.687  0.00  0.00     0.172 C 
ATOM      2  N   UNL d   1      -2.802  -0.576   5.730  0.00  0.00    -0.070 N 
ATOM      3  C1  UNL d   1      -3.752  -1.526   5.999  0.00  0.00    -0.004 A 
ATOM      4  C2  UNL d   1      -3.141  -2.760   5.945  0.00  0.00    -0.047 A 
ATOM      5  C3  UNL d   1      -1.778  -2.545   5.634  0.00  0.00    -0.047 A 
ATOM      6  C4  UNL d   1      -1.595  -1.184   5.507  0.00  0.00    -0.004 A 
ENDROOT
TORSDOF 0
ENDMDL
