MODEL 1
REMARK minimizedAffinity 6.56423569
REMARK minimizedRMSD -1
REMARK  0 active torsions:
REMARK  status: ('A' for Active; 'I' for Inactive)
ROOT
ATOM      1  C   UNL d   1      -2.272  -4.807   5.994  0.00  0.00     0.172 C 
ATOM      2  N   UNL d   1      -2.186  -3.386   5.753  0.00  0.00    -0.070 N 
ATOM      3  C1  UNL d   1      -1.088  -2.602   5.985  0.00  0.00    -0.004 A 
ATOM      4  C2  UNL d   1      -1.408  -1.310   5.627  0.00  0.00    -0.047 A 
ATOM      5  C3  UNL d   1      -2.745  -1.318   5.165  0.00  0.00    -0.047 A 
ATOM      6  C4  UNL d   1      -3.203  -2.615   5.254  0.00  0.00    -0.004 A 
ENDROOT
TORSDOF 0
ENDMDL
