MODEL 1
REMARK minimizedAffinity 0.636610746
REMARK minimizedRMSD -1
REMARK  0 active torsions:
REMARK  status: ('A' for Active; 'I' for Inactive)
ROOT
ATOM      1  C   UNL d   1      -3.372   0.982   5.390  0.00  0.00     0.172 C 
ATOM      2  N   UNL d   1      -3.020  -0.410   5.543  0.00  0.00    -0.070 N 
ATOM      3  C1  UNL d   1      -1.820  -0.884   6.000  0.00  0.00    -0.004 A 
ATOM      4  C2  UNL d   1      -1.882  -2.261   5.999  0.00  0.00    -0.047 A 
ATOM      5  C3  UNL d   1      -3.164  -2.627   5.524  0.00  0.00    -0.047 A 
ATOM      6  C4  UNL d   1      -3.848  -1.461   5.250  0.00  0.00    -0.004 A 
ENDROOT
TORSDOF 0
ENDMDL
