MODEL 1
REMARK minimizedAffinity 4.84296608
REMARK minimizedRMSD -1
REMARK  0 active torsions:
REMARK  status: ('A' for Active; 'I' for Inactive)
ROOT
ATOM      1  C   UNL d   1      -1.412  -0.442   5.932  0.00  0.00     0.172 C 
ATOM      2  N   UNL d   1      -2.020  -1.752   5.955  0.00  0.00    -0.070 N 
ATOM      3  C1  UNL d   1      -3.365  -2.006   5.987  0.00  0.00    -0.004 A 
ATOM      4  C2  UNL d   1      -3.536  -3.374   6.000  0.00  0.00    -0.047 A 
ATOM      5  C3  UNL d   1      -2.248  -3.961   5.975  0.00  0.00    -0.047 A 
ATOM      6  C4  UNL d   1      -1.329  -2.934   5.947  0.00  0.00    -0.004 A 
ENDROOT
TORSDOF 0
ENDMDL
