MODEL 1
REMARK minimizedAffinity 15.4556246
REMARK minimizedRMSD -1
REMARK  0 active torsions:
REMARK  status: ('A' for Active; 'I' for Inactive)
ROOT
ATOM      1  C   UNL d   1       5.438   5.177  -1.146  0.00  0.00    -0.002 A 
ATOM      2  C1  UNL d   1       4.447   6.000  -1.663  0.00  0.00     0.010 A 
ATOM      3  C2  UNL d   1       3.999   5.834  -2.975  0.00  0.00     0.041 A 
ATOM      4  C3  UNL d   1       4.568   4.817  -3.766  0.00  0.00    -0.075 A 
ATOM      5  S   UNL d   1       4.176   4.429  -5.400  0.00  0.00     0.015 SA
ATOM      6  C4  UNL d   1       5.314   3.161  -5.450  0.00  0.00     0.022 A 
ATOM      7  C5  UNL d   1       5.986   3.024  -4.258  0.00  0.00     0.026 A 
ATOM      8  C6  UNL d   1       5.566   3.975  -3.268  0.00  0.00    -0.082 A 
ATOM      9  C7  UNL d   1       6.000   4.169  -1.934  0.00  0.00     0.045 A 
ENDROOT
TORSDOF 0
ENDMDL
