MODEL 1
REMARK minimizedAffinity -2.67624497
REMARK minimizedRMSD -1
REMARK  0 active torsions:
REMARK  status: ('A' for Active; 'I' for Inactive)
ROOT
ATOM      1  C   UNL d   1       2.887  -1.449   4.001  0.00  0.00    -0.002 A 
ATOM      2  C1  UNL d   1       3.230  -1.141   5.310  0.00  0.00     0.010 A 
ATOM      3  C2  UNL d   1       4.164  -1.917   6.000  0.00  0.00     0.041 A 
ATOM      4  C3  UNL d   1       4.755  -3.016   5.346  0.00  0.00    -0.075 A 
ATOM      5  S   UNL d   1       5.923  -4.105   5.993  0.00  0.00     0.015 SA
ATOM      6  C4  UNL d   1       5.995  -5.005   4.547  0.00  0.00     0.022 A 
ATOM      7  C5  UNL d   1       5.155  -4.500   3.584  0.00  0.00     0.026 A 
ATOM      8  C6  UNL d   1       4.426  -3.345   4.028  0.00  0.00    -0.082 A 
ATOM      9  C7  UNL d   1       3.475  -2.540   3.355  0.00  0.00     0.045 A 
ENDROOT
TORSDOF 0
ENDMDL
