MODEL 1
REMARK minimizedAffinity 7.09671211
REMARK minimizedRMSD -1
REMARK  0 active torsions:
REMARK  status: ('A' for Active; 'I' for Inactive)
ROOT
ATOM      1  C   UNL d   1       2.766  -1.162   3.154  0.00  0.00    -0.002 A 
ATOM      2  C1  UNL d   1       3.097  -2.193   2.286  0.00  0.00     0.010 A 
ATOM      3  C2  UNL d   1       4.060  -3.139   2.642  0.00  0.00     0.041 A 
ATOM      4  C3  UNL d   1       4.688  -3.033   3.898  0.00  0.00    -0.075 A 
ATOM      5  S   UNL d   1       5.896  -4.078   4.548  0.00  0.00     0.015 SA
ATOM      6  C4  UNL d   1       5.999  -3.182   5.994  0.00  0.00     0.022 A 
ATOM      7  C5  UNL d   1       5.141  -2.108   5.998  0.00  0.00     0.026 A 
ATOM      8  C6  UNL d   1       4.371  -2.005   4.790  0.00  0.00    -0.082 A 
ATOM      9  C7  UNL d   1       3.391  -1.060   4.400  0.00  0.00     0.045 A 
ENDROOT
TORSDOF 0
ENDMDL
