MODEL 1
REMARK minimizedAffinity 8.65547371
REMARK minimizedRMSD -1
REMARK  0 active torsions:
REMARK  status: ('A' for Active; 'I' for Inactive)
ROOT
ATOM      1  C   UNL d   1       3.256   5.984  -5.232  0.00  0.00    -0.002 A 
ATOM      2  C1  UNL d   1       2.166   5.992  -4.374  0.00  0.00     0.010 A 
ATOM      3  C2  UNL d   1       2.351   5.992  -2.990  0.00  0.00     0.041 A 
ATOM      4  C3  UNL d   1       3.663   5.985  -2.478  0.00  0.00    -0.075 A 
ATOM      5  S   UNL d   1       4.132   5.985  -0.819  0.00  0.00     0.015 SA
ATOM      6  C4  UNL d   1       5.791   5.975  -1.210  0.00  0.00     0.022 A 
ATOM      7  C5  UNL d   1       6.000   5.972  -2.569  0.00  0.00     0.026 A 
ATOM      8  C6  UNL d   1       4.777   5.978  -3.322  0.00  0.00    -0.082 A 
ATOM      9  C7  UNL d   1       4.556   5.978  -4.720  0.00  0.00     0.045 A 
ENDROOT
TORSDOF 0
ENDMDL
