MODEL 1
REMARK minimizedAffinity 6.78513098
REMARK minimizedRMSD -1
REMARK  0 active torsions:
REMARK  status: ('A' for Active; 'I' for Inactive)
ROOT
ATOM      1  C   UNL d   1       4.403  -5.800   6.000  0.00  0.00    -0.002 A 
ATOM      2  C1  UNL d   1       5.716  -5.351   6.000  0.00  0.00     0.010 A 
ATOM      3  C2  UNL d   1       6.000  -3.984   5.996  0.00  0.00     0.041 A 
ATOM      4  C3  UNL d   1       4.931  -3.066   5.994  0.00  0.00    -0.075 A 
ATOM      5  S   UNL d   1       5.039  -1.345   5.990  0.00  0.00     0.015 SA
ATOM      6  C4  UNL d   1       3.344  -1.165   5.989  0.00  0.00     0.022 A 
ATOM      7  C5  UNL d   1       2.696  -2.378   5.991  0.00  0.00     0.026 A 
ATOM      8  C6  UNL d   1       3.600  -3.493   5.995  0.00  0.00    -0.082 A 
ATOM      9  C7  UNL d   1       3.345  -4.886   5.998  0.00  0.00     0.045 A 
ENDROOT
TORSDOF 0
ENDMDL
