MODEL 1
REMARK minimizedAffinity 0.909350872
REMARK minimizedRMSD -1
REMARK  0 active torsions:
REMARK  status: ('A' for Active; 'I' for Inactive)
ROOT
ATOM      1  C   UNL d   1       4.268   3.683  -5.976  0.00  0.00    -0.002 A 
ATOM      2  C1  UNL d   1       5.402   3.002  -5.557  0.00  0.00     0.010 A 
ATOM      3  C2  UNL d   1       6.000   3.305  -4.332  0.00  0.00     0.041 A 
ATOM      4  C3  UNL d   1       5.432   4.312  -3.527  0.00  0.00    -0.075 A 
ATOM      5  S   UNL d   1       5.991   4.852  -1.988  0.00  0.00     0.015 SA
ATOM      6  C4  UNL d   1       4.738   5.999  -1.851  0.00  0.00     0.022 A 
ATOM      7  C5  UNL d   1       3.904   5.984  -2.944  0.00  0.00     0.026 A 
ATOM      8  C6  UNL d   1       4.290   5.011  -3.927  0.00  0.00    -0.082 A 
ATOM      9  C7  UNL d   1       3.708   4.682  -5.175  0.00  0.00     0.045 A 
ENDROOT
TORSDOF 0
ENDMDL
