MODEL 1
REMARK minimizedAffinity 4.72591972
REMARK minimizedRMSD -1
REMARK  0 active torsions:
REMARK  status: ('A' for Active; 'I' for Inactive)
ROOT
ATOM      1  C   UNL d   1       5.717  -4.719   3.952  0.00  0.00    -0.002 A 
ATOM      2  C1  UNL d   1       5.999  -4.490   5.291  0.00  0.00     0.010 A 
ATOM      3  C2  UNL d   1       5.321  -3.496   6.000  0.00  0.00     0.041 A 
ATOM      4  C3  UNL d   1       4.344  -2.730   5.334  0.00  0.00    -0.075 A 
ATOM      5  S   UNL d   1       3.387  -1.460   6.000  0.00  0.00     0.015 SA
ATOM      6  C4  UNL d   1       2.581  -1.191   4.522  0.00  0.00     0.022 A 
ATOM      7  C5  UNL d   1       3.020  -2.041   3.534  0.00  0.00     0.026 A 
ATOM      8  C6  UNL d   1       4.043  -2.942   3.986  0.00  0.00    -0.082 A 
ATOM      9  C7  UNL d   1       4.748  -3.956   3.294  0.00  0.00     0.045 A 
ENDROOT
TORSDOF 0
ENDMDL
