MODEL 1
REMARK minimizedAffinity 10.6199465
REMARK minimizedRMSD -1
REMARK  0 active torsions:
REMARK  status: ('A' for Active; 'I' for Inactive)
ROOT
ATOM      1  C   UNL d   1       2.331   4.595  -2.922  0.00  0.00    -0.002 A 
ATOM      2  C1  UNL d   1       2.804   5.855  -3.260  0.00  0.00     0.010 A 
ATOM      3  C2  UNL d   1       3.937   5.996  -4.064  0.00  0.00     0.041 A 
ATOM      4  C3  UNL d   1       4.591   4.838  -4.528  0.00  0.00    -0.075 A 
ATOM      5  S   UNL d   1       5.996   4.766  -5.525  0.00  0.00     0.015 SA
ATOM      6  C4  UNL d   1       6.000   3.062  -5.527  0.00  0.00     0.022 A 
ATOM      7  C5  UNL d   1       4.962   2.543  -4.789  0.00  0.00     0.026 A 
ATOM      8  C6  UNL d   1       4.133   3.558  -4.201  0.00  0.00    -0.082 A 
ATOM      9  C7  UNL d   1       2.982   3.449  -3.384  0.00  0.00     0.045 A 
ENDROOT
TORSDOF 0
ENDMDL
