MODEL 1
REMARK minimizedAffinity 8.57349014
REMARK minimizedRMSD -1
REMARK  0 active torsions:
REMARK  status: ('A' for Active; 'I' for Inactive)
ROOT
ATOM      1  C   UNL d   1       2.807  -1.414   3.107  0.00  0.00    -0.002 A 
ATOM      2  C1  UNL d   1       3.170  -2.433   2.236  0.00  0.00     0.010 A 
ATOM      3  C2  UNL d   1       4.134  -3.372   2.605  0.00  0.00     0.041 A 
ATOM      4  C3  UNL d   1       4.733  -3.271   3.876  0.00  0.00    -0.075 A 
ATOM      5  S   UNL d   1       5.937  -4.309   4.544  0.00  0.00     0.015 SA
ATOM      6  C4  UNL d   1       5.998  -3.426   6.000  0.00  0.00     0.022 A 
ATOM      7  C5  UNL d   1       5.128  -2.361   5.994  0.00  0.00     0.026 A 
ATOM      8  C6  UNL d   1       4.384  -2.255   4.770  0.00  0.00    -0.082 A 
ATOM      9  C7  UNL d   1       3.404  -1.317   4.367  0.00  0.00     0.045 A 
ENDROOT
TORSDOF 0
ENDMDL
