MODEL 1
REMARK minimizedAffinity -1.72317457
REMARK minimizedRMSD -1
REMARK  0 active torsions:
REMARK  status: ('A' for Active; 'I' for Inactive)
ROOT
ATOM      1  C   UNL d   1       5.169  -5.643   3.788  0.00  0.00    -0.002 A 
ATOM      2  C1  UNL d   1       6.000  -5.486   4.889  0.00  0.00     0.010 A 
ATOM      3  C2  UNL d   1       5.981  -4.302   5.629  0.00  0.00     0.041 A 
ATOM      4  C3  UNL d   1       5.104  -3.270   5.242  0.00  0.00    -0.075 A 
ATOM      5  S   UNL d   1       4.909  -1.733   5.999  0.00  0.00     0.015 SA
ATOM      6  C4  UNL d   1       3.718  -1.249   4.880  0.00  0.00     0.022 A 
ATOM      7  C5  UNL d   1       3.464  -2.224   3.945  0.00  0.00     0.026 A 
ATOM      8  C6  UNL d   1       4.258  -3.405   4.138  0.00  0.00    -0.082 A 
ATOM      9  C7  UNL d   1       4.301  -4.616   3.407  0.00  0.00     0.045 A 
ENDROOT
TORSDOF 0
ENDMDL
