MODEL 1
REMARK minimizedAffinity -0.686087906
REMARK minimizedRMSD -1
REMARK  0 active torsions:
REMARK  status: ('A' for Active; 'I' for Inactive)
ROOT
ATOM      1  C   UNL d   1       4.347  -5.479   4.666  0.00  0.00    -0.002 A 
ATOM      2  C1  UNL d   1       5.422  -5.503   5.544  0.00  0.00     0.010 A 
ATOM      3  C2  UNL d   1       5.992  -4.313   6.000  0.00  0.00     0.041 A 
ATOM      4  C3  UNL d   1       5.458  -3.087   5.556  0.00  0.00    -0.075 A 
ATOM      5  S   UNL d   1       5.994  -1.505   5.983  0.00  0.00     0.015 SA
ATOM      6  C4  UNL d   1       4.808  -0.760   5.011  0.00  0.00     0.022 A 
ATOM      7  C5  UNL d   1       4.014  -1.682   4.369  0.00  0.00     0.026 A 
ATOM      8  C6  UNL d   1       4.376  -3.038   4.674  0.00  0.00    -0.082 A 
ATOM      9  C7  UNL d   1       3.820  -4.261   4.228  0.00  0.00     0.045 A 
ENDROOT
TORSDOF 0
ENDMDL
