MODEL 1
REMARK minimizedAffinity 9.15436935
REMARK minimizedRMSD -1
REMARK  0 active torsions:
REMARK  status: ('A' for Active; 'I' for Inactive)
ROOT
ATOM      1  C   UNL d   1       5.621  -4.352   4.040  0.00  0.00    -0.002 A 
ATOM      2  C1  UNL d   1       5.998  -3.973   5.320  0.00  0.00     0.010 A 
ATOM      3  C2  UNL d   1       5.304  -2.969   5.998  0.00  0.00     0.041 A 
ATOM      4  C3  UNL d   1       4.212  -2.347   5.361  0.00  0.00    -0.075 A 
ATOM      5  S   UNL d   1       3.214  -1.094   5.998  0.00  0.00     0.015 SA
ATOM      6  C4  UNL d   1       2.261  -1.033   4.586  0.00  0.00     0.022 A 
ATOM      7  C5  UNL d   1       2.681  -1.939   3.641  0.00  0.00     0.026 A 
ATOM      8  C6  UNL d   1       3.812  -2.712   4.073  0.00  0.00    -0.082 A 
ATOM      9  C7  UNL d   1       4.537  -3.733   3.412  0.00  0.00     0.045 A 
ENDROOT
TORSDOF 0
ENDMDL
