MODEL 1
REMARK minimizedAffinity -1.58956563
REMARK minimizedRMSD -1
REMARK  0 active torsions:
REMARK  status: ('A' for Active; 'I' for Inactive)
ROOT
ATOM      1  C1  DEN d   1      -1.170  -2.434   0.260  0.00  0.00     0.130 A 
ATOM      2  C2  DEN d   1      -1.507  -1.830   1.546  0.00  0.00    -0.031 A 
ATOM      3  C3  DEN d   1      -1.219  -0.384   1.460  0.00  0.00     0.027 A 
ATOM      4  C4  DEN d   1      -0.294   0.971  -0.530  0.00  0.00     0.027 A 
ATOM      5  C5  DEN d   1       0.153   0.892  -1.830  0.00  0.00    -0.003 A 
ATOM      6  C6  DEN d   1       0.222  -0.296  -2.508  0.00  0.00     0.001 A 
ATOM      7  C7  DEN d   1      -0.205  -1.448  -1.903  0.00  0.00     0.017 A 
ATOM      8  C8  DEN d   1      -0.650  -1.378  -0.590  0.00  0.00    -0.094 A 
ATOM      9  C9  DEN d   1      -0.724  -0.166   0.075  0.00  0.00    -0.072 A 
ENDROOT
TORSDOF 0
ENDMDL
