MODEL 1
REMARK minimizedAffinity -3.84525561
REMARK minimizedRMSD -1
REMARK  0 active torsions:
REMARK  status: ('A' for Active; 'I' for Inactive)
ROOT
ATOM      1  C1  DEN d   1       0.395   3.155  -0.320  0.00  0.00     0.130 A 
ATOM      2  C2  DEN d   1       1.664   3.609   0.242  0.00  0.00    -0.031 A 
ATOM      3  C3  DEN d   1       2.264   2.483   0.985  0.00  0.00     0.027 A 
ATOM      4  C4  DEN d   1       1.358   0.090   1.314  0.00  0.00     0.027 A 
ATOM      5  C5  DEN d   1       0.313  -0.763   1.035  0.00  0.00    -0.003 A 
ATOM      6  C6  DEN d   1      -0.784  -0.363   0.319  0.00  0.00     0.001 A 
ATOM      7  C7  DEN d   1      -0.842   0.911  -0.181  0.00  0.00     0.017 A 
ATOM      8  C8  DEN d   1       0.204   1.779   0.103  0.00  0.00    -0.094 A 
ATOM      9  C9  DEN d   1       1.311   1.353   0.818  0.00  0.00    -0.072 A 
ENDROOT
TORSDOF 0
ENDMDL
