MODEL 1
REMARK minimizedAffinity -4.51264954
REMARK minimizedRMSD -1
REMARK  0 active torsions:
REMARK  status: ('A' for Active; 'I' for Inactive)
ROOT
ATOM      1  C1  DEN d   1      -1.322  -1.832   1.416  0.00  0.00     0.130 A 
ATOM      2  C2  DEN d   1      -1.254  -0.523   2.059  0.00  0.00    -0.031 A 
ATOM      3  C3  DEN d   1      -0.722   0.441   1.075  0.00  0.00     0.027 A 
ATOM      4  C4  DEN d   1      -0.007   0.036  -1.370  0.00  0.00     0.027 A 
ATOM      5  C5  DEN d   1       0.128  -0.915  -2.357  0.00  0.00    -0.003 A 
ATOM      6  C6  DEN d   1      -0.177  -2.233  -2.148  0.00  0.00     0.001 A 
ATOM      7  C7  DEN d   1      -0.675  -2.630  -0.935  0.00  0.00     0.017 A 
ATOM      8  C8  DEN d   1      -0.806  -1.679   0.068  0.00  0.00    -0.094 A 
ATOM      9  C9  DEN d   1      -0.504  -0.348  -0.167  0.00  0.00    -0.072 A 
ENDROOT
TORSDOF 0
ENDMDL
