MODEL 1
REMARK minimizedAffinity -3.33380222
REMARK minimizedRMSD -1
REMARK  0 active torsions:
REMARK  status: ('A' for Active; 'I' for Inactive)
ROOT
ATOM      1  C1  DEN d   1       0.298   1.606  -0.639  0.00  0.00     0.130 A 
ATOM      2  C2  DEN d   1       1.319   2.416   0.021  0.00  0.00    -0.031 A 
ATOM      3  C3  DEN d   1       1.557   1.846   1.362  0.00  0.00     0.027 A 
ATOM      4  C4  DEN d   1       0.453  -0.203   2.474  0.00  0.00     0.027 A 
ATOM      5  C5  DEN d   1      -0.480  -1.203   2.309  0.00  0.00    -0.003 A 
ATOM      6  C6  DEN d   1      -1.237  -1.315   1.173  0.00  0.00     0.001 A 
ATOM      7  C7  DEN d   1      -1.042  -0.439   0.138  0.00  0.00     0.017 A 
ATOM      8  C8  DEN d   1      -0.108   0.576   0.300  0.00  0.00    -0.094 A 
ATOM      9  C9  DEN d   1       0.655   0.666   1.451  0.00  0.00    -0.072 A 
ENDROOT
TORSDOF 0
ENDMDL
