MODEL 1
REMARK minimizedAffinity 0.303044468
REMARK minimizedRMSD -1
REMARK  0 active torsions:
REMARK  status: ('A' for Active; 'I' for Inactive)
ROOT
ATOM      1  C1  DEN d   1       2.501   2.633  -0.173  0.00  0.00     0.130 A 
ATOM      2  C2  DEN d   1       2.313   3.847   0.618  0.00  0.00    -0.031 A 
ATOM      3  C3  DEN d   1       0.945   3.822   1.173  0.00  0.00     0.027 A 
ATOM      4  C4  DEN d   1      -0.889   2.031   0.890  0.00  0.00     0.027 A 
ATOM      5  C5  DEN d   1      -1.200   0.826   0.299  0.00  0.00    -0.003 A 
ATOM      6  C6  DEN d   1      -0.318   0.162  -0.512  0.00  0.00     0.001 A 
ATOM      7  C7  DEN d   1       0.935   0.676  -0.717  0.00  0.00     0.017 A 
ATOM      8  C8  DEN d   1       1.253   1.893  -0.131  0.00  0.00    -0.094 A 
ATOM      9  C9  DEN d   1       0.352   2.544   0.696  0.00  0.00    -0.072 A 
ENDROOT
TORSDOF 0
ENDMDL
