MODEL 1
REMARK minimizedAffinity -3.29085279
REMARK minimizedRMSD -1
REMARK  0 active torsions:
REMARK  status: ('A' for Active; 'I' for Inactive)
ROOT
ATOM      1  C1  DEN d   1      -0.098  -0.839  -2.095  0.00  0.00     0.130 A 
ATOM      2  C2  DEN d   1      -0.383  -2.182  -2.595  0.00  0.00    -0.031 A 
ATOM      3  C3  DEN d   1      -0.894  -2.989  -1.469  0.00  0.00     0.027 A 
ATOM      4  C4  DEN d   1      -1.275  -2.293   0.985  0.00  0.00     0.027 A 
ATOM      5  C5  DEN d   1      -1.168  -1.259   1.888  0.00  0.00    -0.003 A 
ATOM      6  C6  DEN d   1      -0.669  -0.032   1.538  0.00  0.00     0.001 A 
ATOM      7  C7  DEN d   1      -0.300   0.205   0.240  0.00  0.00     0.017 A 
ATOM      8  C8  DEN d   1      -0.398  -0.835  -0.675  0.00  0.00    -0.094 A 
ATOM      9  C9  DEN d   1      -0.917  -2.064  -0.304  0.00  0.00    -0.072 A 
ENDROOT
TORSDOF 0
ENDMDL
