MODEL 1
REMARK minimizedAffinity 1.38292587
REMARK minimizedRMSD -1
REMARK  0 active torsions:
REMARK  status: ('A' for Active; 'I' for Inactive)
ROOT
ATOM      1  C1  DEN d   1      -0.030   1.426   1.113  0.00  0.00     0.130 A 
ATOM      2  C2  DEN d   1       0.317   2.585   0.297  0.00  0.00    -0.031 A 
ATOM      3  C3  DEN d   1       0.484   2.128  -1.098  0.00  0.00     0.027 A 
ATOM      4  C4  DEN d   1       0.236  -0.249  -2.067  0.00  0.00     0.027 A 
ATOM      5  C5  DEN d   1      -0.036  -1.564  -1.759  0.00  0.00    -0.003 A 
ATOM      6  C6  DEN d   1      -0.290  -1.977  -0.478  0.00  0.00     0.001 A 
ATOM      7  C7  DEN d   1      -0.322  -1.058   0.537  0.00  0.00     0.017 A 
ATOM      8  C8  DEN d   1      -0.041   0.269   0.236  0.00  0.00    -0.094 A 
ATOM      9  C9  DEN d   1       0.202   0.668  -1.067  0.00  0.00    -0.072 A 
ENDROOT
TORSDOF 0
ENDMDL
