MODEL 1
REMARK minimizedAffinity -2.27758694
REMARK minimizedRMSD -1
REMARK  0 active torsions:
REMARK  status: ('A' for Active; 'I' for Inactive)
ROOT
ATOM      1  C1  DEN d   1       0.101  -2.103  -1.214  0.00  0.00     0.130 A 
ATOM      2  C2  DEN d   1      -0.588  -3.096  -0.394  0.00  0.00    -0.031 A 
ATOM      3  C3  DEN d   1      -1.109  -2.415   0.807  0.00  0.00     0.027 A 
ATOM      4  C4  DEN d   1      -0.922   0.070   1.472  0.00  0.00     0.027 A 
ATOM      5  C5  DEN d   1      -0.420   1.297   1.100  0.00  0.00    -0.003 A 
ATOM      6  C6  DEN d   1       0.315   1.469  -0.044  0.00  0.00     0.001 A 
ATOM      7  C7  DEN d   1       0.529   0.404  -0.879  0.00  0.00     0.017 A 
ATOM      8  C8  DEN d   1       0.032  -0.837  -0.506  0.00  0.00    -0.094 A 
ATOM      9  C9  DEN d   1      -0.719  -0.988   0.648  0.00  0.00    -0.072 A 
ENDROOT
TORSDOF 0
ENDMDL
