MODEL 1
REMARK minimizedAffinity -4.92616224
REMARK minimizedRMSD -1
REMARK  0 active torsions:
REMARK  status: ('A' for Active; 'I' for Inactive)
ROOT
ATOM      1  C1  DEN d   1      -1.269  -2.264   1.043  0.00  0.00     0.130 A 
ATOM      2  C2  DEN d   1      -1.172  -1.148   1.980  0.00  0.00    -0.031 A 
ATOM      3  C3  DEN d   1      -0.647   0.021   1.245  0.00  0.00     0.027 A 
ATOM      4  C4  DEN d   1       0.018   0.209  -1.240  0.00  0.00     0.027 A 
ATOM      5  C5  DEN d   1       0.122  -0.477  -2.430  0.00  0.00    -0.003 A 
ATOM      6  C6  DEN d   1      -0.195  -1.806  -2.536  0.00  0.00     0.001 A 
ATOM      7  C7  DEN d   1      -0.675  -2.479  -1.444  0.00  0.00     0.017 A 
ATOM      8  C8  DEN d   1      -0.776  -1.795  -0.239  0.00  0.00    -0.094 A 
ATOM      9  C9  DEN d   1      -0.462  -0.449  -0.155  0.00  0.00    -0.072 A 
ENDROOT
TORSDOF 0
ENDMDL
