MODEL 1
REMARK minimizedAffinity -3.11904049
REMARK minimizedRMSD -1
REMARK  0 active torsions:
REMARK  status: ('A' for Active; 'I' for Inactive)
ROOT
ATOM      1  C1  DEN d   1       1.103   0.975   0.558  0.00  0.00     0.130 A 
ATOM      2  C2  DEN d   1       0.238   1.805  -0.276  0.00  0.00    -0.031 A 
ATOM      3  C3  DEN d   1      -0.877   0.965  -0.755  0.00  0.00     0.027 A 
ATOM      4  C4  DEN d   1      -1.350  -1.527  -0.286  0.00  0.00     0.027 A 
ATOM      5  C5  DEN d   1      -0.890  -2.655   0.357  0.00  0.00    -0.003 A 
ATOM      6  C6  DEN d   1       0.274  -2.661   1.078  0.00  0.00     0.001 A 
ATOM      7  C7  DEN d   1       0.996  -1.504   1.211  0.00  0.00     0.017 A 
ATOM      8  C8  DEN d   1       0.543  -0.365   0.560  0.00  0.00    -0.094 A 
ATOM      9  C9  DEN d   1      -0.643  -0.376  -0.155  0.00  0.00    -0.072 A 
ENDROOT
TORSDOF 0
ENDMDL
