MODEL 1
REMARK minimizedAffinity -1.11401069
REMARK minimizedRMSD -1
REMARK  0 active torsions:
REMARK  status: ('A' for Active; 'I' for Inactive)
ROOT
ATOM      1  C1  DEN d   1      -1.424  -2.322   0.509  0.00  0.00     0.130 A 
ATOM      2  C2  DEN d   1      -1.612  -1.617   1.774  0.00  0.00    -0.031 A 
ATOM      3  C3  DEN d   1      -1.147  -0.227   1.596  0.00  0.00     0.027 A 
ATOM      4  C4  DEN d   1      -0.163   0.897  -0.506  0.00  0.00     0.027 A 
ATOM      5  C5  DEN d   1       0.201   0.698  -1.820  0.00  0.00    -0.003 A 
ATOM      6  C6  DEN d   1       0.082  -0.521  -2.434  0.00  0.00     0.001 A 
ATOM      7  C7  DEN d   1      -0.456  -1.577  -1.747  0.00  0.00     0.017 A 
ATOM      8  C8  DEN d   1      -0.819  -1.386  -0.420  0.00  0.00    -0.094 A 
ATOM      9  C9  DEN d   1      -0.702  -0.143   0.179  0.00  0.00    -0.072 A 
ENDROOT
TORSDOF 0
ENDMDL
