MODEL 1
REMARK minimizedAffinity -2.41471362
REMARK minimizedRMSD -1
REMARK  0 active torsions:
REMARK  status: ('A' for Active; 'I' for Inactive)
ROOT
ATOM      1  C1  DEN d   1      -0.773  -0.829   1.551  0.00  0.00     0.130 A 
ATOM      2  C2  DEN d   1      -0.933  -2.250   1.253  0.00  0.00    -0.031 A 
ATOM      3  C3  DEN d   1      -0.563  -2.465  -0.160  0.00  0.00     0.027 A 
ATOM      4  C4  DEN d   1       0.245  -0.747  -1.905  0.00  0.00     0.027 A 
ATOM      5  C5  DEN d   1       0.528   0.583  -2.123  0.00  0.00    -0.003 A 
ATOM      6  C6  DEN d   1       0.366   1.534  -1.150  0.00  0.00     0.001 A 
ATOM      7  C7  DEN d   1      -0.049   1.160   0.101  0.00  0.00     0.017 A 
ATOM      8  C8  DEN d   1      -0.343  -0.179   0.326  0.00  0.00    -0.094 A 
ATOM      9  C9  DEN d   1      -0.161  -1.126  -0.667  0.00  0.00    -0.072 A 
ENDROOT
TORSDOF 0
ENDMDL
