MODEL 1
REMARK minimizedAffinity -3.55133295
REMARK minimizedRMSD -1
REMARK  0 active torsions:
REMARK  status: ('A' for Active; 'I' for Inactive)
ROOT
ATOM      1  C1  DEN d   1       0.003   0.063   2.564  0.00  0.00     0.130 A 
ATOM      2  C2  DEN d   1      -0.565  -0.792   1.526  0.00  0.00    -0.031 A 
ATOM      3  C3  DEN d   1      -0.465  -0.075   0.239  0.00  0.00     0.027 A 
ATOM      4  C4  DEN d   1       0.516   2.261  -0.246  0.00  0.00     0.027 A 
ATOM      5  C5  DEN d   1       1.105   3.370   0.320  0.00  0.00    -0.003 A 
ATOM      6  C6  DEN d   1       1.335   3.468   1.666  0.00  0.00     0.001 A 
ATOM      7  C7  DEN d   1       1.016   2.420   2.488  0.00  0.00     0.017 A 
ATOM      8  C8  DEN d   1       0.414   1.301   1.926  0.00  0.00    -0.094 A 
ATOM      9  C9  DEN d   1       0.201   1.216   0.561  0.00  0.00    -0.072 A 
ENDROOT
TORSDOF 0
ENDMDL
