MODEL 1
REMARK minimizedAffinity -3.95782185
REMARK minimizedRMSD -1
REMARK  0 active torsions:
REMARK  status: ('A' for Active; 'I' for Inactive)
ROOT
ATOM      1  C   UNL d   1      -0.517   2.004   2.520  0.00  0.00     0.077 C 
ATOM      2  C1  UNL d   1      -0.611   1.075   1.346  0.00  0.00    -0.074 A 
ATOM      3  C2  UNL d   1      -1.678   0.179   1.221  0.00  0.00    -0.005 A 
ATOM      4  C3  UNL d   1      -1.757  -0.672   0.119  0.00  0.00     0.006 A 
ATOM      5  C4  UNL d   1      -0.771  -0.637  -0.867  0.00  0.00    -0.005 A 
ATOM      6  C5  UNL d   1       0.303   0.252  -0.760  0.00  0.00    -0.074 A 
ATOM      7  C6  UNL d   1       1.366   0.309  -1.817  0.00  0.00     0.077 C 
ATOM      8  C7  UNL d   1       0.371   1.109   0.346  0.00  0.00    -0.001 A 
ENDROOT
TORSDOF 0
ENDMDL
