MODEL 1
REMARK minimizedAffinity -2.78420496
REMARK minimizedRMSD -1
REMARK  0 active torsions:
REMARK  status: ('A' for Active; 'I' for Inactive)
ROOT
ATOM      1  C   UNL d   1       2.575  -1.185   0.775  0.00  0.00     0.077 C 
ATOM      2  C1  UNL d   1       1.261  -0.490   0.573  0.00  0.00    -0.074 A 
ATOM      3  C2  UNL d   1       0.614  -0.521  -0.667  0.00  0.00    -0.005 A 
ATOM      4  C3  UNL d   1      -0.611   0.122  -0.837  0.00  0.00     0.006 A 
ATOM      5  C4  UNL d   1      -1.202   0.802   0.229  0.00  0.00    -0.005 A 
ATOM      6  C5  UNL d   1      -0.570   0.844   1.476  0.00  0.00    -0.074 A 
ATOM      7  C6  UNL d   1      -1.196   1.562   2.635  0.00  0.00     0.077 C 
ATOM      8  C7  UNL d   1       0.658   0.189   1.641  0.00  0.00    -0.001 A 
ENDROOT
TORSDOF 0
ENDMDL
