MODEL 1
REMARK minimizedAffinity 0.305673867
REMARK minimizedRMSD -1
REMARK  0 active torsions:
REMARK  status: ('A' for Active; 'I' for Inactive)
ROOT
ATOM      1  C   UNL d   1       0.410  -0.750  -3.253  0.00  0.00     0.077 C 
ATOM      2  C1  UNL d   1       0.100  -0.443  -1.819  0.00  0.00    -0.074 A 
ATOM      3  C2  UNL d   1      -1.207  -0.161  -1.410  0.00  0.00    -0.005 A 
ATOM      4  C3  UNL d   1      -1.482   0.114  -0.070  0.00  0.00     0.006 A 
ATOM      5  C4  UNL d   1      -0.453   0.108   0.873  0.00  0.00    -0.005 A 
ATOM      6  C5  UNL d   1       0.860  -0.173   0.483  0.00  0.00    -0.074 A 
ATOM      7  C6  UNL d   1       1.975  -0.193   1.486  0.00  0.00     0.077 C 
ATOM      8  C7  UNL d   1       1.127  -0.455  -0.864  0.00  0.00    -0.001 A 
ENDROOT
TORSDOF 0
ENDMDL
