MODEL 1
REMARK minimizedAffinity -3.47224927
REMARK minimizedRMSD -1
REMARK  0 active torsions:
REMARK  status: ('A' for Active; 'I' for Inactive)
ROOT
ATOM      1  C   UNL d   1       1.057  -0.536  -0.910  0.00  0.00     0.077 C 
ATOM      2  C1  UNL d   1      -0.097  -0.126  -0.044  0.00  0.00    -0.074 A 
ATOM      3  C2  UNL d   1      -1.392  -0.585  -0.308  0.00  0.00    -0.005 A 
ATOM      4  C3  UNL d   1      -2.454  -0.203   0.511  0.00  0.00     0.006 A 
ATOM      5  C4  UNL d   1      -2.232   0.639   1.602  0.00  0.00    -0.005 A 
ATOM      6  C5  UNL d   1      -0.945   1.107   1.882  0.00  0.00    -0.074 A 
ATOM      7  C6  UNL d   1      -0.687   2.005   3.055  0.00  0.00     0.077 C 
ATOM      8  C7  UNL d   1       0.119   0.713   1.057  0.00  0.00    -0.001 A 
ENDROOT
TORSDOF 0
ENDMDL
