MODEL 1
REMARK minimizedAffinity -2.66011906
REMARK minimizedRMSD -1
REMARK  0 active torsions:
REMARK  status: ('A' for Active; 'I' for Inactive)
ROOT
ATOM      1  C   UNL d   1       2.050  -0.138   2.258  0.00  0.00     0.077 C 
ATOM      2  C1  UNL d   1       0.933   0.035   1.272  0.00  0.00    -0.074 A 
ATOM      3  C2  UNL d   1      -0.399   0.088   1.696  0.00  0.00    -0.005 A 
ATOM      4  C3  UNL d   1      -1.426   0.258   0.769  0.00  0.00     0.006 A 
ATOM      5  C4  UNL d   1      -1.133   0.377  -0.590  0.00  0.00    -0.005 A 
ATOM      6  C5  UNL d   1       0.192   0.327  -1.033  0.00  0.00    -0.074 A 
ATOM      7  C6  UNL d   1       0.525   0.463  -2.489  0.00  0.00     0.077 C 
ATOM      8  C7  UNL d   1       1.220   0.163  -0.094  0.00  0.00    -0.001 A 
ENDROOT
TORSDOF 0
ENDMDL
