MODEL 1
REMARK minimizedAffinity -3.06827235
REMARK minimizedRMSD -1
REMARK  0 active torsions:
REMARK  status: ('A' for Active; 'I' for Inactive)
ROOT
ATOM      1  C   UNL d   1      -0.646   1.767   2.926  0.00  0.00     0.077 C 
ATOM      2  C1  UNL d   1      -0.875   0.917   1.712  0.00  0.00    -0.074 A 
ATOM      3  C2  UNL d   1      -2.068   0.205   1.548  0.00  0.00    -0.005 A 
ATOM      4  C3  UNL d   1      -2.271  -0.574   0.409  0.00  0.00     0.006 A 
ATOM      5  C4  UNL d   1      -1.285  -0.649  -0.576  0.00  0.00    -0.005 A 
ATOM      6  C5  UNL d   1      -0.087   0.057  -0.430  0.00  0.00    -0.074 A 
ATOM      7  C6  UNL d   1       0.979  -0.005  -1.483  0.00  0.00     0.077 C 
ATOM      8  C7  UNL d   1       0.107   0.843   0.714  0.00  0.00    -0.001 A 
ENDROOT
TORSDOF 0
ENDMDL
