MODEL 1
REMARK minimizedAffinity -5.00294638
REMARK minimizedRMSD -1
REMARK  0 active torsions:
REMARK  status: ('A' for Active; 'I' for Inactive)
ROOT
ATOM      1  C   UNL d   1       0.963  -0.887  -1.065  0.00  0.00     0.077 C 
ATOM      2  C1  UNL d   1       0.001  -0.103  -0.223  0.00  0.00    -0.074 A 
ATOM      3  C2  UNL d   1      -1.312   0.121  -0.651  0.00  0.00    -0.005 A 
ATOM      4  C3  UNL d   1      -2.198   0.844   0.147  0.00  0.00     0.006 A 
ATOM      5  C4  UNL d   1      -1.781   1.349   1.380  0.00  0.00    -0.005 A 
ATOM      6  C5  UNL d   1      -0.473   1.134   1.825  0.00  0.00    -0.074 A 
ATOM      7  C6  UNL d   1      -0.012   1.662   3.151  0.00  0.00     0.077 C 
ATOM      8  C7  UNL d   1       0.409   0.401   1.020  0.00  0.00    -0.001 A 
ENDROOT
TORSDOF 0
ENDMDL
