MODEL 1
REMARK minimizedAffinity -4.4630928
REMARK minimizedRMSD -1
REMARK  0 active torsions:
REMARK  status: ('A' for Active; 'I' for Inactive)
ROOT
ATOM      1  C   UNL d   1      -2.897  -0.790  -0.369  0.00  0.00     0.077 C 
ATOM      2  C1  UNL d   1      -1.563  -0.429   0.212  0.00  0.00    -0.074 A 
ATOM      3  C2  UNL d   1      -0.377  -0.886  -0.372  0.00  0.00    -0.005 A 
ATOM      4  C3  UNL d   1       0.857  -0.534   0.174  0.00  0.00     0.006 A 
ATOM      5  C4  UNL d   1       0.918   0.277   1.308  0.00  0.00    -0.005 A 
ATOM      6  C5  UNL d   1      -0.257   0.744   1.906  0.00  0.00    -0.074 A 
ATOM      7  C6  UNL d   1      -0.209   1.624   3.119  0.00  0.00     0.077 C 
ATOM      8  C7  UNL d   1      -1.493   0.392   1.347  0.00  0.00    -0.001 A 
ENDROOT
TORSDOF 0
ENDMDL
