MODEL 1
REMARK minimizedAffinity 9.4913969
REMARK minimizedRMSD -1
REMARK  0 active torsions:
REMARK  status: ('A' for Active; 'I' for Inactive)
ROOT
ATOM      1  C1  BNZ d   1       4.102  -4.982   3.621  0.00  0.00     0.000 A 
ATOM      2  C2  BNZ d   1       4.097  -5.661   4.810  0.00  0.00     0.000 A 
ATOM      3  C3  BNZ d   1       4.197  -4.994   5.998  0.00  0.00     0.000 A 
ATOM      4  C4  BNZ d   1       4.342  -3.653   5.995  0.00  0.00     0.000 A 
ATOM      5  C5  BNZ d   1       4.358  -2.954   4.804  0.00  0.00     0.000 A 
ATOM      6  C6  BNZ d   1       4.218  -3.626   3.612  0.00  0.00     0.000 A 
ENDROOT
TORSDOF 0
ENDMDL
