MODEL 1
REMARK minimizedAffinity 3.22361708
REMARK minimizedRMSD -1
REMARK  0 active torsions:
REMARK  status: ('A' for Active; 'I' for Inactive)
ROOT
ATOM      1  C1  BNZ d   1      -0.647   4.912   3.506  0.00  0.00     0.000 A 
ATOM      2  C2  BNZ d   1      -1.868   4.913   4.128  0.00  0.00     0.000 A 
ATOM      3  C3  BNZ d   1      -2.023   5.475   5.364  0.00  0.00     0.000 A 
ATOM      4  C4  BNZ d   1      -0.952   6.000   5.993  0.00  0.00     0.000 A 
ATOM      5  C5  BNZ d   1       0.287   5.999   5.383  0.00  0.00     0.000 A 
ATOM      6  C6  BNZ d   1       0.432   5.467   4.123  0.00  0.00     0.000 A 
ENDROOT
TORSDOF 0
ENDMDL
