MODEL 1
REMARK minimizedAffinity 1.64037585
REMARK minimizedRMSD -1
REMARK  0 active torsions:
REMARK  status: ('A' for Active; 'I' for Inactive)
ROOT
ATOM      1  C1  BNZ d   1       2.778  -5.279   0.822  0.00  0.00     0.000 A 
ATOM      2  C2  BNZ d   1       1.668  -4.480   0.746  0.00  0.00     0.000 A 
ATOM      3  C3  BNZ d   1       1.788  -3.121   0.672  0.00  0.00     0.000 A 
ATOM      4  C4  BNZ d   1       3.014  -2.560   0.714  0.00  0.00     0.000 A 
ATOM      5  C5  BNZ d   1       4.142  -3.352   0.799  0.00  0.00     0.000 A 
ATOM      6  C6  BNZ d   1       4.019  -4.722   0.835  0.00  0.00     0.000 A 
ENDROOT
TORSDOF 0
ENDMDL
