MODEL 1
REMARK minimizedAffinity 4.93195772
REMARK minimizedRMSD -1
REMARK  0 active torsions:
REMARK  status: ('A' for Active; 'I' for Inactive)
ROOT
ATOM      1  C1  BNZ d   1       1.802  -0.857   3.099  0.00  0.00     0.000 A 
ATOM      2  C2  BNZ d   1       2.956  -0.822   2.361  0.00  0.00     0.000 A 
ATOM      3  C3  BNZ d   1       2.987  -1.317   1.087  0.00  0.00     0.000 A 
ATOM      4  C4  BNZ d   1       1.878  -1.883   0.568  0.00  0.00     0.000 A 
ATOM      5  C5  BNZ d   1       0.710  -1.934   1.303  0.00  0.00     0.000 A 
ATOM      6  C6  BNZ d   1       0.672  -1.399   2.570  0.00  0.00     0.000 A 
ENDROOT
TORSDOF 0
ENDMDL
