MODEL 1
REMARK minimizedAffinity 1.03137267
REMARK minimizedRMSD -1
REMARK  0 active torsions:
REMARK  status: ('A' for Active; 'I' for Inactive)
ROOT
ATOM      1  C1  BNZ d   1       5.143  -1.891   5.165  0.00  0.00     0.000 A 
ATOM      2  C2  BNZ d   1       5.986  -2.581   5.995  0.00  0.00     0.000 A 
ATOM      3  C3  BNZ d   1       6.000  -3.947   6.000  0.00  0.00     0.000 A 
ATOM      4  C4  BNZ d   1       5.144  -4.622   5.205  0.00  0.00     0.000 A 
ATOM      5  C5  BNZ d   1       4.282  -3.941   4.369  0.00  0.00     0.000 A 
ATOM      6  C6  BNZ d   1       4.298  -2.565   4.339  0.00  0.00     0.000 A 
ENDROOT
TORSDOF 0
ENDMDL
