MODEL 1
REMARK minimizedAffinity 7.59384871
REMARK minimizedRMSD -1
REMARK  0 active torsions:
REMARK  status: ('A' for Active; 'I' for Inactive)
ROOT
ATOM      1  C1  BNZ d   1       2.972  -3.428  -0.436  0.00  0.00     0.000 A 
ATOM      2  C2  BNZ d   1       2.667  -2.109  -0.227  0.00  0.00     0.000 A 
ATOM      3  C3  BNZ d   1       1.535  -1.752   0.451  0.00  0.00     0.000 A 
ATOM      4  C4  BNZ d   1       0.690  -2.710   0.882  0.00  0.00     0.000 A 
ATOM      5  C5  BNZ d   1       0.979  -4.043   0.671  0.00  0.00     0.000 A 
ATOM      6  C6  BNZ d   1       2.139  -4.401   0.023  0.00  0.00     0.000 A 
ENDROOT
TORSDOF 0
ENDMDL
