MODEL 1
REMARK minimizedAffinity -1.20556045
REMARK minimizedRMSD -1
REMARK  0 active torsions:
REMARK  status: ('A' for Active; 'I' for Inactive)
ROOT
ATOM      1  C   UNL d   1       1.322   0.776   0.627  0.00  0.00     0.023 A 
ATOM      2  C1  UNL d   1       0.669  -0.416   0.940  0.00  0.00     0.003 A 
ATOM      3  C2  UNL d   1      -0.712  -0.524   0.766  0.00  0.00     0.048 A 
ATOM      4  C3  UNL d   1      -1.434   0.564   0.278  0.00  0.00     0.023 A 
ATOM      5  C4  UNL d   1      -0.785   1.759  -0.037  0.00  0.00     0.048 A 
ATOM      6  C5  UNL d   1       0.596   1.862   0.139  0.00  0.00     0.003 A 
ATOM      7  I   UNL d   1      -3.490   0.407   0.018  0.00  0.00    -0.146 I 
ENDROOT
TORSDOF 0
ENDMDL
