MODEL 1
REMARK minimizedAffinity -3.83066845
REMARK minimizedRMSD -1
REMARK  0 active torsions:
REMARK  status: ('A' for Active; 'I' for Inactive)
ROOT
ATOM      1  C   UNL d   1      -1.257  -0.806  -1.372  0.00  0.00     0.023 A 
ATOM      2  C1  UNL d   1      -0.619  -2.025  -1.139  0.00  0.00     0.003 A 
ATOM      3  C2  UNL d   1       0.563  -2.064  -0.397  0.00  0.00     0.048 A 
ATOM      4  C3  UNL d   1       1.103  -0.882   0.108  0.00  0.00     0.023 A 
ATOM      5  C4  UNL d   1       0.468   0.340  -0.123  0.00  0.00     0.048 A 
ATOM      6  C5  UNL d   1      -0.714   0.374  -0.865  0.00  0.00     0.003 A 
ATOM      7  I   UNL d   1       2.863  -0.939   1.212  0.00  0.00    -0.146 I 
ENDROOT
TORSDOF 0
ENDMDL
