MODEL 1
REMARK minimizedAffinity -2.58514094
REMARK minimizedRMSD -1
REMARK  0 active torsions:
REMARK  status: ('A' for Active; 'I' for Inactive)
ROOT
ATOM      1  C   UNL d   1       1.283  -0.453  -0.489  0.00  0.00     0.023 A 
ATOM      2  C1  UNL d   1       0.435  -1.291   0.236  0.00  0.00     0.003 A 
ATOM      3  C2  UNL d   1      -0.849  -0.860   0.578  0.00  0.00     0.048 A 
ATOM      4  C3  UNL d   1      -1.279   0.408   0.191  0.00  0.00     0.023 A 
ATOM      5  C4  UNL d   1      -0.434   1.250  -0.536  0.00  0.00     0.048 A 
ATOM      6  C5  UNL d   1       0.849   0.816  -0.875  0.00  0.00     0.003 A 
ATOM      7  I   UNL d   1      -3.189   1.051   0.699  0.00  0.00    -0.146 I 
ENDROOT
TORSDOF 0
ENDMDL
