MODEL 1
REMARK minimizedAffinity -3.57685399
REMARK minimizedRMSD -1
REMARK  0 active torsions:
REMARK  status: ('A' for Active; 'I' for Inactive)
ROOT
ATOM      1  C   UNL d   1       2.820  -1.594   0.273  0.00  0.00     0.023 A 
ATOM      2  C1  UNL d   1       2.489  -0.520   1.099  0.00  0.00     0.003 A 
ATOM      3  C2  UNL d   1       1.244   0.100   0.976  0.00  0.00     0.048 A 
ATOM      4  C3  UNL d   1       0.333  -0.361   0.025  0.00  0.00     0.023 A 
ATOM      5  C4  UNL d   1       0.660  -1.436  -0.803  0.00  0.00     0.048 A 
ATOM      6  C5  UNL d   1       1.906  -2.052  -0.677  0.00  0.00     0.003 A 
ATOM      7  I   UNL d   1      -1.521   0.560  -0.160  0.00  0.00    -0.146 I 
ENDROOT
TORSDOF 0
ENDMDL
