MODEL 1
REMARK minimizedAffinity -3.20753193
REMARK minimizedRMSD -1
REMARK  0 active torsions:
REMARK  status: ('A' for Active; 'I' for Inactive)
ROOT
ATOM      1  C   UNL d   1       1.318  -1.050   0.005  0.00  0.00     0.023 A 
ATOM      2  C1  UNL d   1       1.190   0.119   0.754  0.00  0.00     0.003 A 
ATOM      3  C2  UNL d   1      -0.046   0.763   0.841  0.00  0.00     0.048 A 
ATOM      4  C3  UNL d   1      -1.151   0.230   0.177  0.00  0.00     0.023 A 
ATOM      5  C4  UNL d   1      -1.028  -0.941  -0.572  0.00  0.00     0.048 A 
ATOM      6  C5  UNL d   1       0.211  -1.580  -0.657  0.00  0.00     0.003 A 
ATOM      7  I   UNL d   1      -2.992   1.185   0.305  0.00  0.00    -0.146 I 
ENDROOT
TORSDOF 0
ENDMDL
