MODEL 1
REMARK minimizedAffinity -3.64996696
REMARK minimizedRMSD -1
REMARK  1 active torsions:
REMARK  status: ('A' for Active; 'I' for Inactive)
REMARK    1  A    between atoms: C1_2  and  C2_3 
ROOT
ATOM      1  C2  UNL d   1       1.740  -0.036   1.065  0.00  0.00    -0.081 A 
ATOM      2  C3  UNL d   1       2.887   0.736   0.844  0.00  0.00     0.006 A 
ATOM      3  C4  UNL d   1       2.778   2.048   0.375  0.00  0.00     0.002 A 
ATOM      4  C5  UNL d   1       1.522   2.611   0.127  0.00  0.00    -0.080 A 
ATOM      5  C6  UNL d   1       1.390   4.027  -0.348  0.00  0.00     0.076 C 
ATOM      6  C7  UNL d   1       0.377   1.833   0.330  0.00  0.00     0.002 A 
ATOM      7  C8  UNL d   1       0.485   0.522   0.798  0.00  0.00     0.006 A 
ENDROOT
BRANCH   1   8
ATOM      8  C1  UNL d   1       1.851  -1.428   1.632  0.00  0.00     0.054 C 
ATOM      9  C   UNL d   1       0.637  -2.272   1.270  0.00  0.00     0.018 C 
ENDBRANCH   1   8
TORSDOF 1
ENDMDL
