MODEL 1
REMARK minimizedAffinity -1.30836487
REMARK minimizedRMSD -1
REMARK  1 active torsions:
REMARK  status: ('A' for Active; 'I' for Inactive)
REMARK    1  A    between atoms: C1_2  and  C2_3 
ROOT
ATOM      1  C2  UNL d   1       1.260   1.142   0.839  0.00  0.00    -0.081 A 
ATOM      2  C3  UNL d   1       0.180   2.032   0.787  0.00  0.00     0.006 A 
ATOM      3  C4  UNL d   1       0.301   3.253   0.119  0.00  0.00     0.002 A 
ATOM      4  C5  UNL d   1       1.499   3.601  -0.513  0.00  0.00    -0.080 A 
ATOM      5  C6  UNL d   1       1.632   4.895  -1.259  0.00  0.00     0.076 C 
ATOM      6  C7  UNL d   1       2.584   2.719  -0.446  0.00  0.00     0.002 A 
ATOM      7  C8  UNL d   1       2.464   1.498   0.222  0.00  0.00     0.006 A 
ENDROOT
BRANCH   1   8
ATOM      8  C1  UNL d   1       1.112  -0.204   1.503  0.00  0.00     0.054 C 
ATOM      9  C   UNL d   1       0.007  -1.023   0.853  0.00  0.00     0.018 C 
ENDBRANCH   1   8
TORSDOF 1
ENDMDL
