MODEL 1
REMARK minimizedAffinity 0.727555811
REMARK minimizedRMSD -1
REMARK  1 active torsions:
REMARK  status: ('A' for Active; 'I' for Inactive)
REMARK    1  A    between atoms: C1_2  and  C2_3 
ROOT
ATOM      1  C2  UNL d   1       1.853   0.814   0.511  0.00  0.00    -0.081 A 
ATOM      2  C3  UNL d   1       0.845  -0.145   0.669  0.00  0.00     0.006 A 
ATOM      3  C4  UNL d   1       0.843  -0.996   1.777  0.00  0.00     0.002 A 
ATOM      4  C5  UNL d   1       1.845  -0.896   2.749  0.00  0.00    -0.080 A 
ATOM      5  C6  UNL d   1       1.838  -1.782   3.959  0.00  0.00     0.076 C 
ATOM      6  C7  UNL d   1       2.861   0.050   2.583  0.00  0.00     0.002 A 
ATOM      7  C8  UNL d   1       2.864   0.900   1.475  0.00  0.00     0.006 A 
ENDROOT
BRANCH   1   8
ATOM      8  C1  UNL d   1       1.821   1.775  -0.649  0.00  0.00     0.054 C 
ATOM      9  C   UNL d   1       0.999   3.013  -0.320  0.00  0.00     0.018 C 
ENDBRANCH   1   8
TORSDOF 1
ENDMDL
