MODEL 1
REMARK minimizedAffinity 10.9729013
REMARK minimizedRMSD -1
REMARK  1 active torsions:
REMARK  status: ('A' for Active; 'I' for Inactive)
REMARK    1  A    between atoms: C1_2  and  C2_3 
ROOT
ATOM      1  C2  UNL d   1       2.143   0.639   1.119  0.00  0.00    -0.081 A 
ATOM      2  C3  UNL d   1       2.915   0.726   2.284  0.00  0.00     0.006 A 
ATOM      3  C4  UNL d   1       2.768  -0.217   3.304  0.00  0.00     0.002 A 
ATOM      4  C5  UNL d   1       1.853  -1.267   3.173  0.00  0.00    -0.080 A 
ATOM      5  C6  UNL d   1       1.706  -2.303   4.247  0.00  0.00     0.076 C 
ATOM      6  C7  UNL d   1       1.069  -1.344   2.017  0.00  0.00     0.002 A 
ATOM      7  C8  UNL d   1       1.215  -0.401   0.997  0.00  0.00     0.006 A 
ENDROOT
BRANCH   1   8
ATOM      8  C1  UNL d   1       2.346   1.617  -0.010  0.00  0.00     0.054 C 
ATOM      9  C   UNL d   1       1.980   3.032   0.413  0.00  0.00     0.018 C 
ENDBRANCH   1   8
TORSDOF 1
ENDMDL
