MODEL 1
REMARK minimizedAffinity 2.83066106
REMARK minimizedRMSD -1
REMARK  1 active torsions:
REMARK  status: ('A' for Active; 'I' for Inactive)
REMARK    1  A    between atoms: C1_2  and  C2_3 
ROOT
ATOM      1  C2  UNL d   1       2.070   0.370   1.532  0.00  0.00    -0.081 A 
ATOM      2  C3  UNL d   1       2.645  -0.362   2.578  0.00  0.00     0.006 A 
ATOM      3  C4  UNL d   1       2.103  -1.590   2.964  0.00  0.00     0.002 A 
ATOM      4  C5  UNL d   1       0.983  -2.110   2.307  0.00  0.00    -0.080 A 
ATOM      5  C6  UNL d   1       0.410  -3.442   2.693  0.00  0.00     0.076 C 
ATOM      6  C7  UNL d   1       0.397  -1.371   1.274  0.00  0.00     0.002 A 
ATOM      7  C8  UNL d   1       0.938  -0.143   0.888  0.00  0.00     0.006 A 
ENDROOT
BRANCH   1   8
ATOM      8  C1  UNL d   1       2.690   1.663   1.070  0.00  0.00     0.054 C 
ATOM      9  C   UNL d   1       1.766   2.412   0.120  0.00  0.00     0.018 C 
ENDBRANCH   1   8
TORSDOF 1
ENDMDL
