MODEL 1
REMARK minimizedAffinity 0.338618219
REMARK minimizedRMSD -1
REMARK  1 active torsions:
REMARK  status: ('A' for Active; 'I' for Inactive)
REMARK    1  A    between atoms: C1_2  and  C2_3 
ROOT
ATOM      1  C2  UNL d   1       1.247   0.082   1.562  0.00  0.00    -0.081 A 
ATOM      2  C3  UNL d   1       0.372   0.709   0.665  0.00  0.00     0.006 A 
ATOM      3  C4  UNL d   1       0.791   1.817  -0.075  0.00  0.00     0.002 A 
ATOM      4  C5  UNL d   1       2.092   2.311   0.062  0.00  0.00    -0.080 A 
ATOM      5  C6  UNL d   1       2.564   3.481  -0.749  0.00  0.00     0.076 C 
ATOM      6  C7  UNL d   1       2.961   1.696   0.970  0.00  0.00     0.002 A 
ATOM      7  C8  UNL d   1       2.542   0.589   1.712  0.00  0.00     0.006 A 
ENDROOT
BRANCH   1   8
ATOM      8  C1  UNL d   1       0.819  -1.152   2.314  0.00  0.00     0.054 C 
ATOM      9  C   UNL d   1      -0.552  -1.630   1.858  0.00  0.00     0.018 C 
ENDBRANCH   1   8
TORSDOF 1
ENDMDL
