MODEL 1
REMARK minimizedAffinity 12.7949047
REMARK minimizedRMSD -1
REMARK  0 active torsions:
REMARK  status: ('A' for Active; 'I' for Inactive)
ROOT
ATOM      1  C   UNL d   1      -1.129   4.522   1.183  0.00  0.00     0.023 A 
ATOM      2  C1  UNL d   1      -0.695   5.803   0.839  0.00  0.00     0.003 A 
ATOM      3  C2  UNL d   1       0.608   6.000   0.380  0.00  0.00     0.048 A 
ATOM      4  C3  UNL d   1       1.473   4.911   0.266  0.00  0.00     0.023 A 
ATOM      5  C4  UNL d   1       1.043   3.628   0.608  0.00  0.00     0.048 A 
ATOM      6  C5  UNL d   1      -0.261   3.436   1.067  0.00  0.00     0.003 A 
ATOM      7  I   UNL d   1       3.414   5.202  -0.418  0.00  0.00    -0.146 I 
ENDROOT
TORSDOF 0
ENDMDL
