MODEL 1
REMARK minimizedAffinity 11.0975008
REMARK minimizedRMSD -1
REMARK  0 active torsions:
REMARK  status: ('A' for Active; 'I' for Inactive)
ROOT
ATOM      1  C   UNL d   1       2.167  -0.034   4.062  0.00  0.00     0.023 A 
ATOM      2  C1  UNL d   1       2.297  -0.211   5.440  0.00  0.00     0.003 A 
ATOM      3  C2  UNL d   1       2.160  -1.483   5.997  0.00  0.00     0.048 A 
ATOM      4  C3  UNL d   1       1.894  -2.575   5.172  0.00  0.00     0.023 A 
ATOM      5  C4  UNL d   1       1.764  -2.403   3.793  0.00  0.00     0.048 A 
ATOM      6  C5  UNL d   1       1.901  -1.129   3.240  0.00  0.00     0.003 A 
ATOM      7  I   UNL d   1       1.690  -4.471   6.000  0.00  0.00    -0.146 I 
ENDROOT
TORSDOF 0
ENDMDL
