MODEL 1
REMARK minimizedAffinity 4.62391281
REMARK minimizedRMSD -1
REMARK  0 active torsions:
REMARK  status: ('A' for Active; 'I' for Inactive)
ROOT
ATOM      1  C   UNL d   1      -2.686  -0.067  -4.123  0.00  0.00     0.023 A 
ATOM      2  C1  UNL d   1      -2.755   1.127  -3.406  0.00  0.00     0.003 A 
ATOM      3  C2  UNL d   1      -2.515   1.131  -2.030  0.00  0.00     0.048 A 
ATOM      4  C3  UNL d   1      -2.205  -0.062  -1.379  0.00  0.00     0.023 A 
ATOM      5  C4  UNL d   1      -2.135  -1.259  -2.093  0.00  0.00     0.048 A 
ATOM      6  C5  UNL d   1      -2.377  -1.259  -3.468  0.00  0.00     0.003 A 
ATOM      7  I   UNL d   1      -1.847  -0.058   0.669  0.00  0.00    -0.146 I 
ENDROOT
TORSDOF 0
ENDMDL
