MODEL 1
REMARK minimizedAffinity 8.75489521
REMARK minimizedRMSD -1
REMARK  0 active torsions:
REMARK  status: ('A' for Active; 'I' for Inactive)
ROOT
ATOM      1  C   UNL d   1      -2.323  -0.033  -3.751  0.00  0.00     0.023 A 
ATOM      2  C1  UNL d   1      -2.018   0.997  -2.861  0.00  0.00     0.003 A 
ATOM      3  C2  UNL d   1      -1.944   0.737  -1.491  0.00  0.00     0.048 A 
ATOM      4  C3  UNL d   1      -2.175  -0.554  -1.018  0.00  0.00     0.023 A 
ATOM      5  C4  UNL d   1      -2.478  -1.588  -1.905  0.00  0.00     0.048 A 
ATOM      6  C5  UNL d   1      -2.552  -1.324  -3.274  0.00  0.00     0.003 A 
ATOM      7  I   UNL d   1      -2.065  -0.942   1.021  0.00  0.00    -0.146 I 
ENDROOT
TORSDOF 0
ENDMDL
