MODEL 1
REMARK minimizedAffinity 15.0202808
REMARK minimizedRMSD -1
REMARK  0 active torsions:
REMARK  status: ('A' for Active; 'I' for Inactive)
ROOT
ATOM      1  C   UNL d   1      -1.695  -1.066  -2.638  0.00  0.00     0.023 A 
ATOM      2  C1  UNL d   1      -1.828  -0.202  -1.551  0.00  0.00     0.003 A 
ATOM      3  C2  UNL d   1      -2.302   1.097  -1.743  0.00  0.00     0.048 A 
ATOM      4  C3  UNL d   1      -2.642   1.526  -3.026  0.00  0.00     0.023 A 
ATOM      5  C4  UNL d   1      -2.512   0.664  -4.117  0.00  0.00     0.048 A 
ATOM      6  C5  UNL d   1      -2.037  -0.633  -3.919  0.00  0.00     0.003 A 
ATOM      7  I   UNL d   1      -3.348   3.459  -3.316  0.00  0.00    -0.146 I 
ENDROOT
TORSDOF 0
ENDMDL
