MODEL 1
REMARK minimizedAffinity 5.52431631
REMARK minimizedRMSD -1
REMARK  0 active torsions:
REMARK  status: ('A' for Active; 'I' for Inactive)
ROOT
ATOM      1  C   UNL d   1      -1.181  -1.114  -3.766  0.00  0.00     0.023 A 
ATOM      2  C1  UNL d   1      -2.571  -1.039  -3.685  0.00  0.00     0.003 A 
ATOM      3  C2  UNL d   1      -3.192   0.186  -3.432  0.00  0.00     0.048 A 
ATOM      4  C3  UNL d   1      -2.417   1.332  -3.261  0.00  0.00     0.023 A 
ATOM      5  C4  UNL d   1      -1.025   1.262  -3.341  0.00  0.00     0.048 A 
ATOM      6  C5  UNL d   1      -0.408   0.035  -3.594  0.00  0.00     0.003 A 
ATOM      7  I   UNL d   1      -3.339   3.156  -2.883  0.00  0.00    -0.146 I 
ENDROOT
TORSDOF 0
ENDMDL
