MODEL 1
REMARK minimizedAffinity -2.00292349
REMARK minimizedRMSD -1
REMARK  0 active torsions:
REMARK  status: ('A' for Active; 'I' for Inactive)
ROOT
ATOM      1  C   UNL d   1       0.390   0.282  -0.547  0.00  0.00     0.124 A 
ATOM      2  C1  UNL d   1       0.281   0.850   0.715  0.00  0.00     0.062 A 
ATOM      3  C2  UNL d   1      -0.392   0.176   1.730  0.00  0.00     0.162 A 
ATOM      4  C3  UNL d   1      -0.961  -1.075   1.487  0.00  0.00    -0.034 A 
ATOM      5  C4  UNL d   1      -0.848  -1.639   0.215  0.00  0.00     0.162 A 
ATOM      6  C5  UNL d   1      -0.174  -0.961  -0.796  0.00  0.00     0.062 A 
ATOM      7  F   UNL d   1      -0.070  -1.510  -2.014  0.00  0.00    -0.097 F 
ATOM      8  F1  UNL d   1      -1.383  -2.839  -0.052  0.00  0.00    -0.096 F 
ATOM      9  I   UNL d   1      -1.968  -2.086   3.002  0.00  0.00    -0.060 I 
ATOM     10  F2  UNL d   1      -0.482   0.748   2.940  0.00  0.00    -0.096 F 
ATOM     11  F3  UNL d   1       0.825   2.051   0.958  0.00  0.00    -0.097 F 
ATOM     12  F4  UNL d   1       1.037   0.934  -1.522  0.00  0.00    -0.092 F 
ENDROOT
TORSDOF 0
ENDMDL
