MODEL 1
REMARK minimizedAffinity -1.97492456
REMARK minimizedRMSD -1
REMARK  0 active torsions:
REMARK  status: ('A' for Active; 'I' for Inactive)
ROOT
ATOM      1  C   UNL d   1       1.644   1.299   0.493  0.00  0.00     0.124 A 
ATOM      2  C1  UNL d   1       0.451   1.321   1.202  0.00  0.00     0.062 A 
ATOM      3  C2  UNL d   1      -0.356   0.187   1.251  0.00  0.00     0.162 A 
ATOM      4  C3  UNL d   1       0.029  -0.979   0.590  0.00  0.00    -0.034 A 
ATOM      5  C4  UNL d   1       1.230  -0.993  -0.122  0.00  0.00     0.162 A 
ATOM      6  C5  UNL d   1       2.032   0.142  -0.168  0.00  0.00     0.062 A 
ATOM      7  F   UNL d   1       3.185   0.119  -0.853  0.00  0.00    -0.097 F 
ATOM      8  F1  UNL d   1       1.630  -2.098  -0.769  0.00  0.00    -0.096 F 
ATOM      9  I   UNL d   1      -1.174  -2.676   0.661  0.00  0.00    -0.060 I 
ATOM     10  F2  UNL d   1      -1.503   0.237   1.944  0.00  0.00    -0.096 F 
ATOM     11  F3  UNL d   1       0.073   2.438   1.841  0.00  0.00    -0.097 F 
ATOM     12  F4  UNL d   1       2.417   2.391   0.447  0.00  0.00    -0.092 F 
ENDROOT
TORSDOF 0
ENDMDL
