MODEL 1
REMARK minimizedAffinity -0.844756901
REMARK minimizedRMSD -1
REMARK  0 active torsions:
REMARK  status: ('A' for Active; 'I' for Inactive)
ROOT
ATOM      1  C   UNL d   1       0.832   1.572   0.778  0.00  0.00     0.124 A 
ATOM      2  C1  UNL d   1       0.709   0.685  -0.283  0.00  0.00     0.062 A 
ATOM      3  C2  UNL d   1       0.140  -0.569  -0.084  0.00  0.00     0.162 A 
ATOM      4  C3  UNL d   1      -0.311  -0.945   1.181  0.00  0.00    -0.034 A 
ATOM      5  C4  UNL d   1      -0.183  -0.048   2.243  0.00  0.00     0.162 A 
ATOM      6  C5  UNL d   1       0.386   1.205   2.039  0.00  0.00     0.062 A 
ATOM      7  F   UNL d   1       0.504   2.060   3.065  0.00  0.00    -0.097 F 
ATOM      8  F1  UNL d   1      -0.607  -0.376   3.473  0.00  0.00    -0.096 F 
ATOM      9  I   UNL d   1      -1.163  -2.820   1.483  0.00  0.00    -0.060 I 
ATOM     10  F2  UNL d   1       0.034  -1.406  -1.127  0.00  0.00    -0.096 F 
ATOM     11  F3  UNL d   1       1.140   1.037  -1.503  0.00  0.00    -0.097 F 
ATOM     12  F4  UNL d   1       1.381   2.778   0.584  0.00  0.00    -0.092 F 
ENDROOT
TORSDOF 0
ENDMDL
