MODEL 1
REMARK minimizedAffinity 1.99767041
REMARK minimizedRMSD -1
REMARK  0 active torsions:
REMARK  status: ('A' for Active; 'I' for Inactive)
ROOT
ATOM      1  C   UNL d   1      -1.799  -0.950  -2.515  0.00  0.00     0.124 A 
ATOM      2  C1  UNL d   1      -2.734  -1.912  -2.158  0.00  0.00     0.062 A 
ATOM      3  C2  UNL d   1      -2.586  -2.627  -0.973  0.00  0.00     0.162 A 
ATOM      4  C3  UNL d   1      -1.499  -2.382  -0.135  0.00  0.00    -0.034 A 
ATOM      5  C4  UNL d   1      -0.562  -1.414  -0.500  0.00  0.00     0.162 A 
ATOM      6  C5  UNL d   1      -0.714  -0.702  -1.685  0.00  0.00     0.062 A 
ATOM      7  F   UNL d   1       0.190   0.227  -2.028  0.00  0.00    -0.097 F 
ATOM      8  F1  UNL d   1       0.495  -1.153   0.283  0.00  0.00    -0.096 F 
ATOM      9  I   UNL d   1      -1.274  -3.449   1.638  0.00  0.00    -0.060 I 
ATOM     10  F2  UNL d   1      -3.505  -3.551  -0.654  0.00  0.00    -0.096 F 
ATOM     11  F3  UNL d   1      -3.783  -2.155  -2.958  0.00  0.00    -0.097 F 
ATOM     12  F4  UNL d   1      -1.944  -0.264  -3.656  0.00  0.00    -0.092 F 
ENDROOT
TORSDOF 0
ENDMDL
