MODEL 1
REMARK minimizedAffinity -1.75969112
REMARK minimizedRMSD -1
REMARK  0 active torsions:
REMARK  status: ('A' for Active; 'I' for Inactive)
ROOT
ATOM      1  C   UNL d   1       1.369   1.781   0.459  0.00  0.00     0.124 A 
ATOM      2  C1  UNL d   1       1.810   0.801  -0.420  0.00  0.00     0.062 A 
ATOM      3  C2  UNL d   1       1.166  -0.432  -0.474  0.00  0.00     0.162 A 
ATOM      4  C3  UNL d   1       0.074  -0.692   0.353  0.00  0.00    -0.034 A 
ATOM      5  C4  UNL d   1      -0.363   0.298   1.235  0.00  0.00     0.162 A 
ATOM      6  C5  UNL d   1       0.284   1.528   1.285  0.00  0.00     0.062 A 
ATOM      7  F   UNL d   1      -0.144   2.474   2.135  0.00  0.00    -0.097 F 
ATOM      8  F1  UNL d   1      -1.410   0.081   2.045  0.00  0.00    -0.096 F 
ATOM      9  I   UNL d   1      -0.891  -2.534   0.275  0.00  0.00    -0.060 I 
ATOM     10  F2  UNL d   1       1.614  -1.360  -1.333  0.00  0.00    -0.096 F 
ATOM     11  F3  UNL d   1       2.859   1.042  -1.219  0.00  0.00    -0.097 F 
ATOM     12  F4  UNL d   1       1.991   2.966   0.509  0.00  0.00    -0.092 F 
ENDROOT
TORSDOF 0
ENDMDL
