MODEL 1
REMARK minimizedAffinity -0.110084616
REMARK minimizedRMSD -1
REMARK  0 active torsions:
REMARK  status: ('A' for Active; 'I' for Inactive)
ROOT
ATOM      1  C   UNL d   1       1.127   1.975   0.926  0.00  0.00     0.124 A 
ATOM      2  C1  UNL d   1       0.097   1.484   1.716  0.00  0.00     0.062 A 
ATOM      3  C2  UNL d   1      -0.625   0.365   1.308  0.00  0.00     0.162 A 
ATOM      4  C3  UNL d   1      -0.318  -0.271   0.106  0.00  0.00    -0.034 A 
ATOM      5  C4  UNL d   1       0.719   0.230  -0.684  0.00  0.00     0.162 A 
ATOM      6  C5  UNL d   1       1.437   1.348  -0.272  0.00  0.00     0.062 A 
ATOM      7  F   UNL d   1       2.432   1.821  -1.037  0.00  0.00    -0.097 F 
ATOM      8  F1  UNL d   1       1.041  -0.357  -1.846  0.00  0.00    -0.096 F 
ATOM      9  I   UNL d   1      -1.395  -1.943  -0.507  0.00  0.00    -0.060 I 
ATOM     10  F2  UNL d   1      -1.616  -0.087   2.091  0.00  0.00    -0.096 F 
ATOM     11  F3  UNL d   1      -0.206   2.089   2.873  0.00  0.00    -0.097 F 
ATOM     12  F4  UNL d   1       1.819   3.052   1.320  0.00  0.00    -0.092 F 
ENDROOT
TORSDOF 0
ENDMDL
