MODEL 1
REMARK minimizedAffinity -3.28996325
REMARK minimizedRMSD -1
REMARK  0 active torsions:
REMARK  status: ('A' for Active; 'I' for Inactive)
ROOT
ATOM      1  C   UNL d   1       1.419   1.798   0.681  0.00  0.00     0.124 A 
ATOM      2  C1  UNL d   1       0.289   1.582   1.457  0.00  0.00     0.062 A 
ATOM      3  C2  UNL d   1      -0.343   0.342   1.443  0.00  0.00     0.162 A 
ATOM      4  C3  UNL d   1       0.155  -0.693   0.650  0.00  0.00    -0.034 A 
ATOM      5  C4  UNL d   1       1.291  -0.468  -0.128  0.00  0.00     0.162 A 
ATOM      6  C5  UNL d   1       1.919   0.774  -0.111  0.00  0.00     0.062 A 
ATOM      7  F   UNL d   1       3.011   0.981  -0.861  0.00  0.00    -0.097 F 
ATOM      8  F1  UNL d   1       1.796  -1.440  -0.902  0.00  0.00    -0.096 F 
ATOM      9  I   UNL d   1      -0.787  -2.549   0.626  0.00  0.00    -0.060 I 
ATOM     10  F2  UNL d   1      -1.433   0.161   2.203  0.00  0.00    -0.096 F 
ATOM     11  F3  UNL d   1      -0.196   2.570   2.222  0.00  0.00    -0.097 F 
ATOM     12  F4  UNL d   1       2.025   2.992   0.696  0.00  0.00    -0.092 F 
ENDROOT
TORSDOF 0
ENDMDL
