MODEL 1
REMARK minimizedAffinity -1.43829906
REMARK minimizedRMSD -1
REMARK  0 active torsions:
REMARK  status: ('A' for Active; 'I' for Inactive)
ROOT
ATOM      1  C   UNL d   1      -2.781  -2.437  -2.038  0.00  0.00     0.124 A 
ATOM      2  C1  UNL d   1      -2.098  -2.812  -0.890  0.00  0.00     0.062 A 
ATOM      3  C2  UNL d   1      -0.832  -2.296  -0.629  0.00  0.00     0.162 A 
ATOM      4  C3  UNL d   1      -0.240  -1.399  -1.519  0.00  0.00    -0.034 A 
ATOM      5  C4  UNL d   1      -0.934  -1.028  -2.672  0.00  0.00     0.162 A 
ATOM      6  C5  UNL d   1      -2.199  -1.546  -2.928  0.00  0.00     0.062 A 
ATOM      7  F   UNL d   1      -2.858  -1.183  -4.038  0.00  0.00    -0.097 F 
ATOM      8  F1  UNL d   1      -0.395  -0.167  -3.549  0.00  0.00    -0.096 F 
ATOM      9  I   UNL d   1       1.653  -0.626  -1.133  0.00  0.00    -0.060 I 
ATOM     10  F2  UNL d   1      -0.194  -2.676   0.488  0.00  0.00    -0.096 F 
ATOM     11  F3  UNL d   1      -2.658  -3.674  -0.029  0.00  0.00    -0.097 F 
ATOM     12  F4  UNL d   1      -3.999  -2.936  -2.287  0.00  0.00    -0.092 F 
ENDROOT
TORSDOF 0
ENDMDL
