MODEL 1
REMARK minimizedAffinity -2.2408092
REMARK minimizedRMSD -1
REMARK  0 active torsions:
REMARK  status: ('A' for Active; 'I' for Inactive)
ROOT
ATOM      1  C   UNL d   1       1.758   1.840   0.368  0.00  0.00     0.124 A 
ATOM      2  C1  UNL d   1       1.970   0.829  -0.558  0.00  0.00     0.062 A 
ATOM      3  C2  UNL d   1       1.228  -0.347  -0.493  0.00  0.00     0.162 A 
ATOM      4  C3  UNL d   1       0.266  -0.518   0.503  0.00  0.00    -0.034 A 
ATOM      5  C4  UNL d   1       0.059   0.504   1.431  0.00  0.00     0.162 A 
ATOM      6  C5  UNL d   1       0.803   1.677   1.361  0.00  0.00     0.062 A 
ATOM      7  F   UNL d   1       0.597   2.653   2.257  0.00  0.00    -0.097 F 
ATOM      8  F1  UNL d   1      -0.858   0.373   2.401  0.00  0.00    -0.096 F 
ATOM      9  I   UNL d   1      -0.845  -2.275   0.604  0.00  0.00    -0.060 I 
ATOM     10  F2  UNL d   1       1.454  -1.308  -1.401  0.00  0.00    -0.096 F 
ATOM     11  F3  UNL d   1       2.893   0.984  -1.519  0.00  0.00    -0.097 F 
ATOM     12  F4  UNL d   1       2.474   2.970   0.303  0.00  0.00    -0.092 F 
ENDROOT
TORSDOF 0
ENDMDL
