MODEL 1
REMARK minimizedAffinity -1.26945055
REMARK minimizedRMSD -1
REMARK  0 active torsions:
REMARK  status: ('A' for Active; 'I' for Inactive)
ROOT
ATOM      1  C   UNL d   1      -2.896  -2.746  -2.025  0.00  0.00     0.124 A 
ATOM      2  C1  UNL d   1      -2.356  -1.905  -2.989  0.00  0.00     0.062 A 
ATOM      3  C2  UNL d   1      -1.172  -1.220  -2.736  0.00  0.00     0.162 A 
ATOM      4  C3  UNL d   1      -0.517  -1.373  -1.514  0.00  0.00    -0.034 A 
ATOM      5  C4  UNL d   1      -1.066  -2.219  -0.549  0.00  0.00     0.162 A 
ATOM      6  C5  UNL d   1      -2.250  -2.902  -0.806  0.00  0.00     0.062 A 
ATOM      7  F   UNL d   1      -2.769  -3.714   0.126  0.00  0.00    -0.097 F 
ATOM      8  F1  UNL d   1      -0.462  -2.389   0.636  0.00  0.00    -0.096 F 
ATOM      9  I   UNL d   1       1.255  -0.350  -1.133  0.00  0.00    -0.060 I 
ATOM     10  F2  UNL d   1      -0.674  -0.414  -3.686  0.00  0.00    -0.096 F 
ATOM     11  F3  UNL d   1      -2.979  -1.752  -4.166  0.00  0.00    -0.097 F 
ATOM     12  F4  UNL d   1      -4.036  -3.403  -2.270  0.00  0.00    -0.092 F 
ENDROOT
TORSDOF 0
ENDMDL
