MODEL 1
REMARK minimizedAffinity -1.48242927
REMARK minimizedRMSD -1
REMARK  0 active torsions:
REMARK  status: ('A' for Active; 'I' for Inactive)
ROOT
ATOM      1  C   UNL d   1       1.235  -1.494  -1.217  0.00  0.00     0.124 A 
ATOM      2  C1  UNL d   1       2.323  -0.633  -1.175  0.00  0.00     0.062 A 
ATOM      3  C2  UNL d   1       2.235   0.573  -0.485  0.00  0.00     0.162 A 
ATOM      4  C3  UNL d   1       1.055   0.924   0.170  0.00  0.00    -0.034 A 
ATOM      5  C4  UNL d   1      -0.035   0.053   0.123  0.00  0.00     0.162 A 
ATOM      6  C5  UNL d   1       0.058  -1.150  -0.568  0.00  0.00     0.062 A 
ATOM      7  F   UNL d   1      -0.994  -1.981  -0.607  0.00  0.00    -0.097 F 
ATOM      8  F1  UNL d   1      -1.185   0.360   0.742  0.00  0.00    -0.096 F 
ATOM      9  I   UNL d   1       0.919   2.726   1.203  0.00  0.00    -0.060 I 
ATOM     10  F2  UNL d   1       3.302   1.386  -0.462  0.00  0.00    -0.096 F 
ATOM     11  F3  UNL d   1       3.461  -0.962  -1.802  0.00  0.00    -0.097 F 
ATOM     12  F4  UNL d   1       1.322  -2.653  -1.882  0.00  0.00    -0.092 F 
ENDROOT
TORSDOF 0
ENDMDL
