MODEL 1
REMARK minimizedAffinity -3.77846527
REMARK minimizedRMSD -1
REMARK  0 active torsions:
REMARK  status: ('A' for Active; 'I' for Inactive)
ROOT
ATOM      1  C   UNL d   1       1.232   1.885   0.647  0.00  0.00     0.124 A 
ATOM      2  C1  UNL d   1       0.144   1.566   1.449  0.00  0.00     0.062 A 
ATOM      3  C2  UNL d   1      -0.457   0.315   1.348  0.00  0.00     0.162 A 
ATOM      4  C3  UNL d   1       0.029  -0.629   0.443  0.00  0.00    -0.034 A 
ATOM      5  C4  UNL d   1       1.123  -0.301  -0.360  0.00  0.00     0.162 A 
ATOM      6  C5  UNL d   1       1.720   0.951  -0.256  0.00  0.00     0.062 A 
ATOM      7  F   UNL d   1       2.771   1.257  -1.031  0.00  0.00    -0.097 F 
ATOM      8  F1  UNL d   1       1.616  -1.184  -1.241  0.00  0.00    -0.096 F 
ATOM      9  I   UNL d   1      -0.866  -2.501   0.290  0.00  0.00    -0.060 I 
ATOM     10  F2  UNL d   1      -1.506   0.034   2.135  0.00  0.00    -0.096 F 
ATOM     11  F3  UNL d   1      -0.330   2.466   2.322  0.00  0.00    -0.097 F 
ATOM     12  F4  UNL d   1       1.807   3.090   0.746  0.00  0.00    -0.092 F 
ENDROOT
TORSDOF 0
ENDMDL
