MODEL 1
REMARK minimizedAffinity 0.731332481
REMARK minimizedRMSD -1
REMARK  0 active torsions:
REMARK  status: ('A' for Active; 'I' for Inactive)
ROOT
ATOM      1  C   UNL d   1      -3.531  -2.592  -1.961  0.00  0.00     0.124 A 
ATOM      2  C1  UNL d   1      -2.850  -1.784  -2.862  0.00  0.00     0.062 A 
ATOM      3  C2  UNL d   1      -1.609  -1.251  -2.525  0.00  0.00     0.162 A 
ATOM      4  C3  UNL d   1      -1.040  -1.525  -1.281  0.00  0.00    -0.034 A 
ATOM      5  C4  UNL d   1      -1.730  -2.337  -0.380  0.00  0.00     0.162 A 
ATOM      6  C5  UNL d   1      -2.970  -2.867  -0.722  0.00  0.00     0.062 A 
ATOM      7  F   UNL d   1      -3.626  -3.647   0.150  0.00  0.00    -0.097 F 
ATOM      8  F1  UNL d   1      -1.212  -2.620   0.824  0.00  0.00    -0.096 F 
ATOM      9  I   UNL d   1       0.816  -0.729  -0.774  0.00  0.00    -0.060 I 
ATOM     10  F2  UNL d   1      -0.974  -0.474  -3.415  0.00  0.00    -0.096 F 
ATOM     11  F3  UNL d   1      -3.390  -1.516  -4.060  0.00  0.00    -0.097 F 
ATOM     12  F4  UNL d   1      -4.725  -3.102  -2.287  0.00  0.00    -0.092 F 
ENDROOT
TORSDOF 0
ENDMDL
