MODEL 1
REMARK minimizedAffinity 2.70048571
REMARK minimizedRMSD -1
REMARK  0 active torsions:
REMARK  status: ('A' for Active; 'I' for Inactive)
ROOT
ATOM      1  C   UNL d   1      -1.491  -0.925  -2.650  0.00  0.00     0.124 A 
ATOM      2  C1  UNL d   1      -2.277  -2.039  -2.390  0.00  0.00     0.062 A 
ATOM      3  C2  UNL d   1      -2.290  -2.605  -1.118  0.00  0.00     0.162 A 
ATOM      4  C3  UNL d   1      -1.516  -2.056  -0.096  0.00  0.00    -0.034 A 
ATOM      5  C4  UNL d   1      -0.727  -0.936  -0.365  0.00  0.00     0.162 A 
ATOM      6  C5  UNL d   1      -0.717  -0.375  -1.638  0.00  0.00     0.062 A 
ATOM      7  F   UNL d   1       0.042   0.702  -1.888  0.00  0.00    -0.097 F 
ATOM      8  F1  UNL d   1       0.029  -0.383   0.594  0.00  0.00    -0.096 F 
ATOM      9  I   UNL d   1      -1.533  -2.898   1.808  0.00  0.00    -0.060 I 
ATOM     10  F2  UNL d   1      -3.059  -3.681  -0.895  0.00  0.00    -0.096 F 
ATOM     11  F3  UNL d   1      -3.024  -2.574  -3.366  0.00  0.00    -0.097 F 
ATOM     12  F4  UNL d   1      -1.479  -0.384  -3.875  0.00  0.00    -0.092 F 
ENDROOT
TORSDOF 0
ENDMDL
