MODEL 1
REMARK minimizedAffinity -3.6517477
REMARK minimizedRMSD -1
REMARK  0 active torsions:
REMARK  status: ('A' for Active; 'I' for Inactive)
ROOT
ATOM      1  C   UNL d   1      -1.297  -0.687  -2.079  0.00  0.00     0.124 A 
ATOM      2  C1  UNL d   1      -0.531  -0.152  -1.053  0.00  0.00     0.062 A 
ATOM      3  C2  UNL d   1      -0.565  -0.721   0.217  0.00  0.00     0.162 A 
ATOM      4  C3  UNL d   1      -1.369  -1.833   0.468  0.00  0.00    -0.034 A 
ATOM      5  C4  UNL d   1      -2.137  -2.365  -0.569  0.00  0.00     0.162 A 
ATOM      6  C5  UNL d   1      -2.099  -1.793  -1.836  0.00  0.00     0.062 A 
ATOM      7  F   UNL d   1      -2.840  -2.311  -2.826  0.00  0.00    -0.097 F 
ATOM      8  F1  UNL d   1      -2.921  -3.434  -0.363  0.00  0.00    -0.096 F 
ATOM      9  I   UNL d   1      -1.424  -2.687   2.365  0.00  0.00    -0.060 I 
ATOM     10  F2  UNL d   1       0.185  -0.183   1.190  0.00  0.00    -0.096 F 
ATOM     11  F3  UNL d   1       0.245   0.918  -1.284  0.00  0.00    -0.097 F 
ATOM     12  F4  UNL d   1      -1.262  -0.136  -3.299  0.00  0.00    -0.092 F 
ENDROOT
TORSDOF 0
ENDMDL
