MODEL 1
REMARK minimizedAffinity 13.2422686
REMARK minimizedRMSD -1
REMARK  0 active torsions:
REMARK  status: ('A' for Active; 'I' for Inactive)
ROOT
ATOM      1  C   UNL d   1       3.381   3.638   0.109  0.00  0.00    -0.002 A 
ATOM      2  C1  UNL d   1       4.417   4.446   0.556  0.00  0.00     0.010 A 
ATOM      3  C2  UNL d   1       4.937   4.287   1.842  0.00  0.00     0.041 A 
ATOM      4  C3  UNL d   1       4.395   3.291   2.679  0.00  0.00    -0.075 A 
ATOM      5  S   UNL d   1       4.874   2.914   4.292  0.00  0.00     0.015 SA
ATOM      6  C4  UNL d   1       3.715   1.671   4.425  0.00  0.00     0.022 A 
ATOM      7  C5  UNL d   1       2.972   1.534   3.276  0.00  0.00     0.026 A 
ATOM      8  C6  UNL d   1       3.352   2.465   2.251  0.00  0.00    -0.082 A 
ATOM      9  C7  UNL d   1       2.845   2.651   0.942  0.00  0.00     0.045 A 
ENDROOT
TORSDOF 0
ENDMDL
