MODEL 1
REMARK minimizedAffinity 4.93473673
REMARK minimizedRMSD -1
REMARK  0 active torsions:
REMARK  status: ('A' for Active; 'I' for Inactive)
ROOT
ATOM      1  C   UNL d   1       4.185   4.795  -5.611  0.00  0.00    -0.002 A 
ATOM      2  C1  UNL d   1       5.399   4.750  -4.941  0.00  0.00     0.010 A 
ATOM      3  C2  UNL d   1       6.000   3.526  -4.641  0.00  0.00     0.041 A 
ATOM      4  C3  UNL d   1       5.355   2.336  -5.033  0.00  0.00    -0.075 A 
ATOM      5  S   UNL d   1       5.904   0.722  -4.774  0.00  0.00     0.015 SA
ATOM      6  C4  UNL d   1       4.540   0.055  -5.549  0.00  0.00     0.022 A 
ATOM      7  C5  UNL d   1       3.677   1.025  -5.999  0.00  0.00     0.026 A 
ATOM      8  C6  UNL d   1       4.132   2.356  -5.710  0.00  0.00    -0.082 A 
ATOM      9  C7  UNL d   1       3.548   3.613  -5.998  0.00  0.00     0.045 A 
ENDROOT
TORSDOF 0
ENDMDL
