MODEL 1
REMARK minimizedAffinity 0.0252579544
REMARK minimizedRMSD -1
REMARK  0 active torsions:
REMARK  status: ('A' for Active; 'I' for Inactive)
ROOT
ATOM      1  C   UNL d   1       4.764   3.038   2.598  0.00  0.00    -0.002 A 
ATOM      2  C1  UNL d   1       3.989   2.102   3.269  0.00  0.00     0.010 A 
ATOM      3  C2  UNL d   1       2.740   1.727   2.771  0.00  0.00     0.041 A 
ATOM      4  C3  UNL d   1       2.279   2.312   1.575  0.00  0.00    -0.075 A 
ATOM      5  S   UNL d   1       0.782   2.004   0.777  0.00  0.00     0.015 SA
ATOM      6  C4  UNL d   1       1.136   3.107  -0.473  0.00  0.00     0.022 A 
ATOM      7  C5  UNL d   1       2.363   3.704  -0.302  0.00  0.00     0.026 A 
ATOM      8  C6  UNL d   1       3.042   3.255   0.881  0.00  0.00    -0.082 A 
ATOM      9  C7  UNL d   1       4.304   3.616   1.412  0.00  0.00     0.045 A 
ENDROOT
TORSDOF 0
ENDMDL
