MODEL 1
REMARK minimizedAffinity 5.92381763
REMARK minimizedRMSD -1
REMARK  0 active torsions:
REMARK  status: ('A' for Active; 'I' for Inactive)
ROOT
ATOM      1  C   UNL d   1       4.920   4.097  -3.964  0.00  0.00    -0.002 A 
ATOM      2  C1  UNL d   1       5.317   4.174  -5.292  0.00  0.00     0.010 A 
ATOM      3  C2  UNL d   1       5.669   3.021  -5.996  0.00  0.00     0.041 A 
ATOM      4  C3  UNL d   1       5.613   1.776  -5.337  0.00  0.00    -0.075 A 
ATOM      5  S   UNL d   1       5.997   0.232  -6.000  0.00  0.00     0.015 SA
ATOM      6  C4  UNL d   1       5.643  -0.567  -4.536  0.00  0.00     0.022 A 
ATOM      7  C5  UNL d   1       5.241   0.308  -3.556  0.00  0.00     0.026 A 
ATOM      8  C6  UNL d   1       5.216   1.673  -4.001  0.00  0.00    -0.082 A 
ATOM      9  C7  UNL d   1       4.867   2.861  -3.314  0.00  0.00     0.045 A 
ENDROOT
TORSDOF 0
ENDMDL
