MODEL 1
REMARK minimizedAffinity 3.45498824
REMARK minimizedRMSD -1
REMARK  0 active torsions:
REMARK  status: ('A' for Active; 'I' for Inactive)
ROOT
ATOM      1  C   UNL d   1      -2.344  -3.818  -1.943  0.00  0.00    -0.002 A 
ATOM      2  C1  UNL d   1      -1.250  -3.163  -2.491  0.00  0.00     0.010 A 
ATOM      3  C2  UNL d   1      -0.435  -2.354  -1.696  0.00  0.00     0.041 A 
ATOM      4  C3  UNL d   1      -0.741  -2.215  -0.327  0.00  0.00    -0.075 A 
ATOM      5  S   UNL d   1       0.116  -1.277   0.839  0.00  0.00     0.015 SA
ATOM      6  C4  UNL d   1      -0.950  -1.725   2.091  0.00  0.00     0.022 A 
ATOM      7  C5  UNL d   1      -1.941  -2.568   1.648  0.00  0.00     0.026 A 
ATOM      8  C6  UNL d   1      -1.837  -2.865   0.247  0.00  0.00    -0.082 A 
ATOM      9  C7  UNL d   1      -2.644  -3.677  -0.586  0.00  0.00     0.045 A 
ENDROOT
TORSDOF 0
ENDMDL
