MODEL 1
REMARK minimizedAffinity 2.96223307
REMARK minimizedRMSD -1
REMARK  0 active torsions:
REMARK  status: ('A' for Active; 'I' for Inactive)
ROOT
ATOM      1  C   UNL d   1       4.711   3.773   2.280  0.00  0.00    -0.002 A 
ATOM      2  C1  UNL d   1       4.462   2.939   3.361  0.00  0.00     0.010 A 
ATOM      3  C2  UNL d   1       3.335   2.116   3.378  0.00  0.00     0.041 A 
ATOM      4  C3  UNL d   1       2.454   2.143   2.279  0.00  0.00    -0.075 A 
ATOM      5  S   UNL d   1       1.010   1.222   2.080  0.00  0.00     0.015 SA
ATOM      6  C4  UNL d   1       0.690   1.912   0.556  0.00  0.00     0.022 A 
ATOM      7  C5  UNL d   1       1.651   2.826   0.192  0.00  0.00     0.026 A 
ATOM      8  C6  UNL d   1       2.683   2.974   1.179  0.00  0.00    -0.082 A 
ATOM      9  C7  UNL d   1       3.835   3.798   1.191  0.00  0.00     0.045 A 
ENDROOT
TORSDOF 0
ENDMDL
