MODEL 1
REMARK minimizedAffinity 6.23998547
REMARK minimizedRMSD -1
REMARK  0 active torsions:
REMARK  status: ('A' for Active; 'I' for Inactive)
ROOT
ATOM      1  C   UNL d   1       5.060   3.862   3.060  0.00  0.00    -0.002 A 
ATOM      2  C1  UNL d   1       4.625   2.901   3.963  0.00  0.00     0.010 A 
ATOM      3  C2  UNL d   1       3.611   2.007   3.615  0.00  0.00     0.041 A 
ATOM      4  C3  UNL d   1       3.037   2.094   2.331  0.00  0.00    -0.075 A 
ATOM      5  S   UNL d   1       1.782   1.104   1.684  0.00  0.00     0.015 SA
ATOM      6  C4  UNL d   1       1.794   1.932   0.195  0.00  0.00     0.022 A 
ATOM      7  C5  UNL d   1       2.727   2.942   0.174  0.00  0.00     0.026 A 
ATOM      8  C6  UNL d   1       3.458   3.052   1.405  0.00  0.00    -0.082 A 
ATOM      9  C7  UNL d   1       4.488   3.945   1.788  0.00  0.00     0.045 A 
ENDROOT
TORSDOF 0
ENDMDL
