MODEL 1
REMARK minimizedAffinity 4.28252268
REMARK minimizedRMSD -1
REMARK  0 active torsions:
REMARK  status: ('A' for Active; 'I' for Inactive)
ROOT
ATOM      1  C   UNL d   1       5.148   3.668   3.529  0.00  0.00    -0.002 A 
ATOM      2  C1  UNL d   1       4.414   2.672   4.156  0.00  0.00     0.010 A 
ATOM      3  C2  UNL d   1       3.349   2.053   3.499  0.00  0.00     0.041 A 
ATOM      4  C3  UNL d   1       3.033   2.454   2.186  0.00  0.00    -0.075 A 
ATOM      5  S   UNL d   1       1.772   1.836   1.185  0.00  0.00     0.015 SA
ATOM      6  C4  UNL d   1       2.179   2.880  -0.100  0.00  0.00     0.022 A 
ATOM      7  C5  UNL d   1       3.248   3.687   0.210  0.00  0.00     0.026 A 
ATOM      8  C6  UNL d   1       3.758   3.455   1.532  0.00  0.00    -0.082 A 
ATOM      9  C7  UNL d   1       4.831   4.064   2.226  0.00  0.00     0.045 A 
ENDROOT
TORSDOF 0
ENDMDL
