MODEL 1
REMARK minimizedAffinity 4.15346956
REMARK minimizedRMSD -1
REMARK  0 active torsions:
REMARK  status: ('A' for Active; 'I' for Inactive)
ROOT
ATOM      1  C   UNL d   1       1.396   1.855   0.482  0.00  0.00    -0.002 A 
ATOM      2  C1  UNL d   1       1.932   2.895  -0.264  0.00  0.00     0.010 A 
ATOM      3  C2  UNL d   1       3.083   3.559   0.166  0.00  0.00     0.041 A 
ATOM      4  C3  UNL d   1       3.692   3.155   1.370  0.00  0.00    -0.075 A 
ATOM      5  S   UNL d   1       5.109   3.822   2.093  0.00  0.00     0.015 SA
ATOM      6  C4  UNL d   1       5.036   2.742   3.409  0.00  0.00     0.022 A 
ATOM      7  C5  UNL d   1       3.964   1.887   3.316  0.00  0.00     0.026 A 
ATOM      8  C6  UNL d   1       3.172   2.110   2.139  0.00  0.00    -0.082 A 
ATOM      9  C7  UNL d   1       2.004   1.458   1.676  0.00  0.00     0.045 A 
ENDROOT
TORSDOF 0
ENDMDL
