MODEL 1
REMARK minimizedAffinity 1.77198398
REMARK minimizedRMSD -1
REMARK  0 active torsions:
REMARK  status: ('A' for Active; 'I' for Inactive)
ROOT
ATOM      1  C   UNL d   1      -1.598  -4.847   4.014  0.00  0.00    -0.002 A 
ATOM      2  C1  UNL d   1      -1.685  -3.464   3.935  0.00  0.00     0.010 A 
ATOM      3  C2  UNL d   1      -1.632  -2.818   2.699  0.00  0.00     0.041 A 
ATOM      4  C3  UNL d   1      -1.492  -3.592   1.530  0.00  0.00    -0.075 A 
ATOM      5  S   UNL d   1      -1.406  -3.019  -0.093  0.00  0.00     0.015 SA
ATOM      6  C4  UNL d   1      -1.253  -4.596  -0.721  0.00  0.00     0.022 A 
ATOM      7  C5  UNL d   1      -1.266  -5.549   0.270  0.00  0.00     0.026 A 
ATOM      8  C6  UNL d   1      -1.404  -4.986   1.584  0.00  0.00    -0.082 A 
ATOM      9  C7  UNL d   1      -1.459  -5.612   2.852  0.00  0.00     0.045 A 
ENDROOT
TORSDOF 0
ENDMDL
