MODEL 1
REMARK minimizedAffinity 7.82100868
REMARK minimizedRMSD -1
REMARK  0 active torsions:
REMARK  status: ('A' for Active; 'I' for Inactive)
ROOT
ATOM      1  C   UNL d   1       4.906   4.958   0.413  0.00  0.00    -0.002 A 
ATOM      2  C1  UNL d   1       3.940   4.199  -0.232  0.00  0.00     0.010 A 
ATOM      3  C2  UNL d   1       3.325   3.129   0.421  0.00  0.00     0.041 A 
ATOM      4  C3  UNL d   1       3.700   2.833   1.747  0.00  0.00    -0.075 A 
ATOM      5  S   UNL d   1       3.082   1.570   2.744  0.00  0.00     0.015 SA
ATOM      6  C4  UNL d   1       4.085   2.009   4.050  0.00  0.00     0.022 A 
ATOM      7  C5  UNL d   1       4.879   3.091   3.750  0.00  0.00     0.026 A 
ATOM      8  C6  UNL d   1       4.670   3.584   2.417  0.00  0.00    -0.082 A 
ATOM      9  C7  UNL d   1       5.275   4.662   1.728  0.00  0.00     0.045 A 
ENDROOT
TORSDOF 0
ENDMDL
