MODEL 1
REMARK minimizedAffinity 0.217205882
REMARK minimizedRMSD -1
REMARK  0 active torsions:
REMARK  status: ('A' for Active; 'I' for Inactive)
ROOT
ATOM      1  C   UNL d   1      -0.461   4.271   4.603  0.00  0.00    -0.002 A 
ATOM      2  C1  UNL d   1      -1.776   3.828   4.588  0.00  0.00     0.010 A 
ATOM      3  C2  UNL d   1      -2.224   2.966   3.585  0.00  0.00     0.041 A 
ATOM      4  C3  UNL d   1      -1.318   2.550   2.590  0.00  0.00    -0.075 A 
ATOM      5  S   UNL d   1      -1.642   1.497   1.264  0.00  0.00     0.015 SA
ATOM      6  C4  UNL d   1      -0.042   1.608   0.687  0.00  0.00     0.022 A 
ATOM      7  C5  UNL d   1       0.734   2.425   1.475  0.00  0.00     0.026 A 
ATOM      8  C6  UNL d   1       0.012   2.981   2.584  0.00  0.00    -0.082 A 
ATOM      9  C7  UNL d   1       0.434   3.856   3.614  0.00  0.00     0.045 A 
ENDROOT
TORSDOF 0
ENDMDL
