MODEL 1
REMARK minimizedAffinity 8.25704479
REMARK minimizedRMSD -1
REMARK  0 active torsions:
REMARK  status: ('A' for Active; 'I' for Inactive)
ROOT
ATOM      1  C4' PXY d   1       1.664  -1.589   2.352  0.00  0.00     0.077 C 
ATOM      2  C1' PXY d   1      -2.387  -4.560  -0.508  0.00  0.00     0.077 C 
ATOM      3  C1  PXY d   1      -1.318  -3.792   0.244  0.00  0.00    -0.082 A 
ATOM      4  C2  PXY d   1      -1.617  -2.629   0.801  0.00  0.00     0.003 A 
ATOM      5  C3  PXY d   1      -0.655  -1.906   1.457  0.00  0.00     0.003 A 
ATOM      6  C4  PXY d   1       0.614  -2.404   1.591  0.00  0.00    -0.082 A 
ATOM      7  C5  PXY d   1       0.924  -3.594   1.036  0.00  0.00     0.003 A 
ATOM      8  C6  PXY d   1      -0.057  -4.293   0.338  0.00  0.00     0.003 A 
ENDROOT
TORSDOF 0
ENDMDL
