MODEL 1
REMARK minimizedAffinity 11.2875147
REMARK minimizedRMSD -1
REMARK  0 active torsions:
REMARK  status: ('A' for Active; 'I' for Inactive)
ROOT
ATOM      1  C4' PXY d   1      -2.544  -4.369   0.419  0.00  0.00     0.077 C 
ATOM      2  C1' PXY d   1       1.774  -1.068   2.388  0.00  0.00     0.077 C 
ATOM      3  C1  PXY d   1       0.633  -1.926   1.878  0.00  0.00    -0.082 A 
ATOM      4  C2  PXY d   1       0.850  -3.198   1.586  0.00  0.00     0.003 A 
ATOM      5  C3  PXY d   1      -0.162  -3.980   1.093  0.00  0.00     0.003 A 
ATOM      6  C4  PXY d   1      -1.424  -3.468   0.947  0.00  0.00    -0.082 A 
ATOM      7  C5  PXY d   1      -1.656  -2.174   1.252  0.00  0.00     0.003 A 
ATOM      8  C6  PXY d   1      -0.605  -1.386   1.712  0.00  0.00     0.003 A 
ENDROOT
TORSDOF 0
ENDMDL
