MODEL 1
REMARK minimizedAffinity 8.27284241
REMARK minimizedRMSD -1
REMARK  0 active torsions:
REMARK  status: ('A' for Active; 'I' for Inactive)
ROOT
ATOM      1  C4' PXY d   1       1.078  -1.737   5.448  0.00  0.00     0.077 C 
ATOM      2  C1' PXY d   1       3.082  -1.820   0.027  0.00  0.00     0.077 C 
ATOM      3  C1  PXY d   1       2.557  -1.785   1.449  0.00  0.00    -0.082 A 
ATOM      4  C2  PXY d   1       2.700  -2.848   2.224  0.00  0.00     0.003 A 
ATOM      5  C3  PXY d   1       2.203  -2.845   3.502  0.00  0.00     0.003 A 
ATOM      6  C4  PXY d   1       1.601  -1.724   4.009  0.00  0.00    -0.082 A 
ATOM      7  C5  PXY d   1       1.462  -0.632   3.227  0.00  0.00     0.003 A 
ATOM      8  C6  PXY d   1       1.936  -0.670   1.920  0.00  0.00     0.003 A 
ENDROOT
TORSDOF 0
ENDMDL
