MODEL 1
REMARK minimizedAffinity 2.22809434
REMARK minimizedRMSD -1
REMARK  0 active torsions:
REMARK  status: ('A' for Active; 'I' for Inactive)
ROOT
ATOM      1  C4' PXY d   1      -3.101   0.490  -3.120  0.00  0.00     0.077 C 
ATOM      2  C1' PXY d   1      -4.739   5.999  -3.739  0.00  0.00     0.077 C 
ATOM      3  C1  PXY d   1      -4.313   4.552  -3.589  0.00  0.00    -0.082 A 
ATOM      4  C2  PXY d   1      -4.291   3.997  -2.388  0.00  0.00     0.003 A 
ATOM      5  C3  PXY d   1      -3.878   2.700  -2.231  0.00  0.00     0.003 A 
ATOM      6  C4  PXY d   1      -3.534   1.945  -3.320  0.00  0.00    -0.082 A 
ATOM      7  C5  PXY d   1      -3.564   2.500  -4.550  0.00  0.00     0.003 A 
ATOM      8  C6  PXY d   1      -3.947   3.831  -4.684  0.00  0.00     0.003 A 
ENDROOT
TORSDOF 0
ENDMDL
