MODEL 1
REMARK minimizedAffinity 10.4133205
REMARK minimizedRMSD -1
REMARK  0 active torsions:
REMARK  status: ('A' for Active; 'I' for Inactive)
ROOT
ATOM      1  C4' PXY d   1      -2.701   0.384  -2.071  0.00  0.00     0.077 C 
ATOM      2  C1' PXY d   1      -4.570   5.481  -4.055  0.00  0.00     0.077 C 
ATOM      3  C1  PXY d   1      -4.081   4.139  -3.547  0.00  0.00    -0.082 A 
ATOM      4  C2  PXY d   1      -4.203   3.842  -2.263  0.00  0.00     0.003 A 
ATOM      5  C3  PXY d   1      -3.737   2.646  -1.781  0.00  0.00     0.003 A 
ATOM      6  C4  PXY d   1      -3.189   1.723  -2.630  0.00  0.00    -0.082 A 
ATOM      7  C5  PXY d   1      -3.070   2.014  -3.943  0.00  0.00     0.003 A 
ATOM      8  C6  PXY d   1      -3.512   3.251  -4.406  0.00  0.00     0.003 A 
ENDROOT
TORSDOF 0
ENDMDL
