MODEL 1
REMARK minimizedAffinity 13.9769773
REMARK minimizedRMSD -1
REMARK  0 active torsions:
REMARK  status: ('A' for Active; 'I' for Inactive)
ROOT
ATOM      1  C4' PXY d   1       1.116  -3.003   6.000  0.00  0.00     0.077 C 
ATOM      2  C1' PXY d   1       2.318  -1.469   0.557  0.00  0.00     0.077 C 
ATOM      3  C1  PXY d   1       2.005  -1.884   1.982  0.00  0.00    -0.082 A 
ATOM      4  C2  PXY d   1       1.225  -1.120   2.729  0.00  0.00     0.003 A 
ATOM      5  C3  PXY d   1       0.958  -1.464   4.029  0.00  0.00     0.003 A 
ATOM      6  C4  PXY d   1       1.451  -2.629   4.553  0.00  0.00    -0.082 A 
ATOM      7  C5  PXY d   1       2.239  -3.419   3.794  0.00  0.00     0.003 A 
ATOM      8  C6  PXY d   1       2.532  -3.031   2.490  0.00  0.00     0.003 A 
ENDROOT
TORSDOF 0
ENDMDL
