MODEL 1
REMARK minimizedAffinity 5.2662735
REMARK minimizedRMSD -1
REMARK  0 active torsions:
REMARK  status: ('A' for Active; 'I' for Inactive)
ROOT
ATOM      1  C4' PXY d   1      -4.781   5.703  -6.000  0.00  0.00     0.077 C 
ATOM      2  C1' PXY d   1      -3.188   1.112  -2.868  0.00  0.00     0.077 C 
ATOM      3  C1  PXY d   1      -3.613   2.320  -3.680  0.00  0.00    -0.082 A 
ATOM      4  C2  PXY d   1      -3.572   2.268  -5.001  0.00  0.00     0.003 A 
ATOM      5  C3  PXY d   1      -3.922   3.362  -5.750  0.00  0.00     0.003 A 
ATOM      6  C4  PXY d   1      -4.370   4.504  -5.141  0.00  0.00    -0.082 A 
ATOM      7  C5  PXY d   1      -4.425   4.561  -3.793  0.00  0.00     0.003 A 
ATOM      8  C6  PXY d   1      -4.026   3.454  -3.050  0.00  0.00     0.003 A 
ENDROOT
TORSDOF 0
ENDMDL
