MODEL 1
REMARK minimizedAffinity 4.8117342
REMARK minimizedRMSD -1
REMARK  0 active torsions:
REMARK  status: ('A' for Active; 'I' for Inactive)
ROOT
ATOM      1  C4' PXY d   1       2.989  -1.890   0.511  0.00  0.00     0.077 C 
ATOM      2  C1' PXY d   1       1.197  -2.157   6.000  0.00  0.00     0.077 C 
ATOM      3  C1  PXY d   1       1.658  -2.078   4.558  0.00  0.00    -0.082 A 
ATOM      4  C2  PXY d   1       2.312  -3.097   4.023  0.00  0.00     0.003 A 
ATOM      5  C3  PXY d   1       2.764  -3.029   2.730  0.00  0.00     0.003 A 
ATOM      6  C4  PXY d   1       2.497  -1.929   1.960  0.00  0.00    -0.082 A 
ATOM      7  C5  PXY d   1       1.821  -0.891   2.494  0.00  0.00     0.003 A 
ATOM      8  C6  PXY d   1       1.406  -0.962   3.821  0.00  0.00     0.003 A 
ENDROOT
TORSDOF 0
ENDMDL
