MODEL 1
REMARK minimizedAffinity 6.93278503
REMARK minimizedRMSD -1
REMARK  0 active torsions:
REMARK  status: ('A' for Active; 'I' for Inactive)
ROOT
ATOM      1  C4' PXY d   1       2.325  -4.470  -2.254  0.00  0.00     0.077 C 
ATOM      2  C1' PXY d   1      -2.842  -4.294   0.331  0.00  0.00     0.077 C 
ATOM      3  C1  PXY d   1      -1.481  -4.337  -0.335  0.00  0.00    -0.082 A 
ATOM      4  C2  PXY d   1      -1.386  -4.143  -1.641  0.00  0.00     0.003 A 
ATOM      5  C3  PXY d   1      -0.167  -4.210  -2.265  0.00  0.00     0.003 A 
ATOM      6  C4  PXY d   1       0.973  -4.426  -1.537  0.00  0.00    -0.082 A 
ATOM      7  C5  PXY d   1       0.885  -4.615  -0.204  0.00  0.00     0.003 A 
ATOM      8  C6  PXY d   1      -0.367  -4.584   0.405  0.00  0.00     0.003 A 
ENDROOT
TORSDOF 0
ENDMDL
