MODEL 1
REMARK minimizedAffinity 13.7749681
REMARK minimizedRMSD -1
REMARK  0 active torsions:
REMARK  status: ('A' for Active; 'I' for Inactive)
ROOT
ATOM      1  C4' PXY d   1      -2.554  -5.397   0.294  0.00  0.00     0.077 C 
ATOM      2  C1' PXY d   1       2.758  -4.747  -1.890  0.00  0.00     0.077 C 
ATOM      3  C1  PXY d   1       1.370  -4.919  -1.306  0.00  0.00    -0.082 A 
ATOM      4  C2  PXY d   1       0.380  -5.329  -2.081  0.00  0.00     0.003 A 
ATOM      5  C3  PXY d   1      -0.888  -5.460  -1.576  0.00  0.00     0.003 A 
ATOM      6  C4  PXY d   1      -1.135  -5.218  -0.251  0.00  0.00    -0.082 A 
ATOM      7  C5  PXY d   1      -0.127  -4.809   0.549  0.00  0.00     0.003 A 
ATOM      8  C6  PXY d   1       1.144  -4.643   0.008  0.00  0.00     0.003 A 
ENDROOT
TORSDOF 0
ENDMDL
