MODEL 1
REMARK minimizedAffinity 11.7280912
REMARK minimizedRMSD -1
REMARK  0 active torsions:
REMARK  status: ('A' for Active; 'I' for Inactive)
ROOT
ATOM      1  C   UNL d   1      -3.801  -2.633   5.262  0.00  0.00     0.020 A 
ATOM      2  C1  UNL d   1      -3.712  -2.711   3.872  0.00  0.00     0.020 A 
ATOM      3  C2  UNL d   1      -3.549  -1.548   3.117  0.00  0.00     0.034 A 
ATOM      4  C3  UNL d   1      -3.475  -0.302   3.750  0.00  0.00     0.017 A 
ATOM      5  C4  UNL d   1      -3.565  -0.225   5.145  0.00  0.00     0.017 A 
ATOM      6  C5  UNL d   1      -3.728  -1.393   5.896  0.00  0.00     0.034 A 
ATOM      7 Cl   UNL d   1      -3.482   1.276   5.997  0.00  0.00    -0.070 Cl
ATOM      8 Cl1  UNL d   1      -3.274   1.095   2.754  0.00  0.00    -0.070 Cl
ENDROOT
TORSDOF 0
ENDMDL
