MODEL 1
REMARK minimizedAffinity 11.3517456
REMARK minimizedRMSD -1
REMARK  0 active torsions:
REMARK  status: ('A' for Active; 'I' for Inactive)
ROOT
ATOM      1  C   UNL d   1      -3.891  -2.027   4.056  0.00  0.00     0.020 A 
ATOM      2  C1  UNL d   1      -3.800  -1.836   5.434  0.00  0.00     0.020 A 
ATOM      3  C2  UNL d   1      -3.502  -0.571   5.946  0.00  0.00     0.034 A 
ATOM      4  C3  UNL d   1      -3.295   0.508   5.079  0.00  0.00     0.017 A 
ATOM      5  C4  UNL d   1      -3.387   0.316   3.696  0.00  0.00     0.017 A 
ATOM      6  C5  UNL d   1      -3.685  -0.953   3.189  0.00  0.00     0.034 A 
ATOM      7 Cl   UNL d   1      -3.144   1.599   2.563  0.00  0.00    -0.070 Cl
ATOM      8 Cl1  UNL d   1      -2.930   2.044   5.781  0.00  0.00    -0.070 Cl
ENDROOT
TORSDOF 0
ENDMDL
