MODEL 1
REMARK minimizedAffinity 11.4259176
REMARK minimizedRMSD -1
REMARK  0 active torsions:
REMARK  status: ('A' for Active; 'I' for Inactive)
ROOT
ATOM      1  C   UNL d   1       3.233  -0.605  -0.192  0.00  0.00     0.020 A 
ATOM      2  C1  UNL d   1       2.285  -0.257  -1.153  0.00  0.00     0.020 A 
ATOM      3  C2  UNL d   1       1.563  -1.253  -1.814  0.00  0.00     0.034 A 
ATOM      4  C3  UNL d   1       1.787  -2.602  -1.515  0.00  0.00     0.017 A 
ATOM      5  C4  UNL d   1       2.739  -2.950  -0.550  0.00  0.00     0.017 A 
ATOM      6  C5  UNL d   1       3.459  -1.949   0.109  0.00  0.00     0.034 A 
ATOM      7 Cl   UNL d   1       3.071  -4.593  -0.126  0.00  0.00    -0.070 Cl
ATOM      8 Cl1  UNL d   1       0.857  -3.780  -2.371  0.00  0.00    -0.070 Cl
ENDROOT
TORSDOF 0
ENDMDL
