MODEL 1
REMARK minimizedAffinity 7.22679138
REMARK minimizedRMSD -1
REMARK  0 active torsions:
REMARK  status: ('A' for Active; 'I' for Inactive)
ROOT
ATOM      1  C   UNL d   1       3.741   2.132  -0.152  0.00  0.00     0.020 A 
ATOM      2  C1  UNL d   1       4.379   1.392   0.842  0.00  0.00     0.020 A 
ATOM      3  C2  UNL d   1       4.181   0.011   0.920  0.00  0.00     0.034 A 
ATOM      4  C3  UNL d   1       3.344  -0.633   0.002  0.00  0.00     0.017 A 
ATOM      5  C4  UNL d   1       2.704   0.111  -0.996  0.00  0.00     0.017 A 
ATOM      6  C5  UNL d   1       2.905   1.493  -1.069  0.00  0.00     0.034 A 
ATOM      7 Cl   UNL d   1       1.656  -0.613  -2.164  0.00  0.00    -0.070 Cl
ATOM      8 Cl1  UNL d   1       3.146  -2.342   0.157  0.00  0.00    -0.070 Cl
ENDROOT
TORSDOF 0
ENDMDL
