MODEL 1
REMARK minimizedAffinity 13.6300726
REMARK minimizedRMSD -1
REMARK  0 active torsions:
REMARK  status: ('A' for Active; 'I' for Inactive)
ROOT
ATOM      1  C   UNL d   1       3.347   1.885  -0.807  0.00  0.00     0.020 A 
ATOM      2  C1  UNL d   1       4.493   1.551  -0.086  0.00  0.00     0.020 A 
ATOM      3  C2  UNL d   1       4.784   0.211   0.182  0.00  0.00     0.034 A 
ATOM      4  C3  UNL d   1       3.929  -0.799  -0.272  0.00  0.00     0.017 A 
ATOM      5  C4  UNL d   1       2.779  -0.463  -0.995  0.00  0.00     0.017 A 
ATOM      6  C5  UNL d   1       2.492   0.880  -1.260  0.00  0.00     0.034 A 
ATOM      7 Cl   UNL d   1       1.675  -1.654  -1.588  0.00  0.00    -0.070 Cl
ATOM      8 Cl1  UNL d   1       4.351  -2.434   0.095  0.00  0.00    -0.070 Cl
ENDROOT
TORSDOF 0
ENDMDL
