MODEL 1
REMARK minimizedAffinity 24.6703777
REMARK minimizedRMSD -1
REMARK  0 active torsions:
REMARK  status: ('A' for Active; 'I' for Inactive)
ROOT
ATOM      1  C   UNL d   1       4.700   1.760   0.199  0.00  0.00     0.020 A 
ATOM      2  C1  UNL d   1       4.252   2.405   1.351  0.00  0.00     0.020 A 
ATOM      3  C2  UNL d   1       2.966   2.157   1.835  0.00  0.00     0.034 A 
ATOM      4  C3  UNL d   1       2.122   1.263   1.165  0.00  0.00     0.017 A 
ATOM      5  C4  UNL d   1       2.572   0.617   0.009  0.00  0.00     0.017 A 
ATOM      6  C5  UNL d   1       3.862   0.868  -0.471  0.00  0.00     0.034 A 
ATOM      7 Cl   UNL d   1       1.589  -0.500  -0.871  0.00  0.00    -0.070 Cl
ATOM      8 Cl1  UNL d   1       0.544   1.004   1.820  0.00  0.00    -0.070 Cl
ENDROOT
TORSDOF 0
ENDMDL
