MODEL 1
REMARK minimizedAffinity 7.92039394
REMARK minimizedRMSD -1
REMARK  0 active torsions:
REMARK  status: ('A' for Active; 'I' for Inactive)
ROOT
ATOM      1  C   UNL d   1      -3.794   4.797  -5.999  0.00  0.00     0.020 A 
ATOM      2  C1  UNL d   1      -3.352   6.000  -5.449  0.00  0.00     0.020 A 
ATOM      3  C2  UNL d   1      -2.356   5.996  -4.471  0.00  0.00     0.034 A 
ATOM      4  C3  UNL d   1      -1.798   4.787  -4.039  0.00  0.00     0.017 A 
ATOM      5  C4  UNL d   1      -2.243   3.580  -4.591  0.00  0.00     0.017 A 
ATOM      6  C5  UNL d   1      -3.241   3.590  -5.570  0.00  0.00     0.034 A 
ATOM      7 Cl   UNL d   1      -1.603   2.049  -4.109  0.00  0.00    -0.070 Cl
ATOM      8 Cl1  UNL d   1      -0.570   4.857  -2.826  0.00  0.00    -0.070 Cl
ENDROOT
TORSDOF 0
ENDMDL
