MODEL 1
REMARK minimizedAffinity 7.12840462
REMARK minimizedRMSD -1
REMARK  0 active torsions:
REMARK  status: ('A' for Active; 'I' for Inactive)
ROOT
ATOM      1  C   UNL d   1       4.241   0.570   0.750  0.00  0.00     0.020 A 
ATOM      2  C1  UNL d   1       3.782   1.305  -0.342  0.00  0.00     0.020 A 
ATOM      3  C2  UNL d   1       3.012   0.684  -1.328  0.00  0.00     0.034 A 
ATOM      4  C3  UNL d   1       2.700  -0.677  -1.223  0.00  0.00     0.017 A 
ATOM      5  C4  UNL d   1       3.162  -1.414  -0.127  0.00  0.00     0.017 A 
ATOM      6  C5  UNL d   1       3.932  -0.786   0.857  0.00  0.00     0.034 A 
ATOM      7 Cl   UNL d   1       2.817  -3.096   0.071  0.00  0.00    -0.070 Cl
ATOM      8 Cl1  UNL d   1       1.743  -1.380  -2.479  0.00  0.00    -0.070 Cl
ENDROOT
TORSDOF 0
ENDMDL
