MODEL 1
REMARK minimizedAffinity 20.8716412
REMARK minimizedRMSD -1
REMARK  0 active torsions:
REMARK  status: ('A' for Active; 'I' for Inactive)
ROOT
ATOM      1  C   UNL d   1      -0.430   1.821   2.023  0.00  0.00     0.020 A 
ATOM      2  C1  UNL d   1       0.103   0.626   2.503  0.00  0.00     0.020 A 
ATOM      3  C2  UNL d   1      -0.725  -0.302   3.138  0.00  0.00     0.034 A 
ATOM      4  C3  UNL d   1      -2.090  -0.036   3.295  0.00  0.00     0.017 A 
ATOM      5  C4  UNL d   1      -2.624   1.164   2.813  0.00  0.00     0.017 A 
ATOM      6  C5  UNL d   1      -1.791   2.090   2.177  0.00  0.00     0.034 A 
ATOM      7 Cl   UNL d   1      -4.299   1.563   2.969  0.00  0.00    -0.070 Cl
ATOM      8 Cl1  UNL d   1      -3.055  -1.229   4.090  0.00  0.00    -0.070 Cl
ENDROOT
TORSDOF 0
ENDMDL
