MODEL 1
REMARK minimizedAffinity 16.8739262
REMARK minimizedRMSD -1
REMARK  0 active torsions:
REMARK  status: ('A' for Active; 'I' for Inactive)
ROOT
ATOM      1  C   UNL d   1       1.693  -0.022  -3.107  0.00  0.00     0.020 A 
ATOM      2  C1  UNL d   1       2.058   1.268  -2.725  0.00  0.00     0.020 A 
ATOM      3  C2  UNL d   1       2.834   1.464  -1.581  0.00  0.00     0.034 A 
ATOM      4  C3  UNL d   1       3.247   0.368  -0.814  0.00  0.00     0.017 A 
ATOM      5  C4  UNL d   1       2.879  -0.927  -1.198  0.00  0.00     0.017 A 
ATOM      6  C5  UNL d   1       2.103  -1.117  -2.345  0.00  0.00     0.034 A 
ATOM      7 Cl   UNL d   1       3.351  -2.328  -0.303  0.00  0.00    -0.070 Cl
ATOM      8 Cl1  UNL d   1       4.205   0.684   0.589  0.00  0.00    -0.070 Cl
ENDROOT
TORSDOF 0
ENDMDL
