MODEL 1
REMARK minimizedAffinity 4.86495304
REMARK minimizedRMSD -1
REMARK  0 active torsions:
REMARK  status: ('A' for Active; 'I' for Inactive)
ROOT
ATOM      1  C   UNL d   1       4.738  -2.931   0.601  0.00  0.00     0.020 A 
ATOM      2  C1  UNL d   1       3.810  -3.542  -0.241  0.00  0.00     0.020 A 
ATOM      3  C2  UNL d   1       2.908  -2.763  -0.968  0.00  0.00     0.034 A 
ATOM      4  C3  UNL d   1       2.931  -1.368  -0.854  0.00  0.00     0.017 A 
ATOM      5  C4  UNL d   1       3.863  -0.756  -0.008  0.00  0.00     0.017 A 
ATOM      6  C5  UNL d   1       4.764  -1.541   0.717  0.00  0.00     0.034 A 
ATOM      7 Cl   UNL d   1       3.953   0.959   0.185  0.00  0.00    -0.070 Cl
ATOM      8 Cl1  UNL d   1       1.787  -0.467  -1.783  0.00  0.00    -0.070 Cl
ENDROOT
TORSDOF 0
ENDMDL
