MODEL 1
REMARK minimizedAffinity 21.0491276
REMARK minimizedRMSD -1
REMARK  0 active torsions:
REMARK  status: ('A' for Active; 'I' for Inactive)
ROOT
ATOM      1  C   UNL d   1      -0.787   0.759   2.243  0.00  0.00     0.020 A 
ATOM      2  C1  UNL d   1       0.027  -0.339   2.514  0.00  0.00     0.020 A 
ATOM      3  C2  UNL d   1       0.805  -0.362   3.674  0.00  0.00     0.034 A 
ATOM      4  C3  UNL d   1       0.770   0.716   4.566  0.00  0.00     0.017 A 
ATOM      5  C4  UNL d   1      -0.048   1.818   4.292  0.00  0.00     0.017 A 
ATOM      6  C5  UNL d   1      -0.825   1.836   3.130  0.00  0.00     0.034 A 
ATOM      7 Cl   UNL d   1      -0.144   3.186   5.345  0.00  0.00    -0.070 Cl
ATOM      8 Cl1  UNL d   1       1.758   0.621   5.980  0.00  0.00    -0.070 Cl
ENDROOT
TORSDOF 0
ENDMDL
