MODEL 1
REMARK minimizedAffinity 15.9560566
REMARK minimizedRMSD -1
REMARK  0 active torsions:
REMARK  status: ('A' for Active; 'I' for Inactive)
ROOT
ATOM      1  C   UNL d   1      -0.289   1.461   2.770  0.00  0.00     0.020 A 
ATOM      2  C1  UNL d   1      -0.198   0.212   2.157  0.00  0.00     0.020 A 
ATOM      3  C2  UNL d   1      -1.342  -0.575   2.003  0.00  0.00     0.034 A 
ATOM      4  C3  UNL d   1      -2.581  -0.113   2.463  0.00  0.00     0.017 A 
ATOM      5  C4  UNL d   1      -2.670   1.141   3.078  0.00  0.00     0.017 A 
ATOM      6  C5  UNL d   1      -1.522   1.925   3.229  0.00  0.00     0.034 A 
ATOM      7 Cl   UNL d   1      -4.164   1.778   3.670  0.00  0.00    -0.070 Cl
ATOM      8 Cl1  UNL d   1      -3.953  -1.139   2.239  0.00  0.00    -0.070 Cl
ENDROOT
TORSDOF 0
ENDMDL
