MODEL 1
REMARK minimizedAffinity 13.9072113
REMARK minimizedRMSD -1
REMARK  0 active torsions:
REMARK  status: ('A' for Active; 'I' for Inactive)
ROOT
ATOM      1  C   UNL d   1      -3.636   0.924   2.311  0.00  0.00     0.020 A 
ATOM      2  C1  UNL d   1      -3.143   0.748   3.603  0.00  0.00     0.020 A 
ATOM      3  C2  UNL d   1      -3.494  -0.389   4.335  0.00  0.00     0.034 A 
ATOM      4  C3  UNL d   1      -4.340  -1.353   3.776  0.00  0.00     0.017 A 
ATOM      5  C4  UNL d   1      -4.835  -1.175   2.479  0.00  0.00     0.017 A 
ATOM      6  C5  UNL d   1      -4.480  -0.035   1.750  0.00  0.00     0.034 A 
ATOM      7 Cl   UNL d   1      -5.883  -2.321   1.721  0.00  0.00    -0.070 Cl
ATOM      8 Cl1  UNL d   1      -4.732  -2.734   4.738  0.00  0.00    -0.070 Cl
ENDROOT
TORSDOF 0
ENDMDL
