MODEL 1
REMARK minimizedAffinity 13.3151159
REMARK minimizedRMSD -1
REMARK  0 active torsions:
REMARK  status: ('A' for Active; 'I' for Inactive)
ROOT
ATOM      1  C   UNL d   1      -1.950   0.528   1.624  0.00  0.00     0.020 A 
ATOM      2  C1  UNL d   1      -3.034   1.119   2.273  0.00  0.00     0.020 A 
ATOM      3  C2  UNL d   1      -2.905   1.550   3.595  0.00  0.00     0.034 A 
ATOM      4  C3  UNL d   1      -1.690   1.390   4.272  0.00  0.00     0.017 A 
ATOM      5  C4  UNL d   1      -0.604   0.797   3.620  0.00  0.00     0.017 A 
ATOM      6  C5  UNL d   1      -0.738   0.368   2.296  0.00  0.00     0.034 A 
ATOM      7 Cl   UNL d   1       0.927   0.567   4.390  0.00  0.00    -0.070 Cl
ATOM      8 Cl1  UNL d   1      -1.602   1.947   5.906  0.00  0.00    -0.070 Cl
ENDROOT
TORSDOF 0
ENDMDL
