MODEL 1
REMARK minimizedAffinity 12.0725994
REMARK minimizedRMSD -1
REMARK  0 active torsions:
REMARK  status: ('A' for Active; 'I' for Inactive)
ROOT
ATOM      1  C   UNL d   1      -3.683   0.130   3.382  0.00  0.00     0.020 A 
ATOM      2  C1  UNL d   1      -2.973   0.294   4.570  0.00  0.00     0.020 A 
ATOM      3  C2  UNL d   1      -3.191   1.422   5.364  0.00  0.00     0.034 A 
ATOM      4  C3  UNL d   1      -4.121   2.391   4.969  0.00  0.00     0.017 A 
ATOM      5  C4  UNL d   1      -4.834   2.225   3.776  0.00  0.00     0.017 A 
ATOM      6  C5  UNL d   1      -4.612   1.093   2.986  0.00  0.00     0.034 A 
ATOM      7 Cl   UNL d   1      -5.998   3.377   3.224  0.00  0.00    -0.070 Cl
ATOM      8 Cl1  UNL d   1      -4.340   3.761   5.999  0.00  0.00    -0.070 Cl
ENDROOT
TORSDOF 0
ENDMDL
