MODEL 1
REMARK minimizedAffinity 6.75804758
REMARK minimizedRMSD -1
REMARK  0 active torsions:
REMARK  status: ('A' for Active; 'I' for Inactive)
ROOT
ATOM      1  C   UNL d   1      -2.675  -3.394  -5.999  0.00  0.00     0.020 A 
ATOM      2  C1  UNL d   1      -3.819  -3.655  -5.247  0.00  0.00     0.020 A 
ATOM      3  C2  UNL d   1      -3.705  -4.218  -3.974  0.00  0.00     0.034 A 
ATOM      4  C3  UNL d   1      -2.443  -4.523  -3.450  0.00  0.00     0.017 A 
ATOM      5  C4  UNL d   1      -1.295  -4.260  -4.206  0.00  0.00     0.017 A 
ATOM      6  C5  UNL d   1      -1.416  -3.696  -5.480  0.00  0.00     0.034 A 
ATOM      7 Cl   UNL d   1       0.296  -4.609  -3.627  0.00  0.00    -0.070 Cl
ATOM      8 Cl1  UNL d   1      -2.376  -5.218  -1.870  0.00  0.00    -0.070 Cl
ENDROOT
TORSDOF 0
ENDMDL
