MODEL 1
REMARK minimizedAffinity 11.6486082
REMARK minimizedRMSD -1
REMARK  0 active torsions:
REMARK  status: ('A' for Active; 'I' for Inactive)
ROOT
ATOM      1  C   UNL d   1      -0.568   1.749   3.367  0.00  0.00     0.020 A 
ATOM      2  C1  UNL d   1      -0.494   0.591   2.593  0.00  0.00     0.020 A 
ATOM      3  C2  UNL d   1      -1.662  -0.089   2.241  0.00  0.00     0.034 A 
ATOM      4  C3  UNL d   1      -2.908   0.387   2.663  0.00  0.00     0.017 A 
ATOM      5  C4  UNL d   1      -2.982   1.549   3.440  0.00  0.00     0.017 A 
ATOM      6  C5  UNL d   1      -1.809   2.227   3.789  0.00  0.00     0.034 A 
ATOM      7 Cl   UNL d   1      -4.483   2.198   3.998  0.00  0.00    -0.070 Cl
ATOM      8 Cl1  UNL d   1      -4.311  -0.505   2.191  0.00  0.00    -0.070 Cl
ENDROOT
TORSDOF 0
ENDMDL
