MODEL 1
REMARK minimizedAffinity -5.01228523
REMARK minimizedRMSD -1
REMARK  0 active torsions:
REMARK  status: ('A' for Active; 'I' for Inactive)
ROOT
ATOM      1  C   UNL d   1       0.853   0.522   0.404  0.00  0.00     0.078 C 
ATOM      2  C1  UNL d   1      -0.542   0.037   0.141  0.00  0.00    -0.077 A 
ATOM      3  C2  UNL d   1      -1.443  -0.171   1.193  0.00  0.00    -0.001 A 
ATOM      4  C3  UNL d   1      -2.735  -0.632   0.934  0.00  0.00     0.003 A 
ATOM      5  C4  UNL d   1      -3.137  -0.889  -0.375  0.00  0.00    -0.005 A 
ATOM      6  C5  UNL d   1      -2.247  -0.687  -1.427  0.00  0.00     0.003 A 
ATOM      7  C6  UNL d   1      -0.954  -0.226  -1.171  0.00  0.00    -0.001 A 
ENDROOT
TORSDOF 0
ENDMDL
