MODEL 1
REMARK minimizedAffinity -4.28044987
REMARK minimizedRMSD -1
REMARK  0 active torsions:
REMARK  status: ('A' for Active; 'I' for Inactive)
ROOT
ATOM      1  C   UNL d   1       3.985   1.025   4.086  0.00  0.00     0.078 C 
ATOM      2  C1  UNL d   1       3.163   1.420   2.895  0.00  0.00    -0.077 A 
ATOM      3  C2  UNL d   1       2.452   0.463   2.161  0.00  0.00    -0.001 A 
ATOM      4  C3  UNL d   1       1.699   0.843   1.049  0.00  0.00     0.003 A 
ATOM      5  C4  UNL d   1       1.650   2.180   0.660  0.00  0.00    -0.005 A 
ATOM      6  C5  UNL d   1       2.356   3.139   1.384  0.00  0.00     0.003 A 
ATOM      7  C6  UNL d   1       3.110   2.761   2.496  0.00  0.00    -0.001 A 
ENDROOT
TORSDOF 0
ENDMDL
