MODEL 1
REMARK minimizedAffinity -2.98770857
REMARK minimizedRMSD -1
REMARK  0 active torsions:
REMARK  status: ('A' for Active; 'I' for Inactive)
ROOT
ATOM      1  C   UNL d   1       1.446  -0.150   0.450  0.00  0.00     0.078 C 
ATOM      2  C1  UNL d   1       2.182   1.154   0.540  0.00  0.00    -0.077 A 
ATOM      3  C2  UNL d   1       2.285   1.841   1.756  0.00  0.00    -0.001 A 
ATOM      4  C3  UNL d   1       2.964   3.059   1.823  0.00  0.00     0.003 A 
ATOM      5  C4  UNL d   1       3.544   3.600   0.677  0.00  0.00    -0.005 A 
ATOM      6  C5  UNL d   1       3.445   2.924  -0.537  0.00  0.00     0.003 A 
ATOM      7  C6  UNL d   1       2.766   1.707  -0.606  0.00  0.00    -0.001 A 
ENDROOT
TORSDOF 0
ENDMDL
