MODEL 1
REMARK minimizedAffinity -4.14068651
REMARK minimizedRMSD -1
REMARK  0 active torsions:
REMARK  status: ('A' for Active; 'I' for Inactive)
ROOT
ATOM      1  C   UNL d   1      -2.794  -0.493   0.089  0.00  0.00     0.078 C 
ATOM      2  C1  UNL d   1      -1.337  -0.627   0.417  0.00  0.00    -0.077 A 
ATOM      3  C2  UNL d   1      -0.368   0.086  -0.299  0.00  0.00    -0.001 A 
ATOM      4  C3  UNL d   1       0.986  -0.056   0.011  0.00  0.00     0.003 A 
ATOM      5  C4  UNL d   1       1.382  -0.910   1.038  0.00  0.00    -0.005 A 
ATOM      6  C5  UNL d   1       0.425  -1.625   1.755  0.00  0.00     0.003 A 
ATOM      7  C6  UNL d   1      -0.928  -1.485   1.446  0.00  0.00    -0.001 A 
ENDROOT
TORSDOF 0
ENDMDL
