MODEL 1
REMARK minimizedAffinity -2.80408573
REMARK minimizedRMSD -1
REMARK  0 active torsions:
REMARK  status: ('A' for Active; 'I' for Inactive)
ROOT
ATOM      1  C   UNL d   1      -3.314  -0.777  -0.029  0.00  0.00     0.078 C 
ATOM      2  C1  UNL d   1      -1.852  -0.604   0.253  0.00  0.00    -0.077 A 
ATOM      3  C2  UNL d   1      -1.042   0.169  -0.588  0.00  0.00    -0.001 A 
ATOM      4  C3  UNL d   1       0.320   0.314  -0.319  0.00  0.00     0.003 A 
ATOM      5  C4  UNL d   1       0.884  -0.313   0.791  0.00  0.00    -0.005 A 
ATOM      6  C5  UNL d   1       0.087  -1.086   1.632  0.00  0.00     0.003 A 
ATOM      7  C6  UNL d   1      -1.275  -1.232   1.364  0.00  0.00    -0.001 A 
ENDROOT
TORSDOF 0
ENDMDL
