MODEL 1
REMARK minimizedAffinity -3.91726661
REMARK minimizedRMSD -1
REMARK  0 active torsions:
REMARK  status: ('A' for Active; 'I' for Inactive)
ROOT
ATOM      1  C   UNL d   1       4.171   4.305  -0.989  0.00  0.00     0.078 C 
ATOM      2  C1  UNL d   1       3.454   3.315  -0.121  0.00  0.00    -0.077 A 
ATOM      3  C2  UNL d   1       3.115   3.627   1.201  0.00  0.00    -0.001 A 
ATOM      4  C3  UNL d   1       2.457   2.692   2.001  0.00  0.00     0.003 A 
ATOM      5  C4  UNL d   1       2.132   1.438   1.489  0.00  0.00    -0.005 A 
ATOM      6  C5  UNL d   1       2.467   1.117   0.175  0.00  0.00     0.003 A 
ATOM      7  C6  UNL d   1       3.125   2.051  -0.627  0.00  0.00    -0.001 A 
ENDROOT
TORSDOF 0
ENDMDL
