MODEL 1
REMARK minimizedAffinity -4.39089966
REMARK minimizedRMSD -1
REMARK  0 active torsions:
REMARK  status: ('A' for Active; 'I' for Inactive)
ROOT
ATOM      1  C   UNL d   1       3.195   2.848   1.239  0.00  0.00     0.078 C 
ATOM      2  C1  UNL d   1       2.887   1.652   0.389  0.00  0.00    -0.077 A 
ATOM      3  C2  UNL d   1       3.519   1.463  -0.847  0.00  0.00    -0.001 A 
ATOM      4  C3  UNL d   1       3.215   0.350  -1.632  0.00  0.00     0.003 A 
ATOM      5  C4  UNL d   1       2.279  -0.583  -1.190  0.00  0.00    -0.005 A 
ATOM      6  C5  UNL d   1       1.644  -0.403   0.037  0.00  0.00     0.003 A 
ATOM      7  C6  UNL d   1       1.946   0.710   0.823  0.00  0.00    -0.001 A 
ENDROOT
TORSDOF 0
ENDMDL
