MODEL 1
REMARK minimizedAffinity -0.616513669
REMARK minimizedRMSD -1
REMARK  0 active torsions:
REMARK  status: ('A' for Active; 'I' for Inactive)
ROOT
ATOM      1  C   UNL d   1      -2.793  -0.580   0.194  0.00  0.00     0.078 C 
ATOM      2  C1  UNL d   1      -1.327  -0.576   0.510  0.00  0.00    -0.077 A 
ATOM      3  C2  UNL d   1      -0.774  -1.521   1.382  0.00  0.00    -0.001 A 
ATOM      4  C3  UNL d   1       0.590  -1.499   1.674  0.00  0.00     0.003 A 
ATOM      5  C4  UNL d   1       1.413  -0.532   1.099  0.00  0.00    -0.005 A 
ATOM      6  C5  UNL d   1       0.872   0.414   0.232  0.00  0.00     0.003 A 
ATOM      7  C6  UNL d   1      -0.493   0.393  -0.061  0.00  0.00    -0.001 A 
ENDROOT
TORSDOF 0
ENDMDL
