MODEL 1
REMARK minimizedAffinity 1.77286959
REMARK minimizedRMSD -1
REMARK  0 active torsions:
REMARK  status: ('A' for Active; 'I' for Inactive)
ROOT
ATOM      1  C   UNL d   1       0.558  -0.066   0.197  0.00  0.00     0.078 C 
ATOM      2  C1  UNL d   1       1.140  -0.295  -1.166  0.00  0.00    -0.077 A 
ATOM      3  C2  UNL d   1       0.322  -0.340  -2.301  0.00  0.00    -0.001 A 
ATOM      4  C3  UNL d   1       0.877  -0.564  -3.562  0.00  0.00     0.003 A 
ATOM      5  C4  UNL d   1       2.251  -0.746  -3.700  0.00  0.00    -0.005 A 
ATOM      6  C5  UNL d   1       3.073  -0.706  -2.576  0.00  0.00     0.003 A 
ATOM      7  C6  UNL d   1       2.520  -0.482  -1.314  0.00  0.00    -0.001 A 
ENDROOT
TORSDOF 0
ENDMDL
