MODEL 1
REMARK minimizedAffinity -0.951255083
REMARK minimizedRMSD -1
REMARK  0 active torsions:
REMARK  status: ('A' for Active; 'I' for Inactive)
ROOT
ATOM      1  C   UNL d   1       0.583  -0.653   1.359  0.00  0.00     0.078 C 
ATOM      2  C1  UNL d   1       1.560   0.445   1.065  0.00  0.00    -0.077 A 
ATOM      3  C2  UNL d   1       2.224   0.508  -0.166  0.00  0.00    -0.001 A 
ATOM      4  C3  UNL d   1       3.139   1.531  -0.423  0.00  0.00     0.003 A 
ATOM      5  C4  UNL d   1       3.399   2.497   0.547  0.00  0.00    -0.005 A 
ATOM      6  C5  UNL d   1       2.745   2.441   1.776  0.00  0.00     0.003 A 
ATOM      7  C6  UNL d   1       1.830   1.419   2.034  0.00  0.00    -0.001 A 
ENDROOT
TORSDOF 0
ENDMDL
