MODEL 1
REMARK minimizedAffinity -2.18595409
REMARK minimizedRMSD -1
REMARK  0 active torsions:
REMARK  status: ('A' for Active; 'I' for Inactive)
ROOT
ATOM      1  C   UNL d   1       2.717   2.727   2.044  0.00  0.00     0.078 C 
ATOM      2  C1  UNL d   1       3.365   3.091   0.741  0.00  0.00    -0.077 A 
ATOM      3  C2  UNL d   1       3.545   4.430   0.375  0.00  0.00    -0.001 A 
ATOM      4  C3  UNL d   1       4.141   4.754  -0.845  0.00  0.00     0.003 A 
ATOM      5  C4  UNL d   1       4.561   3.744  -1.709  0.00  0.00    -0.005 A 
ATOM      6  C5  UNL d   1       4.383   2.408  -1.353  0.00  0.00     0.003 A 
ATOM      7  C6  UNL d   1       3.788   2.083  -0.134  0.00  0.00    -0.001 A 
ENDROOT
TORSDOF 0
ENDMDL
