MODEL 1
REMARK minimizedAffinity -3.929111
REMARK minimizedRMSD -1
REMARK  0 active torsions:
REMARK  status: ('A' for Active; 'I' for Inactive)
ROOT
ATOM      1  C   UNL d   1       1.695  -0.122  -2.225  0.00  0.00     0.078 C 
ATOM      2  C1  UNL d   1       0.600  -0.373  -1.232  0.00  0.00    -0.077 A 
ATOM      3  C2  UNL d   1       0.887  -0.552   0.127  0.00  0.00    -0.001 A 
ATOM      4  C3  UNL d   1      -0.141  -0.795   1.040  0.00  0.00     0.003 A 
ATOM      5  C4  UNL d   1      -1.463  -0.862   0.603  0.00  0.00    -0.005 A 
ATOM      6  C5  UNL d   1      -1.757  -0.688  -0.748  0.00  0.00     0.003 A 
ATOM      7  C6  UNL d   1      -0.730  -0.445  -1.662  0.00  0.00    -0.001 A 
ENDROOT
TORSDOF 0
ENDMDL
