MODEL 1
REMARK minimizedAffinity -5.35412645
REMARK minimizedRMSD -1
REMARK  0 active torsions:
REMARK  status: ('A' for Active; 'I' for Inactive)
ROOT
ATOM      1  C   UNL d   1       0.765   0.679   0.119  0.00  0.00     0.078 C 
ATOM      2  C1  UNL d   1      -0.480  -0.111  -0.155  0.00  0.00    -0.077 A 
ATOM      3  C2  UNL d   1      -0.987  -0.229  -1.455  0.00  0.00    -0.001 A 
ATOM      4  C3  UNL d   1      -2.152  -0.960  -1.694  0.00  0.00     0.003 A 
ATOM      5  C4  UNL d   1      -2.820  -1.578  -0.639  0.00  0.00    -0.005 A 
ATOM      6  C5  UNL d   1      -2.324  -1.465   0.658  0.00  0.00     0.003 A 
ATOM      7  C6  UNL d   1      -1.159  -0.734   0.899  0.00  0.00    -0.001 A 
ENDROOT
TORSDOF 0
ENDMDL
