MODEL 1
REMARK minimizedAffinity -4.40002441
REMARK minimizedRMSD -1
REMARK  0 active torsions:
REMARK  status: ('A' for Active; 'I' for Inactive)
ROOT
ATOM      1  C   UNL d   1       0.788  -0.113   0.449  0.00  0.00     0.078 C 
ATOM      2  C1  UNL d   1       1.739   1.038   0.307  0.00  0.00    -0.077 A 
ATOM      3  C2  UNL d   1       2.452   1.242  -0.880  0.00  0.00    -0.001 A 
ATOM      4  C3  UNL d   1       3.341   2.312  -0.995  0.00  0.00     0.003 A 
ATOM      5  C4  UNL d   1       3.525   3.186   0.074  0.00  0.00    -0.005 A 
ATOM      6  C5  UNL d   1       2.821   2.990   1.260  0.00  0.00     0.003 A 
ATOM      7  C6  UNL d   1       1.932   1.921   1.377  0.00  0.00    -0.001 A 
ENDROOT
TORSDOF 0
ENDMDL
