MODEL 1
REMARK minimizedAffinity -0.708059013
REMARK minimizedRMSD -1
REMARK  0 active torsions:
REMARK  status: ('A' for Active; 'I' for Inactive)
ROOT
ATOM      1  C   UNL d   1       1.308   0.306   0.478  0.00  0.00     0.078 C 
ATOM      2  C1  UNL d   1       1.529  -0.001  -0.973  0.00  0.00    -0.077 A 
ATOM      3  C2  UNL d   1       0.470   0.042  -1.888  0.00  0.00    -0.001 A 
ATOM      4  C3  UNL d   1       0.688  -0.255  -3.234  0.00  0.00     0.003 A 
ATOM      5  C4  UNL d   1       1.964  -0.599  -3.677  0.00  0.00    -0.005 A 
ATOM      6  C5  UNL d   1       3.023  -0.647  -2.773  0.00  0.00     0.003 A 
ATOM      7  C6  UNL d   1       2.807  -0.350  -1.427  0.00  0.00    -0.001 A 
ENDROOT
TORSDOF 0
ENDMDL
