MODEL 1
REMARK minimizedAffinity 9.43680573
REMARK minimizedRMSD -1
REMARK  0 active torsions:
REMARK  status: ('A' for Active; 'I' for Inactive)
ROOT
ATOM      1  C   UNL d   1       2.190   6.000   5.111  0.00  0.00     0.023 A 
ATOM      2  C1  UNL d   1       2.569   5.971   3.769  0.00  0.00     0.003 A 
ATOM      3  C2  UNL d   1       3.453   4.991   3.312  0.00  0.00     0.048 A 
ATOM      4  C3  UNL d   1       3.953   4.042   4.203  0.00  0.00     0.023 A 
ATOM      5  C4  UNL d   1       3.576   4.066   5.547  0.00  0.00     0.048 A 
ATOM      6  C5  UNL d   1       2.693   5.049   5.999  0.00  0.00     0.003 A 
ATOM      7  I   UNL d   1       5.268   2.582   3.526  0.00  0.00    -0.146 I 
ENDROOT
TORSDOF 0
ENDMDL
