MODEL 1
REMARK minimizedAffinity 5.12568045
REMARK minimizedRMSD -1
REMARK  0 active torsions:
REMARK  status: ('A' for Active; 'I' for Inactive)
ROOT
ATOM      1  C   UNL d   1       1.837  -3.536  -1.635  0.00  0.00     0.023 A 
ATOM      2  C1  UNL d   1       1.763  -2.989  -0.354  0.00  0.00     0.003 A 
ATOM      3  C2  UNL d   1       2.528  -1.867  -0.027  0.00  0.00     0.048 A 
ATOM      4  C3  UNL d   1       3.364  -1.297  -0.987  0.00  0.00     0.023 A 
ATOM      5  C4  UNL d   1       3.440  -1.840  -2.270  0.00  0.00     0.048 A 
ATOM      6  C5  UNL d   1       2.674  -2.963  -2.592  0.00  0.00     0.003 A 
ATOM      7  I   UNL d   1       4.503   0.373  -0.504  0.00  0.00    -0.146 I 
ENDROOT
TORSDOF 0
ENDMDL
