MODEL 1
REMARK minimizedAffinity 10.2125502
REMARK minimizedRMSD -1
REMARK  0 active torsions:
REMARK  status: ('A' for Active; 'I' for Inactive)
ROOT
ATOM      1  C   UNL d   1      -0.257  -0.187   1.539  0.00  0.00     0.023 A 
ATOM      2  C1  UNL d   1       1.019  -0.179   2.104  0.00  0.00     0.003 A 
ATOM      3  C2  UNL d   1       2.112  -0.640   1.369  0.00  0.00     0.048 A 
ATOM      4  C3  UNL d   1       1.924  -1.109   0.069  0.00  0.00     0.023 A 
ATOM      5  C4  UNL d   1       0.650  -1.118  -0.500  0.00  0.00     0.048 A 
ATOM      6  C5  UNL d   1      -0.441  -0.657   0.239  0.00  0.00     0.003 A 
ATOM      7  I   UNL d   1       3.550  -1.796  -1.027  0.00  0.00    -0.146 I 
ENDROOT
TORSDOF 0
ENDMDL
