MODEL 1
REMARK minimizedAffinity 6.06044149
REMARK minimizedRMSD -1
REMARK  0 active torsions:
REMARK  status: ('A' for Active; 'I' for Inactive)
ROOT
ATOM      1  C   UNL d   1      -0.487   3.284   3.204  0.00  0.00     0.023 A 
ATOM      2  C1  UNL d   1      -1.067   3.694   2.003  0.00  0.00     0.003 A 
ATOM      3  C2  UNL d   1      -2.359   3.280   1.673  0.00  0.00     0.048 A 
ATOM      4  C3  UNL d   1      -3.066   2.458   2.549  0.00  0.00     0.023 A 
ATOM      5  C4  UNL d   1      -2.491   2.046   3.752  0.00  0.00     0.048 A 
ATOM      6  C5  UNL d   1      -1.198   2.461   4.077  0.00  0.00     0.003 A 
ATOM      7  I   UNL d   1      -4.990   1.841   2.060  0.00  0.00    -0.146 I 
ENDROOT
TORSDOF 0
ENDMDL
