MODEL 1
REMARK minimizedAffinity 11.1215267
REMARK minimizedRMSD -1
REMARK  0 active torsions:
REMARK  status: ('A' for Active; 'I' for Inactive)
ROOT
ATOM      1  C   UNL d   1      -5.839  -0.368  -0.870  0.00  0.00     0.023 A 
ATOM      2  C1  UNL d   1      -5.143  -0.498   0.331  0.00  0.00     0.003 A 
ATOM      3  C2  UNL d   1      -3.747  -0.548   0.329  0.00  0.00     0.048 A 
ATOM      4  C3  UNL d   1      -3.054  -0.467  -0.879  0.00  0.00     0.023 A 
ATOM      5  C4  UNL d   1      -3.747  -0.336  -2.083  0.00  0.00     0.048 A 
ATOM      6  C5  UNL d   1      -5.142  -0.287  -2.076  0.00  0.00     0.003 A 
ATOM      7  I   UNL d   1      -0.977  -0.542  -0.885  0.00  0.00    -0.146 I 
ENDROOT
TORSDOF 0
ENDMDL
