MODEL 1
REMARK minimizedAffinity 3.59343743
REMARK minimizedRMSD -1
REMARK  0 active torsions:
REMARK  status: ('A' for Active; 'I' for Inactive)
ROOT
ATOM      1  C   UNL d   1       1.094  -0.380   1.164  0.00  0.00     0.023 A 
ATOM      2  C1  UNL d   1       0.269  -0.199   2.274  0.00  0.00     0.003 A 
ATOM      3  C2  UNL d   1      -1.119  -0.261   2.132  0.00  0.00     0.048 A 
ATOM      4  C3  UNL d   1      -1.675  -0.507   0.877  0.00  0.00     0.023 A 
ATOM      5  C4  UNL d   1      -0.854  -0.690  -0.237  0.00  0.00     0.048 A 
ATOM      6  C5  UNL d   1       0.533  -0.626  -0.090  0.00  0.00     0.003 A 
ATOM      7  I   UNL d   1      -3.740  -0.601   0.663  0.00  0.00    -0.146 I 
ENDROOT
TORSDOF 0
ENDMDL
