MODEL 1
REMARK minimizedAffinity 17.2184505
REMARK minimizedRMSD -1
REMARK  0 active torsions:
REMARK  status: ('A' for Active; 'I' for Inactive)
ROOT
ATOM      1  C   UNL d   1      -0.681  -3.145  -0.481  0.00  0.00     0.023 A 
ATOM      2  C1  UNL d   1       0.445  -3.376   0.310  0.00  0.00     0.003 A 
ATOM      3  C2  UNL d   1       1.723  -3.202  -0.225  0.00  0.00     0.048 A 
ATOM      4  C3  UNL d   1       1.868  -2.795  -1.551  0.00  0.00     0.023 A 
ATOM      5  C4  UNL d   1       0.744  -2.561  -2.345  0.00  0.00     0.048 A 
ATOM      6  C5  UNL d   1      -0.531  -2.738  -1.806  0.00  0.00     0.003 A 
ATOM      7  I   UNL d   1       3.769  -2.534  -2.349  0.00  0.00    -0.146 I 
ENDROOT
TORSDOF 0
ENDMDL
