MODEL 1
REMARK minimizedAffinity 5.96542788
REMARK minimizedRMSD -1
REMARK  0 active torsions:
REMARK  status: ('A' for Active; 'I' for Inactive)
ROOT
ATOM      1  C   UNL d   1      -2.140  -5.159   4.615  0.00  0.00     0.023 A 
ATOM      2  C1  UNL d   1      -1.330  -4.187   4.028  0.00  0.00     0.003 A 
ATOM      3  C2  UNL d   1       0.002  -4.054   4.424  0.00  0.00     0.048 A 
ATOM      4  C3  UNL d   1       0.518  -4.897   5.408  0.00  0.00     0.023 A 
ATOM      5  C4  UNL d   1      -0.289  -5.871   5.998  0.00  0.00     0.048 A 
ATOM      6  C5  UNL d   1      -1.620  -6.000   5.599  0.00  0.00     0.003 A 
ATOM      7  I   UNL d   1       2.501  -4.701   5.999  0.00  0.00    -0.146 I 
ENDROOT
TORSDOF 0
ENDMDL
