MODEL 1
REMARK minimizedAffinity 5.3201828
REMARK minimizedRMSD -1
REMARK  0 active torsions:
REMARK  status: ('A' for Active; 'I' for Inactive)
ROOT
ATOM      1  C   UNL d   1       1.470   4.180   5.404  0.00  0.00     0.023 A 
ATOM      2  C1  UNL d   1       2.568   3.406   5.028  0.00  0.00     0.003 A 
ATOM      3  C2  UNL d   1       3.859   3.927   5.133  0.00  0.00     0.048 A 
ATOM      4  C3  UNL d   1       4.045   5.222   5.616  0.00  0.00     0.023 A 
ATOM      5  C4  UNL d   1       2.949   5.999   5.994  0.00  0.00     0.048 A 
ATOM      6  C5  UNL d   1       1.660   5.475   5.887  0.00  0.00     0.003 A 
ATOM      7  I   UNL d   1       5.966   6.000   5.773  0.00  0.00    -0.146 I 
ENDROOT
TORSDOF 0
ENDMDL
