MODEL 1
REMARK minimizedAffinity 13.4975357
REMARK minimizedRMSD -1
REMARK  0 active torsions:
REMARK  status: ('A' for Active; 'I' for Inactive)
ROOT
ATOM      1  C   UNL d   1      -1.231  -0.595  -0.092  0.00  0.00     0.023 A 
ATOM      2  C1  UNL d   1      -1.448  -1.875  -0.603  0.00  0.00     0.003 A 
ATOM      3  C2  UNL d   1      -0.389  -2.594  -1.161  0.00  0.00     0.048 A 
ATOM      4  C3  UNL d   1       0.884  -2.027  -1.205  0.00  0.00     0.023 A 
ATOM      5  C4  UNL d   1       1.106  -0.747  -0.694  0.00  0.00     0.048 A 
ATOM      6  C5  UNL d   1       0.044  -0.032  -0.137  0.00  0.00     0.003 A 
ATOM      7  I   UNL d   1       2.462  -3.096  -2.035  0.00  0.00    -0.146 I 
ENDROOT
TORSDOF 0
ENDMDL
