MODEL 1
REMARK minimizedAffinity 6.93167496
REMARK minimizedRMSD -1
REMARK  0 active torsions:
REMARK  status: ('A' for Active; 'I' for Inactive)
ROOT
ATOM      1  C4' PXY d   1       5.998   4.940  -1.786  0.00  0.00     0.077 C 
ATOM      2  C1' PXY d   1       3.779  -0.301  -0.774  0.00  0.00     0.077 C 
ATOM      3  C1  PXY d   1       4.366   1.074  -1.028  0.00  0.00    -0.082 A 
ATOM      4  C2  PXY d   1       3.810   1.867  -1.929  0.00  0.00     0.003 A 
ATOM      5  C3  PXY d   1       4.348   3.100  -2.194  0.00  0.00     0.003 A 
ATOM      6  C4  PXY d   1       5.434   3.548  -1.490  0.00  0.00    -0.082 A 
ATOM      7  C5  PXY d   1       6.000   2.749  -0.561  0.00  0.00     0.003 A 
ATOM      8  C6  PXY d   1       5.464   1.484  -0.337  0.00  0.00     0.003 A 
ENDROOT
TORSDOF 0
ENDMDL
