MODEL 1
REMARK minimizedAffinity 5.5699563
REMARK minimizedRMSD -1
REMARK  0 active torsions:
REMARK  status: ('A' for Active; 'I' for Inactive)
ROOT
ATOM      1  C4' PXY d   1       0.237  -1.049  -1.519  0.00  0.00     0.077 C 
ATOM      2  C1' PXY d   1       5.416   1.337  -0.570  0.00  0.00     0.077 C 
ATOM      3  C1  PXY d   1       4.056   0.709  -0.806  0.00  0.00    -0.082 A 
ATOM      4  C2  PXY d   1       3.790   0.145  -1.972  0.00  0.00     0.003 A 
ATOM      5  C3  PXY d   1       2.554  -0.399  -2.214  0.00  0.00     0.003 A 
ATOM      6  C4  PXY d   1       1.599  -0.412  -1.233  0.00  0.00    -0.082 A 
ATOM      7  C5  PXY d   1       1.867   0.152  -0.036  0.00  0.00     0.003 A 
ATOM      8  C6  PXY d   1       3.113   0.735   0.175  0.00  0.00     0.003 A 
ENDROOT
TORSDOF 0
ENDMDL
