MODEL 1
REMARK minimizedAffinity -0.963851869
REMARK minimizedRMSD -1
REMARK  0 active torsions:
REMARK  status: ('A' for Active; 'I' for Inactive)
ROOT
ATOM      1  C4' PXY d   1       3.750   1.352  -0.610  0.00  0.00     0.077 C 
ATOM      2  C1' PXY d   1      -1.146  -1.719  -0.738  0.00  0.00     0.077 C 
ATOM      3  C1  PXY d   1       0.131  -0.903  -0.703  0.00  0.00    -0.082 A 
ATOM      4  C2  PXY d   1       1.235  -1.392  -1.243  0.00  0.00     0.003 A 
ATOM      5  C3  PXY d   1       2.406  -0.681  -1.193  0.00  0.00     0.003 A 
ATOM      6  C4  PXY d   1       2.435   0.567  -0.630  0.00  0.00    -0.082 A 
ATOM      7  C5  PXY d   1       1.310   1.078  -0.086  0.00  0.00     0.003 A 
ATOM      8  C6  PXY d   1       0.141   0.323  -0.111  0.00  0.00     0.003 A 
ENDROOT
TORSDOF 0
ENDMDL
