MODEL 1
REMARK minimizedAffinity 7.62447929
REMARK minimizedRMSD -1
REMARK  0 active torsions:
REMARK  status: ('A' for Active; 'I' for Inactive)
ROOT
ATOM      1  C4' PXY d   1       1.033   2.252   4.626  0.00  0.00     0.077 C 
ATOM      2  C1' PXY d   1       6.000   5.194   4.921  0.00  0.00     0.077 C 
ATOM      3  C1  PXY d   1       4.699   4.418   4.856  0.00  0.00    -0.082 A 
ATOM      4  C2  PXY d   1       4.217   4.047   3.681  0.00  0.00     0.003 A 
ATOM      5  C3  PXY d   1       3.026   3.372   3.602  0.00  0.00     0.003 A 
ATOM      6  C4  PXY d   1       2.348   3.028   4.740  0.00  0.00    -0.082 A 
ATOM      7  C5  PXY d   1       2.838   3.395   5.943  0.00  0.00     0.003 A 
ATOM      8  C6  PXY d   1       4.028   4.115   6.000  0.00  0.00     0.003 A 
ENDROOT
TORSDOF 0
ENDMDL
