MODEL 1
REMARK minimizedAffinity -3.6812849
REMARK minimizedRMSD -1
REMARK  0 active torsions:
REMARK  status: ('A' for Active; 'I' for Inactive)
ROOT
ATOM      1  C4' PXY d   1       0.740   2.509   4.855  0.00  0.00     0.077 C 
ATOM      2  C1' PXY d   1       5.462   5.843   4.868  0.00  0.00     0.077 C 
ATOM      3  C1  PXY d   1       4.221   4.973   4.853  0.00  0.00    -0.082 A 
ATOM      4  C2  PXY d   1       3.695   4.564   5.996  0.00  0.00     0.003 A 
ATOM      5  C3  PXY d   1       2.591   3.750   6.000  0.00  0.00     0.003 A 
ATOM      6  C4  PXY d   1       1.988   3.396   4.823  0.00  0.00    -0.082 A 
ATOM      7  C5  PXY d   1       2.512   3.818   3.653  0.00  0.00     0.003 A 
ATOM      8  C6  PXY d   1       3.657   4.609   3.669  0.00  0.00     0.003 A 
ENDROOT
TORSDOF 0
ENDMDL
