MODEL 1
REMARK minimizedAffinity -0.581066906
REMARK minimizedRMSD -1
REMARK  0 active torsions:
REMARK  status: ('A' for Active; 'I' for Inactive)
ROOT
ATOM      1  C4' PXY d   1       1.664   3.729   2.861  0.00  0.00     0.077 C 
ATOM      2  C1' PXY d   1       5.955   6.000   6.000  0.00  0.00     0.077 C 
ATOM      3  C1  PXY d   1       4.821   5.410   5.185  0.00  0.00    -0.082 A 
ATOM      4  C2  PXY d   1       5.033   4.324   4.458  0.00  0.00     0.003 A 
ATOM      5  C3  PXY d   1       4.028   3.796   3.690  0.00  0.00     0.003 A 
ATOM      6  C4  PXY d   1       2.777   4.354   3.707  0.00  0.00    -0.082 A 
ATOM      7  C5  PXY d   1       2.550   5.455   4.454  0.00  0.00     0.003 A 
ATOM      8  C6  PXY d   1       3.595   6.000   5.194  0.00  0.00     0.003 A 
ENDROOT
TORSDOF 0
ENDMDL
