MODEL 1
REMARK minimizedAffinity 6.56456184
REMARK minimizedRMSD -1
REMARK  0 active torsions:
REMARK  status: ('A' for Active; 'I' for Inactive)
ROOT
ATOM      1  C4' PXY d   1       0.771   2.611   4.214  0.00  0.00     0.077 C 
ATOM      2  C1' PXY d   1       5.975   4.869   5.324  0.00  0.00     0.077 C 
ATOM      3  C1  PXY d   1       4.611   4.280   5.021  0.00  0.00    -0.082 A 
ATOM      4  C2  PXY d   1       3.737   4.117   6.000  0.00  0.00     0.003 A 
ATOM      5  C3  PXY d   1       2.511   3.557   5.749  0.00  0.00     0.003 A 
ATOM      6  C4  PXY d   1       2.156   3.210   4.473  0.00  0.00    -0.082 A 
ATOM      7  C5  PXY d   1       3.039   3.383   3.466  0.00  0.00     0.003 A 
ATOM      8  C6  PXY d   1       4.294   3.915   3.749  0.00  0.00     0.003 A 
ENDROOT
TORSDOF 0
ENDMDL
