MODEL 1
REMARK minimizedAffinity 5.1097765
REMARK minimizedRMSD -1
REMARK  0 active torsions:
REMARK  status: ('A' for Active; 'I' for Inactive)
ROOT
ATOM      1  C4' PXY d   1       1.963   0.824  -0.958  0.00  0.00     0.077 C 
ATOM      2  C1' PXY d   1      -3.372   2.913  -0.194  0.00  0.00     0.077 C 
ATOM      3  C1  PXY d   1      -1.978   2.353  -0.396  0.00  0.00    -0.082 A 
ATOM      4  C2  PXY d   1      -0.938   2.982   0.128  0.00  0.00     0.003 A 
ATOM      5  C3  PXY d   1       0.332   2.507  -0.072  0.00  0.00     0.003 A 
ATOM      6  C4  PXY d   1       0.536   1.348  -0.772  0.00  0.00    -0.082 A 
ATOM      7  C5  PXY d   1      -0.520   0.695  -1.301  0.00  0.00     0.003 A 
ATOM      8  C6  PXY d   1      -1.798   1.216  -1.121  0.00  0.00     0.003 A 
ENDROOT
TORSDOF 0
ENDMDL
