MODEL 1
REMARK minimizedAffinity 4.04969835
REMARK minimizedRMSD -1
REMARK  0 active torsions:
REMARK  status: ('A' for Active; 'I' for Inactive)
ROOT
ATOM      1  C4' PXY d   1       2.156   0.308  -1.470  0.00  0.00     0.077 C 
ATOM      2  C1' PXY d   1      -3.346   1.970  -0.848  0.00  0.00     0.077 C 
ATOM      3  C1  PXY d   1      -1.907   1.522  -1.010  0.00  0.00    -0.082 A 
ATOM      4  C2  PXY d   1      -0.924   2.333  -0.655  0.00  0.00     0.003 A 
ATOM      5  C3  PXY d   1       0.383   1.957  -0.825  0.00  0.00     0.003 A 
ATOM      6  C4  PXY d   1       0.688   0.715  -1.315  0.00  0.00    -0.082 A 
ATOM      7  C5  PXY d   1      -0.309  -0.123  -1.670  0.00  0.00     0.003 A 
ATOM      8  C6  PXY d   1      -1.629   0.294  -1.528  0.00  0.00     0.003 A 
ENDROOT
TORSDOF 0
ENDMDL
