MODEL 1
REMARK minimizedAffinity 5.44302559
REMARK minimizedRMSD -1
REMARK  0 active torsions:
REMARK  status: ('A' for Active; 'I' for Inactive)
ROOT
ATOM      1  C4' PXY d   1      -1.671   3.782   0.346  0.00  0.00     0.077 C 
ATOM      2  C1' PXY d   1       3.409   1.028   0.184  0.00  0.00     0.077 C 
ATOM      3  C1  PXY d   1       2.078   1.752   0.239  0.00  0.00    -0.082 A 
ATOM      4  C2  PXY d   1       1.180   1.542  -0.710  0.00  0.00     0.003 A 
ATOM      5  C3  PXY d   1      -0.016   2.213  -0.692  0.00  0.00     0.003 A 
ATOM      6  C4  PXY d   1      -0.317   3.066   0.335  0.00  0.00    -0.082 A 
ATOM      7  C5  PXY d   1       0.590   3.277   1.313  0.00  0.00     0.003 A 
ATOM      8  C6  PXY d   1       1.814   2.618   1.255  0.00  0.00     0.003 A 
ENDROOT
TORSDOF 0
ENDMDL
