MODEL 1
REMARK minimizedAffinity 1.6139735
REMARK minimizedRMSD -1
REMARK  0 active torsions:
REMARK  status: ('A' for Active; 'I' for Inactive)
ROOT
ATOM      1  C4' PXY d   1      -1.938  -0.932  -2.387  0.00  0.00     0.077 C 
ATOM      2  C1' PXY d   1      -0.175   3.594   0.746  0.00  0.00     0.077 C 
ATOM      3  C1  PXY d   1      -0.627   2.409  -0.083  0.00  0.00    -0.082 A 
ATOM      4  C2  PXY d   1      -1.895   2.032  -0.049  0.00  0.00     0.003 A 
ATOM      5  C3  PXY d   1      -2.315   0.943  -0.768  0.00  0.00     0.003 A 
ATOM      6  C4  PXY d   1      -1.439   0.264  -1.573  0.00  0.00    -0.082 A 
ATOM      7  C5  PXY d   1      -0.146   0.649  -1.622  0.00  0.00     0.003 A 
ATOM      8  C6  PXY d   1       0.269   1.732  -0.852  0.00  0.00     0.003 A 
ENDROOT
TORSDOF 0
ENDMDL
