MODEL 1
REMARK minimizedAffinity -1.96749306
REMARK minimizedRMSD -1
REMARK  0 active torsions:
REMARK  status: ('A' for Active; 'I' for Inactive)
ROOT
ATOM      1  C1  DEN d   1      -1.069   0.511   0.359  0.00  0.00     0.130 A 
ATOM      2  C2  DEN d   1      -0.060   1.417  -0.182  0.00  0.00    -0.031 A 
ATOM      3  C3  DEN d   1       1.107   0.609  -0.590  0.00  0.00     0.027 A 
ATOM      4  C4  DEN d   1       1.444  -1.944  -0.442  0.00  0.00     0.027 A 
ATOM      5  C5  DEN d   1       0.870  -3.131  -0.044  0.00  0.00    -0.003 A 
ATOM      6  C6  DEN d   1      -0.367  -3.183   0.543  0.00  0.00     0.001 A 
ATOM      7  C7  DEN d   1      -1.089  -2.031   0.707  0.00  0.00     0.017 A 
ATOM      8  C8  DEN d   1      -0.514  -0.830   0.315  0.00  0.00    -0.094 A 
ATOM      9  C9  DEN d   1       0.732  -0.799  -0.288  0.00  0.00    -0.072 A 
ENDROOT
TORSDOF 0
ENDMDL
