MODEL 1
REMARK minimizedAffinity -2.15300632
REMARK minimizedRMSD -1
REMARK  0 active torsions:
REMARK  status: ('A' for Active; 'I' for Inactive)
ROOT
ATOM      1  C1  DEN d   1       0.141  -0.658  -0.904  0.00  0.00     0.130 A 
ATOM      2  C2  DEN d   1       0.337   0.736  -0.516  0.00  0.00    -0.031 A 
ATOM      3  C3  DEN d   1      -0.299   0.938   0.801  0.00  0.00     0.027 A 
ATOM      4  C4  DEN d   1      -1.560  -0.766   2.271  0.00  0.00     0.027 A 
ATOM      5  C5  DEN d   1      -1.993  -2.070   2.358  0.00  0.00    -0.003 A 
ATOM      6  C6  DEN d   1      -1.777  -2.979   1.356  0.00  0.00     0.001 A 
ATOM      7  C7  DEN d   1      -1.070  -2.608   0.243  0.00  0.00     0.017 A 
ATOM      8  C8  DEN d   1      -0.636  -1.292   0.146  0.00  0.00    -0.094 A 
ATOM      9  C9  DEN d   1      -0.854  -0.392   1.174  0.00  0.00    -0.072 A 
ENDROOT
TORSDOF 0
ENDMDL
