MODEL 1
REMARK minimizedAffinity -2.91295576
REMARK minimizedRMSD -1
REMARK  0 active torsions:
REMARK  status: ('A' for Active; 'I' for Inactive)
ROOT
ATOM      1  C1  DEN d   1      -2.454  -1.678   1.199  0.00  0.00     0.130 A 
ATOM      2  C2  DEN d   1      -2.418  -3.091   0.832  0.00  0.00    -0.031 A 
ATOM      3  C3  DEN d   1      -1.218  -3.316   0.000  0.00  0.00     0.027 A 
ATOM      4  C4  DEN d   1       0.579  -1.623  -0.746  0.00  0.00     0.027 A 
ATOM      5  C5  DEN d   1       0.969  -0.303  -0.692  0.00  0.00    -0.003 A 
ATOM      6  C6  DEN d   1       0.234   0.649  -0.037  0.00  0.00     0.001 A 
ATOM      7  C7  DEN d   1      -0.908   0.287   0.628  0.00  0.00     0.017 A 
ATOM      8  C8  DEN d   1      -1.312  -1.040   0.571  0.00  0.00    -0.094 A 
ATOM      9  C9  DEN d   1      -0.548  -1.990  -0.085  0.00  0.00    -0.072 A 
ENDROOT
TORSDOF 0
ENDMDL
