MODEL 1
REMARK minimizedAffinity -0.049457401
REMARK minimizedRMSD -1
REMARK  0 active torsions:
REMARK  status: ('A' for Active; 'I' for Inactive)
ROOT
ATOM      1  C1  DEN d   1       0.964  -1.060  -0.301  0.00  0.00     0.130 A 
ATOM      2  C2  DEN d   1       1.397  -2.327  -0.884  0.00  0.00    -0.031 A 
ATOM      3  C3  DEN d   1       0.354  -3.336  -0.611  0.00  0.00     0.027 A 
ATOM      4  C4  DEN d   1      -1.881  -3.059   0.645  0.00  0.00     0.027 A 
ATOM      5  C5  DEN d   1      -2.682  -2.172   1.330  0.00  0.00    -0.003 A 
ATOM      6  C6  DEN d   1      -2.312  -0.871   1.546  0.00  0.00     0.001 A 
ATOM      7  C7  DEN d   1      -1.128  -0.408   1.034  0.00  0.00     0.017 A 
ATOM      8  C8  DEN d   1      -0.312  -1.299   0.349  0.00  0.00    -0.094 A 
ATOM      9  C9  DEN d   1      -0.710  -2.607   0.131  0.00  0.00    -0.072 A 
ENDROOT
TORSDOF 0
ENDMDL
