MODEL 1
REMARK minimizedAffinity -2.03749633
REMARK minimizedRMSD -1
REMARK  0 active torsions:
REMARK  status: ('A' for Active; 'I' for Inactive)
ROOT
ATOM      1  C1  DEN d   1      -0.920   2.175   0.562  0.00  0.00     0.130 A 
ATOM      2  C2  DEN d   1      -0.766   0.886  -0.106  0.00  0.00    -0.031 A 
ATOM      3  C3  DEN d   1       0.674   0.671  -0.355  0.00  0.00     0.027 A 
ATOM      4  C4  DEN d   1       2.668   2.197   0.230  0.00  0.00     0.027 A 
ATOM      5  C5  DEN d   1       3.034   3.401   0.792  0.00  0.00    -0.003 A 
ATOM      6  C6  DEN d   1       2.112   4.288   1.282  0.00  0.00     0.001 A 
ATOM      7  C7  DEN d   1       0.781   3.965   1.261  0.00  0.00     0.017 A 
ATOM      8  C8  DEN d   1       0.404   2.757   0.689  0.00  0.00    -0.094 A 
ATOM      9  C9  DEN d   1       1.352   1.868   0.210  0.00  0.00    -0.072 A 
ENDROOT
TORSDOF 0
ENDMDL
