MODEL 1
REMARK minimizedAffinity -4.6725297
REMARK minimizedRMSD -1
REMARK  0 active torsions:
REMARK  status: ('A' for Active; 'I' for Inactive)
ROOT
ATOM      1  C1  DEN d   1      -0.631   1.558   0.493  0.00  0.00     0.130 A 
ATOM      2  C2  DEN d   1       0.590   1.689  -0.299  0.00  0.00    -0.031 A 
ATOM      3  C3  DEN d   1       1.085   0.331  -0.601  0.00  0.00     0.027 A 
ATOM      4  C4  DEN d   1       0.084  -1.949   0.071  0.00  0.00     0.027 A 
ATOM      5  C5  DEN d   1      -0.939  -2.568   0.755  0.00  0.00    -0.003 A 
ATOM      6  C6  DEN d   1      -1.904  -1.861   1.422  0.00  0.00     0.001 A 
ATOM      7  C7  DEN d   1      -1.892  -0.492   1.382  0.00  0.00     0.017 A 
ATOM      8  C8  DEN d   1      -0.859   0.140   0.701  0.00  0.00    -0.094 A 
ATOM      9  C9  DEN d   1       0.100  -0.593   0.023  0.00  0.00    -0.072 A 
ENDROOT
TORSDOF 0
ENDMDL
