MODEL 1
REMARK minimizedAffinity -4.78565884
REMARK minimizedRMSD -1
REMARK  0 active torsions:
REMARK  status: ('A' for Active; 'I' for Inactive)
ROOT
ATOM      1  C1  DEN d   1       0.628   5.320   2.980  0.00  0.00     0.130 A 
ATOM      2  C2  DEN d   1      -0.801   5.604   2.878  0.00  0.00    -0.031 A 
ATOM      3  C3  DEN d   1      -1.313   4.940   1.662  0.00  0.00     0.027 A 
ATOM      4  C4  DEN d   1      -0.039   3.502  -0.059  0.00  0.00     0.027 A 
ATOM      5  C5  DEN d   1       1.193   2.990  -0.402  0.00  0.00    -0.003 A 
ATOM      6  C6  DEN d   1       2.320   3.244   0.334  0.00  0.00     0.001 A 
ATOM      7  C7  DEN d   1       2.229   3.995   1.476  0.00  0.00     0.017 A 
ATOM      8  C8  DEN d   1       0.992   4.521   1.824  0.00  0.00    -0.094 A 
ATOM      9  C9  DEN d   1      -0.138   4.242   1.074  0.00  0.00    -0.072 A 
ENDROOT
TORSDOF 0
ENDMDL
