MODEL 1
REMARK minimizedAffinity -3.54365826
REMARK minimizedRMSD -1
REMARK  0 active torsions:
REMARK  status: ('A' for Active; 'I' for Inactive)
ROOT
ATOM      1  C1  DEN d   1      -1.112   1.092   0.433  0.00  0.00     0.130 A 
ATOM      2  C2  DEN d   1      -0.079   1.566  -0.483  0.00  0.00    -0.031 A 
ATOM      3  C3  DEN d   1       0.704   0.397  -0.932  0.00  0.00     0.027 A 
ATOM      4  C4  DEN d   1       0.415  -2.088  -0.305  0.00  0.00     0.027 A 
ATOM      5  C5  DEN d   1      -0.319  -2.977   0.449  0.00  0.00    -0.003 A 
ATOM      6  C6  DEN d   1      -1.338  -2.572   1.269  0.00  0.00     0.001 A 
ATOM      7  C7  DEN d   1      -1.682  -1.247   1.321  0.00  0.00     0.017 A 
ATOM      8  C8  DEN d   1      -0.942  -0.344   0.570  0.00  0.00    -0.094 A 
ATOM      9  C9  DEN d   1       0.077  -0.774  -0.263  0.00  0.00    -0.072 A 
ENDROOT
TORSDOF 0
ENDMDL
