MODEL 1
REMARK minimizedAffinity -1.85545826
REMARK minimizedRMSD -1
REMARK  0 active torsions:
REMARK  status: ('A' for Active; 'I' for Inactive)
ROOT
ATOM      1  C1  DEN d   1      -0.944   0.739   0.487  0.00  0.00     0.130 A 
ATOM      2  C2  DEN d   1       0.402   1.270   0.293  0.00  0.00    -0.031 A 
ATOM      3  C3  DEN d   1       1.280   0.154  -0.112  0.00  0.00     0.027 A 
ATOM      4  C4  DEN d   1       0.687  -2.332  -0.460  0.00  0.00     0.027 A 
ATOM      5  C5  DEN d   1      -0.326  -3.263  -0.403  0.00  0.00    -0.003 A 
ATOM      6  C6  DEN d   1      -1.599  -2.935  -0.015  0.00  0.00     0.001 A 
ATOM      7  C7  DEN d   1      -1.901  -1.633   0.287  0.00  0.00     0.017 A 
ATOM      8  C8  DEN d   1      -0.883  -0.691   0.239  0.00  0.00    -0.094 A 
ATOM      9  C9  DEN d   1       0.394  -1.040  -0.167  0.00  0.00    -0.072 A 
ENDROOT
TORSDOF 0
ENDMDL
