MODEL 1
REMARK minimizedAffinity -5.98312855
REMARK minimizedRMSD -1
REMARK  0 active torsions:
REMARK  status: ('A' for Active; 'I' for Inactive)
ROOT
ATOM      1  C1  DEN d   1       0.401  -0.515  -2.302  0.00  0.00     0.130 A 
ATOM      2  C2  DEN d   1       0.103   0.818  -1.786  0.00  0.00    -0.031 A 
ATOM      3  C3  DEN d   1      -0.343   0.677  -0.386  0.00  0.00     0.027 A 
ATOM      4  C4  DEN d   1      -0.596  -1.464   1.029  0.00  0.00     0.027 A 
ATOM      5  C5  DEN d   1      -0.472  -2.836   1.021  0.00  0.00    -0.003 A 
ATOM      6  C6  DEN d   1      -0.085  -3.528  -0.096  0.00  0.00     0.001 A 
ATOM      7  C7  DEN d   1       0.236  -2.845  -1.240  0.00  0.00     0.017 A 
ATOM      8  C8  DEN d   1       0.107  -1.463  -1.241  0.00  0.00    -0.094 A 
ATOM      9  C9  DEN d   1      -0.274  -0.781  -0.098  0.00  0.00    -0.072 A 
ENDROOT
TORSDOF 0
ENDMDL
