MODEL 1
REMARK minimizedAffinity -4.40791988
REMARK minimizedRMSD -1
REMARK  0 active torsions:
REMARK  status: ('A' for Active; 'I' for Inactive)
ROOT
ATOM      1  C1  DEN d   1       0.263   0.028  -0.408  0.00  0.00     0.130 A 
ATOM      2  C2  DEN d   1      -0.329   0.635   0.782  0.00  0.00    -0.031 A 
ATOM      3  C3  DEN d   1      -1.020  -0.427   1.540  0.00  0.00     0.027 A 
ATOM      4  C4  DEN d   1      -1.226  -2.939   0.993  0.00  0.00     0.027 A 
ATOM      5  C5  DEN d   1      -0.899  -3.921   0.084  0.00  0.00    -0.003 A 
ATOM      6  C6  DEN d   1      -0.196  -3.651  -1.060  0.00  0.00     0.001 A 
ATOM      7  C7  DEN d   1       0.242  -2.376  -1.303  0.00  0.00     0.017 A 
ATOM      8  C8  DEN d   1      -0.091  -1.380  -0.395  0.00  0.00    -0.094 A 
ATOM      9  C9  DEN d   1      -0.792  -1.675   0.762  0.00  0.00    -0.072 A 
ENDROOT
TORSDOF 0
ENDMDL
