MODEL 1
REMARK minimizedAffinity -3.66547465
REMARK minimizedRMSD -1
REMARK  0 active torsions:
REMARK  status: ('A' for Active; 'I' for Inactive)
ROOT
ATOM      1  C1  DEN d   1       0.785  -0.387  -1.261  0.00  0.00     0.130 A 
ATOM      2  C2  DEN d   1       0.826   0.980  -0.747  0.00  0.00    -0.031 A 
ATOM      3  C3  DEN d   1       0.015   1.028   0.486  0.00  0.00     0.027 A 
ATOM      4  C4  DEN d   1      -1.288  -0.872   1.646  0.00  0.00     0.027 A 
ATOM      5  C5  DEN d   1      -1.629  -2.205   1.577  0.00  0.00    -0.003 A 
ATOM      6  C6  DEN d   1      -1.221  -3.010   0.547  0.00  0.00     0.001 A 
ATOM      7  C7  DEN d   1      -0.410  -2.501  -0.433  0.00  0.00     0.017 A 
ATOM      8  C8  DEN d   1      -0.067  -1.156  -0.373  0.00  0.00    -0.094 A 
ATOM      9  C9  DEN d   1      -0.480  -0.362   0.683  0.00  0.00    -0.072 A 
ENDROOT
TORSDOF 0
ENDMDL
