MODEL 1
REMARK minimizedAffinity -1.6548835
REMARK minimizedRMSD -1
REMARK  0 active torsions:
REMARK  status: ('A' for Active; 'I' for Inactive)
ROOT
ATOM      1  C   UNL d   1       5.993  -3.541   1.280  0.00  0.00    -0.002 A 
ATOM      2  C1  UNL d   1       5.984  -4.882   1.636  0.00  0.00     0.010 A 
ATOM      3  C2  UNL d   1       5.982  -5.260   2.980  0.00  0.00     0.041 A 
ATOM      4  C3  UNL d   1       5.987  -4.257   3.970  0.00  0.00    -0.075 A 
ATOM      5  S   UNL d   1       5.984  -4.484   5.679  0.00  0.00     0.015 SA
ATOM      6  C4  UNL d   1       5.994  -2.806   5.977  0.00  0.00     0.022 A 
ATOM      7  C5  UNL d   1       6.000  -2.076   4.812  0.00  0.00     0.026 A 
ATOM      8  C6  UNL d   1       5.995  -2.900   3.636  0.00  0.00    -0.082 A 
ATOM      9  C7  UNL d   1       5.998  -2.550   2.264  0.00  0.00     0.045 A 
ENDROOT
TORSDOF 0
ENDMDL
