MODEL 1
REMARK minimizedAffinity -0.427709907
REMARK minimizedRMSD -1
REMARK  0 active torsions:
REMARK  status: ('A' for Active; 'I' for Inactive)
ROOT
ATOM      1  C   UNL d   1       6.000  -2.161   1.305  0.00  0.00    -0.002 A 
ATOM      2  C1  UNL d   1       5.999  -3.546   1.231  0.00  0.00     0.010 A 
ATOM      3  C2  UNL d   1       6.000  -4.320   2.393  0.00  0.00     0.041 A 
ATOM      4  C3  UNL d   1       5.999  -3.672   3.643  0.00  0.00    -0.075 A 
ATOM      5  S   UNL d   1       5.999  -4.414   5.199  0.00  0.00     0.015 SA
ATOM      6  C4  UNL d   1       5.999  -2.909   6.000  0.00  0.00     0.022 A 
ATOM      7  C5  UNL d   1       5.999  -1.856   5.117  0.00  0.00     0.026 A 
ATOM      8  C6  UNL d   1       5.999  -2.277   3.744  0.00  0.00    -0.082 A 
ATOM      9  C7  UNL d   1       5.999  -1.521   2.548  0.00  0.00     0.045 A 
ENDROOT
TORSDOF 0
ENDMDL
