MODEL 1
REMARK minimizedAffinity -3.87596416
REMARK minimizedRMSD -1
REMARK  0 active torsions:
REMARK  status: ('A' for Active; 'I' for Inactive)
ROOT
ATOM      1  C   UNL d   1       5.935  -3.996   1.497  0.00  0.00    -0.002 A 
ATOM      2  C1  UNL d   1       5.991  -5.255   2.076  0.00  0.00     0.010 A 
ATOM      3  C2  UNL d   1       6.000  -5.399   3.465  0.00  0.00     0.041 A 
ATOM      4  C3  UNL d   1       5.950  -4.244   4.269  0.00  0.00    -0.075 A 
ATOM      5  S   UNL d   1       5.949  -4.176   5.992  0.00  0.00     0.015 SA
ATOM      6  C4  UNL d   1       5.874  -2.474   6.000  0.00  0.00     0.022 A 
ATOM      7  C5  UNL d   1       5.850  -1.953   4.728  0.00  0.00     0.026 A 
ATOM      8  C6  UNL d   1       5.892  -2.964   3.710  0.00  0.00    -0.082 A 
ATOM      9  C7  UNL d   1       5.886  -2.852   2.298  0.00  0.00     0.045 A 
ENDROOT
TORSDOF 0
ENDMDL
