MODEL 1
REMARK minimizedAffinity -1.668782
REMARK minimizedRMSD -1
REMARK  0 active torsions:
REMARK  status: ('A' for Active; 'I' for Inactive)
ROOT
ATOM      1  C   UNL d   1       5.181  -5.916   5.030  0.00  0.00    -0.002 A 
ATOM      2  C1  UNL d   1       4.979  -4.932   5.988  0.00  0.00     0.010 A 
ATOM      3  C2  UNL d   1       5.103  -3.582   5.656  0.00  0.00     0.041 A 
ATOM      4  C3  UNL d   1       5.435  -3.233   4.332  0.00  0.00    -0.075 A 
ATOM      5  S   UNL d   1       5.640  -1.644   3.696  0.00  0.00     0.015 SA
ATOM      6  C4  UNL d   1       6.000  -2.233   2.138  0.00  0.00     0.022 A 
ATOM      7  C5  UNL d   1       5.969  -3.606   2.086  0.00  0.00     0.026 A 
ATOM      8  C6  UNL d   1       5.643  -4.205   3.350  0.00  0.00    -0.082 A 
ATOM      9  C7  UNL d   1       5.510  -5.566   3.718  0.00  0.00     0.045 A 
ENDROOT
TORSDOF 0
ENDMDL
