MODEL 1
REMARK minimizedAffinity -3.05000091
REMARK minimizedRMSD -1
REMARK  0 active torsions:
REMARK  status: ('A' for Active; 'I' for Inactive)
ROOT
ATOM      1  C   UNL d   1       5.556  -1.861   5.109  0.00  0.00    -0.002 A 
ATOM      2  C1  UNL d   1       5.594  -2.924   6.000  0.00  0.00     0.010 A 
ATOM      3  C2  UNL d   1       5.722  -4.235   5.536  0.00  0.00     0.041 A 
ATOM      4  C3  UNL d   1       5.813  -4.461   4.149  0.00  0.00    -0.075 A 
ATOM      5  S   UNL d   1       5.975  -5.982   3.352  0.00  0.00     0.015 SA
ATOM      6  C4  UNL d   1       5.999  -5.256   1.811  0.00  0.00     0.022 A 
ATOM      7  C5  UNL d   1       5.886  -3.888   1.883  0.00  0.00     0.026 A 
ATOM      8  C6  UNL d   1       5.778  -3.407   3.232  0.00  0.00    -0.082 A 
ATOM      9  C7  UNL d   1       5.647  -2.090   3.733  0.00  0.00     0.045 A 
ENDROOT
TORSDOF 0
ENDMDL
