MODEL 1
REMARK minimizedAffinity -2.34107661
REMARK minimizedRMSD -1
REMARK  0 active torsions:
REMARK  status: ('A' for Active; 'I' for Inactive)
ROOT
ATOM      1  C   UNL d   1       5.999  -3.524   1.268  0.00  0.00    -0.002 A 
ATOM      2  C1  UNL d   1       6.000  -4.880   1.560  0.00  0.00     0.010 A 
ATOM      3  C2  UNL d   1       5.999  -5.322   2.884  0.00  0.00     0.041 A 
ATOM      4  C3  UNL d   1       5.996  -4.368   3.921  0.00  0.00    -0.075 A 
ATOM      5  S   UNL d   1       5.994  -4.677   5.617  0.00  0.00     0.015 SA
ATOM      6  C4  UNL d   1       5.991  -3.015   5.995  0.00  0.00     0.022 A 
ATOM      7  C5  UNL d   1       5.991  -2.229   4.867  0.00  0.00     0.026 A 
ATOM      8  C6  UNL d   1       5.994  -2.997   3.653  0.00  0.00    -0.082 A 
ATOM      9  C7  UNL d   1       5.995  -2.580   2.299  0.00  0.00     0.045 A 
ENDROOT
TORSDOF 0
ENDMDL
