MODEL 1
REMARK minimizedAffinity -2.09292364
REMARK minimizedRMSD -1
REMARK  0 active torsions:
REMARK  status: ('A' for Active; 'I' for Inactive)
ROOT
ATOM      1  C   UNL d   1       1.847  -4.529   4.813  0.00  0.00    -0.002 A 
ATOM      2  C1  UNL d   1       2.523  -4.275   5.998  0.00  0.00     0.010 A 
ATOM      3  C2  UNL d   1       3.816  -3.749   5.980  0.00  0.00     0.041 A 
ATOM      4  C3  UNL d   1       4.424  -3.478   4.738  0.00  0.00    -0.075 A 
ATOM      5  S   UNL d   1       6.000  -2.832   4.472  0.00  0.00     0.015 SA
ATOM      6  C4  UNL d   1       5.813  -2.878   2.778  0.00  0.00     0.022 A 
ATOM      7  C5  UNL d   1       4.585  -3.372   2.408  0.00  0.00     0.026 A 
ATOM      8  C6  UNL d   1       3.764  -3.725   3.531  0.00  0.00    -0.082 A 
ATOM      9  C7  UNL d   1       2.454  -4.260   3.584  0.00  0.00     0.045 A 
ENDROOT
TORSDOF 0
ENDMDL
