MODEL 1
REMARK minimizedAffinity -2.94877481
REMARK minimizedRMSD -1
REMARK  0 active torsions:
REMARK  status: ('A' for Active; 'I' for Inactive)
ROOT
ATOM      1  C   UNL d   1       5.996  -3.514   1.920  0.00  0.00    -0.002 A 
ATOM      2  C1  UNL d   1       5.999  -2.235   2.459  0.00  0.00     0.010 A 
ATOM      3  C2  UNL d   1       5.450  -1.995   3.720  0.00  0.00     0.041 A 
ATOM      4  C3  UNL d   1       4.894  -3.072   4.438  0.00  0.00    -0.075 A 
ATOM      5  S   UNL d   1       4.166  -3.016   6.000  0.00  0.00     0.015 SA
ATOM      6  C4  UNL d   1       3.834  -4.687   5.988  0.00  0.00     0.022 A 
ATOM      7  C5  UNL d   1       4.261  -5.290   4.828  0.00  0.00     0.026 A 
ATOM      8  C6  UNL d   1       4.879  -4.369   3.916  0.00  0.00    -0.082 A 
ATOM      9  C7  UNL d   1       5.443  -4.580   2.634  0.00  0.00     0.045 A 
ENDROOT
TORSDOF 0
ENDMDL
