MODEL 1
REMARK minimizedAffinity 0.209538892
REMARK minimizedRMSD -1
REMARK  0 active torsions:
REMARK  status: ('A' for Active; 'I' for Inactive)
ROOT
ATOM      1  C   UNL d   1       5.998  -3.329   5.903  0.00  0.00    -0.002 A 
ATOM      2  C1  UNL d   1       5.998  -1.969   5.630  0.00  0.00     0.010 A 
ATOM      3  C2  UNL d   1       5.999  -1.509   4.312  0.00  0.00     0.041 A 
ATOM      4  C3  UNL d   1       5.999  -2.448   3.262  0.00  0.00    -0.075 A 
ATOM      5  S   UNL d   1       6.000  -2.116   1.570  0.00  0.00     0.015 SA
ATOM      6  C4  UNL d   1       6.000  -3.773   1.169  0.00  0.00     0.022 A 
ATOM      7  C5  UNL d   1       5.999  -4.574   2.287  0.00  0.00     0.026 A 
ATOM      8  C6  UNL d   1       5.998  -3.823   3.511  0.00  0.00    -0.082 A 
ATOM      9  C7  UNL d   1       5.998  -4.258   4.859  0.00  0.00     0.045 A 
ENDROOT
TORSDOF 0
ENDMDL
