MODEL 1
REMARK minimizedAffinity -0.745136499
REMARK minimizedRMSD -1
REMARK  0 active torsions:
REMARK  status: ('A' for Active; 'I' for Inactive)
ROOT
ATOM      1  C   UNL d   1       3.174  -2.952   1.922  0.00  0.00    -0.002 A 
ATOM      2  C1  UNL d   1       2.333  -3.782   2.650  0.00  0.00     0.010 A 
ATOM      3  C2  UNL d   1       2.698  -4.221   3.924  0.00  0.00     0.041 A 
ATOM      4  C3  UNL d   1       3.934  -3.807   4.459  0.00  0.00    -0.075 A 
ATOM      5  S   UNL d   1       4.589  -4.219   6.000  0.00  0.00     0.015 SA
ATOM      6  C4  UNL d   1       6.000  -3.302   5.728  0.00  0.00     0.022 A 
ATOM      7  C5  UNL d   1       5.988  -2.690   4.497  0.00  0.00     0.026 A 
ATOM      8  C6  UNL d   1       4.797  -2.970   3.746  0.00  0.00    -0.082 A 
ATOM      9  C7  UNL d   1       4.398  -2.543   2.456  0.00  0.00     0.045 A 
ENDROOT
TORSDOF 0
ENDMDL
