MODEL 1
REMARK minimizedAffinity -2.55350137
REMARK minimizedRMSD -1
REMARK  0 active torsions:
REMARK  status: ('A' for Active; 'I' for Inactive)
ROOT
ATOM      1  O1  BZF d   1      -0.271   1.322  -2.692  0.00  0.00    -0.204 OA
ATOM      2  C2  BZF d   1      -1.222   2.258  -2.333  0.00  0.00     0.174 A 
ATOM      3  C3  BZF d   1      -1.585   2.100  -1.044  0.00  0.00    -0.012 A 
ATOM      4  C3A BZF d   1      -0.746   1.056  -0.541  0.00  0.00    -0.107 A 
ATOM      5  C4  BZF d   1      -0.621   0.459   0.681  0.00  0.00     0.055 A 
ATOM      6  C5  BZF d   1       0.243  -0.581   0.822  0.00  0.00    -0.016 A 
ATOM      7  C6  BZF d   1       0.993  -1.051  -0.237  0.00  0.00     0.022 A 
ATOM      8  C7  BZF d   1       0.906  -0.487  -1.466  0.00  0.00     0.029 A 
ATOM      9  C7A BZF d   1       0.059   0.585  -1.604  0.00  0.00     0.058 A 
ENDROOT
TORSDOF 0
ENDMDL
