MODEL 1
REMARK minimizedAffinity -5.15206146
REMARK minimizedRMSD -1
REMARK  0 active torsions:
REMARK  status: ('A' for Active; 'I' for Inactive)
ROOT
ATOM      1  O1  BZF d   1      -1.665   2.628   0.929  0.00  0.00    -0.204 OA
ATOM      2  C2  BZF d   1      -1.209   3.015   2.174  0.00  0.00     0.174 A 
ATOM      3  C3  BZF d   1      -0.267   2.162   2.625  0.00  0.00    -0.012 A 
ATOM      4  C3A BZF d   1      -0.058   1.233   1.557  0.00  0.00    -0.107 A 
ATOM      5  C4  BZF d   1       0.768   0.158   1.395  0.00  0.00     0.055 A 
ATOM      6  C5  BZF d   1       0.674  -0.583   0.260  0.00  0.00    -0.016 A 
ATOM      7  C6  BZF d   1      -0.237  -0.281  -0.731  0.00  0.00     0.022 A 
ATOM      8  C7  BZF d   1      -1.074   0.779  -0.618  0.00  0.00     0.029 A 
ATOM      9  C7A BZF d   1      -0.959   1.549   0.513  0.00  0.00     0.058 A 
ENDROOT
TORSDOF 0
ENDMDL
