MODEL 1
REMARK minimizedAffinity -4.91830587
REMARK minimizedRMSD -1
REMARK  0 active torsions:
REMARK  status: ('A' for Active; 'I' for Inactive)
ROOT
ATOM      1  O1  BZF d   1       1.068  -0.569   0.053  0.00  0.00    -0.204 OA
ATOM      2  C2  BZF d   1       0.322   0.162   0.957  0.00  0.00     0.174 A 
ATOM      3  C3  BZF d   1      -0.969  -0.226   0.938  0.00  0.00    -0.012 A 
ATOM      4  C3A BZF d   1      -1.017  -1.329   0.027  0.00  0.00    -0.107 A 
ATOM      5  C4  BZF d   1      -2.020  -2.150  -0.402  0.00  0.00     0.055 A 
ATOM      6  C5  BZF d   1      -1.750  -3.083  -1.352  0.00  0.00    -0.016 A 
ATOM      7  C6  BZF d   1      -0.490  -3.219  -1.898  0.00  0.00     0.022 A 
ATOM      8  C7  BZF d   1       0.539  -2.432  -1.500  0.00  0.00     0.029 A 
ATOM      9  C7A BZF d   1       0.276  -1.510  -0.516  0.00  0.00     0.058 A 
ENDROOT
TORSDOF 0
ENDMDL
