MODEL 1
REMARK minimizedAffinity -2.5171349
REMARK minimizedRMSD -1
REMARK  0 active torsions:
REMARK  status: ('A' for Active; 'I' for Inactive)
ROOT
ATOM      1  O1  BZF d   1      -1.065   1.782   3.104  0.00  0.00    -0.204 OA
ATOM      2  C2  BZF d   1      -0.898   2.372   1.866  0.00  0.00     0.174 A 
ATOM      3  C3  BZF d   1       0.095   1.772   1.179  0.00  0.00    -0.012 A 
ATOM      4  C3A BZF d   1       0.518   0.682   2.005  0.00  0.00    -0.107 A 
ATOM      5  C4  BZF d   1       1.463  -0.293   1.861  0.00  0.00     0.055 A 
ATOM      6  C5  BZF d   1       1.676  -1.162   2.883  0.00  0.00    -0.016 A 
ATOM      7  C6  BZF d   1       0.968  -1.082   4.064  0.00  0.00     0.022 A 
ATOM      8  C7  BZF d   1       0.017  -0.134   4.252  0.00  0.00     0.029 A 
ATOM      9  C7A BZF d   1      -0.224   0.725   3.208  0.00  0.00     0.058 A 
ENDROOT
TORSDOF 0
ENDMDL
