MODEL 1
REMARK minimizedAffinity 6.06703424
REMARK minimizedRMSD -1
REMARK  0 active torsions:
REMARK  status: ('A' for Active; 'I' for Inactive)
ROOT
ATOM      1  O1  BZF d   1      -2.618  -1.634  -1.335  0.00  0.00    -0.204 OA
ATOM      2  C2  BZF d   1      -1.880  -2.669  -1.876  0.00  0.00     0.174 A 
ATOM      3  C3  BZF d   1      -0.711  -2.214  -2.373  0.00  0.00    -0.012 A 
ATOM      4  C3A BZF d   1      -0.678  -0.822  -2.044  0.00  0.00    -0.107 A 
ATOM      5  C4  BZF d   1       0.235   0.171  -2.256  0.00  0.00     0.055 A 
ATOM      6  C5  BZF d   1      -0.069   1.439  -1.874  0.00  0.00    -0.016 A 
ATOM      7  C6  BZF d   1      -1.276   1.751  -1.283  0.00  0.00     0.022 A 
ATOM      8  C7  BZF d   1      -2.211   0.798  -1.048  0.00  0.00     0.029 A 
ATOM      9  C7A BZF d   1      -1.894  -0.490  -1.403  0.00  0.00     0.058 A 
ENDROOT
TORSDOF 0
ENDMDL
