MODEL 1
REMARK minimizedAffinity -4.26266718
REMARK minimizedRMSD -1
REMARK  0 active torsions:
REMARK  status: ('A' for Active; 'I' for Inactive)
ROOT
ATOM      1  O1  BZF d   1      -0.706  -0.103  -1.361  0.00  0.00    -0.204 OA
ATOM      2  C2  BZF d   1       0.136  -1.179  -1.563  0.00  0.00     0.174 A 
ATOM      3  C3  BZF d   1       0.916  -1.386  -0.482  0.00  0.00    -0.012 A 
ATOM      4  C3A BZF d   1       0.472  -0.434   0.489  0.00  0.00    -0.107 A 
ATOM      5  C4  BZF d   1       0.849  -0.156   1.772  0.00  0.00     0.055 A 
ATOM      6  C5  BZF d   1       0.266   0.886   2.421  0.00  0.00    -0.016 A 
ATOM      7  C6  BZF d   1      -0.692   1.673   1.817  0.00  0.00     0.022 A 
ATOM      8  C7  BZF d   1      -1.102   1.433   0.548  0.00  0.00     0.029 A 
ATOM      9  C7A BZF d   1      -0.539   0.361  -0.099  0.00  0.00     0.058 A 
ENDROOT
TORSDOF 0
ENDMDL
