MODEL 1
REMARK minimizedAffinity -5.76075363
REMARK minimizedRMSD -1
REMARK  0 active torsions:
REMARK  status: ('A' for Active; 'I' for Inactive)
ROOT
ATOM      1  O1  BZF d   1       0.706  -0.179  -1.510  0.00  0.00    -0.204 OA
ATOM      2  C2  BZF d   1       0.260   0.816  -2.359  0.00  0.00     0.174 A 
ATOM      3  C3  BZF d   1      -0.466   1.730  -1.684  0.00  0.00    -0.012 A 
ATOM      4  C3A BZF d   1      -0.397   1.329  -0.313  0.00  0.00    -0.107 A 
ATOM      5  C4  BZF d   1      -0.906   1.846   0.844  0.00  0.00     0.055 A 
ATOM      6  C5  BZF d   1      -0.716   1.172   2.009  0.00  0.00    -0.016 A 
ATOM      7  C6  BZF d   1      -0.029  -0.023   2.053  0.00  0.00     0.022 A 
ATOM      8  C7  BZF d   1       0.499  -0.573   0.932  0.00  0.00     0.029 A 
ATOM      9  C7A BZF d   1       0.337   0.122  -0.241  0.00  0.00     0.058 A 
ENDROOT
TORSDOF 0
ENDMDL
