MODEL 1
REMARK minimizedAffinity -4.27889776
REMARK minimizedRMSD -1
REMARK  0 active torsions:
REMARK  status: ('A' for Active; 'I' for Inactive)
ROOT
ATOM      1  O1  BZF d   1      -1.637   2.181   0.138  0.00  0.00    -0.204 OA
ATOM      2  C2  BZF d   1      -1.578   2.418   1.498  0.00  0.00     0.174 A 
ATOM      3  C3  BZF d   1      -0.691   1.592   2.089  0.00  0.00    -0.012 A 
ATOM      4  C3A BZF d   1      -0.094   0.853   1.020  0.00  0.00    -0.107 A 
ATOM      5  C4  BZF d   1       0.872  -0.112   0.970  0.00  0.00     0.055 A 
ATOM      6  C5  BZF d   1       1.174  -0.682  -0.226  0.00  0.00    -0.016 A 
ATOM      7  C6  BZF d   1       0.528  -0.317  -1.389  0.00  0.00     0.022 A 
ATOM      8  C7  BZF d   1      -0.433   0.638  -1.390  0.00  0.00     0.029 A 
ATOM      9  C7A BZF d   1      -0.718   1.240  -0.188  0.00  0.00     0.058 A 
ENDROOT
TORSDOF 0
ENDMDL
