MODEL 1
REMARK minimizedAffinity -1.19154263
REMARK minimizedRMSD -1
REMARK  3 active torsions:
REMARK  status: ('A' for Active; 'I' for Inactive)
REMARK    1  A    between atoms: C3'_2  and  C2'_3 
REMARK    2  A    between atoms: C2'_3  and  C1'_4 
REMARK    3  A    between atoms: C1'_4  and  C1_5 
ROOT
ATOM      1  C1  N4B d   1      -1.520   3.219  -0.774  0.00  0.00    -0.075 A 
ATOM      2  C2  N4B d   1      -1.810   3.044   0.597  0.00  0.00     0.002 A 
ATOM      3  C3  N4B d   1      -0.788   2.866   1.497  0.00  0.00     0.002 A 
ATOM      4  C4  N4B d   1       0.524   2.839   1.050  0.00  0.00    -0.004 A 
ATOM      5  C5  N4B d   1       0.797   3.034  -0.273  0.00  0.00     0.002 A 
ATOM      6  C6  N4B d   1      -0.219   3.219  -1.188  0.00  0.00     0.002 A 
ENDROOT
BRANCH   1   7
ATOM      7  C1' N4B d   1      -2.607   3.332  -1.807  0.00  0.00     0.057 C 
BRANCH   7   8
ATOM      8  C2' N4B d   1      -2.733   2.005  -2.549  0.00  0.00     0.009 C 
BRANCH   8   9
ATOM      9  C3' N4B d   1      -3.810   1.118  -1.947  0.00  0.00     0.004 C 
ATOM     10  C4' N4B d   1      -3.255   0.081  -1.016  0.00  0.00     0.003 C 
ENDBRANCH   8   9
ENDBRANCH   7   8
ENDBRANCH   1   7
TORSDOF 3
ENDMDL
