MODEL 1
REMARK minimizedAffinity 5.86026812
REMARK minimizedRMSD -1
REMARK  3 active torsions:
REMARK  status: ('A' for Active; 'I' for Inactive)
REMARK    1  A    between atoms: C3'_2  and  C2'_3 
REMARK    2  A    between atoms: C2'_3  and  C1'_4 
REMARK    3  A    between atoms: C1'_4  and  C1_5 
ROOT
ATOM      1  C1  N4B d   1       0.225   4.125  -1.226  0.00  0.00    -0.075 A 
ATOM      2  C2  N4B d   1       0.923   3.686  -0.080  0.00  0.00     0.002 A 
ATOM      3  C3  N4B d   1       0.393   2.695   0.709  0.00  0.00     0.002 A 
ATOM      4  C4  N4B d   1      -0.837   2.144   0.384  0.00  0.00    -0.004 A 
ATOM      5  C5  N4B d   1      -1.493   2.556  -0.739  0.00  0.00     0.002 A 
ATOM      6  C6  N4B d   1      -0.970   3.548  -1.544  0.00  0.00     0.002 A 
ENDROOT
BRANCH   1   7
ATOM      7  C1' N4B d   1       0.724   5.266  -2.071  0.00  0.00     0.057 C 
BRANCH   7   8
ATOM      8  C2' N4B d   1       0.698   4.850  -3.539  0.00  0.00     0.009 C 
BRANCH   8   9
ATOM      9  C3' N4B d   1       1.071   5.998  -4.461  0.00  0.00     0.004 C 
ATOM     10  C4' N4B d   1       0.295   5.986  -5.745  0.00  0.00     0.003 C 
ENDBRANCH   8   9
ENDBRANCH   7   8
ENDBRANCH   1   7
TORSDOF 3
ENDMDL
