MODEL 1
REMARK minimizedAffinity 12.3528156
REMARK minimizedRMSD -1
REMARK  3 active torsions:
REMARK  status: ('A' for Active; 'I' for Inactive)
REMARK    1  A    between atoms: C3'_2  and  C2'_3 
REMARK    2  A    between atoms: C2'_3  and  C1'_4 
REMARK    3  A    between atoms: C1'_4  and  C1_5 
ROOT
ATOM      1  C1  N4B d   1      -2.206   3.112  -3.519  0.00  0.00    -0.075 A 
ATOM      2  C2  N4B d   1      -2.831   4.273  -4.024  0.00  0.00     0.002 A 
ATOM      3  C3  N4B d   1      -2.069   5.337  -4.441  0.00  0.00     0.002 A 
ATOM      4  C4  N4B d   1      -0.687   5.270  -4.346  0.00  0.00    -0.004 A 
ATOM      5  C5  N4B d   1      -0.090   4.135  -3.881  0.00  0.00     0.002 A 
ATOM      6  C6  N4B d   1      -0.843   3.057  -3.461  0.00  0.00     0.002 A 
ENDROOT
BRANCH   1   7
ATOM      7  C1' N4B d   1      -2.999   1.958  -2.970  0.00  0.00     0.057 C 
BRANCH   7   8
ATOM      8  C2' N4B d   1      -2.823   1.903  -1.456  0.00  0.00     0.009 C 
BRANCH   8   9
ATOM      9  C3' N4B d   1      -1.362   1.775  -1.058  0.00  0.00     0.004 C 
ATOM     10  C4' N4B d   1      -1.059   2.427   0.258  0.00  0.00     0.003 C 
ENDBRANCH   8   9
ENDBRANCH   7   8
ENDBRANCH   1   7
TORSDOF 3
ENDMDL
