MODEL 1
REMARK minimizedAffinity 7.47353125
REMARK minimizedRMSD -1
REMARK  3 active torsions:
REMARK  status: ('A' for Active; 'I' for Inactive)
REMARK    1  A    between atoms: C3'_2  and  C2'_3 
REMARK    2  A    between atoms: C2'_3  and  C1'_4 
REMARK    3  A    between atoms: C1'_4  and  C1_5 
ROOT
ATOM      1  C1  N4B d   1      -1.179   1.351  -1.626  0.00  0.00    -0.075 A 
ATOM      2  C2  N4B d   1      -2.542   1.062  -1.396  0.00  0.00     0.002 A 
ATOM      3  C3  N4B d   1      -2.959  -0.242  -1.292  0.00  0.00     0.002 A 
ATOM      4  C4  N4B d   1      -2.038  -1.270  -1.432  0.00  0.00    -0.004 A 
ATOM      5  C5  N4B d   1      -0.719  -0.981  -1.628  0.00  0.00     0.002 A 
ATOM      6  C6  N4B d   1      -0.285   0.325  -1.731  0.00  0.00     0.002 A 
ENDROOT
BRANCH   1   7
ATOM      7  C1' N4B d   1      -0.690   2.759  -1.833  0.00  0.00     0.057 C 
BRANCH   7   8
ATOM      8  C2' N4B d   1      -0.422   3.401  -0.474  0.00  0.00     0.009 C 
BRANCH   8   9
ATOM      9  C3' N4B d   1      -0.013   2.374   0.568  0.00  0.00     0.004 C 
ATOM     10  C4' N4B d   1       0.013   2.937   1.958  0.00  0.00     0.003 C 
ENDBRANCH   8   9
ENDBRANCH   7   8
ENDBRANCH   1   7
TORSDOF 3
ENDMDL
