MODEL 1
REMARK minimizedAffinity 13.2101812
REMARK minimizedRMSD -1
REMARK  3 active torsions:
REMARK  status: ('A' for Active; 'I' for Inactive)
REMARK    1  A    between atoms: C3'_2  and  C2'_3 
REMARK    2  A    between atoms: C2'_3  and  C1'_4 
REMARK    3  A    between atoms: C1'_4  and  C1_5 
ROOT
ATOM      1  C1  N4B d   1      -0.519   4.192  -1.173  0.00  0.00    -0.075 A 
ATOM      2  C2  N4B d   1       0.561   4.069  -0.272  0.00  0.00     0.002 A 
ATOM      3  C3  N4B d   1       1.174   2.852  -0.097  0.00  0.00     0.002 A 
ATOM      4  C4  N4B d   1       0.713   1.745  -0.794  0.00  0.00    -0.004 A 
ATOM      5  C5  N4B d   1      -0.315   1.878  -1.681  0.00  0.00     0.002 A 
ATOM      6  C6  N4B d   1      -0.937   3.096  -1.870  0.00  0.00     0.002 A 
ENDROOT
BRANCH   1   7
ATOM      7  C1' N4B d   1      -1.276   5.482  -1.334  0.00  0.00     0.057 C 
BRANCH   7   8
ATOM      8  C2' N4B d   1      -1.682   6.000   0.043  0.00  0.00     0.009 C 
BRANCH   8   9
ATOM      9  C3' N4B d   1      -3.190   6.000   0.228  0.00  0.00     0.004 C 
ATOM     10  C4' N4B d   1      -3.598   5.945   1.670  0.00  0.00     0.003 C 
ENDBRANCH   8   9
ENDBRANCH   7   8
ENDBRANCH   1   7
TORSDOF 3
ENDMDL
