MODEL 1
REMARK minimizedAffinity 4.78986406
REMARK minimizedRMSD -1
REMARK  0 active torsions:
REMARK  status: ('A' for Active; 'I' for Inactive)
ROOT
ATOM      1  C   UNL d   1       0.014   1.513   3.214  0.00  0.00     0.020 A 
ATOM      2  C1  UNL d   1      -0.108   1.534   1.825  0.00  0.00     0.020 A 
ATOM      3  C2  UNL d   1      -1.259   1.028   1.218  0.00  0.00     0.034 A 
ATOM      4  C3  UNL d   1      -2.293   0.498   1.999  0.00  0.00     0.017 A 
ATOM      5  C4  UNL d   1      -2.169   0.477   3.393  0.00  0.00     0.017 A 
ATOM      6  C5  UNL d   1      -1.014   0.986   3.996  0.00  0.00     0.034 A 
ATOM      7 Cl   UNL d   1      -3.401  -0.160   4.424  0.00  0.00    -0.070 Cl
ATOM      8 Cl1  UNL d   1      -3.687  -0.111   1.181  0.00  0.00    -0.070 Cl
ENDROOT
TORSDOF 0
ENDMDL
