MODEL 1
REMARK minimizedAffinity 7.19693279
REMARK minimizedRMSD -1
REMARK  0 active torsions:
REMARK  status: ('A' for Active; 'I' for Inactive)
ROOT
ATOM      1  C   UNL d   1      -4.088   6.000   5.935  0.00  0.00     0.020 A 
ATOM      2  C1  UNL d   1      -5.437   5.649   5.993  0.00  0.00     0.020 A 
ATOM      3  C2  UNL d   1      -5.991   4.841   4.997  0.00  0.00     0.034 A 
ATOM      4  C3  UNL d   1      -5.197   4.382   3.940  0.00  0.00     0.017 A 
ATOM      5  C4  UNL d   1      -3.844   4.735   3.883  0.00  0.00     0.017 A 
ATOM      6  C5  UNL d   1      -3.294   5.544   4.882  0.00  0.00     0.034 A 
ATOM      7 Cl   UNL d   1      -2.802   4.206   2.610  0.00  0.00    -0.070 Cl
ATOM      8 Cl1  UNL d   1      -5.949   3.387   2.745  0.00  0.00    -0.070 Cl
ENDROOT
TORSDOF 0
ENDMDL
