MODEL 1
REMARK minimizedAffinity 1.61855114
REMARK minimizedRMSD -1
REMARK  0 active torsions:
REMARK  status: ('A' for Active; 'I' for Inactive)
ROOT
ATOM      1  C   UNL d   1      -1.548  -3.389  -5.998  0.00  0.00     0.020 A 
ATOM      2  C1  UNL d   1      -2.038  -2.084  -5.992  0.00  0.00     0.020 A 
ATOM      3  C2  UNL d   1      -3.415  -1.855  -5.988  0.00  0.00     0.034 A 
ATOM      4  C3  UNL d   1      -4.308  -2.933  -5.989  0.00  0.00     0.017 A 
ATOM      5  C4  UNL d   1      -3.815  -4.243  -5.995  0.00  0.00     0.017 A 
ATOM      6  C5  UNL d   1      -2.435  -4.467  -5.999  0.00  0.00     0.034 A 
ATOM      7 Cl   UNL d   1      -4.855  -5.624  -5.998  0.00  0.00    -0.070 Cl
ATOM      8 Cl1  UNL d   1      -5.999  -2.577  -5.984  0.00  0.00    -0.070 Cl
ENDROOT
TORSDOF 0
ENDMDL
