MODEL 1
REMARK minimizedAffinity 2.59773684
REMARK minimizedRMSD -1
REMARK  0 active torsions:
REMARK  status: ('A' for Active; 'I' for Inactive)
ROOT
ATOM      1  C   UNL d   1      -5.081  -3.362  -5.976  0.00  0.00     0.020 A 
ATOM      2  C1  UNL d   1      -4.520  -4.638  -5.989  0.00  0.00     0.020 A 
ATOM      3  C2  UNL d   1      -3.132  -4.790  -5.995  0.00  0.00     0.034 A 
ATOM      4  C3  UNL d   1      -2.300  -3.664  -5.987  0.00  0.00     0.017 A 
ATOM      5  C4  UNL d   1      -2.865  -2.384  -5.974  0.00  0.00     0.017 A 
ATOM      6  C5  UNL d   1      -4.255  -2.237  -5.969  0.00  0.00     0.034 A 
ATOM      7 Cl   UNL d   1      -1.904  -0.947  -5.965  0.00  0.00    -0.070 Cl
ATOM      8 Cl1  UNL d   1      -0.593  -3.927  -5.994  0.00  0.00    -0.070 Cl
ENDROOT
TORSDOF 0
ENDMDL
