MODEL 1
REMARK minimizedAffinity 10.6116076
REMARK minimizedRMSD -1
REMARK  0 active torsions:
REMARK  status: ('A' for Active; 'I' for Inactive)
ROOT
ATOM      1  C   UNL d   1      -4.863  -3.803  -5.998  0.00  0.00     0.020 A 
ATOM      2  C1  UNL d   1      -5.297  -2.478  -6.000  0.00  0.00     0.020 A 
ATOM      3  C2  UNL d   1      -4.365  -1.438  -6.000  0.00  0.00     0.034 A 
ATOM      4  C3  UNL d   1      -2.994  -1.721  -5.998  0.00  0.00     0.017 A 
ATOM      5  C4  UNL d   1      -2.559  -3.052  -5.996  0.00  0.00     0.017 A 
ATOM      6  C5  UNL d   1      -3.497  -4.089  -5.996  0.00  0.00     0.034 A 
ATOM      7 Cl   UNL d   1      -0.885  -3.480  -5.994  0.00  0.00    -0.070 Cl
ATOM      8 Cl1  UNL d   1      -1.898  -0.386  -5.999  0.00  0.00    -0.070 Cl
ENDROOT
TORSDOF 0
ENDMDL
