MODEL 1
REMARK minimizedAffinity 17.2722626
REMARK minimizedRMSD -1
REMARK  0 active torsions:
REMARK  status: ('A' for Active; 'I' for Inactive)
ROOT
ATOM      1  C   UNL d   1      -4.561   5.995   5.123  0.00  0.00     0.020 A 
ATOM      2  C1  UNL d   1      -5.540   5.497   5.981  0.00  0.00     0.020 A 
ATOM      3  C2  UNL d   1      -5.966   4.173   5.861  0.00  0.00     0.034 A 
ATOM      4  C3  UNL d   1      -5.412   3.341   4.881  0.00  0.00     0.017 A 
ATOM      5  C4  UNL d   1      -4.429   3.841   4.020  0.00  0.00     0.017 A 
ATOM      6  C5  UNL d   1      -4.006   5.168   4.145  0.00  0.00     0.034 A 
ATOM      7 Cl   UNL d   1      -3.699   2.876   2.787  0.00  0.00    -0.070 Cl
ATOM      8 Cl1  UNL d   1      -5.986   1.714   4.791  0.00  0.00    -0.070 Cl
ENDROOT
TORSDOF 0
ENDMDL
