MODEL 1
REMARK minimizedAffinity 9.65579414
REMARK minimizedRMSD -1
REMARK  0 active torsions:
REMARK  status: ('A' for Active; 'I' for Inactive)
ROOT
ATOM      1  C   UNL d   1      -5.745   2.923   4.815  0.00  0.00     0.020 A 
ATOM      2  C1  UNL d   1      -6.000   2.207   5.984  0.00  0.00     0.020 A 
ATOM      3  C2  UNL d   1      -5.852   0.819   6.000  0.00  0.00     0.034 A 
ATOM      4  C3  UNL d   1      -5.448   0.141   4.844  0.00  0.00     0.017 A 
ATOM      5  C4  UNL d   1      -5.192   0.860   3.671  0.00  0.00     0.017 A 
ATOM      6  C5  UNL d   1      -5.342   2.250   3.661  0.00  0.00     0.034 A 
ATOM      7 Cl   UNL d   1      -4.690   0.093   2.205  0.00  0.00    -0.070 Cl
ATOM      8 Cl1  UNL d   1      -5.285  -1.577   4.935  0.00  0.00    -0.070 Cl
ENDROOT
TORSDOF 0
ENDMDL
