MODEL 1
REMARK minimizedAffinity -0.409162015
REMARK minimizedRMSD -1
REMARK  0 active torsions:
REMARK  status: ('A' for Active; 'I' for Inactive)
ROOT
ATOM      1  C   UNL d   1      -2.617   0.580   1.653  0.00  0.00     0.020 A 
ATOM      2  C1  UNL d   1      -2.828   1.848   2.195  0.00  0.00     0.020 A 
ATOM      3  C2  UNL d   1      -1.917   2.375   3.113  0.00  0.00     0.034 A 
ATOM      4  C3  UNL d   1      -0.791   1.635   3.492  0.00  0.00     0.017 A 
ATOM      5  C4  UNL d   1      -0.580   0.363   2.948  0.00  0.00     0.017 A 
ATOM      6  C5  UNL d   1      -1.495  -0.161   2.029  0.00  0.00     0.034 A 
ATOM      7 Cl   UNL d   1       0.785  -0.610   3.367  0.00  0.00    -0.070 Cl
ATOM      8 Cl1  UNL d   1       0.294   2.349   4.632  0.00  0.00    -0.070 Cl
ENDROOT
TORSDOF 0
ENDMDL
