MODEL 1
REMARK minimizedAffinity 9.96868706
REMARK minimizedRMSD -1
REMARK  0 active torsions:
REMARK  status: ('A' for Active; 'I' for Inactive)
ROOT
ATOM      1  C   UNL d   1       5.999  -4.990   2.264  0.00  0.00     0.020 A 
ATOM      2  C1  UNL d   1       5.071  -6.000   2.013  0.00  0.00     0.020 A 
ATOM      3  C2  UNL d   1       3.715  -5.688   1.894  0.00  0.00     0.034 A 
ATOM      4  C3  UNL d   1       3.283  -4.363   2.026  0.00  0.00     0.017 A 
ATOM      5  C4  UNL d   1       4.216  -3.350   2.278  0.00  0.00     0.017 A 
ATOM      6  C5  UNL d   1       5.572  -3.668   2.396  0.00  0.00     0.034 A 
ATOM      7 Cl   UNL d   1       3.759  -1.692   2.453  0.00  0.00    -0.070 Cl
ATOM      8 Cl1  UNL d   1       1.592  -4.049   1.867  0.00  0.00    -0.070 Cl
ENDROOT
TORSDOF 0
ENDMDL
