MODEL 1
REMARK minimizedAffinity 6.33678007
REMARK minimizedRMSD -1
REMARK  0 active torsions:
REMARK  status: ('A' for Active; 'I' for Inactive)
ROOT
ATOM      1  C   UNL d   1       3.729  -0.257  -5.986  0.00  0.00     0.020 A 
ATOM      2  C1  UNL d   1       4.278   0.222  -4.797  0.00  0.00     0.020 A 
ATOM      3  C2  UNL d   1       3.526   0.196  -3.621  0.00  0.00     0.034 A 
ATOM      4  C3  UNL d   1       2.221  -0.311  -3.630  0.00  0.00     0.017 A 
ATOM      5  C4  UNL d   1       1.672  -0.792  -4.824  0.00  0.00     0.017 A 
ATOM      6  C5  UNL d   1       2.429  -0.764  -5.999  0.00  0.00     0.034 A 
ATOM      7 Cl   UNL d   1       0.069  -1.433  -4.915  0.00  0.00    -0.070 Cl
ATOM      8 Cl1  UNL d   1       1.349  -0.314  -2.139  0.00  0.00    -0.070 Cl
ENDROOT
TORSDOF 0
ENDMDL
