MODEL 1
REMARK minimizedAffinity 11.1115236
REMARK minimizedRMSD -1
REMARK  0 active torsions:
REMARK  status: ('A' for Active; 'I' for Inactive)
ROOT
ATOM      1  C   UNL d   1      -2.756  -3.408   0.110  0.00  0.00     0.020 A 
ATOM      2  C1  UNL d   1      -1.482  -3.106   0.588  0.00  0.00     0.020 A 
ATOM      3  C2  UNL d   1      -1.223  -1.850   1.140  0.00  0.00     0.034 A 
ATOM      4  C3  UNL d   1      -2.239  -0.891   1.215  0.00  0.00     0.017 A 
ATOM      5  C4  UNL d   1      -3.518  -1.195   0.735  0.00  0.00     0.017 A 
ATOM      6  C5  UNL d   1      -3.772  -2.454   0.184  0.00  0.00     0.034 A 
ATOM      7 Cl   UNL d   1      -4.823  -0.063   0.794  0.00  0.00    -0.070 Cl
ATOM      8 Cl1  UNL d   1      -1.848   0.642   1.911  0.00  0.00    -0.070 Cl
ENDROOT
TORSDOF 0
ENDMDL
