MODEL 1
REMARK minimizedAffinity 11.9372587
REMARK minimizedRMSD -1
REMARK  0 active torsions:
REMARK  status: ('A' for Active; 'I' for Inactive)
ROOT
ATOM      1  C   UNL d   1      -2.449   2.128   1.740  0.00  0.00     0.020 A 
ATOM      2  C1  UNL d   1      -2.572   0.828   2.229  0.00  0.00     0.020 A 
ATOM      3  C2  UNL d   1      -1.465   0.184   2.786  0.00  0.00     0.034 A 
ATOM      4  C3  UNL d   1      -0.230   0.840   2.856  0.00  0.00     0.017 A 
ATOM      5  C4  UNL d   1      -0.108   2.145   2.364  0.00  0.00     0.017 A 
ATOM      6  C5  UNL d   1      -1.219   2.785   1.808  0.00  0.00     0.034 A 
ATOM      7 Cl   UNL d   1       1.383   3.019   2.416  0.00  0.00    -0.070 Cl
ATOM      8 Cl1  UNL d   1       1.096  -0.016   3.558  0.00  0.00    -0.070 Cl
ENDROOT
TORSDOF 0
ENDMDL
