MODEL 1
REMARK minimizedAffinity 14.5909929
REMARK minimizedRMSD -1
REMARK  0 active torsions:
REMARK  status: ('A' for Active; 'I' for Inactive)
ROOT
ATOM      1  C   UNL d   1       5.808  -1.920   3.779  0.00  0.00     0.020 A 
ATOM      2  C1  UNL d   1       5.866  -0.891   4.718  0.00  0.00     0.020 A 
ATOM      3  C2  UNL d   1       5.924   0.439   4.293  0.00  0.00     0.034 A 
ATOM      4  C3  UNL d   1       5.926   0.742   2.927  0.00  0.00     0.017 A 
ATOM      5  C4  UNL d   1       5.868  -0.292   1.986  0.00  0.00     0.017 A 
ATOM      6  C5  UNL d   1       5.809  -1.622   2.416  0.00  0.00     0.034 A 
ATOM      7 Cl   UNL d   1       5.866   0.003   0.283  0.00  0.00    -0.070 Cl
ATOM      8 Cl1  UNL d   1       6.000   2.407   2.473  0.00  0.00    -0.070 Cl
ENDROOT
TORSDOF 0
ENDMDL
