MODEL 1
REMARK minimizedAffinity 6.69201803
REMARK minimizedRMSD -1
REMARK  0 active torsions:
REMARK  status: ('A' for Active; 'I' for Inactive)
ROOT
ATOM      1  C   UNL d   1      -4.136  -1.128   0.285  0.00  0.00     0.020 A 
ATOM      2  C1  UNL d   1      -3.827   0.196   0.594  0.00  0.00     0.020 A 
ATOM      3  C2  UNL d   1      -2.519   0.546   0.937  0.00  0.00     0.034 A 
ATOM      4  C3  UNL d   1      -1.516  -0.429   0.972  0.00  0.00     0.017 A 
ATOM      5  C4  UNL d   1      -1.827  -1.758   0.661  0.00  0.00     0.017 A 
ATOM      6  C5  UNL d   1      -3.138  -2.103   0.319  0.00  0.00     0.034 A 
ATOM      7 Cl   UNL d   1      -0.642  -3.016   0.682  0.00  0.00    -0.070 Cl
ATOM      8 Cl1  UNL d   1       0.080   0.075   1.403  0.00  0.00    -0.070 Cl
ENDROOT
TORSDOF 0
ENDMDL
