MODEL 1
REMARK minimizedAffinity 7.34637213
REMARK minimizedRMSD -1
REMARK  0 active torsions:
REMARK  status: ('A' for Active; 'I' for Inactive)
ROOT
ATOM      1  C   UNL d   1      -1.902   0.802   2.134  0.00  0.00     0.020 A 
ATOM      2  C1  UNL d   1      -1.491  -0.510   1.901  0.00  0.00     0.020 A 
ATOM      3  C2  UNL d   1      -2.322  -1.388   1.202  0.00  0.00     0.034 A 
ATOM      4  C3  UNL d   1      -3.568  -0.956   0.734  0.00  0.00     0.017 A 
ATOM      5  C4  UNL d   1      -3.980   0.361   0.968  0.00  0.00     0.017 A 
ATOM      6  C5  UNL d   1      -3.144   1.237   1.668  0.00  0.00     0.034 A 
ATOM      7 Cl   UNL d   1      -5.504   0.967   0.421  0.00  0.00    -0.070 Cl
ATOM      8 Cl1  UNL d   1      -4.544  -2.096  -0.122  0.00  0.00    -0.070 Cl
ENDROOT
TORSDOF 0
ENDMDL
