MODEL 1
REMARK minimizedAffinity 5.15692663
REMARK minimizedRMSD -1
REMARK  0 active torsions:
REMARK  status: ('A' for Active; 'I' for Inactive)
ROOT
ATOM      1  C   UNL d   1      -2.717  -0.798  -5.978  0.00  0.00     0.020 A 
ATOM      2  C1  UNL d   1      -4.050  -1.209  -5.979  0.00  0.00     0.020 A 
ATOM      3  C2  UNL d   1      -4.361  -2.570  -5.985  0.00  0.00     0.034 A 
ATOM      4  C3  UNL d   1      -3.338  -3.526  -5.992  0.00  0.00     0.017 A 
ATOM      5  C4  UNL d   1      -2.001  -3.113  -5.991  0.00  0.00     0.017 A 
ATOM      6  C5  UNL d   1      -1.695  -1.748  -5.984  0.00  0.00     0.034 A 
ATOM      7 Cl   UNL d   1      -0.685  -4.233  -5.999  0.00  0.00    -0.070 Cl
ATOM      8 Cl1  UNL d   1      -3.795  -5.192  -6.000  0.00  0.00    -0.070 Cl
ENDROOT
TORSDOF 0
ENDMDL
