MODEL 1
REMARK minimizedAffinity 4.68869781
REMARK minimizedRMSD -1
REMARK  0 active torsions:
REMARK  status: ('A' for Active; 'I' for Inactive)
ROOT
ATOM      1  C   UNL d   1      -1.343   0.401   2.027  0.00  0.00     0.020 A 
ATOM      2  C1  UNL d   1      -1.623   0.052   3.348  0.00  0.00     0.020 A 
ATOM      3  C2  UNL d   1      -2.937   0.096   3.818  0.00  0.00     0.034 A 
ATOM      4  C3  UNL d   1      -3.976   0.490   2.967  0.00  0.00     0.017 A 
ATOM      5  C4  UNL d   1      -3.694   0.840   1.642  0.00  0.00     0.017 A 
ATOM      6  C5  UNL d   1      -2.376   0.794   1.176  0.00  0.00     0.034 A 
ATOM      7 Cl   UNL d   1      -4.923   1.337   0.533  0.00  0.00    -0.070 Cl
ATOM      8 Cl1  UNL d   1      -5.578   0.521   3.616  0.00  0.00    -0.070 Cl
ENDROOT
TORSDOF 0
ENDMDL
