MODEL 1
REMARK minimizedAffinity 12.4253559
REMARK minimizedRMSD -1
REMARK  0 active torsions:
REMARK  status: ('A' for Active; 'I' for Inactive)
ROOT
ATOM      1  C   UNL d   1      -4.568   0.398   4.142  0.00  0.00     0.020 A 
ATOM      2  C1  UNL d   1      -5.624   0.405   3.233  0.00  0.00     0.020 A 
ATOM      3  C2  UNL d   1      -5.381   0.655   1.881  0.00  0.00     0.034 A 
ATOM      4  C3  UNL d   1      -4.077   0.899   1.434  0.00  0.00     0.017 A 
ATOM      5  C4  UNL d   1      -3.017   0.892   2.348  0.00  0.00     0.017 A 
ATOM      6  C5  UNL d   1      -3.266   0.641   3.701  0.00  0.00     0.034 A 
ATOM      7 Cl   UNL d   1      -1.381   1.185   1.872  0.00  0.00    -0.070 Cl
ATOM      8 Cl1  UNL d   1      -3.848   1.200  -0.252  0.00  0.00    -0.070 Cl
ENDROOT
TORSDOF 0
ENDMDL
