MODEL 1
REMARK minimizedAffinity 4.49498415
REMARK minimizedRMSD -1
REMARK  0 active torsions:
REMARK  status: ('A' for Active; 'I' for Inactive)
ROOT
ATOM      1  O1  BZF d   1       1.906  -1.450  -1.375  0.00  0.00    -0.204 OA
ATOM      2  C2  BZF d   1       2.589  -1.969  -0.291  0.00  0.00     0.174 A 
ATOM      3  C3  BZF d   1       3.174  -0.985   0.422  0.00  0.00    -0.012 A 
ATOM      4  C3A BZF d   1       2.759   0.232  -0.206  0.00  0.00    -0.107 A 
ATOM      5  C4  BZF d   1       2.999   1.551   0.053  0.00  0.00     0.055 A 
ATOM      6  C5  BZF d   1       2.505   2.491  -0.794  0.00  0.00    -0.016 A 
ATOM      7  C6  BZF d   1       1.772   2.148  -1.912  0.00  0.00     0.022 A 
ATOM      8  C7  BZF d   1       1.504   0.853  -2.207  0.00  0.00     0.029 A 
ATOM      9  C7A BZF d   1       1.974  -0.098  -1.335  0.00  0.00     0.058 A 
ENDROOT
TORSDOF 0
ENDMDL
