MODEL 1
REMARK minimizedAffinity -1.84906137
REMARK minimizedRMSD -1
REMARK  0 active torsions:
REMARK  status: ('A' for Active; 'I' for Inactive)
ROOT
ATOM      1  O1  BZF d   1      -0.736  -1.535  -2.159  0.00  0.00    -0.204 OA
ATOM      2  C2  BZF d   1      -0.107  -0.395  -1.696  0.00  0.00     0.174 A 
ATOM      3  C3  BZF d   1      -0.631   0.707  -2.270  0.00  0.00    -0.012 A 
ATOM      4  C3A BZF d   1      -1.713   0.233  -3.077  0.00  0.00    -0.107 A 
ATOM      5  C4  BZF d   1      -2.627   0.853  -3.881  0.00  0.00     0.055 A 
ATOM      6  C5  BZF d   1      -3.506   0.095  -4.588  0.00  0.00    -0.016 A 
ATOM      7  C6  BZF d   1      -3.496  -1.282  -4.520  0.00  0.00     0.022 A 
ATOM      8  C7  BZF d   1      -2.611  -1.942  -3.733  0.00  0.00     0.029 A 
ATOM      9  C7A BZF d   1      -1.743  -1.178  -2.992  0.00  0.00     0.058 A 
ENDROOT
TORSDOF 0
ENDMDL
