MODEL 1
REMARK minimizedAffinity 9.36263943
REMARK minimizedRMSD -1
REMARK  0 active torsions:
REMARK  status: ('A' for Active; 'I' for Inactive)
ROOT
ATOM      1  O1  BZF d   1       3.115  -0.072   0.122  0.00  0.00    -0.204 OA
ATOM      2  C2  BZF d   1       2.693  -1.381  -0.009  0.00  0.00     0.174 A 
ATOM      3  C3  BZF d   1       1.556  -1.446  -0.731  0.00  0.00    -0.012 A 
ATOM      4  C3A BZF d   1       1.299  -0.103  -1.151  0.00  0.00    -0.107 A 
ATOM      5  C4  BZF d   1       0.320   0.473  -1.910  0.00  0.00     0.055 A 
ATOM      6  C5  BZF d   1       0.317   1.822  -2.072  0.00  0.00    -0.016 A 
ATOM      7  C6  BZF d   1       1.273   2.626  -1.485  0.00  0.00     0.022 A 
ATOM      8  C7  BZF d   1       2.266   2.100  -0.728  0.00  0.00     0.029 A 
ATOM      9  C7A BZF d   1       2.291   0.734  -0.590  0.00  0.00     0.058 A 
ENDROOT
TORSDOF 0
ENDMDL
