MODEL 1
REMARK minimizedAffinity 4.02212286
REMARK minimizedRMSD -1
REMARK  0 active torsions:
REMARK  status: ('A' for Active; 'I' for Inactive)
ROOT
ATOM      1  O1  BZF d   1       2.752  -0.698  -2.104  0.00  0.00    -0.204 OA
ATOM      2  C2  BZF d   1       2.008   0.437  -2.364  0.00  0.00     0.174 A 
ATOM      3  C3  BZF d   1       1.068   0.621  -1.415  0.00  0.00    -0.012 A 
ATOM      4  C3A BZF d   1       1.295  -0.416  -0.455  0.00  0.00    -0.107 A 
ATOM      5  C4  BZF d   1       0.694  -0.751   0.725  0.00  0.00     0.055 A 
ATOM      6  C5  BZF d   1       1.109  -1.865   1.384  0.00  0.00    -0.016 A 
ATOM      7  C6  BZF d   1       2.117  -2.667   0.891  0.00  0.00     0.022 A 
ATOM      8  C7  BZF d   1       2.747  -2.372  -0.273  0.00  0.00     0.029 A 
ATOM      9  C7A BZF d   1       2.352  -1.230  -0.925  0.00  0.00     0.058 A 
ENDROOT
TORSDOF 0
ENDMDL
