MODEL 1
REMARK minimizedAffinity 12.74438
REMARK minimizedRMSD -1
REMARK  0 active torsions:
REMARK  status: ('A' for Active; 'I' for Inactive)
ROOT
ATOM      1  O1  BZF d   1       1.981  -2.381   1.852  0.00  0.00    -0.204 OA
ATOM      2  C2  BZF d   1       0.998  -1.714   2.558  0.00  0.00     0.174 A 
ATOM      3  C3  BZF d   1       0.597  -0.611   1.893  0.00  0.00    -0.012 A 
ATOM      4  C3A BZF d   1       1.311  -0.638   0.654  0.00  0.00    -0.107 A 
ATOM      5  C4  BZF d   1       1.329   0.182  -0.438  0.00  0.00     0.055 A 
ATOM      6  C5  BZF d   1       2.193  -0.086  -1.452  0.00  0.00    -0.016 A 
ATOM      7  C6  BZF d   1       3.057  -1.160  -1.404  0.00  0.00     0.022 A 
ATOM      8  C7  BZF d   1       3.073  -2.005  -0.345  0.00  0.00     0.029 A 
ATOM      9  C7A BZF d   1       2.177  -1.756   0.666  0.00  0.00     0.058 A 
ENDROOT
TORSDOF 0
ENDMDL
