MODEL 1
REMARK minimizedAffinity 5.03172255
REMARK minimizedRMSD -1
REMARK  0 active torsions:
REMARK  status: ('A' for Active; 'I' for Inactive)
ROOT
ATOM      1  O1  BZF d   1       0.559   0.175   3.057  0.00  0.00    -0.204 OA
ATOM      2  C2  BZF d   1       1.164  -0.931   2.492  0.00  0.00     0.174 A 
ATOM      3  C3  BZF d   1       0.272  -1.656   1.788  0.00  0.00    -0.012 A 
ATOM      4  C3A BZF d   1      -0.948  -0.911   1.844  0.00  0.00    -0.107 A 
ATOM      5  C4  BZF d   1      -2.194  -1.109   1.321  0.00  0.00     0.055 A 
ATOM      6  C5  BZF d   1      -3.184  -0.229   1.623  0.00  0.00    -0.016 A 
ATOM      7  C6  BZF d   1      -2.966   0.855   2.449  0.00  0.00     0.022 A 
ATOM      8  C7  BZF d   1      -1.746   1.095   2.987  0.00  0.00     0.029 A 
ATOM      9  C7A BZF d   1      -0.734   0.226   2.657  0.00  0.00     0.058 A 
ENDROOT
TORSDOF 0
ENDMDL
