MODEL 1
REMARK minimizedAffinity -3.56390047
REMARK minimizedRMSD -1
REMARK  0 active torsions:
REMARK  status: ('A' for Active; 'I' for Inactive)
ROOT
ATOM      1  C   UNL d   1      -0.116   2.121   0.615  0.00  0.00     0.023 A 
ATOM      2  C1  UNL d   1      -0.850   1.135   1.274  0.00  0.00     0.003 A 
ATOM      3  C2  UNL d   1      -0.955  -0.144   0.723  0.00  0.00     0.048 A 
ATOM      4  C3  UNL d   1      -0.324  -0.430  -0.487  0.00  0.00     0.023 A 
ATOM      5  C4  UNL d   1       0.413   0.553  -1.149  0.00  0.00     0.048 A 
ATOM      6  C5  UNL d   1       0.515   1.830  -0.595  0.00  0.00     0.003 A 
ATOM      7  I   UNL d   1      -0.479  -2.333  -1.308  0.00  0.00    -0.146 I 
ENDROOT
TORSDOF 0
ENDMDL
