MODEL 1
REMARK minimizedAffinity -1.43168616
REMARK minimizedRMSD -1
REMARK  0 active torsions:
REMARK  status: ('A' for Active; 'I' for Inactive)
ROOT
ATOM      1  C   UNL d   1      -0.816  -1.331   0.435  0.00  0.00     0.023 A 
ATOM      2  C1  UNL d   1       0.464  -1.012  -0.019  0.00  0.00     0.003 A 
ATOM      3  C2  UNL d   1       0.832   0.323  -0.193  0.00  0.00     0.048 A 
ATOM      4  C3  UNL d   1      -0.084   1.336   0.088  0.00  0.00     0.023 A 
ATOM      5  C4  UNL d   1      -1.366   1.022   0.543  0.00  0.00     0.048 A 
ATOM      6  C5  UNL d   1      -1.730  -0.315   0.715  0.00  0.00     0.003 A 
ATOM      7  I   UNL d   1       0.462   3.324  -0.170  0.00  0.00    -0.146 I 
ENDROOT
TORSDOF 0
ENDMDL
