MODEL 1
REMARK minimizedAffinity -2.53815413
REMARK minimizedRMSD -1
REMARK  0 active torsions:
REMARK  status: ('A' for Active; 'I' for Inactive)
ROOT
ATOM      1  C   UNL d   1      -0.409   1.965   0.457  0.00  0.00     0.023 A 
ATOM      2  C1  UNL d   1       0.812   1.516  -0.046  0.00  0.00     0.003 A 
ATOM      3  C2  UNL d   1       1.023   0.151  -0.256  0.00  0.00     0.048 A 
ATOM      4  C3  UNL d   1       0.008  -0.758   0.039  0.00  0.00     0.023 A 
ATOM      5  C4  UNL d   1      -1.215  -0.313   0.542  0.00  0.00     0.048 A 
ATOM      6  C5  UNL d   1      -1.421   1.052   0.750  0.00  0.00     0.003 A 
ATOM      7  I   UNL d   1       0.320  -2.790  -0.272  0.00  0.00    -0.146 I 
ENDROOT
TORSDOF 0
ENDMDL
