MODEL 1
REMARK minimizedAffinity -3.75572729
REMARK minimizedRMSD -1
REMARK  0 active torsions:
REMARK  status: ('A' for Active; 'I' for Inactive)
ROOT
ATOM      1  C   UNL d   1       0.001   3.430   0.502  0.00  0.00     0.023 A 
ATOM      2  C1  UNL d   1      -1.166   2.687   0.676  0.00  0.00     0.003 A 
ATOM      3  C2  UNL d   1      -1.141   1.299   0.524  0.00  0.00     0.048 A 
ATOM      4  C3  UNL d   1       0.055   0.661   0.200  0.00  0.00     0.023 A 
ATOM      5  C4  UNL d   1       1.226   1.400   0.027  0.00  0.00     0.048 A 
ATOM      6  C5  UNL d   1       1.196   2.788   0.178  0.00  0.00     0.003 A 
ATOM      7  I   UNL d   1       0.095  -1.405  -0.026  0.00  0.00    -0.146 I 
ENDROOT
TORSDOF 0
ENDMDL
