MODEL 1
REMARK minimizedAffinity -1.98024487
REMARK minimizedRMSD -1
REMARK  0 active torsions:
REMARK  status: ('A' for Active; 'I' for Inactive)
ROOT
ATOM      1  C   UNL d   1      -1.299  -5.032  -1.679  0.00  0.00     0.023 A 
ATOM      2  C1  UNL d   1      -0.066  -4.399  -1.837  0.00  0.00     0.003 A 
ATOM      3  C2  UNL d   1       0.128  -3.110  -1.334  0.00  0.00     0.048 A 
ATOM      4  C3  UNL d   1      -0.916  -2.461  -0.675  0.00  0.00     0.023 A 
ATOM      5  C4  UNL d   1      -2.151  -3.091  -0.515  0.00  0.00     0.048 A 
ATOM      6  C5  UNL d   1      -2.340  -4.379  -1.019  0.00  0.00     0.003 A 
ATOM      7  I   UNL d   1      -0.630  -0.544   0.074  0.00  0.00    -0.146 I 
ENDROOT
TORSDOF 0
ENDMDL
