MODEL 1
REMARK minimizedAffinity -3.51312375
REMARK minimizedRMSD -1
REMARK  0 active torsions:
REMARK  status: ('A' for Active; 'I' for Inactive)
ROOT
ATOM      1  C   UNL d   1      -0.445   3.081   0.279  0.00  0.00     0.023 A 
ATOM      2  C1  UNL d   1      -1.490   2.300   0.772  0.00  0.00     0.003 A 
ATOM      3  C2  UNL d   1      -1.490   0.919   0.562  0.00  0.00     0.048 A 
ATOM      4  C3  UNL d   1      -0.442   0.326  -0.141  0.00  0.00     0.023 A 
ATOM      5  C4  UNL d   1       0.606   1.104  -0.636  0.00  0.00     0.048 A 
ATOM      6  C5  UNL d   1       0.602   2.484  -0.424  0.00  0.00     0.003 A 
ATOM      7  I   UNL d   1      -0.440  -1.728  -0.454  0.00  0.00    -0.146 I 
ENDROOT
TORSDOF 0
ENDMDL
