MODEL 1
REMARK minimizedAffinity 2.6562748
REMARK minimizedRMSD -1
REMARK  0 active torsions:
REMARK  status: ('A' for Active; 'I' for Inactive)
ROOT
ATOM      1  C   UNL d   1      -0.933  -3.264  -2.375  0.00  0.00     0.023 A 
ATOM      2  C1  UNL d   1      -1.746  -4.243  -2.947  0.00  0.00     0.003 A 
ATOM      3  C2  UNL d   1      -2.661  -4.941  -2.156  0.00  0.00     0.048 A 
ATOM      4  C3  UNL d   1      -2.759  -4.654  -0.795  0.00  0.00     0.023 A 
ATOM      5  C4  UNL d   1      -1.948  -3.675  -0.219  0.00  0.00     0.048 A 
ATOM      6  C5  UNL d   1      -1.034  -2.980  -1.013  0.00  0.00     0.003 A 
ATOM      7  I   UNL d   1      -4.121  -5.692   0.384  0.00  0.00    -0.146 I 
ENDROOT
TORSDOF 0
ENDMDL
