MODEL 1
REMARK minimizedAffinity -2.89039302
REMARK minimizedRMSD -1
REMARK  0 active torsions:
REMARK  status: ('A' for Active; 'I' for Inactive)
ROOT
ATOM      1  C   UNL d   1      -0.797  -3.920  -2.350  0.00  0.00     0.023 A 
ATOM      2  C1  UNL d   1      -1.818  -3.859  -1.401  0.00  0.00     0.003 A 
ATOM      3  C2  UNL d   1      -1.849  -2.817  -0.473  0.00  0.00     0.048 A 
ATOM      4  C3  UNL d   1      -0.856  -1.838  -0.499  0.00  0.00     0.023 A 
ATOM      5  C4  UNL d   1       0.167  -1.894  -1.447  0.00  0.00     0.048 A 
ATOM      6  C5  UNL d   1       0.194  -2.939  -2.373  0.00  0.00     0.003 A 
ATOM      7  I   UNL d   1      -0.900  -0.285   0.882  0.00  0.00    -0.146 I 
ENDROOT
TORSDOF 0
ENDMDL
