MODEL 1
REMARK minimizedAffinity -3.12224269
REMARK minimizedRMSD -1
REMARK  0 active torsions:
REMARK  status: ('A' for Active; 'I' for Inactive)
ROOT
ATOM      1  C   UNL d   1      -0.500   2.940   0.317  0.00  0.00     0.023 A 
ATOM      2  C1  UNL d   1       0.701   2.448  -0.194  0.00  0.00     0.003 A 
ATOM      3  C2  UNL d   1       0.864   1.076  -0.401  0.00  0.00     0.048 A 
ATOM      4  C3  UNL d   1      -0.179   0.203  -0.096  0.00  0.00     0.023 A 
ATOM      5  C4  UNL d   1      -1.384   0.691   0.414  0.00  0.00     0.048 A 
ATOM      6  C5  UNL d   1      -1.541   2.062   0.620  0.00  0.00     0.003 A 
ATOM      7  I   UNL d   1       0.060  -1.839  -0.405  0.00  0.00    -0.146 I 
ENDROOT
TORSDOF 0
ENDMDL
