MODEL 1
REMARK minimizedAffinity -2.62155986
REMARK minimizedRMSD -1
REMARK  0 active torsions:
REMARK  status: ('A' for Active; 'I' for Inactive)
ROOT
ATOM      1  C   UNL d   1       0.057   3.446   0.228  0.00  0.00     0.023 A 
ATOM      2  C1  UNL d   1       1.116   2.756  -0.363  0.00  0.00     0.003 A 
ATOM      3  C2  UNL d   1       1.074   1.364  -0.465  0.00  0.00     0.048 A 
ATOM      4  C3  UNL d   1      -0.030   0.668   0.025  0.00  0.00     0.023 A 
ATOM      5  C4  UNL d   1      -1.093   1.354   0.616  0.00  0.00     0.048 A 
ATOM      6  C5  UNL d   1      -1.046   2.746   0.717  0.00  0.00     0.003 A 
ATOM      7  I   UNL d   1      -0.096  -1.404  -0.126  0.00  0.00    -0.146 I 
ENDROOT
TORSDOF 0
ENDMDL
