MODEL 1
REMARK minimizedAffinity 1.46618998
REMARK minimizedRMSD -1
REMARK  2 active torsions:
REMARK  status: ('A' for Active; 'I' for Inactive)
REMARK    1  A    between atoms: C2'_3  and  C1'_4 
REMARK    2  A    between atoms: C1'_4  and  C1_5 
ROOT
ATOM      1  C1  I4B d   1       3.799  -1.371  -5.960  0.00  0.00    -0.075 A 
ATOM      2  C2  I4B d   1       2.523  -1.874  -5.986  0.00  0.00     0.003 A 
ATOM      3  C3  I4B d   1       2.308  -3.274  -5.980  0.00  0.00     0.002 A 
ATOM      4  C4  I4B d   1       3.392  -4.128  -6.000  0.00  0.00    -0.004 A 
ATOM      5  C5  I4B d   1       4.685  -3.616  -5.950  0.00  0.00     0.002 A 
ATOM      6  C6  I4B d   1       4.891  -2.229  -5.918  0.00  0.00     0.003 A 
ENDROOT
BRANCH   1   7
ATOM      7  C1' I4B d   1       3.990   0.112  -6.000  0.00  0.00     0.060 C 
BRANCH   7   8
ATOM      8  C2' I4B d   1       4.413   0.566  -4.618  0.00  0.00    -0.013 C 
ATOM      9  C4' I4B d   1       4.114  -0.487  -3.583  0.00  0.00     0.013 C 
ATOM     10  C3' I4B d   1       5.879   0.880  -4.662  0.00  0.00     0.013 C 
ENDBRANCH   7   8
ENDBRANCH   1   7
TORSDOF 2
ENDMDL
