MODEL 1
REMARK minimizedAffinity 9.49546719
REMARK minimizedRMSD -1
REMARK  2 active torsions:
REMARK  status: ('A' for Active; 'I' for Inactive)
REMARK    1  A    between atoms: C2'_3  and  C1'_4 
REMARK    2  A    between atoms: C1'_4  and  C1_5 
ROOT
ATOM      1  C1  I4B d   1       2.542   1.253   1.694  0.00  0.00    -0.075 A 
ATOM      2  C2  I4B d   1       2.801   2.521   2.149  0.00  0.00     0.003 A 
ATOM      3  C3  I4B d   1       2.850   2.784   3.540  0.00  0.00     0.002 A 
ATOM      4  C4  I4B d   1       2.586   1.766   4.433  0.00  0.00    -0.004 A 
ATOM      5  C5  I4B d   1       2.346   0.475   3.970  0.00  0.00     0.002 A 
ATOM      6  C6  I4B d   1       2.336   0.214   2.592  0.00  0.00     0.003 A 
ENDROOT
BRANCH   1   7
ATOM      7  C1' I4B d   1       2.465   1.018   0.218  0.00  0.00     0.060 C 
BRANCH   7   8
ATOM      8  C2' I4B d   1       1.006   1.070  -0.187  0.00  0.00    -0.013 C 
ATOM      9  C4' I4B d   1       0.217  -0.030   0.472  0.00  0.00     0.013 C 
ATOM     10  C3' I4B d   1       0.470   2.420   0.187  0.00  0.00     0.013 C 
ENDBRANCH   7   8
ENDBRANCH   1   7
TORSDOF 2
ENDMDL
