MODEL 1
REMARK minimizedAffinity 1.70527577
REMARK minimizedRMSD -1
REMARK  2 active torsions:
REMARK  status: ('A' for Active; 'I' for Inactive)
REMARK    1  A    between atoms: C2'_3  and  C1'_4 
REMARK    2  A    between atoms: C1'_4  and  C1_5 
ROOT
ATOM      1  C1  I4B d   1      -1.106  -0.264  -0.792  0.00  0.00    -0.075 A 
ATOM      2  C2  I4B d   1      -0.930  -1.625  -0.793  0.00  0.00     0.003 A 
ATOM      3  C3  I4B d   1      -1.350  -2.397  -1.904  0.00  0.00     0.002 A 
ATOM      4  C4  I4B d   1      -1.983  -1.777  -2.962  0.00  0.00    -0.004 A 
ATOM      5  C5  I4B d   1      -2.140  -0.394  -2.968  0.00  0.00     0.002 A 
ATOM      6  C6  I4B d   1      -1.688   0.369  -1.882  0.00  0.00     0.003 A 
ENDROOT
BRANCH   1   7
ATOM      7  C1' I4B d   1      -0.681   0.517   0.412  0.00  0.00     0.060 C 
BRANCH   7   8
ATOM      8  C2' I4B d   1       0.424   1.463  -0.012  0.00  0.00    -0.013 C 
ATOM      9  C4' I4B d   1       0.136   2.872   0.435  0.00  0.00     0.013 C 
ATOM     10  C3' I4B d   1       1.711   0.962   0.571  0.00  0.00     0.013 C 
ENDBRANCH   7   8
ENDBRANCH   1   7
TORSDOF 2
ENDMDL
