MODEL 1
REMARK minimizedAffinity 4.94781923
REMARK minimizedRMSD -1
REMARK  2 active torsions:
REMARK  status: ('A' for Active; 'I' for Inactive)
REMARK    1  A    between atoms: C2'_3  and  C1'_4 
REMARK    2  A    between atoms: C1'_4  and  C1_5 
ROOT
ATOM      1  C1  I4B d   1      -0.022  -0.317   0.636  0.00  0.00    -0.075 A 
ATOM      2  C2  I4B d   1       1.280   0.096   0.772  0.00  0.00     0.003 A 
ATOM      3  C3  I4B d   1       1.635   1.438   0.491  0.00  0.00     0.002 A 
ATOM      4  C4  I4B d   1       0.673   2.314   0.031  0.00  0.00    -0.004 A 
ATOM      5  C5  I4B d   1      -0.651   1.899  -0.085  0.00  0.00     0.002 A 
ATOM      6  C6  I4B d   1      -1.003   0.579   0.232  0.00  0.00     0.003 A 
ENDROOT
BRANCH   1   7
ATOM      7  C1' I4B d   1      -0.356  -1.749   0.910  0.00  0.00     0.060 C 
BRANCH   7   8
ATOM      8  C2' I4B d   1       0.223  -2.586  -0.213  0.00  0.00    -0.013 C 
ATOM      9  C4' I4B d   1       1.214  -3.591   0.312  0.00  0.00     0.013 C 
ATOM     10  C3' I4B d   1      -0.914  -3.263  -0.918  0.00  0.00     0.013 C 
ENDBRANCH   7   8
ENDBRANCH   1   7
TORSDOF 2
ENDMDL
