MODEL 1
REMARK minimizedAffinity -1.7173804
REMARK minimizedRMSD -1
REMARK  0 active torsions:
REMARK  status: ('A' for Active; 'I' for Inactive)
ROOT
ATOM      1  C   UNL d   1      -2.751  -0.636  -0.896  0.00  0.00     0.172 C 
ATOM      2  N   UNL d   1      -1.394  -0.412  -0.456  0.00  0.00    -0.070 N 
ATOM      3  C1  UNL d   1      -0.855  -0.850   0.725  0.00  0.00    -0.004 A 
ATOM      4  C2  UNL d   1       0.458  -0.434   0.769  0.00  0.00    -0.047 A 
ATOM      5  C3  UNL d   1       0.718   0.279  -0.426  0.00  0.00    -0.047 A 
ATOM      6  C4  UNL d   1      -0.446   0.277  -1.166  0.00  0.00    -0.004 A 
ENDROOT
TORSDOF 0
ENDMDL
