MODEL 1
REMARK minimizedAffinity -0.910340428
REMARK minimizedRMSD -1
REMARK  0 active torsions:
REMARK  status: ('A' for Active; 'I' for Inactive)
ROOT
ATOM      1  C   UNL d   1      -0.531  -2.451   1.802  0.00  0.00     0.172 C 
ATOM      2  N   UNL d   1      -0.130  -1.480   0.811  0.00  0.00    -0.070 N 
ATOM      3  C1  UNL d   1      -0.819  -1.174  -0.332  0.00  0.00    -0.004 A 
ATOM      4  C2  UNL d   1      -0.109  -0.204  -1.005  0.00  0.00    -0.047 A 
ATOM      5  C3  UNL d   1       1.046   0.084  -0.241  0.00  0.00    -0.047 A 
ATOM      6  C4  UNL d   1       1.008  -0.721   0.879  0.00  0.00    -0.004 A 
ENDROOT
TORSDOF 0
ENDMDL
