MODEL 1
REMARK minimizedAffinity -2.27765799
REMARK minimizedRMSD -1
REMARK  0 active torsions:
REMARK  status: ('A' for Active; 'I' for Inactive)
ROOT
ATOM      1  C   UNL d   1      -2.586  -1.008  -1.106  0.00  0.00     0.172 C 
ATOM      2  N   UNL d   1      -1.283  -0.630  -0.611  0.00  0.00    -0.070 N 
ATOM      3  C1  UNL d   1      -0.408   0.220  -1.234  0.00  0.00    -0.004 A 
ATOM      4  C2  UNL d   1       0.717   0.320  -0.445  0.00  0.00    -0.047 A 
ATOM      5  C3  UNL d   1       0.512  -0.499   0.691  0.00  0.00    -0.047 A 
ATOM      6  C4  UNL d   1      -0.734  -1.076   0.562  0.00  0.00    -0.004 A 
ENDROOT
TORSDOF 0
ENDMDL
