MODEL 1
REMARK minimizedAffinity -2.68446469
REMARK minimizedRMSD -1
REMARK  0 active torsions:
REMARK  status: ('A' for Active; 'I' for Inactive)
ROOT
ATOM      1  C   UNL d   1       1.604   3.175   1.110  0.00  0.00     0.172 C 
ATOM      2  N   UNL d   1       1.247   1.881   0.579  0.00  0.00    -0.070 N 
ATOM      3  C1  UNL d   1       2.111   0.840   0.365  0.00  0.00    -0.004 A 
ATOM      4  C2  UNL d   1       1.384  -0.213  -0.149  0.00  0.00    -0.047 A 
ATOM      5  C3  UNL d   1       0.037   0.211  -0.247  0.00  0.00    -0.047 A 
ATOM      6  C4  UNL d   1      -0.019   1.511   0.209  0.00  0.00    -0.004 A 
ENDROOT
TORSDOF 0
ENDMDL
