MODEL 1
REMARK minimizedAffinity -0.850640118
REMARK minimizedRMSD -1
REMARK  0 active torsions:
REMARK  status: ('A' for Active; 'I' for Inactive)
ROOT
ATOM      1  C   UNL d   1      -0.221   0.014  -0.981  0.00  0.00     0.172 C 
ATOM      2  N   UNL d   1       0.211  -0.148   0.388  0.00  0.00    -0.070 N 
ATOM      3  C1  UNL d   1       0.607   0.862   1.224  0.00  0.00    -0.004 A 
ATOM      4  C2  UNL d   1       0.940   0.299   2.437  0.00  0.00    -0.047 A 
ATOM      5  C3  UNL d   1       0.738  -1.098   2.325  0.00  0.00    -0.047 A 
ATOM      6  C4  UNL d   1       0.287  -1.346   1.046  0.00  0.00    -0.004 A 
ENDROOT
TORSDOF 0
ENDMDL
