MODEL 1
REMARK minimizedAffinity -2.15181923
REMARK minimizedRMSD -1
REMARK  0 active torsions:
REMARK  status: ('A' for Active; 'I' for Inactive)
ROOT
ATOM      1  C   UNL d   1       0.490   0.486   1.653  0.00  0.00     0.172 C 
ATOM      2  N   UNL d   1       0.130   0.407   0.256  0.00  0.00    -0.070 N 
ATOM      3  C1  UNL d   1      -1.055   0.823  -0.287  0.00  0.00    -0.004 A 
ATOM      4  C2  UNL d   1      -1.008   0.577  -1.643  0.00  0.00    -0.047 A 
ATOM      5  C3  UNL d   1       0.250  -0.007  -1.923  0.00  0.00    -0.047 A 
ATOM      6  C4  UNL d   1       0.935  -0.101  -0.730  0.00  0.00    -0.004 A 
ENDROOT
TORSDOF 0
ENDMDL
