MODEL 1
REMARK minimizedAffinity -2.2147038
REMARK minimizedRMSD -1
REMARK  0 active torsions:
REMARK  status: ('A' for Active; 'I' for Inactive)
ROOT
ATOM      1  C   UNL d   1      -1.956  -0.957  -1.597  0.00  0.00     0.172 C 
ATOM      2  N   UNL d   1      -0.757  -0.385  -1.029  0.00  0.00    -0.070 N 
ATOM      3  C1  UNL d   1      -0.058   0.675  -1.542  0.00  0.00    -0.004 A 
ATOM      4  C2  UNL d   1       1.017   0.912  -0.713  0.00  0.00    -0.047 A 
ATOM      5  C3  UNL d   1       0.963  -0.039   0.333  0.00  0.00    -0.047 A 
ATOM      6  C4  UNL d   1      -0.145  -0.830   0.113  0.00  0.00    -0.004 A 
ENDROOT
TORSDOF 0
ENDMDL
