MODEL 1
REMARK minimizedAffinity -1.86768401
REMARK minimizedRMSD -1
REMARK  0 active torsions:
REMARK  status: ('A' for Active; 'I' for Inactive)
ROOT
ATOM      1  C   UNL d   1       0.771   0.317   0.211  0.00  0.00     0.172 C 
ATOM      2  N   UNL d   1      -0.438  -0.106  -0.455  0.00  0.00    -0.070 N 
ATOM      3  C1  UNL d   1      -1.100   0.593  -1.428  0.00  0.00    -0.004 A 
ATOM      4  C2  UNL d   1      -2.201  -0.146  -1.805  0.00  0.00    -0.047 A 
ATOM      5  C3  UNL d   1      -2.200  -1.330  -1.030  0.00  0.00    -0.047 A 
ATOM      6  C4  UNL d   1      -1.098  -1.280  -0.203  0.00  0.00    -0.004 A 
ENDROOT
TORSDOF 0
ENDMDL
