MODEL 1
REMARK minimizedAffinity -1.96252871
REMARK minimizedRMSD -1
REMARK  0 active torsions:
REMARK  status: ('A' for Active; 'I' for Inactive)
ROOT
ATOM      1  C   UNL d   1       1.139  -0.084   0.332  0.00  0.00     0.172 C 
ATOM      2  N   UNL d   1       1.789   1.118   0.799  0.00  0.00    -0.070 N 
ATOM      3  C1  UNL d   1       2.579   1.943   0.044  0.00  0.00    -0.004 A 
ATOM      4  C2  UNL d   1       3.005   2.975   0.853  0.00  0.00    -0.047 A 
ATOM      5  C3  UNL d   1       2.453   2.761   2.138  0.00  0.00    -0.047 A 
ATOM      6  C4  UNL d   1       1.705   1.605   2.077  0.00  0.00    -0.004 A 
ENDROOT
TORSDOF 0
ENDMDL
