MODEL 1
REMARK minimizedAffinity -0.816135228
REMARK minimizedRMSD -1
REMARK  0 active torsions:
REMARK  status: ('A' for Active; 'I' for Inactive)
ROOT
ATOM      1  C   UNL d   1       3.640   2.394   4.388  0.00  0.00     0.172 C 
ATOM      2  N   UNL d   1       3.183   2.896   3.113  0.00  0.00    -0.070 N 
ATOM      3  C1  UNL d   1       2.928   4.208   2.817  0.00  0.00    -0.004 A 
ATOM      4  C2  UNL d   1       2.514   4.271   1.504  0.00  0.00    -0.047 A 
ATOM      5  C3  UNL d   1       2.519   2.951   0.994  0.00  0.00    -0.047 A 
ATOM      6  C4  UNL d   1       2.937   2.119   2.012  0.00  0.00    -0.004 A 
ENDROOT
TORSDOF 0
ENDMDL
