MODEL 1
REMARK minimizedAffinity -0.206321985
REMARK minimizedRMSD -1
REMARK  0 active torsions:
REMARK  status: ('A' for Active; 'I' for Inactive)
ROOT
ATOM      1  C   UNL d   1      -2.507  -1.184  -2.689  0.00  0.00     0.172 C 
ATOM      2  N   UNL d   1      -1.967  -0.256  -1.724  0.00  0.00    -0.070 N 
ATOM      3  C1  UNL d   1      -0.824   0.482  -1.879  0.00  0.00    -0.004 A 
ATOM      4  C2  UNL d   1      -0.654   1.241  -0.741  0.00  0.00    -0.047 A 
ATOM      5  C3  UNL d   1      -1.731   0.947   0.129  0.00  0.00    -0.047 A 
ATOM      6  C4  UNL d   1      -2.529   0.018  -0.504  0.00  0.00    -0.004 A 
ENDROOT
TORSDOF 0
ENDMDL
