MODEL 1
REMARK minimizedAffinity -3.48558211
REMARK minimizedRMSD -1
REMARK  0 active torsions:
REMARK  status: ('A' for Active; 'I' for Inactive)
ROOT
ATOM      1  C   UNL d   1      -2.153  -1.389  -0.947  0.00  0.00     0.172 C 
ATOM      2  N   UNL d   1      -0.937  -1.289  -0.175  0.00  0.00    -0.070 N 
ATOM      3  C1  UNL d   1      -0.581  -2.107   0.864  0.00  0.00    -0.004 A 
ATOM      4  C2  UNL d   1       0.645  -1.686   1.332  0.00  0.00    -0.047 A 
ATOM      5  C3  UNL d   1       1.039  -0.575   0.548  0.00  0.00    -0.047 A 
ATOM      6  C4  UNL d   1       0.041  -0.352  -0.377  0.00  0.00    -0.004 A 
ENDROOT
TORSDOF 0
ENDMDL
