MODEL 1
REMARK minimizedAffinity -2.19147611
REMARK minimizedRMSD -1
REMARK  0 active torsions:
REMARK  status: ('A' for Active; 'I' for Inactive)
ROOT
ATOM      1  C   UNL d   1      -2.634  -0.897  -1.402  0.00  0.00     0.172 C 
ATOM      2  N   UNL d   1      -1.352  -0.361  -1.009  0.00  0.00    -0.070 N 
ATOM      3  C1  UNL d   1      -0.687   0.658  -1.635  0.00  0.00    -0.004 A 
ATOM      4  C2  UNL d   1       0.494   0.871  -0.957  0.00  0.00    -0.047 A 
ATOM      5  C3  UNL d   1       0.540  -0.053   0.114  0.00  0.00    -0.047 A 
ATOM      6  C4  UNL d   1      -0.615  -0.804   0.058  0.00  0.00    -0.004 A 
ENDROOT
TORSDOF 0
ENDMDL
