MODEL 1
REMARK minimizedAffinity 0.592823029
REMARK minimizedRMSD -1
REMARK  0 active torsions:
REMARK  status: ('A' for Active; 'I' for Inactive)
ROOT
ATOM      1  C   UNL d   1      -2.177  -0.634  -1.217  0.00  0.00     0.172 C 
ATOM      2  N   UNL d   1      -0.898  -0.436  -0.578  0.00  0.00    -0.070 N 
ATOM      3  C1  UNL d   1      -0.553  -0.876   0.672  0.00  0.00    -0.004 A 
ATOM      4  C2  UNL d   1       0.747  -0.488   0.913  0.00  0.00    -0.047 A 
ATOM      5  C3  UNL d   1       1.199   0.210  -0.232  0.00  0.00    -0.047 A 
ATOM      6  C4  UNL d   1       0.161   0.228  -1.139  0.00  0.00    -0.004 A 
ENDROOT
TORSDOF 0
ENDMDL
