MODEL 1
REMARK minimizedAffinity -2.37913394
REMARK minimizedRMSD -1
REMARK  0 active torsions:
REMARK  status: ('A' for Active; 'I' for Inactive)
ROOT
ATOM      1  C   UNL d   1       0.509   0.319   0.325  0.00  0.00     0.172 C 
ATOM      2  N   UNL d   1       1.359   1.451   0.614  0.00  0.00    -0.070 N 
ATOM      3  C1  UNL d   1       1.382   2.152   1.790  0.00  0.00    -0.004 A 
ATOM      4  C2  UNL d   1       2.324   3.151   1.667  0.00  0.00    -0.047 A 
ATOM      5  C3  UNL d   1       2.885   3.046   0.372  0.00  0.00    -0.047 A 
ATOM      6  C4  UNL d   1       2.270   1.986  -0.258  0.00  0.00    -0.004 A 
ENDROOT
TORSDOF 0
ENDMDL
