MODEL 1
REMARK minimizedAffinity -1.30102324
REMARK minimizedRMSD -1
REMARK  0 active torsions:
REMARK  status: ('A' for Active; 'I' for Inactive)
ROOT
ATOM      1  C   UNL d   1      -0.790   0.774  -1.288  0.00  0.00     0.172 C 
ATOM      2  N   UNL d   1       0.073   0.151  -0.311  0.00  0.00    -0.070 N 
ATOM      3  C1  UNL d   1      -0.342  -0.600   0.756  0.00  0.00    -0.004 A 
ATOM      4  C2  UNL d   1       0.779  -1.012   1.443  0.00  0.00    -0.047 A 
ATOM      5  C3  UNL d   1       1.907  -0.489   0.766  0.00  0.00    -0.047 A 
ATOM      6  C4  UNL d   1       1.440   0.227  -0.316  0.00  0.00    -0.004 A 
ENDROOT
TORSDOF 0
ENDMDL
