MODEL 1
REMARK minimizedAffinity 11.8075037
REMARK minimizedRMSD -1
REMARK  1 active torsions:
REMARK  status: ('A' for Active; 'I' for Inactive)
REMARK    1  A    between atoms: C1_2  and  C2_3 
ROOT
ATOM      1  C2  UNL d   1       2.407  -0.316   2.018  0.00  0.00    -0.077 A 
ATOM      2  C3  UNL d   1       1.708   0.094   3.162  0.00  0.00     0.002 A 
ATOM      3  C4  UNL d   1       1.872   1.386   3.666  0.00  0.00     0.002 A 
ATOM      4  C5  UNL d   1       2.732   2.279   3.030  0.00  0.00    -0.004 A 
ATOM      5  C6  UNL d   1       3.433   1.880   1.892  0.00  0.00     0.002 A 
ATOM      6  C7  UNL d   1       3.271   0.589   1.388  0.00  0.00     0.002 A 
ENDROOT
BRANCH   1   7
ATOM      7  C1  UNL d   1       2.193  -1.692   1.445  0.00  0.00     0.055 C 
ATOM      8  C   UNL d   1       0.743  -1.902   1.035  0.00  0.00     0.019 C 
ENDBRANCH   1   7
TORSDOF 1
ENDMDL
