MODEL 1
REMARK minimizedAffinity 7.49245501
REMARK minimizedRMSD -1
REMARK  1 active torsions:
REMARK  status: ('A' for Active; 'I' for Inactive)
REMARK    1  A    between atoms: C1_2  and  C2_3 
ROOT
ATOM      1  C2  UNL d   1      -3.529  -5.252  -4.027  0.00  0.00    -0.077 A 
ATOM      2  C3  UNL d   1      -3.373  -4.850  -5.361  0.00  0.00     0.002 A 
ATOM      3  C4  UNL d   1      -4.375  -4.117  -6.000  0.00  0.00     0.002 A 
ATOM      4  C5  UNL d   1      -5.537  -3.776  -5.311  0.00  0.00    -0.004 A 
ATOM      5  C6  UNL d   1      -5.703  -4.172  -3.985  0.00  0.00     0.002 A 
ATOM      6  C7  UNL d   1      -4.703  -4.906  -3.345  0.00  0.00     0.002 A 
ENDROOT
BRANCH   1   7
ATOM      7  C1  UNL d   1      -2.428  -6.000  -3.322  0.00  0.00     0.055 C 
ATOM      8  C   UNL d   1      -2.636  -5.998  -1.814  0.00  0.00     0.019 C 
ENDBRANCH   1   7
TORSDOF 1
ENDMDL
