MODEL 1
REMARK minimizedAffinity 1.52701402
REMARK minimizedRMSD -1
REMARK  1 active torsions:
REMARK  status: ('A' for Active; 'I' for Inactive)
REMARK    1  A    between atoms: C1_2  and  C2_3 
ROOT
ATOM      1  C2  UNL d   1       3.825  -3.148   3.120  0.00  0.00    -0.077 A 
ATOM      2  C3  UNL d   1       5.062  -2.640   2.699  0.00  0.00     0.002 A 
ATOM      3  C4  UNL d   1       5.998  -3.476   2.088  0.00  0.00     0.002 A 
ATOM      4  C5  UNL d   1       5.705  -4.823   1.887  0.00  0.00    -0.004 A 
ATOM      5  C6  UNL d   1       4.478  -5.339   2.304  0.00  0.00     0.002 A 
ATOM      6  C7  UNL d   1       3.542  -4.505   2.916  0.00  0.00     0.002 A 
ENDROOT
BRANCH   1   7
ATOM      7  C1  UNL d   1       2.794  -2.237   3.735  0.00  0.00     0.055 C 
ATOM      8  C   UNL d   1       2.529  -2.603   5.188  0.00  0.00     0.019 C 
ENDBRANCH   1   7
TORSDOF 1
ENDMDL
