MODEL 1
REMARK minimizedAffinity 6.53242016
REMARK minimizedRMSD -1
REMARK  1 active torsions:
REMARK  status: ('A' for Active; 'I' for Inactive)
REMARK    1  A    between atoms: C1_2  and  C2_3 
ROOT
ATOM      1  C2  UNL d   1       4.694  -5.590  -3.472  0.00  0.00    -0.077 A 
ATOM      2  C3  UNL d   1       5.283  -5.899  -2.238  0.00  0.00     0.002 A 
ATOM      3  C4  UNL d   1       4.501  -5.992  -1.085  0.00  0.00     0.002 A 
ATOM      4  C5  UNL d   1       3.125  -5.782  -1.156  0.00  0.00    -0.004 A 
ATOM      5  C6  UNL d   1       2.530  -5.472  -2.378  0.00  0.00     0.002 A 
ATOM      6  C7  UNL d   1       3.311  -5.377  -3.531  0.00  0.00     0.002 A 
ENDROOT
BRANCH   1   7
ATOM      7  C1  UNL d   1       5.529  -5.538  -4.724  0.00  0.00     0.055 C 
ATOM      8  C   UNL d   1       4.735  -5.999  -5.938  0.00  0.00     0.019 C 
ENDBRANCH   1   7
TORSDOF 1
ENDMDL
