MODEL 1
REMARK minimizedAffinity -2.4201746
REMARK minimizedRMSD -1
REMARK  0 active torsions:
REMARK  status: ('A' for Active; 'I' for Inactive)
ROOT
ATOM      1  C2' OXE d   1       0.542   3.713   0.068  0.00  0.00     0.078 C 
ATOM      2  C1' OXE d   1       2.148   2.485   2.016  0.00  0.00     0.078 C 
ATOM      3  C1  OXE d   1       1.252   1.602   1.185  0.00  0.00    -0.078 A 
ATOM      4  C2  OXE d   1       0.435   2.216   0.266  0.00  0.00    -0.078 A 
ATOM      5  C3  OXE d   1      -0.371   1.444  -0.565  0.00  0.00     0.003 A 
ATOM      6  C4  OXE d   1      -0.472   0.061  -0.369  0.00  0.00    -0.002 A 
ATOM      7  C5  OXE d   1       0.322  -0.580   0.588  0.00  0.00    -0.002 A 
ATOM      8  C6  OXE d   1       1.218   0.169   1.343  0.00  0.00     0.003 A 
ENDROOT
TORSDOF 0
ENDMDL
