MODEL 1
REMARK minimizedAffinity -4.40185452
REMARK minimizedRMSD -1
REMARK  0 active torsions:
REMARK  status: ('A' for Active; 'I' for Inactive)
ROOT
ATOM      1  C2' OXE d   1       0.090   1.422   0.299  0.00  0.00     0.078 C 
ATOM      2  C1' OXE d   1       0.249  -0.041  -2.092  0.00  0.00     0.078 C 
ATOM      3  C1  OXE d   1      -0.387  -0.709  -0.899  0.00  0.00    -0.078 A 
ATOM      4  C2  OXE d   1      -0.418  -0.003   0.280  0.00  0.00    -0.078 A 
ATOM      5  C3  OXE d   1      -1.042  -0.552   1.396  0.00  0.00     0.003 A 
ATOM      6  C4  OXE d   1      -1.501  -1.875   1.373  0.00  0.00    -0.002 A 
ATOM      7  C5  OXE d   1      -1.443  -2.626   0.194  0.00  0.00    -0.002 A 
ATOM      8  C6  OXE d   1      -0.929  -2.044  -0.959  0.00  0.00     0.003 A 
ENDROOT
TORSDOF 0
ENDMDL
