MODEL 1
REMARK minimizedAffinity -1.56450522
REMARK minimizedRMSD -1
REMARK  0 active torsions:
REMARK  status: ('A' for Active; 'I' for Inactive)
ROOT
ATOM      1  C2' OXE d   1       1.503  -2.565  -1.646  0.00  0.00     0.078 C 
ATOM      2  C1' OXE d   1      -0.193  -4.076   0.005  0.00  0.00     0.078 C 
ATOM      3  C1  OXE d   1      -0.196  -2.578   0.176  0.00  0.00    -0.078 A 
ATOM      4  C2  OXE d   1       0.671  -1.850  -0.603  0.00  0.00    -0.078 A 
ATOM      5  C3  OXE d   1       0.669  -0.460  -0.524  0.00  0.00     0.003 A 
ATOM      6  C4  OXE d   1      -0.095   0.193   0.451  0.00  0.00    -0.002 A 
ATOM      7  C5  OXE d   1      -0.956  -0.533   1.282  0.00  0.00    -0.002 A 
ATOM      8  C6  OXE d   1      -1.049  -1.911   1.129  0.00  0.00     0.003 A 
ENDROOT
TORSDOF 0
ENDMDL
