MODEL 1
REMARK minimizedAffinity -0.921020567
REMARK minimizedRMSD -1
REMARK  0 active torsions:
REMARK  status: ('A' for Active; 'I' for Inactive)
ROOT
ATOM      1  C2' OXE d   1      -0.827  -2.531   0.994  0.00  0.00     0.078 C 
ATOM      2  C1' OXE d   1      -1.628  -0.217   2.366  0.00  0.00     0.078 C 
ATOM      3  C1  OXE d   1      -0.929  -0.042   1.041  0.00  0.00    -0.078 A 
ATOM      4  C2  OXE d   1      -0.499  -1.179   0.399  0.00  0.00    -0.078 A 
ATOM      5  C3  OXE d   1       0.103  -1.077  -0.852  0.00  0.00     0.003 A 
ATOM      6  C4  OXE d   1       0.411   0.178  -1.391  0.00  0.00    -0.002 A 
ATOM      7  C5  OXE d   1       0.018   1.348  -0.734  0.00  0.00    -0.002 A 
ATOM      8  C6  OXE d   1      -0.690   1.255   0.459  0.00  0.00     0.003 A 
ENDROOT
TORSDOF 0
ENDMDL
