MODEL 1
REMARK minimizedAffinity -4.39156294
REMARK minimizedRMSD -1
REMARK  0 active torsions:
REMARK  status: ('A' for Active; 'I' for Inactive)
ROOT
ATOM      1  C2' OXE d   1       0.280  -2.909   0.246  0.00  0.00     0.078 C 
ATOM      2  C1' OXE d   1       1.146  -1.748  -2.159  0.00  0.00     0.078 C 
ATOM      3  C1  OXE d   1       0.568  -0.837  -1.106  0.00  0.00    -0.078 A 
ATOM      4  C2  OXE d   1       0.104  -1.419   0.049  0.00  0.00    -0.078 A 
ATOM      5  C3  OXE d   1      -0.388  -0.618   1.076  0.00  0.00     0.003 A 
ATOM      6  C4  OXE d   1      -0.557   0.758   0.882  0.00  0.00    -0.002 A 
ATOM      7  C5  OXE d   1      -0.127   1.367  -0.302  0.00  0.00    -0.002 A 
ATOM      8  C6  OXE d   1       0.475   0.591  -1.287  0.00  0.00     0.003 A 
ENDROOT
TORSDOF 0
ENDMDL
