MODEL 1
REMARK minimizedAffinity 1.64484429
REMARK minimizedRMSD -1
REMARK  0 active torsions:
REMARK  status: ('A' for Active; 'I' for Inactive)
ROOT
ATOM      1  C2' OXE d   1       0.424   0.836   0.376  0.00  0.00     0.078 C 
ATOM      2  C1' OXE d   1       0.411  -0.473  -2.107  0.00  0.00     0.078 C 
ATOM      3  C1  OXE d   1      -0.176  -1.202  -0.924  0.00  0.00    -0.078 A 
ATOM      4  C2  OXE d   1      -0.123  -0.573   0.296  0.00  0.00    -0.078 A 
ATOM      5  C3  OXE d   1      -0.699  -1.178   1.409  0.00  0.00     0.003 A 
ATOM      6  C4  OXE d   1      -1.194  -2.485   1.329  0.00  0.00    -0.002 A 
ATOM      7  C5  OXE d   1      -1.221  -3.160   0.103  0.00  0.00    -0.002 A 
ATOM      8  C6  OXE d   1      -0.756  -2.517  -1.039  0.00  0.00     0.003 A 
ENDROOT
TORSDOF 0
ENDMDL
