MODEL 1
REMARK minimizedAffinity -0.537976623
REMARK minimizedRMSD -1
REMARK  0 active torsions:
REMARK  status: ('A' for Active; 'I' for Inactive)
ROOT
ATOM      1  C2' OXE d   1       0.067  -1.801  -2.254  0.00  0.00     0.078 C 
ATOM      2  C1' OXE d   1      -0.997  -2.585   0.223  0.00  0.00     0.078 C 
ATOM      3  C1  OXE d   1      -0.650  -1.129   0.035  0.00  0.00    -0.078 A 
ATOM      4  C2  OXE d   1      -0.087  -0.763  -1.163  0.00  0.00    -0.078 A 
ATOM      5  C3  OXE d   1       0.202   0.576  -1.409  0.00  0.00     0.003 A 
ATOM      6  C4  OXE d   1       0.066   1.529  -0.391  0.00  0.00    -0.002 A 
ATOM      7  C5  OXE d   1      -0.469   1.170   0.850  0.00  0.00    -0.002 A 
ATOM      8  C6  OXE d   1      -0.871  -0.144   1.065  0.00  0.00     0.003 A 
ENDROOT
TORSDOF 0
ENDMDL
