MODEL 1
REMARK minimizedAffinity -2.950845
REMARK minimizedRMSD -1
REMARK  0 active torsions:
REMARK  status: ('A' for Active; 'I' for Inactive)
ROOT
ATOM      1  C2' OXE d   1       0.271   0.987  -0.294  0.00  0.00     0.078 C 
ATOM      2  C1' OXE d   1      -1.072  -0.402   1.742  0.00  0.00     0.078 C 
ATOM      3  C1  OXE d   1      -0.739  -1.155   0.478  0.00  0.00    -0.078 A 
ATOM      4  C2  OXE d   1      -0.124  -0.454  -0.532  0.00  0.00    -0.078 A 
ATOM      5  C3  OXE d   1       0.254  -1.114  -1.698  0.00  0.00     0.003 A 
ATOM      6  C4  OXE d   1      -0.124  -2.445  -1.913  0.00  0.00    -0.002 A 
ATOM      7  C5  OXE d   1      -0.787  -3.166  -0.914  0.00  0.00    -0.002 A 
ATOM      8  C6  OXE d   1      -1.063  -2.549   0.301  0.00  0.00     0.003 A 
ENDROOT
TORSDOF 0
ENDMDL
