MODEL 1
REMARK minimizedAffinity -2.83175588
REMARK minimizedRMSD -1
REMARK  0 active torsions:
REMARK  status: ('A' for Active; 'I' for Inactive)
ROOT
ATOM      1  C2' OXE d   1      -0.285   1.301  -1.323  0.00  0.00     0.078 C 
ATOM      2  C1' OXE d   1       0.104  -0.243   0.989  0.00  0.00     0.078 C 
ATOM      3  C1  OXE d   1       0.789   1.099   0.916  0.00  0.00    -0.078 A 
ATOM      4  C2  OXE d   1       0.631   1.827  -0.238  0.00  0.00    -0.078 A 
ATOM      5  C3  OXE d   1       1.196   3.096  -0.336  0.00  0.00     0.003 A 
ATOM      6  C4  OXE d   1       2.049   3.571   0.667  0.00  0.00    -0.002 A 
ATOM      7  C5  OXE d   1       2.256   2.828   1.834  0.00  0.00    -0.002 A 
ATOM      8  C6  OXE d   1       1.600   1.612   1.992  0.00  0.00     0.003 A 
ENDROOT
TORSDOF 0
ENDMDL
