MODEL 1
REMARK minimizedAffinity -4.39130116
REMARK minimizedRMSD -1
REMARK  0 active torsions:
REMARK  status: ('A' for Active; 'I' for Inactive)
ROOT
ATOM      1  C2' OXE d   1       0.212   0.681  -0.096  0.00  0.00     0.078 C 
ATOM      2  C1' OXE d   1      -0.919  -1.251   1.597  0.00  0.00     0.078 C 
ATOM      3  C1  OXE d   1      -0.558  -1.670   0.194  0.00  0.00    -0.078 A 
ATOM      4  C2  OXE d   1      -0.048  -0.707  -0.642  0.00  0.00    -0.078 A 
ATOM      5  C3  OXE d   1       0.353  -1.053  -1.930  0.00  0.00     0.003 A 
ATOM      6  C4  OXE d   1       0.099  -2.336  -2.430  0.00  0.00    -0.002 A 
ATOM      7  C5  OXE d   1      -0.456  -3.322  -1.608  0.00  0.00    -0.002 A 
ATOM      8  C6  OXE d   1      -0.750  -3.018  -0.283  0.00  0.00     0.003 A 
ENDROOT
TORSDOF 0
ENDMDL
