MODEL 1
REMARK minimizedAffinity -2.98205018
REMARK minimizedRMSD -1
REMARK  0 active torsions:
REMARK  status: ('A' for Active; 'I' for Inactive)
ROOT
ATOM      1  C2' OXE d   1      -0.296  -3.062  -0.071  0.00  0.00     0.078 C 
ATOM      2  C1' OXE d   1       0.506  -1.506  -2.265  0.00  0.00     0.078 C 
ATOM      3  C1  OXE d   1       0.009  -0.786  -1.036  0.00  0.00    -0.078 A 
ATOM      4  C2  OXE d   1      -0.426  -1.556   0.015  0.00  0.00    -0.078 A 
ATOM      5  C3  OXE d   1      -0.843  -0.943   1.193  0.00  0.00     0.003 A 
ATOM      6  C4  OXE d   1      -0.969   0.450   1.261  0.00  0.00    -0.002 A 
ATOM      7  C5  OXE d   1      -0.570   1.252   0.187  0.00  0.00    -0.002 A 
ATOM      8  C6  OXE d   1      -0.040   0.653  -0.951  0.00  0.00     0.003 A 
ENDROOT
TORSDOF 0
ENDMDL
