MODEL 1
REMARK minimizedAffinity -1.68321764
REMARK minimizedRMSD -1
REMARK  0 active torsions:
REMARK  status: ('A' for Active; 'I' for Inactive)
ROOT
ATOM      1  C2' OXE d   1       0.651   1.820   0.363  0.00  0.00     0.078 C 
ATOM      2  C1' OXE d   1       0.553  -0.088  -1.693  0.00  0.00     0.078 C 
ATOM      3  C1  OXE d   1       0.005  -0.480  -0.343  0.00  0.00    -0.078 A 
ATOM      4  C2  OXE d   1       0.100   0.444   0.669  0.00  0.00    -0.078 A 
ATOM      5  C3  OXE d   1      -0.440   0.155   1.919  0.00  0.00     0.003 A 
ATOM      6  C4  OXE d   1      -0.939  -1.124   2.197  0.00  0.00    -0.002 A 
ATOM      7  C5  OXE d   1      -1.008  -2.093   1.191  0.00  0.00    -0.002 A 
ATOM      8  C6  OXE d   1      -0.581  -1.774  -0.093  0.00  0.00     0.003 A 
ENDROOT
TORSDOF 0
ENDMDL
