MODEL 1
REMARK minimizedAffinity 0.192361817
REMARK minimizedRMSD -1
REMARK  0 active torsions:
REMARK  status: ('A' for Active; 'I' for Inactive)
ROOT
ATOM      1  C2' OXE d   1      -0.642  -2.858   0.142  0.00  0.00     0.078 C 
ATOM      2  C1' OXE d   1       0.356  -1.501  -2.103  0.00  0.00     0.078 C 
ATOM      3  C1  OXE d   1       0.045  -0.689  -0.871  0.00  0.00    -0.078 A 
ATOM      4  C2  OXE d   1      -0.487  -1.354   0.207  0.00  0.00    -0.078 A 
ATOM      5  C3  OXE d   1      -0.741  -0.662   1.387  0.00  0.00     0.003 A 
ATOM      6  C4  OXE d   1      -0.604   0.731   1.436  0.00  0.00    -0.002 A 
ATOM      7  C5  OXE d   1      -0.101   1.433   0.336  0.00  0.00    -0.002 A 
ATOM      8  C6  OXE d   1       0.268   0.735  -0.808  0.00  0.00     0.003 A 
ENDROOT
TORSDOF 0
ENDMDL
