MODEL 1
REMARK minimizedAffinity -0.22872676
REMARK minimizedRMSD -1
REMARK  0 active torsions:
REMARK  status: ('A' for Active; 'I' for Inactive)
ROOT
ATOM      1  C2' OXE d   1      -1.357  -0.366   2.444  0.00  0.00     0.078 C 
ATOM      2  C1' OXE d   1      -0.902  -2.583   0.783  0.00  0.00     0.078 C 
ATOM      3  C1  OXE d   1      -0.482  -1.226   0.276  0.00  0.00    -0.078 A 
ATOM      4  C2  OXE d   1      -0.752  -0.141   1.075  0.00  0.00    -0.078 A 
ATOM      5  C3  OXE d   1      -0.337   1.127   0.679  0.00  0.00     0.003 A 
ATOM      6  C4  OXE d   1       0.214   1.328  -0.592  0.00  0.00    -0.002 A 
ATOM      7  C5  OXE d   1       0.460   0.242  -1.439  0.00  0.00    -0.002 A 
ATOM      8  C6  OXE d   1       0.158  -1.044  -1.004  0.00  0.00     0.003 A 
ENDROOT
TORSDOF 0
ENDMDL
