MODEL 1
REMARK minimizedAffinity -0.560046971
REMARK minimizedRMSD -1
REMARK  0 active torsions:
REMARK  status: ('A' for Active; 'I' for Inactive)
ROOT
ATOM      1  C2' OXE d   1      -1.152  -3.612  -0.597  0.00  0.00     0.078 C 
ATOM      2  C1' OXE d   1      -3.579  -2.908   0.624  0.00  0.00     0.078 C 
ATOM      3  C1  OXE d   1      -2.437  -1.927   0.713  0.00  0.00    -0.078 A 
ATOM      4  C2  OXE d   1      -1.239  -2.300   0.153  0.00  0.00    -0.078 A 
ATOM      5  C3  OXE d   1      -0.168  -1.411   0.159  0.00  0.00     0.003 A 
ATOM      6  C4  OXE d   1      -0.254  -0.203   0.863  0.00  0.00    -0.002 A 
ATOM      7  C5  OXE d   1      -1.452   0.179   1.474  0.00  0.00    -0.002 A 
ATOM      8  C6  OXE d   1      -2.564  -0.651   1.372  0.00  0.00     0.003 A 
ENDROOT
TORSDOF 0
ENDMDL
