MODEL 1
REMARK minimizedAffinity -4.23712254
REMARK minimizedRMSD -1
REMARK  0 active torsions:
REMARK  status: ('A' for Active; 'I' for Inactive)
ROOT
ATOM      1  C2' OXE d   1       0.427   0.381  -2.679  0.00  0.00     0.078 C 
ATOM      2  C1' OXE d   1      -0.193   1.766  -0.318  0.00  0.00     0.078 C 
ATOM      3  C1  OXE d   1      -0.233   0.259  -0.280  0.00  0.00    -0.078 A 
ATOM      4  C2  OXE d   1       0.027  -0.410  -1.453  0.00  0.00    -0.078 A 
ATOM      5  C3  OXE d   1       0.057  -1.801  -1.460  0.00  0.00     0.003 A 
ATOM      6  C4  OXE d   1      -0.324  -2.525  -0.324  0.00  0.00    -0.002 A 
ATOM      7  C5  OXE d   1      -0.631  -1.862   0.870  0.00  0.00    -0.002 A 
ATOM      8  C6  OXE d   1      -0.549  -0.475   0.920  0.00  0.00     0.003 A 
ENDROOT
TORSDOF 0
ENDMDL
