MODEL 1
REMARK minimizedAffinity -3.31870103
REMARK minimizedRMSD -1
REMARK  0 active torsions:
REMARK  status: ('A' for Active; 'I' for Inactive)
ROOT
ATOM      1  C2' OXE d   1      -0.401  -1.140   0.743  0.00  0.00     0.078 C 
ATOM      2  C1' OXE d   1       0.047   1.468  -0.194  0.00  0.00     0.078 C 
ATOM      3  C1  OXE d   1       0.240   0.329  -1.164  0.00  0.00    -0.078 A 
ATOM      4  C2  OXE d   1       0.064  -0.946  -0.685  0.00  0.00    -0.078 A 
ATOM      5  C3  OXE d   1       0.175  -2.030  -1.551  0.00  0.00     0.003 A 
ATOM      6  C4  OXE d   1       0.615  -1.843  -2.867  0.00  0.00    -0.002 A 
ATOM      7  C5  OXE d   1       0.839  -0.555  -3.364  0.00  0.00    -0.002 A 
ATOM      8  C6  OXE d   1       0.615   0.542  -2.540  0.00  0.00     0.003 A 
ENDROOT
TORSDOF 0
ENDMDL
