MODEL 1
REMARK minimizedAffinity 8.245574
REMARK minimizedRMSD -1
REMARK  1 active torsions:
REMARK  status: ('A' for Active; 'I' for Inactive)
REMARK    1  A    between atoms: C1_2  and  C2_3 
ROOT
ATOM      1  C2  UNL d   1      -0.393   0.381   1.933  0.00  0.00    -0.077 A 
ATOM      2  C3  UNL d   1       0.277  -0.441   1.016  0.00  0.00     0.002 A 
ATOM      3  C4  UNL d   1       1.663  -0.597   1.088  0.00  0.00     0.002 A 
ATOM      4  C5  UNL d   1       2.389   0.062   2.078  0.00  0.00    -0.004 A 
ATOM      5  C6  UNL d   1       1.733   0.883   2.993  0.00  0.00     0.002 A 
ATOM      6  C7  UNL d   1       0.348   1.042   2.922  0.00  0.00     0.002 A 
ENDROOT
BRANCH   1   7
ATOM      7  C1  UNL d   1      -1.893   0.513   1.887  0.00  0.00     0.055 C 
ATOM      8  C   UNL d   1      -2.500  -0.431   0.859  0.00  0.00     0.019 C 
ENDBRANCH   1   7
TORSDOF 1
ENDMDL
