MODEL 1
REMARK minimizedAffinity 8.13621712
REMARK minimizedRMSD -1
REMARK  1 active torsions:
REMARK  status: ('A' for Active; 'I' for Inactive)
REMARK    1  A    between atoms: C1_2  and  C2_3 
ROOT
ATOM      1  C2  UNL d   1       1.834  -1.271   4.767  0.00  0.00    -0.077 A 
ATOM      2  C3  UNL d   1       1.846   0.127   4.878  0.00  0.00     0.002 A 
ATOM      3  C4  UNL d   1       1.128   0.913   3.975  0.00  0.00     0.002 A 
ATOM      4  C5  UNL d   1       0.389   0.311   2.959  0.00  0.00    -0.004 A 
ATOM      5  C6  UNL d   1       0.371  -1.078   2.840  0.00  0.00     0.002 A 
ATOM      6  C7  UNL d   1       1.090  -1.865   3.740  0.00  0.00     0.002 A 
ENDROOT
BRANCH   1   7
ATOM      7  C1  UNL d   1       2.568  -2.122   5.770  0.00  0.00     0.055 C 
ATOM      8  C   UNL d   1       3.983  -1.611   6.000  0.00  0.00     0.019 C 
ENDBRANCH   1   7
TORSDOF 1
ENDMDL
