MODEL 1
REMARK minimizedAffinity 6.63596725
REMARK minimizedRMSD -1
REMARK  1 active torsions:
REMARK  status: ('A' for Active; 'I' for Inactive)
REMARK    1  A    between atoms: C1_2  and  C2_3 
ROOT
ATOM      1  C2  UNL d   1       0.927   0.543   2.430  0.00  0.00    -0.077 A 
ATOM      2  C3  UNL d   1      -0.111  -0.390   2.301  0.00  0.00     0.002 A 
ATOM      3  C4  UNL d   1      -1.383  -0.107   2.804  0.00  0.00     0.002 A 
ATOM      4  C5  UNL d   1      -1.629   1.111   3.435  0.00  0.00    -0.004 A 
ATOM      5  C6  UNL d   1      -0.602   2.045   3.570  0.00  0.00     0.002 A 
ATOM      6  C7  UNL d   1       0.669   1.763   3.069  0.00  0.00     0.002 A 
ENDROOT
BRANCH   1   7
ATOM      7  C1  UNL d   1       2.285   0.260   1.845  0.00  0.00     0.055 C 
ATOM      8  C   UNL d   1       2.189  -0.681   0.653  0.00  0.00     0.019 C 
ENDBRANCH   1   7
TORSDOF 1
ENDMDL
