MODEL 1
REMARK minimizedAffinity 5.10547352
REMARK minimizedRMSD -1
REMARK  1 active torsions:
REMARK  status: ('A' for Active; 'I' for Inactive)
REMARK    1  A    between atoms: C1_2  and  C2_3 
ROOT
ATOM      1  C2  UNL d   1       1.987   0.648   0.934  0.00  0.00    -0.077 A 
ATOM      2  C3  UNL d   1       1.565  -0.224  -0.079  0.00  0.00     0.002 A 
ATOM      3  C4  UNL d   1       1.458   0.224  -1.397  0.00  0.00     0.002 A 
ATOM      4  C5  UNL d   1       1.775   1.543  -1.714  0.00  0.00    -0.004 A 
ATOM      5  C6  UNL d   1       2.193   2.419  -0.713  0.00  0.00     0.002 A 
ATOM      6  C7  UNL d   1       2.300   1.973   0.605  0.00  0.00     0.002 A 
ENDROOT
BRANCH   1   7
ATOM      7  C1  UNL d   1       2.151   0.154   2.348  0.00  0.00     0.055 C 
ATOM      8  C   UNL d   1       3.542  -0.418   2.577  0.00  0.00     0.019 C 
ENDBRANCH   1   7
TORSDOF 1
ENDMDL
