MODEL 1
REMARK minimizedAffinity -5.23992825
REMARK minimizedRMSD -1
REMARK  0 active torsions:
REMARK  status: ('A' for Active; 'I' for Inactive)
ROOT
ATOM      1  C4' PXY d   1      -0.368   0.824  -2.265  0.00  0.00     0.077 C 
ATOM      2  C1' PXY d   1       0.776  -0.455   3.255  0.00  0.00     0.077 C 
ATOM      3  C1  PXY d   1       0.463  -0.120   1.810  0.00  0.00    -0.082 A 
ATOM      4  C2  PXY d   1       1.352  -0.392   0.868  0.00  0.00     0.003 A 
ATOM      5  C3  PXY d   1       1.098  -0.067  -0.439  0.00  0.00     0.003 A 
ATOM      6  C4  PXY d   1      -0.099   0.495  -0.794  0.00  0.00    -0.082 A 
ATOM      7  C5  PXY d   1      -1.015   0.766   0.160  0.00  0.00     0.003 A 
ATOM      8  C6  PXY d   1      -0.722   0.466   1.487  0.00  0.00     0.003 A 
ENDROOT
TORSDOF 0
ENDMDL
