MODEL 1
REMARK minimizedAffinity -3.72639513
REMARK minimizedRMSD -1
REMARK  0 active torsions:
REMARK  status: ('A' for Active; 'I' for Inactive)
ROOT
ATOM      1  C4' PXY d   1      -1.144   1.792  -3.086  0.00  0.00     0.077 C 
ATOM      2  C1' PXY d   1       0.322  -0.972   1.774  0.00  0.00     0.077 C 
ATOM      3  C1  PXY d   1      -0.055  -0.255   0.493  0.00  0.00    -0.082 A 
ATOM      4  C2  PXY d   1      -0.509   0.987   0.547  0.00  0.00     0.003 A 
ATOM      5  C3  PXY d   1      -0.884   1.639  -0.599  0.00  0.00     0.003 A 
ATOM      6  C4  PXY d   1      -0.743   1.033  -1.819  0.00  0.00    -0.082 A 
ATOM      7  C5  PXY d   1      -0.270  -0.230  -1.883  0.00  0.00     0.003 A 
ATOM      8  C6  PXY d   1       0.067  -0.889  -0.705  0.00  0.00     0.003 A 
ENDROOT
TORSDOF 0
ENDMDL
