MODEL 1
REMARK minimizedAffinity -3.50970078
REMARK minimizedRMSD -1
REMARK  0 active torsions:
REMARK  status: ('A' for Active; 'I' for Inactive)
ROOT
ATOM      1  C4' PXY d   1      -0.880   1.175  -2.147  0.00  0.00     0.077 C 
ATOM      2  C1' PXY d   1       0.498  -1.211   2.935  0.00  0.00     0.077 C 
ATOM      3  C1  PXY d   1       0.149  -0.585   1.598  0.00  0.00    -0.082 A 
ATOM      4  C2  PXY d   1      -0.942   0.155   1.487  0.00  0.00     0.003 A 
ATOM      5  C3  PXY d   1      -1.289   0.702   0.279  0.00  0.00     0.003 A 
ATOM      6  C4  PXY d   1      -0.484   0.532  -0.815  0.00  0.00    -0.082 A 
ATOM      7  C5  PXY d   1       0.637  -0.213  -0.708  0.00  0.00     0.003 A 
ATOM      8  C6  PXY d   1       0.950  -0.794   0.518  0.00  0.00     0.003 A 
ENDROOT
TORSDOF 0
ENDMDL
