MODEL 1
REMARK minimizedAffinity -4.78797865
REMARK minimizedRMSD -1
REMARK  0 active torsions:
REMARK  status: ('A' for Active; 'I' for Inactive)
ROOT
ATOM      1  C4' PXY d   1      -1.142   0.585  -2.164  0.00  0.00     0.077 C 
ATOM      2  C1' PXY d   1       1.277  -0.788   2.903  0.00  0.00     0.077 C 
ATOM      3  C1  PXY d   1       0.655  -0.426   1.569  0.00  0.00    -0.082 A 
ATOM      4  C2  PXY d   1      -0.603  -0.017   1.524  0.00  0.00     0.003 A 
ATOM      5  C3  PXY d   1      -1.191   0.284   0.323  0.00  0.00     0.003 A 
ATOM      6  C4  PXY d   1      -0.469   0.218  -0.839  0.00  0.00    -0.082 A 
ATOM      7  C5  PXY d   1       0.818  -0.188  -0.800  0.00  0.00     0.003 A 
ATOM      8  C6  PXY d   1       1.384  -0.529   0.425  0.00  0.00     0.003 A 
ENDROOT
TORSDOF 0
ENDMDL
