MODEL 1
REMARK minimizedAffinity -5.40276051
REMARK minimizedRMSD -1
REMARK  0 active torsions:
REMARK  status: ('A' for Active; 'I' for Inactive)
ROOT
ATOM      1  C4' PXY d   1      -0.766   0.896  -2.080  0.00  0.00     0.077 C 
ATOM      2  C1' PXY d   1       0.934  -1.121   3.064  0.00  0.00     0.077 C 
ATOM      3  C1  PXY d   1       0.476  -0.595   1.718  0.00  0.00    -0.082 A 
ATOM      4  C2  PXY d   1       1.327  -0.560   0.705  0.00  0.00     0.003 A 
ATOM      5  C3  PXY d   1       0.938  -0.057  -0.510  0.00  0.00     0.003 A 
ATOM      6  C4  PXY d   1      -0.350   0.364  -0.706  0.00  0.00    -0.082 A 
ATOM      7  C5  PXY d   1      -1.227   0.322   0.320  0.00  0.00     0.003 A 
ATOM      8  C6  PXY d   1      -0.801  -0.154   1.557  0.00  0.00     0.003 A 
ENDROOT
TORSDOF 0
ENDMDL
