MODEL 1
REMARK minimizedAffinity -3.71893311
REMARK minimizedRMSD -1
REMARK  0 active torsions:
REMARK  status: ('A' for Active; 'I' for Inactive)
ROOT
ATOM      1  C4' PXY d   1      -0.776   0.992  -2.328  0.00  0.00     0.077 C 
ATOM      2  C1' PXY d   1       0.624  -1.149   2.855  0.00  0.00     0.077 C 
ATOM      3  C1  PXY d   1       0.246  -0.594   1.496  0.00  0.00    -0.082 A 
ATOM      4  C2  PXY d   1       1.195  -0.195   0.665  0.00  0.00     0.003 A 
ATOM      5  C3  PXY d   1       0.869   0.339  -0.555  0.00  0.00     0.003 A 
ATOM      6  C4  PXY d   1      -0.440   0.416  -0.950  0.00  0.00    -0.082 A 
ATOM      7  C5  PXY d   1      -1.413   0.001  -0.112  0.00  0.00     0.003 A 
ATOM      8  C6  PXY d   1      -1.063  -0.500   1.139  0.00  0.00     0.003 A 
ENDROOT
TORSDOF 0
ENDMDL
