MODEL 1
REMARK minimizedAffinity -4.85206699
REMARK minimizedRMSD -1
REMARK  0 active torsions:
REMARK  status: ('A' for Active; 'I' for Inactive)
ROOT
ATOM      1  C4' PXY d   1       1.689  -2.082   2.614  0.00  0.00     0.077 C 
ATOM      2  C1' PXY d   1      -1.069   0.813  -1.561  0.00  0.00     0.077 C 
ATOM      3  C1  PXY d   1      -0.339   0.047  -0.475  0.00  0.00    -0.082 A 
ATOM      4  C2  PXY d   1      -0.897  -0.089   0.717  0.00  0.00     0.003 A 
ATOM      5  C3  PXY d   1      -0.236  -0.750   1.720  0.00  0.00     0.003 A 
ATOM      6  C4  PXY d   1       0.984  -1.325   1.485  0.00  0.00    -0.082 A 
ATOM      7  C5  PXY d   1       1.554  -1.200   0.268  0.00  0.00     0.003 A 
ATOM      8  C6  PXY d   1       0.886  -0.489  -0.725  0.00  0.00     0.003 A 
ENDROOT
TORSDOF 0
ENDMDL
