MODEL 1
REMARK minimizedAffinity -3.58192921
REMARK minimizedRMSD -1
REMARK  0 active torsions:
REMARK  status: ('A' for Active; 'I' for Inactive)
ROOT
ATOM      1  C4' PXY d   1      -0.450   0.791  -1.746  0.00  0.00     0.077 C 
ATOM      2  C1' PXY d   1       0.653  -1.677   3.363  0.00  0.00     0.077 C 
ATOM      3  C1  PXY d   1       0.376  -1.028   2.021  0.00  0.00    -0.082 A 
ATOM      4  C2  PXY d   1      -0.796  -0.457   1.800  0.00  0.00     0.003 A 
ATOM      5  C3  PXY d   1      -1.074   0.107   0.582  0.00  0.00     0.003 A 
ATOM      6  C4  PXY d   1      -0.123   0.132  -0.403  0.00  0.00    -0.082 A 
ATOM      7  C5  PXY d   1       1.079  -0.440  -0.182  0.00  0.00     0.003 A 
ATOM      8  C6  PXY d   1       1.327  -1.043   1.048  0.00  0.00     0.003 A 
ENDROOT
TORSDOF 0
ENDMDL
