MODEL 1
REMARK minimizedAffinity -5.19851637
REMARK minimizedRMSD -1
REMARK  0 active torsions:
REMARK  status: ('A' for Active; 'I' for Inactive)
ROOT
ATOM      1  C4' PXY d   1      -0.618  -0.056  -0.894  0.00  0.00     0.077 C 
ATOM      2  C1' PXY d   1       2.678  -2.201   3.343  0.00  0.00     0.077 C 
ATOM      3  C1  PXY d   1       1.825  -1.637   2.225  0.00  0.00    -0.082 A 
ATOM      4  C2  PXY d   1       0.628  -1.143   2.500  0.00  0.00     0.003 A 
ATOM      5  C3  PXY d   1      -0.170  -0.658   1.497  0.00  0.00     0.003 A 
ATOM      6  C4  PXY d   1       0.283  -0.628   0.205  0.00  0.00    -0.082 A 
ATOM      7  C5  PXY d   1       1.506  -1.120  -0.083  0.00  0.00     0.003 A 
ATOM      8  C6  PXY d   1       2.284  -1.646   0.944  0.00  0.00     0.003 A 
ENDROOT
TORSDOF 0
ENDMDL
