MODEL 1
REMARK minimizedAffinity -4.06108713
REMARK minimizedRMSD -1
REMARK  0 active torsions:
REMARK  status: ('A' for Active; 'I' for Inactive)
ROOT
ATOM      1  C4' PXY d   1       0.400  -1.667   2.592  0.00  0.00     0.077 C 
ATOM      2  C1' PXY d   1      -0.788   1.441  -2.135  0.00  0.00     0.077 C 
ATOM      3  C1  PXY d   1      -0.466   0.621  -0.902  0.00  0.00    -0.082 A 
ATOM      4  C2  PXY d   1      -1.426   0.335  -0.037  0.00  0.00     0.003 A 
ATOM      5  C3  PXY d   1      -1.146  -0.378   1.100  0.00  0.00     0.003 A 
ATOM      6  C4  PXY d   1       0.119  -0.849   1.328  0.00  0.00    -0.082 A 
ATOM      7  C5  PXY d   1       1.102  -0.571   0.445  0.00  0.00     0.003 A 
ATOM      8  C6  PXY d   1       0.805   0.190  -0.682  0.00  0.00     0.003 A 
ENDROOT
TORSDOF 0
ENDMDL
