MODEL 1
REMARK minimizedAffinity -3.50769544
REMARK minimizedRMSD -1
REMARK  0 active torsions:
REMARK  status: ('A' for Active; 'I' for Inactive)
ROOT
ATOM      1  C4' PXY d   1      -1.131   0.218  -1.625  0.00  0.00     0.077 C 
ATOM      2  C1' PXY d   1       1.551  -0.628   3.425  0.00  0.00     0.077 C 
ATOM      3  C1  PXY d   1       0.837  -0.413   2.105  0.00  0.00    -0.082 A 
ATOM      4  C2  PXY d   1       1.543  -0.180   1.010  0.00  0.00     0.003 A 
ATOM      5  C3  PXY d   1       0.912   0.048  -0.186  0.00  0.00     0.003 A 
ATOM      6  C4  PXY d   1      -0.453  -0.014  -0.273  0.00  0.00    -0.082 A 
ATOM      7  C5  PXY d   1      -1.179  -0.261   0.838  0.00  0.00     0.003 A 
ATOM      8  C6  PXY d   1      -0.522  -0.450   2.050  0.00  0.00     0.003 A 
ENDROOT
TORSDOF 0
ENDMDL
