MODEL 1
REMARK minimizedAffinity -1.23329651
REMARK minimizedRMSD -1
REMARK  0 active torsions:
REMARK  status: ('A' for Active; 'I' for Inactive)
ROOT
ATOM      1  C4' PXY d   1      -1.065   0.632  -2.263  0.00  0.00     0.077 C 
ATOM      2  C1' PXY d   1       0.604  -1.121   2.986  0.00  0.00     0.077 C 
ATOM      3  C1  PXY d   1       0.179  -0.658   1.607  0.00  0.00    -0.082 A 
ATOM      4  C2  PXY d   1      -1.086  -0.338   1.386  0.00  0.00     0.003 A 
ATOM      5  C3  PXY d   1      -1.495   0.052   0.137  0.00  0.00     0.003 A 
ATOM      6  C4  PXY d   1      -0.589   0.168  -0.884  0.00  0.00    -0.082 A 
ATOM      7  C5  PXY d   1       0.706  -0.146  -0.663  0.00  0.00     0.003 A 
ATOM      8  C6  PXY d   1       1.092  -0.580   0.602  0.00  0.00     0.003 A 
ENDROOT
TORSDOF 0
ENDMDL
