MODEL 1
REMARK minimizedAffinity 9.53397846
REMARK minimizedRMSD -1
REMARK  3 active torsions:
REMARK  status: ('A' for Active; 'I' for Inactive)
REMARK    1  A    between atoms: C3'_2  and  C2'_3 
REMARK    2  A    between atoms: C2'_3  and  C1'_4 
REMARK    3  A    between atoms: C1'_4  and  C1_5 
ROOT
ATOM      1  C1  N4B d   1       4.647  -3.111   0.763  0.00  0.00    -0.075 A 
ATOM      2  C2  N4B d   1       4.563  -3.882   1.943  0.00  0.00     0.002 A 
ATOM      3  C3  N4B d   1       3.335  -4.179   2.483  0.00  0.00     0.002 A 
ATOM      4  C4  N4B d   1       2.184  -3.703   1.873  0.00  0.00    -0.004 A 
ATOM      5  C5  N4B d   1       2.273  -2.980   0.719  0.00  0.00     0.002 A 
ATOM      6  C6  N4B d   1       3.500  -2.677   0.164  0.00  0.00     0.002 A 
ENDROOT
BRANCH   1   7
ATOM      7  C1' N4B d   1       5.969  -2.688   0.184  0.00  0.00     0.057 C 
BRANCH   7   8
ATOM      8  C2' N4B d   1       5.943  -1.185  -0.079  0.00  0.00     0.009 C 
BRANCH   8   9
ATOM      9  C3' N4B d   1       5.976  -0.383   1.211  0.00  0.00     0.004 C 
ATOM     10  C4' N4B d   1       5.994   1.098   0.973  0.00  0.00     0.003 C 
ENDBRANCH   8   9
ENDBRANCH   7   8
ENDBRANCH   1   7
TORSDOF 3
ENDMDL
