MODEL 1
REMARK minimizedAffinity 1.32114851
REMARK minimizedRMSD -1
REMARK  0 active torsions:
REMARK  status: ('A' for Active; 'I' for Inactive)
ROOT
ATOM      1  C   UNL d   1       4.270  -2.487   5.957  0.00  0.00     0.172 C 
ATOM      2  N   UNL d   1       4.164  -3.793   5.350  0.00  0.00    -0.070 N 
ATOM      3  C1  UNL d   1       3.820  -4.043   4.048  0.00  0.00    -0.004 A 
ATOM      4  C2  UNL d   1       3.833  -5.409   3.864  0.00  0.00    -0.047 A 
ATOM      5  C3  UNL d   1       4.196  -6.000   5.097  0.00  0.00    -0.047 A 
ATOM      6  C4  UNL d   1       4.395  -4.977   6.000  0.00  0.00    -0.004 A 
ENDROOT
TORSDOF 0
ENDMDL
