MODEL 1
REMARK minimizedAffinity 4.92469263
REMARK minimizedRMSD -1
REMARK  0 active torsions:
REMARK  status: ('A' for Active; 'I' for Inactive)
ROOT
ATOM      1  C   UNL d   1       2.457  -3.699   1.918  0.00  0.00     0.172 C 
ATOM      2  N   UNL d   1       3.646  -4.122   1.218  0.00  0.00    -0.070 N 
ATOM      3  C1  UNL d   1       4.926  -4.043   1.698  0.00  0.00    -0.004 A 
ATOM      4  C2  UNL d   1       5.771  -4.546   0.733  0.00  0.00    -0.047 A 
ATOM      5  C3  UNL d   1       4.971  -4.941  -0.366  0.00  0.00    -0.047 A 
ATOM      6  C4  UNL d   1       3.660  -4.667  -0.039  0.00  0.00    -0.004 A 
ENDROOT
TORSDOF 0
ENDMDL
