MODEL 1
REMARK minimizedAffinity 0.888327301
REMARK minimizedRMSD -1
REMARK  0 active torsions:
REMARK  status: ('A' for Active; 'I' for Inactive)
ROOT
ATOM      1  C   UNL d   1       3.008  -4.355   0.951  0.00  0.00     0.172 C 
ATOM      2  N   UNL d   1       4.068  -5.003   0.216  0.00  0.00    -0.070 N 
ATOM      3  C1  UNL d   1       4.058  -5.278  -1.125  0.00  0.00    -0.004 A 
ATOM      4  C2  UNL d   1       5.248  -5.898  -1.438  0.00  0.00    -0.047 A 
ATOM      5  C3  UNL d   1       6.000  -6.000  -0.244  0.00  0.00    -0.047 A 
ATOM      6  C4  UNL d   1       5.246  -5.439   0.765  0.00  0.00    -0.004 A 
ENDROOT
TORSDOF 0
ENDMDL
