MODEL 1
REMARK minimizedAffinity -0.260964453
REMARK minimizedRMSD -1
REMARK  0 active torsions:
REMARK  status: ('A' for Active; 'I' for Inactive)
ROOT
ATOM      1  C   UNL d   1       4.570  -2.409   5.723  0.00  0.00     0.172 C 
ATOM      2  N   UNL d   1       4.370  -3.780   5.314  0.00  0.00    -0.070 N 
ATOM      3  C1  UNL d   1       4.796  -4.887   5.998  0.00  0.00    -0.004 A 
ATOM      4  C2  UNL d   1       4.411  -5.999   5.281  0.00  0.00    -0.047 A 
ATOM      5  C3  UNL d   1       3.731  -5.545   4.127  0.00  0.00    -0.047 A 
ATOM      6  C4  UNL d   1       3.720  -4.166   4.172  0.00  0.00    -0.004 A 
ENDROOT
TORSDOF 0
ENDMDL
