MODEL 1
REMARK minimizedAffinity -0.712346435
REMARK minimizedRMSD -1
REMARK  0 active torsions:
REMARK  status: ('A' for Active; 'I' for Inactive)
ROOT
ATOM      1  C   UNL d   1       1.883  -3.494   1.543  0.00  0.00     0.172 C 
ATOM      2  N   UNL d   1       2.659  -4.291   2.464  0.00  0.00    -0.070 N 
ATOM      3  C1  UNL d   1       3.090  -3.890   3.700  0.00  0.00    -0.004 A 
ATOM      4  C2  UNL d   1       3.793  -4.934   4.261  0.00  0.00    -0.047 A 
ATOM      5  C3  UNL d   1       3.785  -5.999   3.330  0.00  0.00    -0.047 A 
ATOM      6  C4  UNL d   1       3.076  -5.574   2.226  0.00  0.00    -0.004 A 
ENDROOT
TORSDOF 0
ENDMDL
