MODEL 1
REMARK minimizedAffinity 5.8088541
REMARK minimizedRMSD -1
REMARK  0 active torsions:
REMARK  status: ('A' for Active; 'I' for Inactive)
ROOT
ATOM      1  C   UNL d   1      -0.184  -1.895   2.529  0.00  0.00     0.172 C 
ATOM      2  N   UNL d   1       1.012  -2.669   2.295  0.00  0.00    -0.070 N 
ATOM      3  C1  UNL d   1       1.085  -3.823   1.562  0.00  0.00    -0.004 A 
ATOM      4  C2  UNL d   1       2.395  -4.252   1.578  0.00  0.00    -0.047 A 
ATOM      5  C3  UNL d   1       3.134  -3.324   2.349  0.00  0.00    -0.047 A 
ATOM      6  C4  UNL d   1       2.254  -2.354   2.781  0.00  0.00    -0.004 A 
ENDROOT
TORSDOF 0
ENDMDL
