MODEL 1
REMARK minimizedAffinity -2.03701973
REMARK minimizedRMSD -1
REMARK  0 active torsions:
REMARK  status: ('A' for Active; 'I' for Inactive)
ROOT
ATOM      1  C   UNL d   1       3.086  -4.126   2.762  0.00  0.00     0.172 C 
ATOM      2  N   UNL d   1       3.755  -4.664   3.923  0.00  0.00    -0.070 N 
ATOM      3  C1  UNL d   1       3.749  -4.110   5.176  0.00  0.00    -0.004 A 
ATOM      4  C2  UNL d   1       4.499  -4.921   5.999  0.00  0.00    -0.047 A 
ATOM      5  C3  UNL d   1       4.973  -5.999   5.215  0.00  0.00    -0.047 A 
ATOM      6  C4  UNL d   1       4.498  -5.815   3.934  0.00  0.00    -0.004 A 
ENDROOT
TORSDOF 0
ENDMDL
