MODEL 1
REMARK minimizedAffinity 14.5113964
REMARK minimizedRMSD -1
REMARK  2 active torsions:
REMARK  status: ('A' for Active; 'I' for Inactive)
REMARK    1  A    between atoms: C2'_3  and  C1'_4 
REMARK    2  A    between atoms: C1'_4  and  C1_5 
ROOT
ATOM      1  C1  I4B d   1       2.337  -0.770  -1.092  0.00  0.00    -0.075 A 
ATOM      2  C2  I4B d   1       1.194  -1.285  -1.651  0.00  0.00     0.003 A 
ATOM      3  C3  I4B d   1       1.016  -2.686  -1.747  0.00  0.00     0.002 A 
ATOM      4  C4  I4B d   1       2.022  -3.530  -1.321  0.00  0.00    -0.004 A 
ATOM      5  C5  I4B d   1       3.170  -3.007  -0.734  0.00  0.00     0.002 A 
ATOM      6  C6  I4B d   1       3.324  -1.618  -0.607  0.00  0.00     0.003 A 
ENDROOT
BRANCH   1   7
ATOM      7  C1' I4B d   1       2.506   0.715  -1.036  0.00  0.00     0.060 C 
BRANCH   7   8
ATOM      8  C2' I4B d   1       3.706   1.016  -0.161  0.00  0.00    -0.013 C 
ATOM      9  C4' I4B d   1       4.684   1.917  -0.868  0.00  0.00     0.013 C 
ATOM     10  C3' I4B d   1       3.209   1.644   1.106  0.00  0.00     0.013 C 
ENDBRANCH   7   8
ENDBRANCH   1   7
TORSDOF 2
ENDMDL
