MODEL 1
REMARK minimizedAffinity 11.624423
REMARK minimizedRMSD -1
REMARK  2 active torsions:
REMARK  status: ('A' for Active; 'I' for Inactive)
REMARK    1  A    between atoms: C2'_3  and  C1'_4 
REMARK    2  A    between atoms: C1'_4  and  C1_5 
ROOT
ATOM      1  C1  I4B d   1       2.661   1.951   3.442  0.00  0.00    -0.075 A 
ATOM      2  C2  I4B d   1       2.738   1.031   4.458  0.00  0.00     0.003 A 
ATOM      3  C3  I4B d   1       3.107   1.439   5.762  0.00  0.00     0.002 A 
ATOM      4  C4  I4B d   1       3.437   2.759   5.994  0.00  0.00    -0.004 A 
ATOM      5  C5  I4B d   1       3.336   3.694   4.968  0.00  0.00     0.002 A 
ATOM      6  C6  I4B d   1       2.934   3.291   3.687  0.00  0.00     0.003 A 
ENDROOT
BRANCH   1   7
ATOM      7  C1' I4B d   1       2.300   1.480   2.069  0.00  0.00     0.060 C 
BRANCH   7   8
ATOM      8  C2' I4B d   1       3.580   1.355   1.267  0.00  0.00    -0.013 C 
ATOM      9  C4' I4B d   1       3.332   0.671  -0.052  0.00  0.00     0.013 C 
ATOM     10  C3' I4B d   1       4.137   2.733   1.066  0.00  0.00     0.013 C 
ENDBRANCH   7   8
ENDBRANCH   1   7
TORSDOF 2
ENDMDL
