MODEL 1
REMARK minimizedAffinity 3.75908542
REMARK minimizedRMSD -1
REMARK  2 active torsions:
REMARK  status: ('A' for Active; 'I' for Inactive)
REMARK    1  A    between atoms: C2'_3  and  C1'_4 
REMARK    2  A    between atoms: C1'_4  and  C1_5 
ROOT
ATOM      1  C1  I4B d   1       2.319   1.862   2.495  0.00  0.00    -0.075 A 
ATOM      2  C2  I4B d   1       1.658   0.689   2.760  0.00  0.00     0.003 A 
ATOM      3  C3  I4B d   1       1.433   0.284   4.099  0.00  0.00     0.002 A 
ATOM      4  C4  I4B d   1       1.927   1.052   5.133  0.00  0.00    -0.004 A 
ATOM      5  C5  I4B d   1       2.577   2.254   4.862  0.00  0.00     0.002 A 
ATOM      6  C6  I4B d   1       2.763   2.668   3.535  0.00  0.00     0.003 A 
ENDROOT
BRANCH   1   7
ATOM      7  C1' I4B d   1       2.567   2.243   1.070  0.00  0.00     0.060 C 
BRANCH   7   8
ATOM      8  C2' I4B d   1       3.278   1.087   0.395  0.00  0.00    -0.013 C 
ATOM      9  C4' I4B d   1       2.457   0.529  -0.737  0.00  0.00     0.013 C 
ATOM     10  C3' I4B d   1       4.607   1.582  -0.092  0.00  0.00     0.013 C 
ENDBRANCH   7   8
ENDBRANCH   1   7
TORSDOF 2
ENDMDL
