MODEL 1
REMARK minimizedAffinity 16.9207745
REMARK minimizedRMSD -1
REMARK  2 active torsions:
REMARK  status: ('A' for Active; 'I' for Inactive)
REMARK    1  A    between atoms: C2'_3  and  C1'_4 
REMARK    2  A    between atoms: C1'_4  and  C1_5 
ROOT
ATOM      1  C1  I4B d   1       2.747   0.914  -0.260  0.00  0.00    -0.075 A 
ATOM      2  C2  I4B d   1       2.423  -0.420  -0.277  0.00  0.00     0.003 A 
ATOM      3  C3  I4B d   1       1.711  -0.967  -1.371  0.00  0.00     0.002 A 
ATOM      4  C4  I4B d   1       1.301  -0.140  -2.397  0.00  0.00    -0.004 A 
ATOM      5  C5  I4B d   1       1.649   1.208  -2.389  0.00  0.00     0.002 A 
ATOM      6  C6  I4B d   1       2.387   1.736  -1.320  0.00  0.00     0.003 A 
ENDROOT
BRANCH   1   7
ATOM      7  C1' I4B d   1       3.471   1.465   0.928  0.00  0.00     0.060 C 
BRANCH   7   8
ATOM      8  C2' I4B d   1       2.476   2.251   1.757  0.00  0.00    -0.013 C 
ATOM      9  C4' I4B d   1       2.166   1.544   3.050  0.00  0.00     0.013 C 
ATOM     10  C3' I4B d   1       3.056   3.611   2.009  0.00  0.00     0.013 C 
ENDBRANCH   7   8
ENDBRANCH   1   7
TORSDOF 2
ENDMDL
