MODEL 1
REMARK minimizedAffinity 8.94277763
REMARK minimizedRMSD -1
REMARK  2 active torsions:
REMARK  status: ('A' for Active; 'I' for Inactive)
REMARK    1  A    between atoms: C2'_3  and  C1'_4 
REMARK    2  A    between atoms: C1'_4  and  C1_5 
ROOT
ATOM      1  C1  I4B d   1       1.304   1.672   1.663  0.00  0.00    -0.075 A 
ATOM      2  C2  I4B d   1       0.778   2.928   1.838  0.00  0.00     0.003 A 
ATOM      3  C3  I4B d   1      -0.579   3.087   2.209  0.00  0.00     0.002 A 
ATOM      4  C4  I4B d   1      -1.382   1.973   2.346  0.00  0.00    -0.004 A 
ATOM      5  C5  I4B d   1      -0.841   0.700   2.192  0.00  0.00     0.002 A 
ATOM      6  C6  I4B d   1       0.513   0.547   1.860  0.00  0.00     0.003 A 
ENDROOT
BRANCH   1   7
ATOM      7  C1' I4B d   1       2.732   1.542   1.238  0.00  0.00     0.060 C 
BRANCH   7   8
ATOM      8  C2' I4B d   1       2.750   1.034  -0.189  0.00  0.00    -0.013 C 
ATOM      9  C4' I4B d   1       3.825   1.712  -0.996  0.00  0.00     0.013 C 
ATOM     10  C3' I4B d   1       2.958  -0.451  -0.149  0.00  0.00     0.013 C 
ENDBRANCH   7   8
ENDBRANCH   1   7
TORSDOF 2
ENDMDL
