MODEL 1
REMARK minimizedAffinity 19.4719505
REMARK minimizedRMSD -1
REMARK  2 active torsions:
REMARK  status: ('A' for Active; 'I' for Inactive)
REMARK    1  A    between atoms: C2'_3  and  C1'_4 
REMARK    2  A    between atoms: C1'_4  and  C1_5 
ROOT
ATOM      1  C1  I4B d   1       2.504   0.177  -0.120  0.00  0.00    -0.075 A 
ATOM      2  C2  I4B d   1       1.749   0.600   0.946  0.00  0.00     0.003 A 
ATOM      3  C3  I4B d   1       1.916   1.907   1.463  0.00  0.00     0.002 A 
ATOM      4  C4  I4B d   1       2.878   2.736   0.920  0.00  0.00    -0.004 A 
ATOM      5  C5  I4B d   1       3.625   2.313  -0.175  0.00  0.00     0.002 A 
ATOM      6  C6  I4B d   1       3.429   1.030  -0.707  0.00  0.00     0.003 A 
ENDROOT
BRANCH   1   7
ATOM      7  C1' I4B d   1       2.325  -1.221  -0.620  0.00  0.00     0.060 C 
BRANCH   7   8
ATOM      8  C2' I4B d   1       1.307  -1.189  -1.742  0.00  0.00    -0.013 C 
ATOM      9  C4' I4B d   1       1.834  -1.871  -2.976  0.00  0.00     0.013 C 
ATOM     10  C3' I4B d   1       0.055  -1.853  -1.250  0.00  0.00     0.013 C 
ENDBRANCH   7   8
ENDBRANCH   1   7
TORSDOF 2
ENDMDL
