MODEL 1
REMARK minimizedAffinity 13.7950382
REMARK minimizedRMSD -1
REMARK  2 active torsions:
REMARK  status: ('A' for Active; 'I' for Inactive)
REMARK    1  A    between atoms: C2'_3  and  C1'_4 
REMARK    2  A    between atoms: C1'_4  and  C1_5 
ROOT
ATOM      1  C1  I4B d   1       1.475   0.060  -2.454  0.00  0.00    -0.075 A 
ATOM      2  C2  I4B d   1       0.775   0.916  -3.268  0.00  0.00     0.003 A 
ATOM      3  C3  I4B d   1       0.859   2.315  -3.072  0.00  0.00     0.002 A 
ATOM      4  C4  I4B d   1       1.609   2.811  -2.025  0.00  0.00    -0.004 A 
ATOM      5  C5  I4B d   1       2.336   1.944  -1.214  0.00  0.00     0.002 A 
ATOM      6  C6  I4B d   1       2.279   0.560  -1.437  0.00  0.00     0.003 A 
ENDROOT
BRANCH   1   7
ATOM      7  C1' I4B d   1       1.337  -1.413  -2.668  0.00  0.00     0.060 C 
BRANCH   7   8
ATOM      8  C2' I4B d   1       0.318  -1.937  -1.676  0.00  0.00    -0.013 C 
ATOM      9  C4' I4B d   1      -0.549  -3.001  -2.295  0.00  0.00     0.013 C 
ATOM     10  C3' I4B d   1       1.061  -2.467  -0.486  0.00  0.00     0.013 C 
ENDBRANCH   7   8
ENDBRANCH   1   7
TORSDOF 2
ENDMDL
