MODEL 1
REMARK minimizedAffinity 12.3590069
REMARK minimizedRMSD -1
REMARK  2 active torsions:
REMARK  status: ('A' for Active; 'I' for Inactive)
REMARK    1  A    between atoms: C2'_3  and  C1'_4 
REMARK    2  A    between atoms: C1'_4  and  C1_5 
ROOT
ATOM      1  C1  I4B d   1       0.222  -2.604  -2.012  0.00  0.00    -0.075 A 
ATOM      2  C2  I4B d   1       0.827  -1.513  -2.586  0.00  0.00     0.003 A 
ATOM      3  C3  I4B d   1       1.745  -0.733  -1.842  0.00  0.00     0.002 A 
ATOM      4  C4  I4B d   1       1.989  -1.048  -0.521  0.00  0.00    -0.004 A 
ATOM      5  C5  I4B d   1       1.393  -2.167   0.052  0.00  0.00     0.002 A 
ATOM      6  C6  I4B d   1       0.513  -2.958  -0.702  0.00  0.00     0.003 A 
ENDROOT
BRANCH   1   7
ATOM      7  C1' I4B d   1      -0.767  -3.386  -2.817  0.00  0.00     0.060 C 
BRANCH   7   8
ATOM      8  C2' I4B d   1      -1.313  -4.492  -1.938  0.00  0.00    -0.013 C 
ATOM      9  C4' I4B d   1      -2.779  -4.294  -1.659  0.00  0.00     0.013 C 
ATOM     10  C3' I4B d   1      -1.065  -5.799  -2.632  0.00  0.00     0.013 C 
ENDBRANCH   7   8
ENDBRANCH   1   7
TORSDOF 2
ENDMDL
