MODEL 1
REMARK minimizedAffinity 11.6659403
REMARK minimizedRMSD -1
REMARK  2 active torsions:
REMARK  status: ('A' for Active; 'I' for Inactive)
REMARK    1  A    between atoms: C2'_3  and  C1'_4 
REMARK    2  A    between atoms: C1'_4  and  C1_5 
ROOT
ATOM      1  C1  I4B d   1       1.037  -0.543  -2.648  0.00  0.00    -0.075 A 
ATOM      2  C2  I4B d   1       0.789   0.726  -3.108  0.00  0.00     0.003 A 
ATOM      3  C3  I4B d   1       1.582   1.812  -2.666  0.00  0.00     0.002 A 
ATOM      4  C4  I4B d   1       2.574   1.594  -1.732  0.00  0.00    -0.004 A 
ATOM      5  C5  I4B d   1       2.839   0.303  -1.284  0.00  0.00     0.002 A 
ATOM      6  C6  I4B d   1       2.074  -0.775  -1.754  0.00  0.00     0.003 A 
ENDROOT
BRANCH   1   7
ATOM      7  C1' I4B d   1       0.159  -1.662  -3.111  0.00  0.00     0.060 C 
BRANCH   7   8
ATOM      8  C2' I4B d   1      -0.967  -1.817  -2.108  0.00  0.00    -0.013 C 
ATOM      9  C4' I4B d   1      -2.197  -1.068  -2.550  0.00  0.00     0.013 C 
ATOM     10  C3' I4B d   1      -1.250  -3.281  -1.952  0.00  0.00     0.013 C 
ENDBRANCH   7   8
ENDBRANCH   1   7
TORSDOF 2
ENDMDL
