MODEL 1
REMARK minimizedAffinity 4.12990332
REMARK minimizedRMSD -1
REMARK  2 active torsions:
REMARK  status: ('A' for Active; 'I' for Inactive)
REMARK    1  A    between atoms: C2'_3  and  C1'_4 
REMARK    2  A    between atoms: C1'_4  and  C1_5 
ROOT
ATOM      1  C1  I4B d   1       1.491  -1.199  -2.627  0.00  0.00    -0.075 A 
ATOM      2  C2  I4B d   1       1.308   0.072  -3.112  0.00  0.00     0.003 A 
ATOM      3  C3  I4B d   1       2.061   1.150  -2.587  0.00  0.00     0.002 A 
ATOM      4  C4  I4B d   1       2.942   0.922  -1.550  0.00  0.00    -0.004 A 
ATOM      5  C5  I4B d   1       3.142  -0.371  -1.075  0.00  0.00     0.002 A 
ATOM      6  C6  I4B d   1       2.421  -1.440  -1.625  0.00  0.00     0.003 A 
ENDROOT
BRANCH   1   7
ATOM      7  C1' I4B d   1       0.655  -2.309  -3.181  0.00  0.00     0.060 C 
BRANCH   7   8
ATOM      8  C2' I4B d   1      -0.429  -2.627  -2.172  0.00  0.00    -0.013 C 
ATOM      9  C4' I4B d   1      -1.709  -1.906  -2.501  0.00  0.00     0.013 C 
ATOM     10  C3' I4B d   1      -0.632  -4.113  -2.162  0.00  0.00     0.013 C 
ENDBRANCH   7   8
ENDBRANCH   1   7
TORSDOF 2
ENDMDL
