MODEL 1
REMARK minimizedAffinity 11.7666712
REMARK minimizedRMSD -1
REMARK  2 active torsions:
REMARK  status: ('A' for Active; 'I' for Inactive)
REMARK    1  A    between atoms: C2'_3  and  C1'_4 
REMARK    2  A    between atoms: C1'_4  and  C1_5 
ROOT
ATOM      1  C1  I4B d   1       2.612   2.379   1.858  0.00  0.00    -0.075 A 
ATOM      2  C2  I4B d   1       1.492   1.597   1.987  0.00  0.00     0.003 A 
ATOM      3  C3  I4B d   1       1.410   0.353   1.316  0.00  0.00     0.002 A 
ATOM      4  C4  I4B d   1       2.443  -0.044   0.492  0.00  0.00    -0.004 A 
ATOM      5  C5  I4B d   1       3.588   0.740   0.380  0.00  0.00     0.002 A 
ATOM      6  C6  I4B d   1       3.679   1.953   1.077  0.00  0.00     0.003 A 
ENDROOT
BRANCH   1   7
ATOM      7  C1' I4B d   1       2.652   3.702   2.555  0.00  0.00     0.060 C 
BRANCH   7   8
ATOM      8  C2' I4B d   1       2.816   4.780   1.502  0.00  0.00    -0.013 C 
ATOM      9  C4' I4B d   1       1.505   5.084   0.825  0.00  0.00     0.013 C 
ATOM     10  C3' I4B d   1       3.376   5.999   2.171  0.00  0.00     0.013 C 
ENDBRANCH   7   8
ENDBRANCH   1   7
TORSDOF 2
ENDMDL
