MODEL 1
REMARK minimizedAffinity 8.19745159
REMARK minimizedRMSD -1
REMARK  2 active torsions:
REMARK  status: ('A' for Active; 'I' for Inactive)
REMARK    1  A    between atoms: C2'_3  and  C1'_4 
REMARK    2  A    between atoms: C1'_4  and  C1_5 
ROOT
ATOM      1  C1  I4B d   1       0.971  -1.310  -2.151  0.00  0.00    -0.075 A 
ATOM      2  C2  I4B d   1      -0.025  -2.111  -2.652  0.00  0.00     0.003 A 
ATOM      3  C3  I4B d   1      -0.407  -3.287  -1.964  0.00  0.00     0.002 A 
ATOM      4  C4  I4B d   1       0.262  -3.649  -0.813  0.00  0.00    -0.004 A 
ATOM      5  C5  I4B d   1       1.256  -2.824  -0.294  0.00  0.00     0.002 A 
ATOM      6  C6  I4B d   1       1.604  -1.640  -0.960  0.00  0.00     0.003 A 
ENDROOT
BRANCH   1   7
ATOM      7  C1' I4B d   1       1.372  -0.092  -2.921  0.00  0.00     0.060 C 
BRANCH   7   8
ATOM      8  C2' I4B d   1       1.343   1.090  -1.973  0.00  0.00    -0.013 C 
ATOM      9  C4' I4B d   1       2.600   1.156  -1.146  0.00  0.00     0.013 C 
ATOM     10  C3' I4B d   1       1.167   2.335  -2.790  0.00  0.00     0.013 C 
ENDBRANCH   7   8
ENDBRANCH   1   7
TORSDOF 2
ENDMDL
