MODEL 1
REMARK minimizedAffinity 20.7261257
REMARK minimizedRMSD -1
REMARK  2 active torsions:
REMARK  status: ('A' for Active; 'I' for Inactive)
REMARK    1  A    between atoms: C2'_3  and  C1'_4 
REMARK    2  A    between atoms: C1'_4  and  C1_5 
ROOT
ATOM      1  C1  I4B d   1       0.991   1.361  -3.417  0.00  0.00    -0.075 A 
ATOM      2  C2  I4B d   1       1.302   0.085  -3.018  0.00  0.00     0.003 A 
ATOM      3  C3  I4B d   1       2.183  -0.127  -1.930  0.00  0.00     0.002 A 
ATOM      4  C4  I4B d   1       2.766   0.958  -1.307  0.00  0.00    -0.004 A 
ATOM      5  C5  I4B d   1       2.431   2.251  -1.698  0.00  0.00     0.002 A 
ATOM      6  C6  I4B d   1       1.529   2.455  -2.751  0.00  0.00     0.003 A 
ENDROOT
BRANCH   1   7
ATOM      7  C1' I4B d   1       0.082   1.548  -4.591  0.00  0.00     0.060 C 
BRANCH   7   8
ATOM      8  C2' I4B d   1      -1.224   2.124  -4.083  0.00  0.00    -0.013 C 
ATOM      9  C4' I4B d   1      -2.059   2.663  -5.215  0.00  0.00     0.013 C 
ATOM     10  C3' I4B d   1      -1.950   1.042  -3.342  0.00  0.00     0.013 C 
ENDBRANCH   7   8
ENDBRANCH   1   7
TORSDOF 2
ENDMDL
