MODEL 1
REMARK minimizedAffinity -1.44844139
REMARK minimizedRMSD -1
REMARK  1 active torsions:
REMARK  status: ('A' for Active; 'I' for Inactive)
REMARK    1  A    between atoms: C1_2  and  C2_3 
ROOT
ATOM      1  C2  UNL d   1       2.953   5.962   3.555  0.00  0.00    -0.077 A 
ATOM      2  C3  UNL d   1       1.551   5.963   3.522  0.00  0.00     0.002 A 
ATOM      3  C4  UNL d   1       0.818   5.979   4.710  0.00  0.00     0.002 A 
ATOM      4  C5  UNL d   1       1.476   5.998   5.938  0.00  0.00    -0.004 A 
ATOM      5  C6  UNL d   1       2.870   5.995   5.980  0.00  0.00     0.002 A 
ATOM      6  C7  UNL d   1       3.605   5.978   4.794  0.00  0.00     0.002 A 
ENDROOT
BRANCH   1   7
ATOM      7  C1  UNL d   1       3.746   5.994   2.274  0.00  0.00     0.055 C 
ATOM      8  C   UNL d   1       4.865   4.963   2.290  0.00  0.00     0.019 C 
ENDBRANCH   1   7
TORSDOF 1
ENDMDL
