MODEL 1
REMARK minimizedAffinity -4.50142479
REMARK minimizedRMSD -1
REMARK  1 active torsions:
REMARK  status: ('A' for Active; 'I' for Inactive)
REMARK    1  A    between atoms: C1_2  and  C2_3 
ROOT
ATOM      1  C2  UNL d   1       0.054   0.237   0.163  0.00  0.00    -0.077 A 
ATOM      2  C3  UNL d   1       1.369   0.491   0.579  0.00  0.00     0.002 A 
ATOM      3  C4  UNL d   1       1.832  -0.008   1.798  0.00  0.00     0.002 A 
ATOM      4  C5  UNL d   1       0.989  -0.766   2.608  0.00  0.00    -0.004 A 
ATOM      5  C6  UNL d   1      -0.321  -1.022   2.204  0.00  0.00     0.002 A 
ATOM      6  C7  UNL d   1      -0.786  -0.523   0.986  0.00  0.00     0.002 A 
ENDROOT
BRANCH   1   7
ATOM      7  C1  UNL d   1      -0.432   0.733  -1.174  0.00  0.00     0.055 C 
ATOM      8  C   UNL d   1       0.334   1.971  -1.618  0.00  0.00     0.019 C 
ENDBRANCH   1   7
TORSDOF 1
ENDMDL
