MODEL 1
REMARK minimizedAffinity -4.06454229
REMARK minimizedRMSD -1
REMARK  1 active torsions:
REMARK  status: ('A' for Active; 'I' for Inactive)
REMARK    1  A    between atoms: C1_2  and  C2_3 
ROOT
ATOM      1  C2  UNL d   1      -0.293   0.231  -0.134  0.00  0.00    -0.077 A 
ATOM      2  C3  UNL d   1       1.069   0.273   0.196  0.00  0.00     0.002 A 
ATOM      3  C4  UNL d   1       1.513  -0.212   1.427  0.00  0.00     0.002 A 
ATOM      4  C5  UNL d   1       0.602  -0.745   2.337  0.00  0.00    -0.004 A 
ATOM      5  C6  UNL d   1      -0.755  -0.789   2.019  0.00  0.00     0.002 A 
ATOM      6  C7  UNL d   1      -1.200  -0.304   0.789  0.00  0.00     0.002 A 
ENDROOT
BRANCH   1   7
ATOM      7  C1  UNL d   1      -0.767   0.708  -1.482  0.00  0.00     0.055 C 
ATOM      8  C   UNL d   1       0.172   1.758  -2.060  0.00  0.00     0.019 C 
ENDBRANCH   1   7
TORSDOF 1
ENDMDL
