MODEL 1
REMARK minimizedAffinity -1.80386972
REMARK minimizedRMSD -1
REMARK  1 active torsions:
REMARK  status: ('A' for Active; 'I' for Inactive)
REMARK    1  A    between atoms: C1_2  and  C2_3 
ROOT
ATOM      1  C2  UNL d   1       1.056  -1.226   0.434  0.00  0.00    -0.077 A 
ATOM      2  C3  UNL d   1       0.789  -1.388   1.801  0.00  0.00     0.002 A 
ATOM      3  C4  UNL d   1      -0.351  -0.819   2.371  0.00  0.00     0.002 A 
ATOM      4  C5  UNL d   1      -1.236  -0.089   1.581  0.00  0.00    -0.004 A 
ATOM      5  C6  UNL d   1      -0.979   0.080   0.221  0.00  0.00     0.002 A 
ATOM      6  C7  UNL d   1       0.161  -0.487  -0.350  0.00  0.00     0.002 A 
ENDROOT
BRANCH   1   7
ATOM      7  C1  UNL d   1       2.260  -1.880  -0.192  0.00  0.00     0.055 C 
ATOM      8  C   UNL d   1       2.805  -2.995   0.689  0.00  0.00     0.019 C 
ENDBRANCH   1   7
TORSDOF 1
ENDMDL
