MODEL 1
REMARK minimizedAffinity -3.3027904
REMARK minimizedRMSD -1
REMARK  1 active torsions:
REMARK  status: ('A' for Active; 'I' for Inactive)
REMARK    1  A    between atoms: C1_2  and  C2_3 
ROOT
ATOM      1  C2  UNL d   1      -0.152  -0.822   0.576  0.00  0.00    -0.077 A 
ATOM      2  C3  UNL d   1      -0.199  -1.456   1.826  0.00  0.00     0.002 A 
ATOM      3  C4  UNL d   1       0.981  -1.825   2.475  0.00  0.00     0.002 A 
ATOM      4  C5  UNL d   1       2.215  -1.561   1.884  0.00  0.00    -0.004 A 
ATOM      5  C6  UNL d   1       2.272  -0.933   0.641  0.00  0.00     0.002 A 
ATOM      6  C7  UNL d   1       1.094  -0.564  -0.010  0.00  0.00     0.002 A 
ENDROOT
BRANCH   1   7
ATOM      7  C1  UNL d   1      -1.421  -0.378  -0.103  0.00  0.00     0.055 C 
ATOM      8  C   UNL d   1      -2.599  -0.394   0.861  0.00  0.00     0.019 C 
ENDBRANCH   1   7
TORSDOF 1
ENDMDL
