MODEL 1
REMARK minimizedAffinity -5.33956194
REMARK minimizedRMSD -1
REMARK  1 active torsions:
REMARK  status: ('A' for Active; 'I' for Inactive)
REMARK    1  A    between atoms: C1_2  and  C2_3 
ROOT
ATOM      1  C2  UNL d   1       0.254  -0.633   0.156  0.00  0.00    -0.077 A 
ATOM      2  C3  UNL d   1      -0.458  -1.016   1.302  0.00  0.00     0.002 A 
ATOM      3  C4  UNL d   1       0.173  -1.048   2.547  0.00  0.00     0.002 A 
ATOM      4  C5  UNL d   1       1.516  -0.694   2.659  0.00  0.00    -0.004 A 
ATOM      5  C6  UNL d   1       2.233  -0.314   1.526  0.00  0.00     0.002 A 
ATOM      6  C7  UNL d   1       1.604  -0.282   0.280  0.00  0.00     0.002 A 
ENDROOT
BRANCH   1   7
ATOM      7  C1  UNL d   1      -0.437  -0.550  -1.180  0.00  0.00     0.055 C 
ATOM      8  C   UNL d   1      -0.425  -1.894  -1.893  0.00  0.00     0.019 C 
ENDBRANCH   1   7
TORSDOF 1
ENDMDL
