MODEL 1
REMARK minimizedAffinity -3.38209987
REMARK minimizedRMSD -1
REMARK  0 active torsions:
REMARK  status: ('A' for Active; 'I' for Inactive)
ROOT
ATOM      1  C   UNL d   1       0.150  -0.480  -2.125  0.00  0.00     0.077 C 
ATOM      2  C1  UNL d   1      -0.040  -0.432  -0.639  0.00  0.00    -0.074 A 
ATOM      3  C2  UNL d   1      -1.291  -0.145  -0.083  0.00  0.00    -0.005 A 
ATOM      4  C3  UNL d   1      -1.454  -0.114   1.302  0.00  0.00     0.006 A 
ATOM      5  C4  UNL d   1      -0.371  -0.369   2.144  0.00  0.00    -0.005 A 
ATOM      6  C5  UNL d   1       0.887  -0.658   1.606  0.00  0.00    -0.074 A 
ATOM      7  C6  UNL d   1       2.060  -0.944   2.496  0.00  0.00     0.077 C 
ATOM      8  C7  UNL d   1       1.042  -0.695   0.214  0.00  0.00    -0.001 A 
ENDROOT
TORSDOF 0
ENDMDL
