MODEL 1
REMARK minimizedAffinity -0.515433967
REMARK minimizedRMSD -1
REMARK  0 active torsions:
REMARK  status: ('A' for Active; 'I' for Inactive)
ROOT
ATOM      1  C   UNL d   1       1.496  -0.437   2.482  0.00  0.00     0.077 C 
ATOM      2  C1  UNL d   1       0.558  -0.236   1.329  0.00  0.00    -0.074 A 
ATOM      3  C2  UNL d   1      -0.801   0.012   1.543  0.00  0.00    -0.005 A 
ATOM      4  C3  UNL d   1      -1.660   0.207   0.461  0.00  0.00     0.006 A 
ATOM      5  C4  UNL d   1      -1.168   0.155  -0.844  0.00  0.00    -0.005 A 
ATOM      6  C5  UNL d   1       0.189  -0.092  -1.077  0.00  0.00    -0.074 A 
ATOM      7  C6  UNL d   1       0.735  -0.141  -2.473  0.00  0.00     0.077 C 
ATOM      8  C7  UNL d   1       1.046  -0.279   0.015  0.00  0.00    -0.001 A 
ENDROOT
TORSDOF 0
ENDMDL
