MODEL 1
REMARK minimizedAffinity -2.13061666
REMARK minimizedRMSD -1
REMARK  0 active torsions:
REMARK  status: ('A' for Active; 'I' for Inactive)
ROOT
ATOM      1  C   UNL d   1       0.421  -0.747  -2.689  0.00  0.00     0.077 C 
ATOM      2  C1  UNL d   1       0.501  -0.535  -1.206  0.00  0.00    -0.074 A 
ATOM      3  C2  UNL d   1       1.650  -0.887  -0.491  0.00  0.00    -0.005 A 
ATOM      4  C3  UNL d   1       1.713  -0.675   0.886  0.00  0.00     0.006 A 
ATOM      5  C4  UNL d   1       0.631  -0.110   1.561  0.00  0.00    -0.005 A 
ATOM      6  C5  UNL d   1      -0.526   0.249   0.862  0.00  0.00    -0.074 A 
ATOM      7  C6  UNL d   1      -1.696   0.867   1.570  0.00  0.00     0.077 C 
ATOM      8  C7  UNL d   1      -0.580   0.040  -0.523  0.00  0.00    -0.001 A 
ENDROOT
TORSDOF 0
ENDMDL
