MODEL 1
REMARK minimizedAffinity 4.94262743
REMARK minimizedRMSD -1
REMARK  0 active torsions:
REMARK  status: ('A' for Active; 'I' for Inactive)
ROOT
ATOM      1  C   UNL d   1      -0.228  -1.093  -1.715  0.00  0.00     0.077 C 
ATOM      2  C1  UNL d   1      -0.524  -0.751  -3.145  0.00  0.00    -0.074 A 
ATOM      3  C2  UNL d   1       0.079   0.350  -3.761  0.00  0.00    -0.005 A 
ATOM      4  C3  UNL d   1      -0.199   0.650  -5.095  0.00  0.00     0.006 A 
ATOM      5  C4  UNL d   1      -1.081  -0.148  -5.825  0.00  0.00    -0.005 A 
ATOM      6  C5  UNL d   1      -1.693  -1.254  -5.226  0.00  0.00    -0.074 A 
ATOM      7  C6  UNL d   1      -2.635  -2.127  -6.000  0.00  0.00     0.077 C 
ATOM      8  C7  UNL d   1      -1.403  -1.552  -3.888  0.00  0.00    -0.001 A 
ENDROOT
TORSDOF 0
ENDMDL
