MODEL 1
REMARK minimizedAffinity -2.8087461
REMARK minimizedRMSD -1
REMARK  0 active torsions:
REMARK  status: ('A' for Active; 'I' for Inactive)
ROOT
ATOM      1  C   UNL d   1       1.859  -1.061   2.672  0.00  0.00     0.077 C 
ATOM      2  C1  UNL d   1       0.760  -0.726   1.707  0.00  0.00    -0.074 A 
ATOM      3  C2  UNL d   1      -0.503  -0.335   2.164  0.00  0.00    -0.005 A 
ATOM      4  C3  UNL d   1      -1.512  -0.017   1.255  0.00  0.00     0.006 A 
ATOM      5  C4  UNL d   1      -1.268  -0.086  -0.117  0.00  0.00    -0.005 A 
ATOM      6  C5  UNL d   1      -0.011  -0.474  -0.592  0.00  0.00    -0.074 A 
ATOM      7  C6  UNL d   1       0.270  -0.543  -2.064  0.00  0.00     0.077 C 
ATOM      8  C7  UNL d   1       0.999  -0.785   0.327  0.00  0.00    -0.001 A 
ENDROOT
TORSDOF 0
ENDMDL
