MODEL 1
REMARK minimizedAffinity -3.31305599
REMARK minimizedRMSD -1
REMARK  0 active torsions:
REMARK  status: ('A' for Active; 'I' for Inactive)
ROOT
ATOM      1  C   UNL d   1       0.969  -0.016   4.190  0.00  0.00     0.077 C 
ATOM      2  C1  UNL d   1       0.196   0.076   2.909  0.00  0.00    -0.074 A 
ATOM      3  C2  UNL d   1      -1.087   0.632   2.882  0.00  0.00    -0.005 A 
ATOM      4  C3  UNL d   1      -1.791   0.720   1.681  0.00  0.00     0.006 A 
ATOM      5  C4  UNL d   1      -1.220   0.253   0.496  0.00  0.00    -0.005 A 
ATOM      6  C5  UNL d   1       0.062  -0.306   0.503  0.00  0.00    -0.074 A 
ATOM      7  C6  UNL d   1       0.694  -0.804  -0.762  0.00  0.00     0.077 C 
ATOM      8  C7  UNL d   1       0.766  -0.384   1.713  0.00  0.00    -0.001 A 
ENDROOT
TORSDOF 0
ENDMDL
