MODEL 1
REMARK minimizedAffinity -1.82414031
REMARK minimizedRMSD -1
REMARK  0 active torsions:
REMARK  status: ('A' for Active; 'I' for Inactive)
ROOT
ATOM      1  C   UNL d   1      -3.101   0.719   0.381  0.00  0.00     0.077 C 
ATOM      2  C1  UNL d   1      -1.731   0.221   0.734  0.00  0.00    -0.074 A 
ATOM      3  C2  UNL d   1      -0.799  -0.084  -0.263  0.00  0.00    -0.005 A 
ATOM      4  C3  UNL d   1       0.475  -0.537   0.080  0.00  0.00     0.006 A 
ATOM      5  C4  UNL d   1       0.829  -0.689   1.421  0.00  0.00    -0.005 A 
ATOM      6  C5  UNL d   1      -0.089  -0.388   2.432  0.00  0.00    -0.074 A 
ATOM      7  C6  UNL d   1       0.278  -0.536   3.878  0.00  0.00     0.077 C 
ATOM      8  C7  UNL d   1      -1.365   0.073   2.079  0.00  0.00    -0.001 A 
ENDROOT
TORSDOF 0
ENDMDL
