MODEL 1
REMARK minimizedAffinity 10.7353029
REMARK minimizedRMSD -1
REMARK  1 active torsions:
REMARK  status: ('A' for Active; 'I' for Inactive)
REMARK    1  A    between atoms: C1_2  and  C2_3 
ROOT
ATOM      1  C2  UNL d   1      -0.210  -5.928   1.720  0.00  0.00    -0.081 A 
ATOM      2  C3  UNL d   1       1.188  -5.992   1.704  0.00  0.00     0.006 A 
ATOM      3  C4  UNL d   1       1.910  -5.995   2.900  0.00  0.00     0.002 A 
ATOM      4  C5  UNL d   1       1.246  -5.940   4.130  0.00  0.00    -0.080 A 
ATOM      5  C6  UNL d   1       2.007  -5.973   5.422  0.00  0.00     0.076 C 
ATOM      6  C7  UNL d   1      -0.151  -5.858   4.145  0.00  0.00     0.002 A 
ATOM      7  C8  UNL d   1      -0.873  -5.855   2.950  0.00  0.00     0.006 A 
ENDROOT
BRANCH   1   8
ATOM      8  C1  UNL d   1      -0.994  -5.990   0.434  0.00  0.00     0.054 C 
ATOM      9  C   UNL d   1      -2.491  -5.885   0.692  0.00  0.00     0.018 C 
ENDBRANCH   1   8
TORSDOF 1
ENDMDL
