MODEL 1
REMARK minimizedAffinity 6.14970827
REMARK minimizedRMSD -1
REMARK  1 active torsions:
REMARK  status: ('A' for Active; 'I' for Inactive)
REMARK    1  A    between atoms: C1_2  and  C2_3 
ROOT
ATOM      1  C2  UNL d   1      -0.539  -1.905  -3.715  0.00  0.00    -0.081 A 
ATOM      2  C3  UNL d   1      -1.495  -2.898  -3.961  0.00  0.00     0.006 A 
ATOM      3  C4  UNL d   1      -2.847  -2.657  -3.705  0.00  0.00     0.002 A 
ATOM      4  C5  UNL d   1      -3.266  -1.419  -3.207  0.00  0.00    -0.080 A 
ATOM      5  C6  UNL d   1      -4.718  -1.137  -2.956  0.00  0.00     0.076 C 
ATOM      6  C7  UNL d   1      -2.309  -0.433  -2.946  0.00  0.00     0.002 A 
ATOM      7  C8  UNL d   1      -0.957  -0.673  -3.201  0.00  0.00     0.006 A 
ENDROOT
BRANCH   1   8
ATOM      8  C1  UNL d   1       0.912  -2.138  -4.051  0.00  0.00     0.054 C 
ATOM      9  C   UNL d   1       1.820  -1.211  -3.257  0.00  0.00     0.018 C 
ENDBRANCH   1   8
TORSDOF 1
ENDMDL
