MODEL 1
REMARK minimizedAffinity 12.335434
REMARK minimizedRMSD -1
REMARK  1 active torsions:
REMARK  status: ('A' for Active; 'I' for Inactive)
REMARK    1  A    between atoms: C1_2  and  C2_3 
ROOT
ATOM      1  C2  UNL d   1      -0.711  -0.044  -0.447  0.00  0.00    -0.081 A 
ATOM      2  C3  UNL d   1      -1.696  -0.382  -1.383  0.00  0.00     0.006 A 
ATOM      3  C4  UNL d   1      -2.642  -1.368  -1.090  0.00  0.00     0.002 A 
ATOM      4  C5  UNL d   1      -2.624  -2.025   0.144  0.00  0.00    -0.080 A 
ATOM      5  C6  UNL d   1      -3.652  -3.063   0.483  0.00  0.00     0.076 C 
ATOM      6  C7  UNL d   1      -1.629  -1.700   1.072  0.00  0.00     0.002 A 
ATOM      7  C8  UNL d   1      -0.682  -0.716   0.780  0.00  0.00     0.006 A 
ENDROOT
BRANCH   1   8
ATOM      8  C1  UNL d   1       0.271   1.063  -0.734  0.00  0.00     0.054 C 
ATOM      9  C   UNL d   1       1.299   1.194   0.381  0.00  0.00     0.018 C 
ENDBRANCH   1   8
TORSDOF 1
ENDMDL
