MODEL 1
REMARK minimizedAffinity 3.5764029
REMARK minimizedRMSD -1
REMARK  1 active torsions:
REMARK  status: ('A' for Active; 'I' for Inactive)
REMARK    1  A    between atoms: C1_2  and  C2_3 
ROOT
ATOM      1  C2  UNL d   1       0.072  -5.219   3.151  0.00  0.00    -0.081 A 
ATOM      2  C3  UNL d   1      -0.992  -5.881   2.528  0.00  0.00     0.006 A 
ATOM      3  C4  UNL d   1      -2.000  -5.156   1.887  0.00  0.00     0.002 A 
ATOM      4  C5  UNL d   1      -1.956  -3.758   1.853  0.00  0.00    -0.080 A 
ATOM      5  C6  UNL d   1      -3.015  -2.969   1.142  0.00  0.00     0.076 C 
ATOM      6  C7  UNL d   1      -0.902  -3.096   2.490  0.00  0.00     0.002 A 
ATOM      7  C8  UNL d   1       0.106  -3.820   3.132  0.00  0.00     0.006 A 
ENDROOT
BRANCH   1   8
ATOM      8  C1  UNL d   1       1.194  -6.000   3.787  0.00  0.00     0.054 C 
ATOM      9  C   UNL d   1       2.436  -5.999   2.907  0.00  0.00     0.018 C 
ENDBRANCH   1   8
TORSDOF 1
ENDMDL
