MODEL 1
REMARK minimizedAffinity 4.59935331
REMARK minimizedRMSD -1
REMARK  1 active torsions:
REMARK  status: ('A' for Active; 'I' for Inactive)
REMARK    1  A    between atoms: C1_2  and  C2_3 
ROOT
ATOM      1  C2  UNL d   1       0.686  -5.940   3.614  0.00  0.00    -0.081 A 
ATOM      2  C3  UNL d   1      -0.626  -5.953   4.104  0.00  0.00     0.006 A 
ATOM      3  C4  UNL d   1      -1.711  -5.958   3.224  0.00  0.00     0.002 A 
ATOM      4  C5  UNL d   1      -1.503  -5.959   1.841  0.00  0.00    -0.080 A 
ATOM      5  C6  UNL d   1      -2.659  -5.995   0.886  0.00  0.00     0.076 C 
ATOM      6  C7  UNL d   1      -0.193  -5.928   1.351  0.00  0.00     0.002 A 
ATOM      7  C8  UNL d   1       0.892  -5.922   2.230  0.00  0.00     0.006 A 
ENDROOT
BRANCH   1   8
ATOM      8  C1  UNL d   1       1.858  -5.999   4.559  0.00  0.00     0.054 C 
ATOM      9  C   UNL d   1       1.420  -5.771   5.999  0.00  0.00     0.018 C 
ENDBRANCH   1   8
TORSDOF 1
ENDMDL
