MODEL 1
REMARK minimizedAffinity 14.4477148
REMARK minimizedRMSD -1
REMARK  1 active torsions:
REMARK  status: ('A' for Active; 'I' for Inactive)
REMARK    1  A    between atoms: C1_2  and  C2_3 
ROOT
ATOM      1  C2  UNL d   1      -1.338  -0.244  -2.071  0.00  0.00    -0.081 A 
ATOM      2  C3  UNL d   1      -2.625  -0.784  -1.955  0.00  0.00     0.006 A 
ATOM      3  C4  UNL d   1      -3.000  -1.891  -2.719  0.00  0.00     0.002 A 
ATOM      4  C5  UNL d   1      -2.093  -2.481  -3.606  0.00  0.00    -0.080 A 
ATOM      5  C6  UNL d   1      -2.473  -3.689  -4.410  0.00  0.00     0.076 C 
ATOM      6  C7  UNL d   1      -0.814  -1.931  -3.735  0.00  0.00     0.002 A 
ATOM      7  C8  UNL d   1      -0.438  -0.823  -2.972  0.00  0.00     0.006 A 
ENDROOT
BRANCH   1   8
ATOM      8  C1  UNL d   1      -0.910   0.911  -1.202  0.00  0.00     0.054 C 
ATOM      9  C   UNL d   1      -0.096   0.432  -0.008  0.00  0.00     0.018 C 
ENDBRANCH   1   8
TORSDOF 1
ENDMDL
