MODEL 1
REMARK minimizedAffinity 14.4197407
REMARK minimizedRMSD -1
REMARK  1 active torsions:
REMARK  status: ('A' for Active; 'I' for Inactive)
REMARK    1  A    between atoms: C1_2  and  C2_3 
ROOT
ATOM      1  C2  UNL d   1       3.263   3.003   0.043  0.00  0.00    -0.081 A 
ATOM      2  C3  UNL d   1       4.128   4.009   0.490  0.00  0.00     0.006 A 
ATOM      3  C4  UNL d   1       5.007   3.768   1.549  0.00  0.00     0.002 A 
ATOM      4  C5  UNL d   1       5.040   2.516   2.173  0.00  0.00    -0.080 A 
ATOM      5  C6  UNL d   1       6.000   2.236   3.292  0.00  0.00     0.076 C 
ATOM      6  C7  UNL d   1       4.164   1.517   1.738  0.00  0.00     0.002 A 
ATOM      7  C8  UNL d   1       3.285   1.757   0.680  0.00  0.00     0.006 A 
ENDROOT
BRANCH   1   8
ATOM      8  C1  UNL d   1       2.360   3.238  -1.141  0.00  0.00     0.054 C 
ATOM      9  C   UNL d   1       1.496   2.019  -1.429  0.00  0.00     0.018 C 
ENDBRANCH   1   8
TORSDOF 1
ENDMDL
