MODEL 1
REMARK minimizedAffinity 3.47879863
REMARK minimizedRMSD -1
REMARK  1 active torsions:
REMARK  status: ('A' for Active; 'I' for Inactive)
REMARK    1  A    between atoms: C1_2  and  C2_3 
ROOT
ATOM      1  C2  UNL d   1       0.823  -5.889   3.473  0.00  0.00    -0.081 A 
ATOM      2  C3  UNL d   1       1.139  -5.919   2.110  0.00  0.00     0.006 A 
ATOM      3  C4  UNL d   1       0.126  -5.963   1.149  0.00  0.00     0.002 A 
ATOM      4  C5  UNL d   1      -1.219  -5.968   1.535  0.00  0.00    -0.080 A 
ATOM      5  C6  UNL d   1      -2.316  -5.984   0.513  0.00  0.00     0.076 C 
ATOM      6  C7  UNL d   1      -1.534  -5.956   2.898  0.00  0.00     0.002 A 
ATOM      7  C8  UNL d   1      -0.521  -5.913   3.859  0.00  0.00     0.006 A 
ENDROOT
BRANCH   1   8
ATOM      8  C1  UNL d   1       1.912  -5.777   4.510  0.00  0.00     0.054 C 
ATOM      9  C   UNL d   1       1.476  -4.905   5.678  0.00  0.00     0.018 C 
ENDBRANCH   1   8
TORSDOF 1
ENDMDL
