MODEL 1
REMARK minimizedAffinity 2.07532382
REMARK minimizedRMSD -1
REMARK  1 active torsions:
REMARK  status: ('A' for Active; 'I' for Inactive)
REMARK    1  A    between atoms: C1_2  and  C2_3 
ROOT
ATOM      1  C2  UNL d   1       0.897  -5.993   3.619  0.00  0.00    -0.081 A 
ATOM      2  C3  UNL d   1       1.014  -5.996   2.224  0.00  0.00     0.006 A 
ATOM      3  C4  UNL d   1      -0.126  -5.994   1.417  0.00  0.00     0.002 A 
ATOM      4  C5  UNL d   1      -1.402  -5.981   1.992  0.00  0.00    -0.080 A 
ATOM      5  C6  UNL d   1      -2.634  -5.948   1.137  0.00  0.00     0.076 C 
ATOM      6  C7  UNL d   1      -1.519  -5.995   3.386  0.00  0.00     0.002 A 
ATOM      7  C8  UNL d   1      -0.379  -5.998   4.193  0.00  0.00     0.006 A 
ENDROOT
BRANCH   1   8
ATOM      8  C1  UNL d   1       2.125  -5.929   4.491  0.00  0.00     0.054 C 
ATOM      9  C   UNL d   1       1.755  -5.923   5.968  0.00  0.00     0.018 C 
ENDBRANCH   1   8
TORSDOF 1
ENDMDL
