MODEL 1
REMARK minimizedAffinity -3.62688351
REMARK minimizedRMSD -1
REMARK  0 active torsions:
REMARK  status: ('A' for Active; 'I' for Inactive)
ROOT
ATOM      1  C1  DEN d   1       0.187   1.253  -1.468  0.00  0.00     0.130 A 
ATOM      2  C2  DEN d   1       1.090   1.775  -2.490  0.00  0.00    -0.031 A 
ATOM      3  C3  DEN d   1       2.091   0.732  -2.791  0.00  0.00     0.027 A 
ATOM      4  C4  DEN d   1       2.325  -1.631  -1.783  0.00  0.00     0.027 A 
ATOM      5  C5  DEN d   1       1.798  -2.520  -0.872  0.00  0.00    -0.003 A 
ATOM      6  C6  DEN d   1       0.727  -2.205  -0.079  0.00  0.00     0.001 A 
ATOM      7  C7  DEN d   1       0.120  -0.984  -0.213  0.00  0.00     0.017 A 
ATOM      8  C8  DEN d   1       0.650  -0.079  -1.123  0.00  0.00    -0.094 A 
ATOM      9  C9  DEN d   1       1.726  -0.422  -1.925  0.00  0.00    -0.072 A 
ENDROOT
TORSDOF 0
ENDMDL
