MODEL 1
REMARK minimizedAffinity -0.674430311
REMARK minimizedRMSD -1
REMARK  0 active torsions:
REMARK  status: ('A' for Active; 'I' for Inactive)
ROOT
ATOM      1  C1  DEN d   1       0.028   1.052  -0.498  0.00  0.00     0.130 A 
ATOM      2  C2  DEN d   1      -1.147   1.042   0.370  0.00  0.00    -0.031 A 
ATOM      3  C3  DEN d   1      -1.377  -0.348   0.811  0.00  0.00     0.027 A 
ATOM      4  C4  DEN d   1      -0.033  -2.475   0.241  0.00  0.00     0.027 A 
ATOM      5  C5  DEN d   1       1.041  -2.968  -0.467  0.00  0.00    -0.003 A 
ATOM      6  C6  DEN d   1       1.825  -2.168  -1.256  0.00  0.00     0.001 A 
ATOM      7  C7  DEN d   1       1.575  -0.823  -1.320  0.00  0.00     0.017 A 
ATOM      8  C8  DEN d   1       0.490  -0.319  -0.614  0.00  0.00    -0.094 A 
ATOM      9  C9  DEN d   1      -0.284  -1.142   0.187  0.00  0.00    -0.072 A 
ENDROOT
TORSDOF 0
ENDMDL
