MODEL 1
REMARK minimizedAffinity -4.1633358
REMARK minimizedRMSD -1
REMARK  0 active torsions:
REMARK  status: ('A' for Active; 'I' for Inactive)
ROOT
ATOM      1  C1  DEN d   1       0.066  -2.214  -0.919  0.00  0.00     0.130 A 
ATOM      2  C2  DEN d   1       1.270  -2.504  -1.691  0.00  0.00    -0.031 A 
ATOM      3  C3  DEN d   1       2.124  -1.300  -1.675  0.00  0.00     0.027 A 
ATOM      4  C4  DEN d   1       1.703   0.972  -0.529  0.00  0.00     0.027 A 
ATOM      5  C5  DEN d   1       0.813   1.698   0.232  0.00  0.00    -0.003 A 
ATOM      6  C6  DEN d   1      -0.393   1.186   0.632  0.00  0.00     0.001 A 
ATOM      7  C7  DEN d   1      -0.723  -0.104   0.310  0.00  0.00     0.017 A 
ATOM      8  C8  DEN d   1       0.165  -0.839  -0.465  0.00  0.00    -0.094 A 
ATOM      9  C9  DEN d   1       1.385  -0.308  -0.849  0.00  0.00    -0.072 A 
ENDROOT
TORSDOF 0
ENDMDL
