MODEL 1
REMARK minimizedAffinity -5.08450747
REMARK minimizedRMSD -1
REMARK  0 active torsions:
REMARK  status: ('A' for Active; 'I' for Inactive)
ROOT
ATOM      1  C1  DEN d   1       1.764   1.576  -2.407  0.00  0.00     0.130 A 
ATOM      2  C2  DEN d   1       0.589   2.399  -2.134  0.00  0.00    -0.031 A 
ATOM      3  C3  DEN d   1      -0.291   1.648  -1.216  0.00  0.00     0.027 A 
ATOM      4  C4  DEN d   1       0.052  -0.694  -0.193  0.00  0.00     0.027 A 
ATOM      5  C5  DEN d   1       0.892  -1.784  -0.140  0.00  0.00    -0.003 A 
ATOM      6  C6  DEN d   1       2.056  -1.844  -0.860  0.00  0.00     0.001 A 
ATOM      7  C7  DEN d   1       2.434  -0.776  -1.629  0.00  0.00     0.017 A 
ATOM      8  C8  DEN d   1       1.588   0.324  -1.693  0.00  0.00    -0.094 A 
ATOM      9  C9  DEN d   1       0.422   0.371  -0.948  0.00  0.00    -0.072 A 
ENDROOT
TORSDOF 0
ENDMDL
