MODEL 1
REMARK minimizedAffinity -7.00844049
REMARK minimizedRMSD -1
REMARK  0 active torsions:
REMARK  status: ('A' for Active; 'I' for Inactive)
ROOT
ATOM      1  C1  DEN d   1      -0.770   0.665   0.041  0.00  0.00     0.130 A 
ATOM      2  C2  DEN d   1      -0.649  -0.613   0.737  0.00  0.00    -0.031 A 
ATOM      3  C3  DEN d   1       0.430  -1.385   0.089  0.00  0.00     0.027 A 
ATOM      4  C4  DEN d   1       1.920  -0.728  -1.911  0.00  0.00     0.027 A 
ATOM      5  C5  DEN d   1       2.182   0.254  -2.841  0.00  0.00    -0.003 A 
ATOM      6  C6  DEN d   1       1.462   1.418  -2.896  0.00  0.00     0.001 A 
ATOM      7  C7  DEN d   1       0.474   1.649  -1.976  0.00  0.00     0.017 A 
ATOM      8  C8  DEN d   1       0.198   0.660  -1.041  0.00  0.00    -0.094 A 
ATOM      9  C9  DEN d   1       0.946  -0.504  -0.993  0.00  0.00    -0.072 A 
ENDROOT
TORSDOF 0
ENDMDL
