MODEL 1
REMARK minimizedAffinity 5.14174318
REMARK minimizedRMSD -1
REMARK  0 active torsions:
REMARK  status: ('A' for Active; 'I' for Inactive)
ROOT
ATOM      1  C1  DEN d   1      -0.776   1.627  -1.275  0.00  0.00     0.130 A 
ATOM      2  C2  DEN d   1      -0.340   2.633  -2.240  0.00  0.00    -0.031 A 
ATOM      3  C3  DEN d   1       0.690   2.022  -3.103  0.00  0.00     0.027 A 
ATOM      4  C4  DEN d   1       1.645  -0.373  -3.043  0.00  0.00     0.027 A 
ATOM      5  C5  DEN d   1       1.593  -1.587  -2.393  0.00  0.00    -0.003 A 
ATOM      6  C6  DEN d   1       0.779  -1.802  -1.312  0.00  0.00     0.001 A 
ATOM      7  C7  DEN d   1      -0.050  -0.801  -0.877  0.00  0.00     0.017 A 
ATOM      8  C8  DEN d   1       0.003   0.427  -1.523  0.00  0.00    -0.094 A 
ATOM      9  C9  DEN d   1       0.823   0.621  -2.621  0.00  0.00    -0.072 A 
ENDROOT
TORSDOF 0
ENDMDL
