MODEL 1
REMARK minimizedAffinity -3.07103086
REMARK minimizedRMSD -1
REMARK  0 active torsions:
REMARK  status: ('A' for Active; 'I' for Inactive)
ROOT
ATOM      1  C1  DEN d   1      -0.241  -2.187   0.708  0.00  0.00     0.130 A 
ATOM      2  C2  DEN d   1       0.163  -3.394  -0.009  0.00  0.00    -0.031 A 
ATOM      3  C3  DEN d   1       1.119  -2.999  -1.063  0.00  0.00     0.027 A 
ATOM      4  C4  DEN d   1       2.013  -0.652  -1.647  0.00  0.00     0.027 A 
ATOM      5  C5  DEN d   1       1.951   0.686  -1.324  0.00  0.00    -0.003 A 
ATOM      6  C6  DEN d   1       1.135   1.160  -0.331  0.00  0.00     0.001 A 
ATOM      7  C7  DEN d   1       0.381   0.283   0.404  0.00  0.00     0.017 A 
ATOM      8  C8  DEN d   1       0.433  -1.066   0.079  0.00  0.00    -0.094 A 
ATOM      9  C9  DEN d   1       1.274  -1.527  -0.920  0.00  0.00    -0.072 A 
ENDROOT
TORSDOF 0
ENDMDL
