MODEL 1
REMARK minimizedAffinity 0.699077606
REMARK minimizedRMSD -1
REMARK  0 active torsions:
REMARK  status: ('A' for Active; 'I' for Inactive)
ROOT
ATOM      1  C1  DEN d   1      -3.410  -0.370   3.068  0.00  0.00     0.130 A 
ATOM      2  C2  DEN d   1      -3.816   0.681   3.997  0.00  0.00    -0.031 A 
ATOM      3  C3  DEN d   1      -2.873   1.808   3.852  0.00  0.00     0.027 A 
ATOM      4  C4  DEN d   1      -0.836   2.027   2.284  0.00  0.00     0.027 A 
ATOM      5  C5  DEN d   1      -0.087   1.388   1.320  0.00  0.00    -0.003 A 
ATOM      6  C6  DEN d   1      -0.371   0.116   0.900  0.00  0.00     0.001 A 
ATOM      7  C7  DEN d   1      -1.458  -0.542   1.412  0.00  0.00     0.017 A 
ATOM      8  C8  DEN d   1      -2.214   0.093   2.389  0.00  0.00    -0.094 A 
ATOM      9  C9  DEN d   1      -1.918   1.384   2.792  0.00  0.00    -0.072 A 
ENDROOT
TORSDOF 0
ENDMDL
