MODEL 1
REMARK minimizedAffinity -4.14456558
REMARK minimizedRMSD -1
REMARK  0 active torsions:
REMARK  status: ('A' for Active; 'I' for Inactive)
ROOT
ATOM      1  C1  DEN d   1      -0.504  -1.538   0.138  0.00  0.00     0.130 A 
ATOM      2  C2  DEN d   1      -1.407  -0.508   0.646  0.00  0.00    -0.031 A 
ATOM      3  C3  DEN d   1      -0.885   0.806   0.222  0.00  0.00     0.027 A 
ATOM      4  C4  DEN d   1       1.221   1.344  -1.168  0.00  0.00     0.027 A 
ATOM      5  C5  DEN d   1       2.309   0.799  -1.814  0.00  0.00    -0.003 A 
ATOM      6  C6  DEN d   1       2.552  -0.548  -1.826  0.00  0.00     0.001 A 
ATOM      7  C7  DEN d   1       1.670  -1.402  -1.217  0.00  0.00     0.017 A 
ATOM      8  C8  DEN d   1       0.575  -0.860  -0.557  0.00  0.00    -0.094 A 
ATOM      9  C9  DEN d   1       0.340   0.504  -0.567  0.00  0.00    -0.072 A 
ENDROOT
TORSDOF 0
ENDMDL
