MODEL 1
REMARK minimizedAffinity 11.3565369
REMARK minimizedRMSD -1
REMARK  0 active torsions:
REMARK  status: ('A' for Active; 'I' for Inactive)
ROOT
ATOM      1  C1  DEN d   1      -1.500  -1.104  -0.134  0.00  0.00     0.130 A 
ATOM      2  C2  DEN d   1      -1.199  -0.869   1.276  0.00  0.00    -0.031 A 
ATOM      3  C3  DEN d   1       0.208  -1.253   1.512  0.00  0.00     0.027 A 
ATOM      4  C4  DEN d   1       1.940  -2.176  -0.161  0.00  0.00     0.027 A 
ATOM      5  C5  DEN d   1       2.146  -2.557  -1.469  0.00  0.00    -0.003 A 
ATOM      6  C6  DEN d   1       1.150  -2.512  -2.408  0.00  0.00     0.001 A 
ATOM      7  C7  DEN d   1      -0.087  -2.034  -2.063  0.00  0.00     0.017 A 
ATOM      8  C8  DEN d   1      -0.304  -1.656  -0.744  0.00  0.00    -0.094 A 
ATOM      9  C9  DEN d   1       0.719  -1.697   0.187  0.00  0.00    -0.072 A 
ENDROOT
TORSDOF 0
ENDMDL
