MODEL 1
REMARK minimizedAffinity -0.326174676
REMARK minimizedRMSD -1
REMARK  0 active torsions:
REMARK  status: ('A' for Active; 'I' for Inactive)
ROOT
ATOM      1  C   UNL d   1      -1.064   1.242   3.030  0.00  0.00     0.078 C 
ATOM      2  C1  UNL d   1      -0.899   0.656   1.660  0.00  0.00    -0.077 A 
ATOM      3  C2  UNL d   1      -2.006   0.210   0.928  0.00  0.00    -0.001 A 
ATOM      4  C3  UNL d   1      -1.836  -0.342  -0.343  0.00  0.00     0.003 A 
ATOM      5  C4  UNL d   1      -0.560  -0.454  -0.892  0.00  0.00    -0.005 A 
ATOM      6  C5  UNL d   1       0.547  -0.014  -0.171  0.00  0.00     0.003 A 
ATOM      7  C6  UNL d   1       0.380   0.538   1.100  0.00  0.00    -0.001 A 
ENDROOT
TORSDOF 0
ENDMDL
