MODEL 1
REMARK minimizedAffinity -5.09518576
REMARK minimizedRMSD -1
REMARK  0 active torsions:
REMARK  status: ('A' for Active; 'I' for Inactive)
ROOT
ATOM      1  C   UNL d   1       0.300  -0.456  -0.912  0.00  0.00     0.078 C 
ATOM      2  C1  UNL d   1      -0.083   0.030   0.454  0.00  0.00    -0.077 A 
ATOM      3  C2  UNL d   1       0.881   0.208   1.454  0.00  0.00    -0.001 A 
ATOM      4  C3  UNL d   1       0.508   0.652   2.723  0.00  0.00     0.003 A 
ATOM      5  C4  UNL d   1      -0.830   0.919   3.006  0.00  0.00    -0.005 A 
ATOM      6  C5  UNL d   1      -1.797   0.743   2.019  0.00  0.00     0.003 A 
ATOM      7  C6  UNL d   1      -1.426   0.300   0.748  0.00  0.00    -0.001 A 
ENDROOT
TORSDOF 0
ENDMDL
