MODEL 1
REMARK minimizedAffinity -4.01544142
REMARK minimizedRMSD -1
REMARK  0 active torsions:
REMARK  status: ('A' for Active; 'I' for Inactive)
ROOT
ATOM      1  C   UNL d   1       0.208  -0.144  -0.813  0.00  0.00     0.078 C 
ATOM      2  C1  UNL d   1      -0.226   0.091   0.603  0.00  0.00    -0.077 A 
ATOM      3  C2  UNL d   1       0.710   0.155   1.642  0.00  0.00    -0.001 A 
ATOM      4  C3  UNL d   1       0.292   0.364   2.957  0.00  0.00     0.003 A 
ATOM      5  C4  UNL d   1      -1.064   0.509   3.245  0.00  0.00    -0.005 A 
ATOM      6  C5  UNL d   1      -2.003   0.444   2.218  0.00  0.00     0.003 A 
ATOM      7  C6  UNL d   1      -1.586   0.235   0.902  0.00  0.00    -0.001 A 
ENDROOT
TORSDOF 0
ENDMDL
