MODEL 1
REMARK minimizedAffinity -5.06763601
REMARK minimizedRMSD -1
REMARK  0 active torsions:
REMARK  status: ('A' for Active; 'I' for Inactive)
ROOT
ATOM      1  C   UNL d   1       1.664   0.173   3.331  0.00  0.00     0.078 C 
ATOM      2  C1  UNL d   1       0.625   0.307   2.259  0.00  0.00    -0.077 A 
ATOM      3  C2  UNL d   1      -0.653   0.800   2.550  0.00  0.00    -0.001 A 
ATOM      4  C3  UNL d   1      -1.613   0.911   1.544  0.00  0.00     0.003 A 
ATOM      5  C4  UNL d   1      -1.307   0.529   0.239  0.00  0.00    -0.005 A 
ATOM      6  C5  UNL d   1      -0.039   0.036  -0.060  0.00  0.00     0.003 A 
ATOM      7  C6  UNL d   1       0.923  -0.076   0.945  0.00  0.00    -0.001 A 
ENDROOT
TORSDOF 0
ENDMDL
