MODEL 1
REMARK minimizedAffinity -4.29026985
REMARK minimizedRMSD -1
REMARK  0 active torsions:
REMARK  status: ('A' for Active; 'I' for Inactive)
ROOT
ATOM      1  C   UNL d   1       0.395  -0.641  -1.246  0.00  0.00     0.078 C 
ATOM      2  C1  UNL d   1      -0.050   0.072  -0.004  0.00  0.00    -0.077 A 
ATOM      3  C2  UNL d   1       0.842   0.860   0.734  0.00  0.00    -0.001 A 
ATOM      4  C3  UNL d   1       0.416   1.511   1.893  0.00  0.00     0.003 A 
ATOM      5  C4  UNL d   1      -0.902   1.378   2.326  0.00  0.00    -0.005 A 
ATOM      6  C5  UNL d   1      -1.796   0.594   1.600  0.00  0.00     0.003 A 
ATOM      7  C6  UNL d   1      -1.372  -0.057   0.440  0.00  0.00    -0.001 A 
ENDROOT
TORSDOF 0
ENDMDL
