MODEL 1
REMARK minimizedAffinity -5.86772299
REMARK minimizedRMSD -1
REMARK  0 active torsions:
REMARK  status: ('A' for Active; 'I' for Inactive)
ROOT
ATOM      1  C   UNL d   1       1.214   0.102   2.734  0.00  0.00     0.078 C 
ATOM      2  C1  UNL d   1       0.085   0.107   1.746  0.00  0.00    -0.077 A 
ATOM      3  C2  UNL d   1      -1.162   0.650   2.080  0.00  0.00    -0.001 A 
ATOM      4  C3  UNL d   1      -2.206   0.639   1.154  0.00  0.00     0.003 A 
ATOM      5  C4  UNL d   1      -2.015   0.085  -0.110  0.00  0.00    -0.005 A 
ATOM      6  C5  UNL d   1      -0.779  -0.460  -0.450  0.00  0.00     0.003 A 
ATOM      7  C6  UNL d   1       0.267  -0.450   0.474  0.00  0.00    -0.001 A 
ENDROOT
TORSDOF 0
ENDMDL
