MODEL 1
REMARK minimizedAffinity -5.78692675
REMARK minimizedRMSD -1
REMARK  0 active torsions:
REMARK  status: ('A' for Active; 'I' for Inactive)
ROOT
ATOM      1  C   UNL d   1       0.092  -0.101  -0.466  0.00  0.00     0.078 C 
ATOM      2  C1  UNL d   1       0.243   0.143   1.005  0.00  0.00    -0.077 A 
ATOM      3  C2  UNL d   1       1.354  -0.341   1.707  0.00  0.00    -0.001 A 
ATOM      4  C3  UNL d   1       1.477  -0.114   3.078  0.00  0.00     0.003 A 
ATOM      5  C4  UNL d   1       0.492   0.597   3.761  0.00  0.00    -0.005 A 
ATOM      6  C5  UNL d   1      -0.618   1.081   3.072  0.00  0.00     0.003 A 
ATOM      7  C6  UNL d   1      -0.743   0.855   1.700  0.00  0.00    -0.001 A 
ENDROOT
TORSDOF 0
ENDMDL
