MODEL 1
REMARK minimizedAffinity -5.26718616
REMARK minimizedRMSD -1
REMARK  0 active torsions:
REMARK  status: ('A' for Active; 'I' for Inactive)
ROOT
ATOM      1  C   UNL d   1       1.018   0.295   3.984  0.00  0.00     0.078 C 
ATOM      2  C1  UNL d   1       0.193   0.501   2.749  0.00  0.00    -0.077 A 
ATOM      3  C2  UNL d   1       0.603  -0.016   1.514  0.00  0.00    -0.001 A 
ATOM      4  C3  UNL d   1      -0.170   0.191   0.370  0.00  0.00     0.003 A 
ATOM      5  C4  UNL d   1      -1.357   0.916   0.450  0.00  0.00    -0.005 A 
ATOM      6  C5  UNL d   1      -1.772   1.436   1.674  0.00  0.00     0.003 A 
ATOM      7  C6  UNL d   1      -1.001   1.230   2.819  0.00  0.00    -0.001 A 
ENDROOT
TORSDOF 0
ENDMDL
