MODEL 1
REMARK minimizedAffinity -4.95906258
REMARK minimizedRMSD -1
REMARK  0 active torsions:
REMARK  status: ('A' for Active; 'I' for Inactive)
ROOT
ATOM      1  C   UNL d   1       1.490   0.033   3.373  0.00  0.00     0.078 C 
ATOM      2  C1  UNL d   1       0.543   0.065   2.210  0.00  0.00    -0.077 A 
ATOM      3  C2  UNL d   1      -0.739   0.612   2.338  0.00  0.00    -0.001 A 
ATOM      4  C3  UNL d   1      -1.613   0.627   1.250  0.00  0.00     0.003 A 
ATOM      5  C4  UNL d   1      -1.214   0.094   0.026  0.00  0.00    -0.005 A 
ATOM      6  C5  UNL d   1       0.059  -0.455  -0.111  0.00  0.00     0.003 A 
ATOM      7  C6  UNL d   1       0.934  -0.470   0.976  0.00  0.00    -0.001 A 
ENDROOT
TORSDOF 0
ENDMDL
