MODEL 1
REMARK minimizedAffinity -5.67893028
REMARK minimizedRMSD -1
REMARK  0 active torsions:
REMARK  status: ('A' for Active; 'I' for Inactive)
ROOT
ATOM      1  C   UNL d   1       0.323  -0.755  -0.858  0.00  0.00     0.078 C 
ATOM      2  C1  UNL d   1      -0.140  -0.011   0.360  0.00  0.00    -0.077 A 
ATOM      3  C2  UNL d   1       0.753   0.752   1.122  0.00  0.00    -0.001 A 
ATOM      4  C3  UNL d   1       0.310   1.430   2.258  0.00  0.00     0.003 A 
ATOM      5  C4  UNL d   1      -1.027   1.352   2.643  0.00  0.00    -0.005 A 
ATOM      6  C5  UNL d   1      -1.922   0.593   1.892  0.00  0.00     0.003 A 
ATOM      7  C6  UNL d   1      -1.481  -0.086   0.756  0.00  0.00    -0.001 A 
ENDROOT
TORSDOF 0
ENDMDL
