MODEL 1
REMARK minimizedAffinity 13.6025486
REMARK minimizedRMSD -1
REMARK  1 active torsions:
REMARK  status: ('A' for Active; 'I' for Inactive)
REMARK    1  A    between atoms: C1_2  and  C2_3 
ROOT
ATOM      1  C2  UNL d   1       2.482   2.793   1.637  0.00  0.00    -0.081 A 
ATOM      2  C3  UNL d   1       2.055   4.126   1.641  0.00  0.00     0.006 A 
ATOM      3  C4  UNL d   1       2.983   5.167   1.559  0.00  0.00     0.002 A 
ATOM      4  C5  UNL d   1       4.351   4.892   1.462  0.00  0.00    -0.080 A 
ATOM      5  C6  UNL d   1       5.356   6.000   1.342  0.00  0.00     0.076 C 
ATOM      6  C7  UNL d   1       4.779   3.560   1.475  0.00  0.00     0.002 A 
ATOM      7  C8  UNL d   1       3.852   2.519   1.558  0.00  0.00     0.006 A 
ENDROOT
BRANCH   1   8
ATOM      8  C1  UNL d   1       1.480   1.667   1.661  0.00  0.00     0.054 C 
ATOM      9  C   UNL d   1       1.790   0.627   0.595  0.00  0.00     0.018 C 
ENDBRANCH   1   8
TORSDOF 1
ENDMDL
