MODEL 1
REMARK minimizedAffinity 12.5132227
REMARK minimizedRMSD -1
REMARK  1 active torsions:
REMARK  status: ('A' for Active; 'I' for Inactive)
REMARK    1  A    between atoms: C1_2  and  C2_3 
ROOT
ATOM      1  C2  UNL d   1      -1.101   2.554  -5.345  0.00  0.00    -0.081 A 
ATOM      2  C3  UNL d   1      -0.402   1.520  -5.980  0.00  0.00     0.006 A 
ATOM      3  C4  UNL d   1       0.678   0.901  -5.346  0.00  0.00     0.002 A 
ATOM      4  C5  UNL d   1       1.072   1.300  -4.064  0.00  0.00    -0.080 A 
ATOM      5  C6  UNL d   1       2.210   0.623  -3.360  0.00  0.00     0.076 C 
ATOM      6  C7  UNL d   1       0.385   2.344  -3.437  0.00  0.00     0.002 A 
ATOM      7  C8  UNL d   1      -0.695   2.964  -4.071  0.00  0.00     0.006 A 
ENDROOT
BRANCH   1   8
ATOM      8  C1  UNL d   1      -2.306   3.179  -6.000  0.00  0.00     0.054 C 
ATOM      9  C   UNL d   1      -3.493   2.226  -6.000  0.00  0.00     0.018 C 
ENDBRANCH   1   8
TORSDOF 1
ENDMDL
