MODEL 1
REMARK minimizedAffinity 14.6418934
REMARK minimizedRMSD -1
REMARK  1 active torsions:
REMARK  status: ('A' for Active; 'I' for Inactive)
REMARK    1  A    between atoms: C1_2  and  C2_3 
ROOT
ATOM      1  C2  UNL d   1       2.220   2.166   1.009  0.00  0.00    -0.081 A 
ATOM      2  C3  UNL d   1       1.717   3.392   1.463  0.00  0.00     0.006 A 
ATOM      3  C4  UNL d   1       2.570   4.484   1.642  0.00  0.00     0.002 A 
ATOM      4  C5  UNL d   1       3.936   4.372   1.362  0.00  0.00    -0.080 A 
ATOM      5  C6  UNL d   1       4.856   5.545   1.521  0.00  0.00     0.076 C 
ATOM      6  C7  UNL d   1       4.441   3.143   0.925  0.00  0.00     0.002 A 
ATOM      7  C8  UNL d   1       3.589   2.050   0.747  0.00  0.00     0.006 A 
ENDROOT
BRANCH   1   8
ATOM      8  C1  UNL d   1       1.293   1.005   0.753  0.00  0.00     0.054 C 
ATOM      9  C   UNL d   1       1.996  -0.105  -0.014  0.00  0.00     0.018 C 
ENDBRANCH   1   8
TORSDOF 1
ENDMDL
