MODEL 1
REMARK minimizedAffinity -0.326562971
REMARK minimizedRMSD -1
REMARK  1 active torsions:
REMARK  status: ('A' for Active; 'I' for Inactive)
REMARK    1  A    between atoms: C1_2  and  C2_3 
ROOT
ATOM      1  C2  UNL d   1       2.750   4.658   2.932  0.00  0.00    -0.081 A 
ATOM      2  C3  UNL d   1       1.949   3.624   3.432  0.00  0.00     0.006 A 
ATOM      3  C4  UNL d   1       1.893   2.391   2.777  0.00  0.00     0.002 A 
ATOM      4  C5  UNL d   1       2.643   2.169   1.617  0.00  0.00    -0.080 A 
ATOM      5  C6  UNL d   1       2.616   0.841   0.922  0.00  0.00     0.076 C 
ATOM      6  C7  UNL d   1       3.430   3.208   1.108  0.00  0.00     0.002 A 
ATOM      7  C8  UNL d   1       3.486   4.441   1.762  0.00  0.00     0.006 A 
ENDROOT
BRANCH   1   8
ATOM      8  C1  UNL d   1       2.862   5.966   3.672  0.00  0.00     0.054 C 
ATOM      9  C   UNL d   1       2.030   5.954   4.947  0.00  0.00     0.018 C 
ENDBRANCH   1   8
TORSDOF 1
ENDMDL
