MODEL 1
REMARK minimizedAffinity 9.14335442
REMARK minimizedRMSD -1
REMARK  1 active torsions:
REMARK  status: ('A' for Active; 'I' for Inactive)
REMARK    1  A    between atoms: C1_2  and  C2_3 
ROOT
ATOM      1  C2  UNL d   1       0.355  -5.122   0.115  0.00  0.00    -0.081 A 
ATOM      2  C3  UNL d   1       1.248  -4.923  -0.945  0.00  0.00     0.006 A 
ATOM      3  C4  UNL d   1       0.866  -5.216  -2.257  0.00  0.00     0.002 A 
ATOM      4  C5  UNL d   1      -0.416  -5.705  -2.531  0.00  0.00    -0.080 A 
ATOM      5  C6  UNL d   1      -0.849  -5.994  -3.937  0.00  0.00     0.076 C 
ATOM      6  C7  UNL d   1      -1.302  -5.920  -1.469  0.00  0.00     0.002 A 
ATOM      7  C8  UNL d   1      -0.920  -5.628  -0.158  0.00  0.00     0.006 A 
ENDROOT
BRANCH   1   8
ATOM      8  C1  UNL d   1       0.742  -4.746   1.523  0.00  0.00     0.054 C 
ATOM      9  C   UNL d   1       0.762  -5.964   2.435  0.00  0.00     0.018 C 
ENDBRANCH   1   8
TORSDOF 1
ENDMDL
