MODEL 1
REMARK minimizedAffinity 10.5845118
REMARK minimizedRMSD -1
REMARK  1 active torsions:
REMARK  status: ('A' for Active; 'I' for Inactive)
REMARK    1  A    between atoms: C1_2  and  C2_3 
ROOT
ATOM      1  C2  UNL d   1       4.562   3.536   2.654  0.00  0.00    -0.081 A 
ATOM      2  C3  UNL d   1       5.402   3.022   3.649  0.00  0.00     0.006 A 
ATOM      3  C4  UNL d   1       5.793   3.819   4.727  0.00  0.00     0.002 A 
ATOM      4  C5  UNL d   1       5.346   5.141   4.832  0.00  0.00    -0.080 A 
ATOM      5  C6  UNL d   1       5.734   5.998   6.000  0.00  0.00     0.076 C 
ATOM      6  C7  UNL d   1       4.522   5.660   3.828  0.00  0.00     0.002 A 
ATOM      7  C8  UNL d   1       4.131   4.864   2.750  0.00  0.00     0.006 A 
ENDROOT
BRANCH   1   8
ATOM      8  C1  UNL d   1       4.086   2.659   1.524  0.00  0.00     0.054 C 
ATOM      9  C   UNL d   1       2.592   2.388   1.626  0.00  0.00     0.018 C 
ENDBRANCH   1   8
TORSDOF 1
ENDMDL
