MODEL 1
REMARK minimizedAffinity 3.0863831
REMARK minimizedRMSD -1
REMARK  1 active torsions:
REMARK  status: ('A' for Active; 'I' for Inactive)
REMARK    1  A    between atoms: C1_2  and  C2_3 
ROOT
ATOM      1  C2  UNL d   1      -4.673   3.651  -5.951  0.00  0.00    -0.081 A 
ATOM      2  C3  UNL d   1      -4.618   2.252  -5.951  0.00  0.00     0.006 A 
ATOM      3  C4  UNL d   1      -3.389   1.591  -5.882  0.00  0.00     0.002 A 
ATOM      4  C5  UNL d   1      -2.196   2.318  -5.805  0.00  0.00    -0.080 A 
ATOM      5  C6  UNL d   1      -0.872   1.621  -5.700  0.00  0.00     0.076 C 
ATOM      6  C7  UNL d   1      -2.250   3.716  -5.823  0.00  0.00     0.002 A 
ATOM      7  C8  UNL d   1      -3.478   4.377  -5.892  0.00  0.00     0.006 A 
ENDROOT
BRANCH   1   8
ATOM      8  C1  UNL d   1      -6.000   4.366  -5.960  0.00  0.00     0.054 C 
ATOM      9  C   UNL d   1      -5.815   5.876  -5.955  0.00  0.00     0.018 C 
ENDBRANCH   1   8
TORSDOF 1
ENDMDL
