MODEL 1
REMARK minimizedAffinity -0.179645032
REMARK minimizedRMSD -1
REMARK  1 active torsions:
REMARK  status: ('A' for Active; 'I' for Inactive)
REMARK    1  A    between atoms: C1_2  and  C2_3 
ROOT
ATOM      1  C2  UNL d   1       3.698   3.998   1.268  0.00  0.00    -0.081 A 
ATOM      2  C3  UNL d   1       4.042   5.353   1.354  0.00  0.00     0.006 A 
ATOM      3  C4  UNL d   1       4.066   6.000   2.592  0.00  0.00     0.002 A 
ATOM      4  C5  UNL d   1       3.756   5.301   3.764  0.00  0.00    -0.080 A 
ATOM      5  C6  UNL d   1       3.807   5.976   5.103  0.00  0.00     0.076 C 
ATOM      6  C7  UNL d   1       3.396   3.952   3.676  0.00  0.00     0.002 A 
ATOM      7  C8  UNL d   1       3.370   3.305   2.439  0.00  0.00     0.006 A 
ENDROOT
BRANCH   1   8
ATOM      8  C1  UNL d   1       3.734   3.281  -0.058  0.00  0.00     0.054 C 
ATOM      9  C   UNL d   1       2.461   2.479  -0.287  0.00  0.00     0.018 C 
ENDBRANCH   1   8
TORSDOF 1
ENDMDL
