MODEL 1
REMARK minimizedAffinity 3.54417372
REMARK minimizedRMSD -1
REMARK  1 active torsions:
REMARK  status: ('A' for Active; 'I' for Inactive)
REMARK    1  A    between atoms: C1_2  and  C2_3 
ROOT
ATOM      1  C2  UNL d   1       0.365   0.589   1.084  0.00  0.00    -0.081 A 
ATOM      2  C3  UNL d   1      -1.030   0.515   0.989  0.00  0.00     0.006 A 
ATOM      3  C4  UNL d   1      -1.672  -0.725   0.933  0.00  0.00     0.002 A 
ATOM      4  C5  UNL d   1      -0.930  -1.910   0.980  0.00  0.00    -0.080 A 
ATOM      5  C6  UNL d   1      -1.608  -3.248   0.951  0.00  0.00     0.076 C 
ATOM      6  C7  UNL d   1       0.465  -1.837   1.057  0.00  0.00     0.002 A 
ATOM      7  C8  UNL d   1       1.107  -0.597   1.112  0.00  0.00     0.006 A 
ENDROOT
BRANCH   1   8
ATOM      8  C1  UNL d   1       1.055   1.923   1.210  0.00  0.00     0.054 C 
ATOM      9  C   UNL d   1       1.123   2.639  -0.132  0.00  0.00     0.018 C 
ENDBRANCH   1   8
TORSDOF 1
ENDMDL
