MODEL 1
REMARK minimizedAffinity 3.37700295
REMARK minimizedRMSD -1
REMARK  1 active torsions:
REMARK  status: ('A' for Active; 'I' for Inactive)
REMARK    1  A    between atoms: C1_2  and  C2_3 
ROOT
ATOM      1  C2  UNL d   1      -1.208   2.890  -5.935  0.00  0.00    -0.081 A 
ATOM      2  C3  UNL d   1      -1.759   1.604  -5.883  0.00  0.00     0.006 A 
ATOM      3  C4  UNL d   1      -3.144   1.426  -5.888  0.00  0.00     0.002 A 
ATOM      4  C5  UNL d   1      -4.001   2.530  -5.955  0.00  0.00    -0.080 A 
ATOM      5  C6  UNL d   1      -5.490   2.352  -5.992  0.00  0.00     0.076 C 
ATOM      6  C7  UNL d   1      -3.451   3.816  -5.990  0.00  0.00     0.002 A 
ATOM      7  C8  UNL d   1      -2.066   3.994  -5.984  0.00  0.00     0.006 A 
ENDROOT
BRANCH   1   8
ATOM      8  C1  UNL d   1       0.286   3.083  -5.994  0.00  0.00     0.054 C 
ATOM      9  C   UNL d   1       0.655   4.559  -5.976  0.00  0.00     0.018 C 
ENDBRANCH   1   8
TORSDOF 1
ENDMDL
