MODEL 1
REMARK minimizedAffinity 2.58805966
REMARK minimizedRMSD -1
REMARK  1 active torsions:
REMARK  status: ('A' for Active; 'I' for Inactive)
REMARK    1  A    between atoms: C1_2  and  C2_3 
ROOT
ATOM      1  C2  UNL d   1      -1.806   3.674  -5.988  0.00  0.00    -0.081 A 
ATOM      2  C3  UNL d   1      -1.686   2.281  -5.928  0.00  0.00     0.006 A 
ATOM      3  C4  UNL d   1      -0.426   1.681  -5.869  0.00  0.00     0.002 A 
ATOM      4  C5  UNL d   1       0.734   2.464  -5.860  0.00  0.00    -0.080 A 
ATOM      5  C6  UNL d   1       2.091   1.834  -5.766  0.00  0.00     0.076 C 
ATOM      6  C7  UNL d   1       0.614   3.856  -5.937  0.00  0.00     0.002 A 
ATOM      7  C8  UNL d   1      -0.646   4.456  -5.997  0.00  0.00     0.006 A 
ENDROOT
BRANCH   1   8
ATOM      8  C1  UNL d   1      -3.165   4.327  -5.987  0.00  0.00     0.054 C 
ATOM      9  C   UNL d   1      -4.278   3.288  -5.983  0.00  0.00     0.018 C 
ENDBRANCH   1   8
TORSDOF 1
ENDMDL
