MODEL 1
REMARK minimizedAffinity 0.149766728
REMARK minimizedRMSD -1
REMARK  1 active torsions:
REMARK  status: ('A' for Active; 'I' for Inactive)
REMARK    1  A    between atoms: C1_2  and  C2_3 
ROOT
ATOM      1  C2  UNL d   1       1.077   2.385  -0.706  0.00  0.00    -0.081 A 
ATOM      2  C3  UNL d   1       1.471   2.036  -2.003  0.00  0.00     0.006 A 
ATOM      3  C4  UNL d   1       2.448   1.058  -2.208  0.00  0.00     0.002 A 
ATOM      4  C5  UNL d   1       3.040   0.408  -1.120  0.00  0.00    -0.080 A 
ATOM      5  C6  UNL d   1       4.068  -0.664  -1.326  0.00  0.00     0.076 C 
ATOM      6  C7  UNL d   1       2.659   0.769   0.177  0.00  0.00     0.002 A 
ATOM      7  C8  UNL d   1       1.683   1.747   0.382  0.00  0.00     0.006 A 
ENDROOT
BRANCH   1   8
ATOM      8  C1  UNL d   1      -0.022   3.392  -0.484  0.00  0.00     0.054 C 
ATOM      9  C   UNL d   1      -0.304   4.191  -1.748  0.00  0.00     0.018 C 
ENDBRANCH   1   8
TORSDOF 1
ENDMDL
