MODEL 1
REMARK minimizedAffinity 2.82766056
REMARK minimizedRMSD -1
REMARK  1 active torsions:
REMARK  status: ('A' for Active; 'I' for Inactive)
REMARK    1  A    between atoms: C1_2  and  C2_3 
ROOT
ATOM      1  C2  UNL d   1      -3.145   2.987  -3.024  0.00  0.00    -0.081 A 
ATOM      2  C3  UNL d   1      -1.857   3.370  -2.630  0.00  0.00     0.006 A 
ATOM      3  C4  UNL d   1      -0.914   2.409  -2.260  0.00  0.00     0.002 A 
ATOM      4  C5  UNL d   1      -1.239   1.048  -2.286  0.00  0.00    -0.080 A 
ATOM      5  C6  UNL d   1      -0.227   0.004  -1.920  0.00  0.00     0.076 C 
ATOM      6  C7  UNL d   1      -2.531   0.666  -2.663  0.00  0.00     0.002 A 
ATOM      7  C8  UNL d   1      -3.475   1.627  -3.032  0.00  0.00     0.006 A 
ENDROOT
BRANCH   1   8
ATOM      8  C1  UNL d   1      -4.144   4.017  -3.485  0.00  0.00     0.054 C 
ATOM      9  C   UNL d   1      -4.657   3.703  -4.883  0.00  0.00     0.018 C 
ENDBRANCH   1   8
TORSDOF 1
ENDMDL
