MODEL 1
REMARK minimizedAffinity 7.01067019
REMARK minimizedRMSD -1
REMARK  1 active torsions:
REMARK  status: ('A' for Active; 'I' for Inactive)
REMARK    1  A    between atoms: C1_2  and  C2_3 
ROOT
ATOM      1  C2  UNL d   1      -3.576   2.291  -2.588  0.00  0.00    -0.081 A 
ATOM      2  C3  UNL d   1      -3.923   0.979  -2.241  0.00  0.00     0.006 A 
ATOM      3  C4  UNL d   1      -2.932   0.038  -1.953  0.00  0.00     0.002 A 
ATOM      4  C5  UNL d   1      -1.580   0.393  -1.999  0.00  0.00    -0.080 A 
ATOM      5  C6  UNL d   1      -0.507  -0.600  -1.662  0.00  0.00     0.076 C 
ATOM      6  C7  UNL d   1      -1.232   1.699  -2.363  0.00  0.00     0.002 A 
ATOM      7  C8  UNL d   1      -2.222   2.640  -2.652  0.00  0.00     0.006 A 
ENDROOT
BRANCH   1   8
ATOM      8  C1  UNL d   1      -4.643   3.326  -2.837  0.00  0.00     0.054 C 
ATOM      9  C   UNL d   1      -4.038   4.650  -3.278  0.00  0.00     0.018 C 
ENDBRANCH   1   8
TORSDOF 1
ENDMDL
