MODEL 1
REMARK minimizedAffinity 3.57105875
REMARK minimizedRMSD -1
REMARK  1 active torsions:
REMARK  status: ('A' for Active; 'I' for Inactive)
REMARK    1  A    between atoms: C1_2  and  C2_3 
ROOT
ATOM      1  C2  UNL d   1      -0.095   3.629  -1.140  0.00  0.00    -0.081 A 
ATOM      2  C3  UNL d   1       0.387   2.628  -0.289  0.00  0.00     0.006 A 
ATOM      3  C4  UNL d   1       0.110   1.283  -0.548  0.00  0.00     0.002 A 
ATOM      4  C5  UNL d   1      -0.647   0.918  -1.667  0.00  0.00    -0.080 A 
ATOM      5  C6  UNL d   1      -0.927  -0.523  -1.974  0.00  0.00     0.076 C 
ATOM      6  C7  UNL d   1      -1.144   1.920  -2.507  0.00  0.00     0.002 A 
ATOM      7  C8  UNL d   1      -0.868   3.264  -2.248  0.00  0.00     0.006 A 
ENDROOT
BRANCH   1   8
ATOM      8  C1  UNL d   1       0.257   5.075  -0.899  0.00  0.00     0.054 C 
ATOM      9  C   UNL d   1      -0.555   5.999  -1.795  0.00  0.00     0.018 C 
ENDBRANCH   1   8
TORSDOF 1
ENDMDL
