MODEL 1
REMARK minimizedAffinity -2.24278402
REMARK minimizedRMSD -1
REMARK  1 active torsions:
REMARK  status: ('A' for Active; 'I' for Inactive)
REMARK    1  A    between atoms: C1_2  and  C2_3 
ROOT
ATOM      1  C2  UNL d   1      -0.171   1.783  -0.450  0.00  0.00    -0.081 A 
ATOM      2  C3  UNL d   1       0.333   3.089  -0.494  0.00  0.00     0.006 A 
ATOM      3  C4  UNL d   1       0.947   3.649   0.628  0.00  0.00     0.002 A 
ATOM      4  C5  UNL d   1       1.074   2.911   1.810  0.00  0.00    -0.080 A 
ATOM      5  C6  UNL d   1       1.758   3.490   3.013  0.00  0.00     0.076 C 
ATOM      6  C7  UNL d   1       0.555   1.613   1.860  0.00  0.00     0.002 A 
ATOM      7  C8  UNL d   1      -0.059   1.053   0.738  0.00  0.00     0.006 A 
ENDROOT
BRANCH   1   8
ATOM      8  C1  UNL d   1      -0.775   1.154  -1.679  0.00  0.00     0.054 C 
ATOM      9  C   UNL d   1      -2.246   1.519  -1.822  0.00  0.00     0.018 C 
ENDBRANCH   1   8
TORSDOF 1
ENDMDL
