MODEL 1
REMARK minimizedAffinity -3.18469858
REMARK minimizedRMSD -1
REMARK  1 active torsions:
REMARK  status: ('A' for Active; 'I' for Inactive)
REMARK    1  A    between atoms: C1_2  and  C2_3 
ROOT
ATOM      1  C2  UNL d   1      -0.151   1.159   0.716  0.00  0.00    -0.081 A 
ATOM      2  C3  UNL d   1      -0.358   1.319  -0.659  0.00  0.00     0.006 A 
ATOM      3  C4  UNL d   1      -0.420   2.596  -1.223  0.00  0.00     0.002 A 
ATOM      4  C5  UNL d   1      -0.267   3.733  -0.423  0.00  0.00    -0.080 A 
ATOM      5  C6  UNL d   1      -0.301   5.108  -1.020  0.00  0.00     0.076 C 
ATOM      6  C7  UNL d   1      -0.077   3.574   0.954  0.00  0.00     0.002 A 
ATOM      7  C8  UNL d   1      -0.016   2.298   1.518  0.00  0.00     0.006 A 
ENDROOT
BRANCH   1   8
ATOM      8  C1  UNL d   1      -0.019  -0.217   1.317  0.00  0.00     0.054 C 
ATOM      9  C   UNL d   1       1.384  -0.774   1.121  0.00  0.00     0.018 C 
ENDBRANCH   1   8
TORSDOF 1
ENDMDL
