MODEL 1
REMARK minimizedAffinity 1.20288408
REMARK minimizedRMSD -1
REMARK  0 active torsions:
REMARK  status: ('A' for Active; 'I' for Inactive)
ROOT
ATOM      1  C   UNL d   1      -0.122   2.168  -0.113  0.00  0.00     0.124 A 
ATOM      2  C1  UNL d   1       0.733   1.230  -0.674  0.00  0.00     0.062 A 
ATOM      3  C2  UNL d   1       0.486  -0.130  -0.510  0.00  0.00     0.162 A 
ATOM      4  C3  UNL d   1      -0.623  -0.561   0.218  0.00  0.00    -0.034 A 
ATOM      5  C4  UNL d   1      -1.478   0.388   0.781  0.00  0.00     0.162 A 
ATOM      6  C5  UNL d   1      -1.227   1.746   0.614  0.00  0.00     0.062 A 
ATOM      7  F   UNL d   1      -2.055   2.651   1.157  0.00  0.00    -0.097 F 
ATOM      8  F1  UNL d   1      -2.554   0.009   1.487  0.00  0.00    -0.096 F 
ATOM      9  I   UNL d   1      -0.996  -2.593   0.466  0.00  0.00    -0.060 I 
ATOM     10  F2  UNL d   1       1.329  -1.014  -1.064  0.00  0.00    -0.096 F 
ATOM     11  F3  UNL d   1       1.801   1.634  -1.376  0.00  0.00    -0.097 F 
ATOM     12  F4  UNL d   1       0.118   3.475  -0.271  0.00  0.00    -0.092 F 
ENDROOT
TORSDOF 0
ENDMDL
