MODEL 1
REMARK minimizedAffinity -2.81716466
REMARK minimizedRMSD -1
REMARK  0 active torsions:
REMARK  status: ('A' for Active; 'I' for Inactive)
ROOT
ATOM      1  C   UNL d   1      -1.134   2.299   0.445  0.00  0.00     0.124 A 
ATOM      2  C1  UNL d   1      -1.687   1.042   0.648  0.00  0.00     0.062 A 
ATOM      3  C2  UNL d   1      -0.906  -0.100   0.496  0.00  0.00     0.162 A 
ATOM      4  C3  UNL d   1       0.438   0.009   0.139  0.00  0.00    -0.034 A 
ATOM      5  C4  UNL d   1       0.987   1.276  -0.065  0.00  0.00     0.162 A 
ATOM      6  C5  UNL d   1       0.203   2.415   0.089  0.00  0.00     0.062 A 
ATOM      7  F   UNL d   1       0.739   3.628  -0.108  0.00  0.00    -0.097 F 
ATOM      8  F1  UNL d   1       2.276   1.417  -0.409  0.00  0.00    -0.096 F 
ATOM      9  I   UNL d   1       1.609  -1.696  -0.090  0.00  0.00    -0.060 I 
ATOM     10  F2  UNL d   1      -1.467  -1.301   0.699  0.00  0.00    -0.096 F 
ATOM     11  F3  UNL d   1      -2.978   0.927   0.992  0.00  0.00    -0.097 F 
ATOM     12  F4  UNL d   1      -1.888   3.396   0.591  0.00  0.00    -0.092 F 
ENDROOT
TORSDOF 0
ENDMDL
