MODEL 1
REMARK minimizedAffinity 1.66119742
REMARK minimizedRMSD -1
REMARK  0 active torsions:
REMARK  status: ('A' for Active; 'I' for Inactive)
ROOT
ATOM      1  C   UNL d   1       0.039   2.220  -0.274  0.00  0.00     0.124 A 
ATOM      2  C1  UNL d   1       0.723   1.203  -0.926  0.00  0.00     0.062 A 
ATOM      3  C2  UNL d   1       0.351  -0.125  -0.733  0.00  0.00     0.162 A 
ATOM      4  C3  UNL d   1      -0.710  -0.443   0.114  0.00  0.00    -0.034 A 
ATOM      5  C4  UNL d   1      -1.392   0.586   0.767  0.00  0.00     0.162 A 
ATOM      6  C5  UNL d   1      -1.017   1.911   0.571  0.00  0.00     0.062 A 
ATOM      7  F   UNL d   1      -1.678   2.892   1.201  0.00  0.00    -0.097 F 
ATOM      8  F1  UNL d   1      -2.417   0.315   1.588  0.00  0.00    -0.096 F 
ATOM      9  I   UNL d   1      -1.268  -2.427   0.405  0.00  0.00    -0.060 I 
ATOM     10  F2  UNL d   1       1.029  -1.087  -1.376  0.00  0.00    -0.096 F 
ATOM     11  F3  UNL d   1       1.744   1.499  -1.742  0.00  0.00    -0.097 F 
ATOM     12  F4  UNL d   1       0.400   3.497  -0.460  0.00  0.00    -0.092 F 
ENDROOT
TORSDOF 0
ENDMDL
