MODEL 1
REMARK minimizedAffinity -0.318339258
REMARK minimizedRMSD -1
REMARK  0 active torsions:
REMARK  status: ('A' for Active; 'I' for Inactive)
ROOT
ATOM      1  C   UNL d   1       0.291   1.966   0.030  0.00  0.00     0.124 A 
ATOM      2  C1  UNL d   1       1.243   0.978  -0.181  0.00  0.00     0.062 A 
ATOM      3  C2  UNL d   1       0.903  -0.364  -0.035  0.00  0.00     0.162 A 
ATOM      4  C3  UNL d   1      -0.396  -0.726   0.323  0.00  0.00    -0.034 A 
ATOM      5  C4  UNL d   1      -1.347   0.273   0.534  0.00  0.00     0.162 A 
ATOM      6  C5  UNL d   1      -1.003   1.613   0.387  0.00  0.00     0.062 A 
ATOM      7  F   UNL d   1      -1.924   2.566   0.592  0.00  0.00    -0.097 F 
ATOM      8  F1  UNL d   1      -2.605  -0.040   0.879  0.00  0.00    -0.096 F 
ATOM      9  I   UNL d   1      -0.908  -2.731   0.541  0.00  0.00    -0.060 I 
ATOM     10  F2  UNL d   1       1.843  -1.297  -0.245  0.00  0.00    -0.096 F 
ATOM     11  F3  UNL d   1       2.494   1.317  -0.525  0.00  0.00    -0.097 F 
ATOM     12  F4  UNL d   1       0.621   3.257  -0.109  0.00  0.00    -0.092 F 
ENDROOT
TORSDOF 0
ENDMDL
