MODEL 1
REMARK minimizedAffinity -2.42875075
REMARK minimizedRMSD -1
REMARK  0 active torsions:
REMARK  status: ('A' for Active; 'I' for Inactive)
ROOT
ATOM      1  C   UNL d   1       0.657  -0.640   1.337  0.00  0.00     0.124 A 
ATOM      2  C1  UNL d   1      -0.398   0.258   1.409  0.00  0.00     0.062 A 
ATOM      3  C2  UNL d   1      -0.220   1.581   1.017  0.00  0.00     0.162 A 
ATOM      4  C3  UNL d   1       1.020   2.015   0.547  0.00  0.00    -0.034 A 
ATOM      5  C4  UNL d   1       2.077   1.106   0.478  0.00  0.00     0.162 A 
ATOM      6  C5  UNL d   1       1.894  -0.216   0.872  0.00  0.00     0.062 A 
ATOM      7  F   UNL d   1       2.915  -1.082   0.802  0.00  0.00    -0.097 F 
ATOM      8  F1  UNL d   1       3.283   1.489   0.032  0.00  0.00    -0.096 F 
ATOM      9  I   UNL d   1       1.291   3.993  -0.041  0.00  0.00    -0.060 I 
ATOM     10  F2  UNL d   1      -1.258   2.427   1.097  0.00  0.00    -0.096 F 
ATOM     11  F3  UNL d   1      -1.594  -0.150   1.860  0.00  0.00    -0.097 F 
ATOM     12  F4  UNL d   1       0.483  -1.913   1.717  0.00  0.00    -0.092 F 
ENDROOT
TORSDOF 0
ENDMDL
