MODEL 1
REMARK minimizedAffinity -0.858813286
REMARK minimizedRMSD -1
REMARK  0 active torsions:
REMARK  status: ('A' for Active; 'I' for Inactive)
ROOT
ATOM      1  C   UNL d   1       1.185   2.258   0.716  0.00  0.00     0.124 A 
ATOM      2  C1  UNL d   1      -0.106   2.237   0.209  0.00  0.00     0.062 A 
ATOM      3  C2  UNL d   1      -0.756   1.024  -0.002  0.00  0.00     0.162 A 
ATOM      4  C3  UNL d   1      -0.115  -0.178   0.295  0.00  0.00    -0.034 A 
ATOM      5  C4  UNL d   1       1.185  -0.149   0.804  0.00  0.00     0.162 A 
ATOM      6  C5  UNL d   1       1.830   1.065   1.013  0.00  0.00     0.062 A 
ATOM      7  F   UNL d   1       3.078   1.084   1.503  0.00  0.00    -0.097 F 
ATOM      8  F1  UNL d   1       1.831  -1.287   1.100  0.00  0.00    -0.096 F 
ATOM      9  I   UNL d   1      -1.083  -1.994  -0.019  0.00  0.00    -0.060 I 
ATOM     10  F2  UNL d   1      -2.004   1.034  -0.493  0.00  0.00    -0.096 F 
ATOM     11  F3  UNL d   1      -0.731   3.388  -0.079  0.00  0.00    -0.097 F 
ATOM     12  F4  UNL d   1       1.808   3.426   0.917  0.00  0.00    -0.092 F 
ENDROOT
TORSDOF 0
ENDMDL
