MODEL 1
REMARK minimizedAffinity 1.28215063
REMARK minimizedRMSD -1
REMARK  0 active torsions:
REMARK  status: ('A' for Active; 'I' for Inactive)
ROOT
ATOM      1  C   UNL d   1       0.488   2.973   0.660  0.00  0.00     0.124 A 
ATOM      2  C1  UNL d   1       1.094   2.133  -0.264  0.00  0.00     0.062 A 
ATOM      3  C2  UNL d   1       0.599   0.849  -0.471  0.00  0.00     0.162 A 
ATOM      4  C3  UNL d   1      -0.508   0.396   0.246  0.00  0.00    -0.034 A 
ATOM      5  C4  UNL d   1      -1.111   1.247   1.175  0.00  0.00     0.162 A 
ATOM      6  C5  UNL d   1      -0.613   2.530   1.378  0.00  0.00     0.062 A 
ATOM      7  F   UNL d   1      -1.199   3.340   2.272  0.00  0.00    -0.097 F 
ATOM      8  F1  UNL d   1      -2.177   0.844   1.882  0.00  0.00    -0.096 F 
ATOM      9  I   UNL d   1      -1.251  -1.523  -0.061  0.00  0.00    -0.060 I 
ATOM     10  F2  UNL d   1       1.204   0.058  -1.370  0.00  0.00    -0.096 F 
ATOM     11  F3  UNL d   1       2.159   2.559  -0.958  0.00  0.00    -0.097 F 
ATOM     12  F4  UNL d   1       0.967   4.208   0.858  0.00  0.00    -0.092 F 
ENDROOT
TORSDOF 0
ENDMDL
