MODEL 1
REMARK minimizedAffinity 2.86418891
REMARK minimizedRMSD -1
REMARK  0 active torsions:
REMARK  status: ('A' for Active; 'I' for Inactive)
ROOT
ATOM      1  C   UNL d   1       1.082   2.251   1.478  0.00  0.00     0.124 A 
ATOM      2  C1  UNL d   1       1.943   1.254   1.041  0.00  0.00     0.062 A 
ATOM      3  C2  UNL d   1       1.438   0.116   0.418  0.00  0.00     0.162 A 
ATOM      4  C3  UNL d   1       0.064  -0.030   0.226  0.00  0.00    -0.034 A 
ATOM      5  C4  UNL d   1      -0.796   0.976   0.669  0.00  0.00     0.162 A 
ATOM      6  C5  UNL d   1      -0.286   2.111   1.291  0.00  0.00     0.062 A 
ATOM      7  F   UNL d   1      -1.120   3.073   1.713  0.00  0.00    -0.097 F 
ATOM      8  F1  UNL d   1      -2.122   0.868   0.501  0.00  0.00    -0.096 F 
ATOM      9  I   UNL d   1      -0.694  -1.730  -0.706  0.00  0.00    -0.060 I 
ATOM     10  F2  UNL d   1       2.294  -0.831   0.006  0.00  0.00    -0.096 F 
ATOM     11  F3  UNL d   1       3.265   1.386   1.221  0.00  0.00    -0.097 F 
ATOM     12  F4  UNL d   1       1.570   3.344   2.078  0.00  0.00    -0.092 F 
ENDROOT
TORSDOF 0
ENDMDL
