MODEL 1
REMARK minimizedAffinity -0.498415023
REMARK minimizedRMSD -1
REMARK  0 active torsions:
REMARK  status: ('A' for Active; 'I' for Inactive)
ROOT
ATOM      1  C   UNL d   1       0.043   2.720  -0.012  0.00  0.00     0.124 A 
ATOM      2  C1  UNL d   1      -0.385   1.943   1.055  0.00  0.00     0.062 A 
ATOM      3  C2  UNL d   1      -0.588   0.576   0.889  0.00  0.00     0.162 A 
ATOM      4  C3  UNL d   1      -0.364  -0.023  -0.351  0.00  0.00    -0.034 A 
ATOM      5  C4  UNL d   1       0.065   0.765  -1.420  0.00  0.00     0.162 A 
ATOM      6  C5  UNL d   1       0.267   2.131  -1.249  0.00  0.00     0.062 A 
ATOM      7  F   UNL d   1       0.680   2.880  -2.281  0.00  0.00    -0.097 F 
ATOM      8  F1  UNL d   1       0.290   0.221  -2.625  0.00  0.00    -0.096 F 
ATOM      9  I   UNL d   1      -0.667  -2.067  -0.603  0.00  0.00    -0.060 I 
ATOM     10  F2  UNL d   1      -1.001  -0.151   1.938  0.00  0.00    -0.096 F 
ATOM     11  F3  UNL d   1      -0.603   2.510   2.250  0.00  0.00    -0.097 F 
ATOM     12  F4  UNL d   1       0.237   4.035   0.150  0.00  0.00    -0.092 F 
ENDROOT
TORSDOF 0
ENDMDL
