MODEL 1
REMARK minimizedAffinity -0.171856761
REMARK minimizedRMSD -1
REMARK  0 active torsions:
REMARK  status: ('A' for Active; 'I' for Inactive)
ROOT
ATOM      1  C   UNL d   1       1.260  -1.191   0.780  0.00  0.00     0.124 A 
ATOM      2  C1  UNL d   1      -0.043  -0.779   0.539  0.00  0.00     0.062 A 
ATOM      3  C2  UNL d   1      -0.297   0.512   0.086  0.00  0.00     0.162 A 
ATOM      4  C3  UNL d   1       0.756   1.401  -0.131  0.00  0.00    -0.034 A 
ATOM      5  C4  UNL d   1       2.064   0.980   0.115  0.00  0.00     0.162 A 
ATOM      6  C5  UNL d   1       2.312  -0.312   0.567  0.00  0.00     0.062 A 
ATOM      7  F   UNL d   1       3.572  -0.708   0.800  0.00  0.00    -0.097 F 
ATOM      8  F1  UNL d   1       3.100   1.809  -0.083  0.00  0.00    -0.096 F 
ATOM      9  I   UNL d   1       0.381   3.333  -0.808  0.00  0.00    -0.060 I 
ATOM     10  F2  UNL d   1      -1.566   0.883  -0.139  0.00  0.00    -0.096 F 
ATOM     11  F3  UNL d   1      -1.062  -1.627   0.744  0.00  0.00    -0.097 F 
ATOM     12  F4  UNL d   1       1.501  -2.434   1.217  0.00  0.00    -0.092 F 
ENDROOT
TORSDOF 0
ENDMDL
