MODEL 1
REMARK minimizedAffinity 2.31245327
REMARK minimizedRMSD -1
REMARK  0 active torsions:
REMARK  status: ('A' for Active; 'I' for Inactive)
ROOT
ATOM      1  C   UNL d   1       0.548   1.624   0.516  0.00  0.00     0.124 A 
ATOM      2  C1  UNL d   1       1.405   0.574   0.218  0.00  0.00     0.062 A 
ATOM      3  C2  UNL d   1       0.923  -0.730   0.167  0.00  0.00     0.162 A 
ATOM      4  C3  UNL d   1      -0.424  -0.993   0.414  0.00  0.00    -0.034 A 
ATOM      5  C4  UNL d   1      -1.280   0.068   0.714  0.00  0.00     0.162 A 
ATOM      6  C5  UNL d   1      -0.794   1.370   0.764  0.00  0.00     0.062 A 
ATOM      7  F   UNL d   1      -1.624   2.383   1.052  0.00  0.00    -0.097 F 
ATOM      8  F1  UNL d   1      -2.582  -0.149   0.957  0.00  0.00    -0.096 F 
ATOM      9  I   UNL d   1      -1.149  -2.943   0.340  0.00  0.00    -0.060 I 
ATOM     10  F2  UNL d   1       1.775  -1.725  -0.123  0.00  0.00    -0.096 F 
ATOM     11  F3  UNL d   1       2.702   0.817  -0.021  0.00  0.00    -0.097 F 
ATOM     12  F4  UNL d   1       1.014   2.879   0.565  0.00  0.00    -0.092 F 
ENDROOT
TORSDOF 0
ENDMDL
