MODEL 1
REMARK minimizedAffinity -3.19379234
REMARK minimizedRMSD -1
REMARK  0 active torsions:
REMARK  status: ('A' for Active; 'I' for Inactive)
ROOT
ATOM      1  C   UNL d   1       0.701   2.540   0.121  0.00  0.00     0.124 A 
ATOM      2  C1  UNL d   1       1.465   1.493  -0.375  0.00  0.00     0.062 A 
ATOM      3  C2  UNL d   1       0.920   0.217  -0.480  0.00  0.00     0.162 A 
ATOM      4  C3  UNL d   1      -0.398  -0.020  -0.089  0.00  0.00    -0.034 A 
ATOM      5  C4  UNL d   1      -1.160   1.038   0.410  0.00  0.00     0.162 A 
ATOM      6  C5  UNL d   1      -0.611   2.312   0.513  0.00  0.00     0.062 A 
ATOM      7  F   UNL d   1      -1.351   3.322   0.992  0.00  0.00    -0.097 F 
ATOM      8  F1  UNL d   1      -2.431   0.846   0.795  0.00  0.00    -0.096 F 
ATOM      9  I   UNL d   1      -1.217  -1.927  -0.244  0.00  0.00    -0.060 I 
ATOM     10  F2  UNL d   1       1.681  -0.776  -0.963  0.00  0.00    -0.096 F 
ATOM     11  F3  UNL d   1       2.733   1.711  -0.754  0.00  0.00    -0.097 F 
ATOM     12  F4  UNL d   1       1.228   3.767   0.222  0.00  0.00    -0.092 F 
ENDROOT
TORSDOF 0
ENDMDL
