MODEL 1
REMARK minimizedAffinity 2.97097969
REMARK minimizedRMSD -1
REMARK  0 active torsions:
REMARK  status: ('A' for Active; 'I' for Inactive)
ROOT
ATOM      1  C   UNL d   1      -1.107   0.611   0.322  0.00  0.00     0.124 A 
ATOM      2  C1  UNL d   1      -0.301  -0.370  -0.241  0.00  0.00     0.062 A 
ATOM      3  C2  UNL d   1       1.085  -0.274  -0.150  0.00  0.00     0.162 A 
ATOM      4  C3  UNL d   1       1.674   0.807   0.506  0.00  0.00    -0.034 A 
ATOM      5  C4  UNL d   1       0.857   1.789   1.069  0.00  0.00     0.162 A 
ATOM      6  C5  UNL d   1      -0.527   1.689   0.976  0.00  0.00     0.062 A 
ATOM      7  F   UNL d   1      -1.304   2.637   1.520  0.00  0.00    -0.097 F 
ATOM      8  F1  UNL d   1       1.391   2.841   1.707  0.00  0.00    -0.096 F 
ATOM      9  I   UNL d   1       3.746   0.954   0.643  0.00  0.00    -0.060 I 
ATOM     10  F2  UNL d   1       1.839  -1.235  -0.703  0.00  0.00    -0.096 F 
ATOM     11  F3  UNL d   1      -0.858  -1.412  -0.874  0.00  0.00    -0.097 F 
ATOM     12  F4  UNL d   1      -2.439   0.516   0.233  0.00  0.00    -0.092 F 
ENDROOT
TORSDOF 0
ENDMDL
