MODEL 1
REMARK minimizedAffinity 0.348419607
REMARK minimizedRMSD -1
REMARK  0 active torsions:
REMARK  status: ('A' for Active; 'I' for Inactive)
ROOT
ATOM      1  C   UNL d   1       1.726   1.232  -0.382  0.00  0.00     0.124 A 
ATOM      2  C1  UNL d   1       0.610   1.159  -1.204  0.00  0.00     0.062 A 
ATOM      3  C2  UNL d   1      -0.255   0.072  -1.115  0.00  0.00     0.162 A 
ATOM      4  C3  UNL d   1      -0.008  -0.951  -0.199  0.00  0.00    -0.034 A 
ATOM      5  C4  UNL d   1       1.116  -0.870   0.624  0.00  0.00     0.162 A 
ATOM      6  C5  UNL d   1       1.978   0.218   0.531  0.00  0.00     0.062 A 
ATOM      7  F   UNL d   1       3.055   0.287   1.326  0.00  0.00    -0.097 F 
ATOM      8  F1  UNL d   1       1.383  -1.836   1.515  0.00  0.00    -0.096 F 
ATOM      9  I   UNL d   1      -1.299  -2.577  -0.063  0.00  0.00    -0.060 I 
ATOM     10  F2  UNL d   1      -1.326   0.028  -1.922  0.00  0.00    -0.096 F 
ATOM     11  F3  UNL d   1       0.365   2.137  -2.088  0.00  0.00    -0.097 F 
ATOM     12  F4  UNL d   1       2.557   2.278  -0.470  0.00  0.00    -0.092 F 
ENDROOT
TORSDOF 0
ENDMDL
