MODEL 1
REMARK minimizedAffinity -2.0074594
REMARK minimizedRMSD -1
REMARK  0 active torsions:
REMARK  status: ('A' for Active; 'I' for Inactive)
ROOT
ATOM      1  C   UNL d   1      -0.744   1.616   0.434  0.00  0.00     0.124 A 
ATOM      2  C1  UNL d   1      -0.189   1.759  -0.830  0.00  0.00     0.062 A 
ATOM      3  C2  UNL d   1       0.202   0.637  -1.554  0.00  0.00     0.162 A 
ATOM      4  C3  UNL d   1       0.039  -0.640  -1.017  0.00  0.00    -0.034 A 
ATOM      5  C4  UNL d   1      -0.520  -0.776   0.256  0.00  0.00     0.162 A 
ATOM      6  C5  UNL d   1      -0.909   0.349   0.975  0.00  0.00     0.062 A 
ATOM      7  F   UNL d   1      -1.445   0.208   2.197  0.00  0.00    -0.097 F 
ATOM      8  F1  UNL d   1      -0.691  -1.989   0.803  0.00  0.00    -0.096 F 
ATOM      9  I   UNL d   1       0.622  -2.321  -2.096  0.00  0.00    -0.060 I 
ATOM     10  F2  UNL d   1       0.736   0.805  -2.773  0.00  0.00    -0.096 F 
ATOM     11  F3  UNL d   1      -0.027   2.982  -1.355  0.00  0.00    -0.097 F 
ATOM     12  F4  UNL d   1      -1.118   2.698   1.129  0.00  0.00    -0.092 F 
ENDROOT
TORSDOF 0
ENDMDL
