MODEL 1
REMARK minimizedAffinity -3.9446609
REMARK minimizedRMSD -1
REMARK  3 active torsions:
REMARK  status: ('A' for Active; 'I' for Inactive)
REMARK    1  A    between atoms: C3'_2  and  C2'_3 
REMARK    2  A    between atoms: C2'_3  and  C1'_4 
REMARK    3  A    between atoms: C1'_4  and  C1_5 
ROOT
ATOM      1  C1  N4B d   1       0.217  -0.095   0.236  0.00  0.00    -0.075 A 
ATOM      2  C2  N4B d   1      -0.302   0.852   1.146  0.00  0.00     0.002 A 
ATOM      3  C3  N4B d   1       0.534   1.767   1.737  0.00  0.00     0.002 A 
ATOM      4  C4  N4B d   1       1.890   1.743   1.449  0.00  0.00    -0.004 A 
ATOM      5  C5  N4B d   1       2.380   0.842   0.549  0.00  0.00     0.002 A 
ATOM      6  C6  N4B d   1       1.551  -0.081  -0.055  0.00  0.00     0.002 A 
ENDROOT
BRANCH   1   7
ATOM      7  C1' N4B d   1      -0.643  -1.170  -0.370  0.00  0.00     0.057 C 
BRANCH   7   8
ATOM      8  C2' N4B d   1      -1.578  -0.542  -1.399  0.00  0.00     0.009 C 
BRANCH   8   9
ATOM      9  C3' N4B d   1      -2.239  -1.590  -2.279  0.00  0.00     0.004 C 
ATOM     10  C4' N4B d   1      -2.092  -1.296  -3.742  0.00  0.00     0.003 C 
ENDBRANCH   8   9
ENDBRANCH   7   8
ENDBRANCH   1   7
TORSDOF 3
ENDMDL
