MODEL 1
REMARK minimizedAffinity -3.79072571
REMARK minimizedRMSD -1
REMARK  3 active torsions:
REMARK  status: ('A' for Active; 'I' for Inactive)
REMARK    1  A    between atoms: C3'_2  and  C2'_3 
REMARK    2  A    between atoms: C2'_3  and  C1'_4 
REMARK    3  A    between atoms: C1'_4  and  C1_5 
ROOT
ATOM      1  C1  N4B d   1      -0.476   0.327  -0.140  0.00  0.00    -0.075 A 
ATOM      2  C2  N4B d   1      -1.048   0.931   1.001  0.00  0.00     0.002 A 
ATOM      3  C3  N4B d   1      -0.240   1.392   2.012  0.00  0.00     0.002 A 
ATOM      4  C4  N4B d   1       1.135   1.242   1.913  0.00  0.00    -0.004 A 
ATOM      5  C5  N4B d   1       1.681   0.680   0.796  0.00  0.00     0.002 A 
ATOM      6  C6  N4B d   1       0.882   0.217  -0.229  0.00  0.00     0.002 A 
ENDROOT
BRANCH   1   7
ATOM      7  C1' N4B d   1      -1.322  -0.269  -1.232  0.00  0.00     0.057 C 
BRANCH   7   8
ATOM      8  C2' N4B d   1      -1.338  -1.787  -1.080  0.00  0.00     0.009 C 
BRANCH   8   9
ATOM      9  C3' N4B d   1      -2.370  -2.438  -1.986  0.00  0.00     0.004 C 
ATOM     10  C4' N4B d   1      -2.489  -1.754  -3.315  0.00  0.00     0.003 C 
ENDBRANCH   8   9
ENDBRANCH   7   8
ENDBRANCH   1   7
TORSDOF 3
ENDMDL
