MODEL 1
REMARK minimizedAffinity 0.39204973
REMARK minimizedRMSD -1
REMARK  3 active torsions:
REMARK  status: ('A' for Active; 'I' for Inactive)
REMARK    1  A    between atoms: C3'_2  and  C2'_3 
REMARK    2  A    between atoms: C2'_3  and  C1'_4 
REMARK    3  A    between atoms: C1'_4  and  C1_5 
ROOT
ATOM      1  C1  N4B d   1      -0.263   0.364  -1.071  0.00  0.00    -0.075 A 
ATOM      2  C2  N4B d   1      -1.083   1.439  -0.664  0.00  0.00     0.002 A 
ATOM      3  C3  N4B d   1      -1.249   1.707   0.673  0.00  0.00     0.002 A 
ATOM      4  C4  N4B d   1      -0.624   0.905   1.616  0.00  0.00    -0.004 A 
ATOM      5  C5  N4B d   1       0.186  -0.116   1.213  0.00  0.00     0.002 A 
ATOM      6  C6  N4B d   1       0.366  -0.394  -0.127  0.00  0.00     0.002 A 
ENDROOT
BRANCH   1   7
ATOM      7  C1' N4B d   1      -0.120  -0.021  -2.519  0.00  0.00     0.057 C 
BRANCH   7   8
ATOM      8  C2' N4B d   1      -1.506  -0.151  -3.142  0.00  0.00     0.009 C 
BRANCH   8   9
ATOM      9  C3' N4B d   1      -2.208  -1.426  -2.706  0.00  0.00     0.004 C 
ATOM     10  C4' N4B d   1      -3.684  -1.241  -2.516  0.00  0.00     0.003 C 
ENDBRANCH   8   9
ENDBRANCH   7   8
ENDBRANCH   1   7
TORSDOF 3
ENDMDL
