MODEL 1
REMARK minimizedAffinity -1.10388505
REMARK minimizedRMSD -1
REMARK  3 active torsions:
REMARK  status: ('A' for Active; 'I' for Inactive)
REMARK    1  A    between atoms: C3'_2  and  C2'_3 
REMARK    2  A    between atoms: C2'_3  and  C1'_4 
REMARK    3  A    between atoms: C1'_4  and  C1_5 
ROOT
ATOM      1  C1  N4B d   1      -0.609  -0.772  -0.258  0.00  0.00    -0.075 A 
ATOM      2  C2  N4B d   1      -1.061   0.530  -0.564  0.00  0.00     0.002 A 
ATOM      3  C3  N4B d   1      -1.227   1.454   0.439  0.00  0.00     0.002 A 
ATOM      4  C4  N4B d   1      -0.966   1.094   1.752  0.00  0.00    -0.004 A 
ATOM      5  C5  N4B d   1      -0.504  -0.158   2.037  0.00  0.00     0.002 A 
ATOM      6  C6  N4B d   1      -0.329  -1.095   1.039  0.00  0.00     0.002 A 
ENDROOT
BRANCH   1   7
ATOM      7  C1' N4B d   1      -0.494  -1.841  -1.309  0.00  0.00     0.057 C 
BRANCH   7   8
ATOM      8  C2' N4B d   1      -1.888  -2.186  -1.826  0.00  0.00     0.009 C 
BRANCH   8   9
ATOM      9  C3' N4B d   1      -1.976  -2.077  -3.338  0.00  0.00     0.004 C 
ATOM     10  C4' N4B d   1      -2.530  -0.760  -3.794  0.00  0.00     0.003 C 
ENDBRANCH   8   9
ENDBRANCH   7   8
ENDBRANCH   1   7
TORSDOF 3
ENDMDL
