MODEL 1
REMARK minimizedAffinity -3.66579151
REMARK minimizedRMSD -1
REMARK  3 active torsions:
REMARK  status: ('A' for Active; 'I' for Inactive)
REMARK    1  A    between atoms: C3'_2  and  C2'_3 
REMARK    2  A    between atoms: C2'_3  and  C1'_4 
REMARK    3  A    between atoms: C1'_4  and  C1_5 
ROOT
ATOM      1  C1  N4B d   1      -0.432   0.659   0.193  0.00  0.00    -0.075 A 
ATOM      2  C2  N4B d   1       0.962   0.438   0.224  0.00  0.00     0.002 A 
ATOM      3  C3  N4B d   1       1.726   1.011   1.212  0.00  0.00     0.002 A 
ATOM      4  C4  N4B d   1       1.122   1.820   2.163  0.00  0.00    -0.004 A 
ATOM      5  C5  N4B d   1      -0.229   2.007   2.140  0.00  0.00     0.002 A 
ATOM      6  C6  N4B d   1      -1.009   1.434   1.156  0.00  0.00     0.002 A 
ENDROOT
BRANCH   1   7
ATOM      7  C1' N4B d   1      -1.296   0.124  -0.917  0.00  0.00     0.057 C 
BRANCH   7   8
ATOM      8  C2' N4B d   1      -0.968  -1.350  -1.140  0.00  0.00     0.009 C 
BRANCH   8   9
ATOM      9  C3' N4B d   1      -1.638  -1.898  -2.389  0.00  0.00     0.004 C 
ATOM     10  C4' N4B d   1      -3.133  -1.795  -2.339  0.00  0.00     0.003 C 
ENDBRANCH   8   9
ENDBRANCH   7   8
ENDBRANCH   1   7
TORSDOF 3
ENDMDL
