MODEL 1
REMARK minimizedAffinity -2.50947547
REMARK minimizedRMSD -1
REMARK  3 active torsions:
REMARK  status: ('A' for Active; 'I' for Inactive)
REMARK    1  A    between atoms: C3'_2  and  C2'_3 
REMARK    2  A    between atoms: C2'_3  and  C1'_4 
REMARK    3  A    between atoms: C1'_4  and  C1_5 
ROOT
ATOM      1  C1  N4B d   1      -0.855  -0.819  -1.120  0.00  0.00    -0.075 A 
ATOM      2  C2  N4B d   1      -1.966  -1.647  -0.848  0.00  0.00     0.002 A 
ATOM      3  C3  N4B d   1      -2.871  -1.930  -1.842  0.00  0.00     0.002 A 
ATOM      4  C4  N4B d   1      -2.696  -1.384  -3.104  0.00  0.00    -0.004 A 
ATOM      5  C5  N4B d   1      -1.606  -0.606  -3.365  0.00  0.00     0.002 A 
ATOM      6  C6  N4B d   1      -0.687  -0.316  -2.377  0.00  0.00     0.002 A 
ENDROOT
BRANCH   1   7
ATOM      7  C1' N4B d   1       0.114  -0.411  -0.043  0.00  0.00     0.057 C 
BRANCH   7   8
ATOM      8  C2' N4B d   1      -0.656  -0.140   1.246  0.00  0.00     0.009 C 
BRANCH   8   9
ATOM      9  C3' N4B d   1      -1.150   1.294   1.323  0.00  0.00     0.004 C 
ATOM     10  C4' N4B d   1      -0.059   2.268   1.654  0.00  0.00     0.003 C 
ENDBRANCH   8   9
ENDBRANCH   7   8
ENDBRANCH   1   7
TORSDOF 3
ENDMDL
