MODEL 1
REMARK minimizedAffinity -2.30996633
REMARK minimizedRMSD -1
REMARK  3 active torsions:
REMARK  status: ('A' for Active; 'I' for Inactive)
REMARK    1  A    between atoms: C3'_2  and  C2'_3 
REMARK    2  A    between atoms: C2'_3  and  C1'_4 
REMARK    3  A    between atoms: C1'_4  and  C1_5 
ROOT
ATOM      1  C1  N4B d   1      -0.491  -0.851  -0.851  0.00  0.00    -0.075 A 
ATOM      2  C2  N4B d   1      -1.635  -1.642  -0.607  0.00  0.00     0.002 A 
ATOM      3  C3  N4B d   1      -2.381  -2.112  -1.660  0.00  0.00     0.002 A 
ATOM      4  C4  N4B d   1      -2.014  -1.790  -2.958  0.00  0.00    -0.004 A 
ATOM      5  C5  N4B d   1      -0.893  -1.047  -3.186  0.00  0.00     0.002 A 
ATOM      6  C6  N4B d   1      -0.132  -0.571  -2.137  0.00  0.00     0.002 A 
ENDROOT
BRANCH   1   7
ATOM      7  C1' N4B d   1       0.307  -0.243   0.270  0.00  0.00     0.057 C 
BRANCH   7   8
ATOM      8  C2' N4B d   1      -0.611   0.629   1.123  0.00  0.00     0.009 C 
BRANCH   8   9
ATOM      9  C3' N4B d   1       0.156   1.722   1.847  0.00  0.00     0.004 C 
ATOM     10  C4' N4B d   1       1.547   1.306   2.222  0.00  0.00     0.003 C 
ENDBRANCH   8   9
ENDBRANCH   7   8
ENDBRANCH   1   7
TORSDOF 3
ENDMDL
