MODEL 1
REMARK minimizedAffinity -2.73526621
REMARK minimizedRMSD -1
REMARK  3 active torsions:
REMARK  status: ('A' for Active; 'I' for Inactive)
REMARK    1  A    between atoms: C3'_2  and  C2'_3 
REMARK    2  A    between atoms: C2'_3  and  C1'_4 
REMARK    3  A    between atoms: C1'_4  and  C1_5 
ROOT
ATOM      1  C1  N4B d   1      -0.779  -1.141  -0.577  0.00  0.00    -0.075 A 
ATOM      2  C2  N4B d   1      -2.041  -1.305  -1.190  0.00  0.00     0.002 A 
ATOM      3  C3  N4B d   1      -2.131  -1.888  -2.430  0.00  0.00     0.002 A 
ATOM      4  C4  N4B d   1      -0.977  -2.295  -3.082  0.00  0.00    -0.004 A 
ATOM      5  C5  N4B d   1       0.236  -2.156  -2.473  0.00  0.00     0.002 A 
ATOM      6  C6  N4B d   1       0.341  -1.576  -1.225  0.00  0.00     0.002 A 
ENDROOT
BRANCH   1   7
ATOM      7  C1' N4B d   1      -0.622  -0.432   0.740  0.00  0.00     0.057 C 
BRANCH   7   8
ATOM      8  C2' N4B d   1       0.476   0.621   0.615  0.00  0.00     0.009 C 
BRANCH   8   9
ATOM      9  C3' N4B d   1       0.721   1.345   1.928  0.00  0.00     0.004 C 
ATOM     10  C4' N4B d   1      -0.144   2.559   2.092  0.00  0.00     0.003 C 
ENDBRANCH   8   9
ENDBRANCH   7   8
ENDBRANCH   1   7
TORSDOF 3
ENDMDL
