MODEL 1
REMARK minimizedAffinity 8.84414387
REMARK minimizedRMSD -1
REMARK  1 active torsions:
REMARK  status: ('A' for Active; 'I' for Inactive)
REMARK    1  A    between atoms: C1_2  and  C2_3 
ROOT
ATOM      1  C2  UNL d   1       0.247   0.492  -0.722  0.00  0.00    -0.081 A 
ATOM      2  C3  UNL d   1      -0.864  -0.123  -0.133  0.00  0.00     0.006 A 
ATOM      3  C4  UNL d   1      -0.811  -1.466   0.248  0.00  0.00     0.002 A 
ATOM      4  C5  UNL d   1       0.356  -2.213   0.054  0.00  0.00    -0.080 A 
ATOM      5  C6  UNL d   1       0.436  -3.647   0.486  0.00  0.00     0.076 C 
ATOM      6  C7  UNL d   1       1.461  -1.603  -0.550  0.00  0.00     0.002 A 
ATOM      7  C8  UNL d   1       1.408  -0.261  -0.932  0.00  0.00     0.006 A 
ENDROOT
BRANCH   1   8
ATOM      8  C1  UNL d   1       0.215   1.957  -1.075  0.00  0.00     0.054 C 
ATOM      9  C   UNL d   1       1.212   2.749  -0.242  0.00  0.00     0.018 C 
ENDBRANCH   1   8
TORSDOF 1
ENDMDL
