MODEL 1
REMARK minimizedAffinity 3.52980781
REMARK minimizedRMSD -1
REMARK  1 active torsions:
REMARK  status: ('A' for Active; 'I' for Inactive)
REMARK    1  A    between atoms: C1_2  and  C2_3 
ROOT
ATOM      1  C2  UNL d   1       1.084  -1.104  -0.749  0.00  0.00    -0.081 A 
ATOM      2  C3  UNL d   1       0.732   0.231  -0.979  0.00  0.00     0.006 A 
ATOM      3  C4  UNL d   1       0.939   0.812  -2.233  0.00  0.00     0.002 A 
ATOM      4  C5  UNL d   1       1.493   0.065  -3.279  0.00  0.00    -0.080 A 
ATOM      5  C6  UNL d   1       1.691   0.668  -4.638  0.00  0.00     0.076 C 
ATOM      6  C7  UNL d   1       1.860  -1.264  -3.044  0.00  0.00     0.002 A 
ATOM      7  C8  UNL d   1       1.655  -1.845  -1.790  0.00  0.00     0.006 A 
ENDROOT
BRANCH   1   8
ATOM      8  C1  UNL d   1       0.803  -1.752   0.583  0.00  0.00     0.054 C 
ATOM      9  C   UNL d   1       0.821  -3.270   0.474  0.00  0.00     0.018 C 
ENDBRANCH   1   8
TORSDOF 1
ENDMDL
