MODEL 1
REMARK minimizedAffinity 4.88269234
REMARK minimizedRMSD -1
REMARK  1 active torsions:
REMARK  status: ('A' for Active; 'I' for Inactive)
REMARK    1  A    between atoms: C1_2  and  C2_3 
ROOT
ATOM      1  C2  UNL d   1       1.433  -0.472  -2.573  0.00  0.00    -0.081 A 
ATOM      2  C3  UNL d   1       1.791  -1.758  -2.150  0.00  0.00     0.006 A 
ATOM      3  C4  UNL d   1       1.423  -2.215  -0.883  0.00  0.00     0.002 A 
ATOM      4  C5  UNL d   1       0.684  -1.398  -0.021  0.00  0.00    -0.080 A 
ATOM      5  C6  UNL d   1       0.256  -1.888   1.331  0.00  0.00     0.076 C 
ATOM      6  C7  UNL d   1       0.341  -0.107  -0.436  0.00  0.00     0.002 A 
ATOM      7  C8  UNL d   1       0.709   0.351  -1.703  0.00  0.00     0.006 A 
ENDROOT
BRANCH   1   8
ATOM      8  C1  UNL d   1       1.772  -0.000  -3.964  0.00  0.00     0.054 C 
ATOM      9  C   UNL d   1       1.558   1.500  -4.106  0.00  0.00     0.018 C 
ENDBRANCH   1   8
TORSDOF 1
ENDMDL
