MODEL 1
REMARK minimizedAffinity 5.05407524
REMARK minimizedRMSD -1
REMARK  1 active torsions:
REMARK  status: ('A' for Active; 'I' for Inactive)
REMARK    1  A    between atoms: C1_2  and  C2_3 
ROOT
ATOM      1  C2  UNL d   1       0.786  -1.614  -0.697  0.00  0.00    -0.081 A 
ATOM      2  C3  UNL d   1       0.537  -0.274  -1.016  0.00  0.00     0.006 A 
ATOM      3  C4  UNL d   1       0.900   0.235  -2.266  0.00  0.00     0.002 A 
ATOM      4  C5  UNL d   1       1.510  -0.589  -3.218  0.00  0.00    -0.080 A 
ATOM      5  C6  UNL d   1       1.877  -0.063  -4.574  0.00  0.00     0.076 C 
ATOM      6  C7  UNL d   1       1.774  -1.923  -2.892  0.00  0.00     0.002 A 
ATOM      7  C8  UNL d   1       1.412  -2.433  -1.643  0.00  0.00     0.006 A 
ENDROOT
BRANCH   1   8
ATOM      8  C1  UNL d   1       0.337  -2.182   0.625  0.00  0.00     0.054 C 
ATOM      9  C   UNL d   1      -0.799  -3.178   0.443  0.00  0.00     0.018 C 
ENDBRANCH   1   8
TORSDOF 1
ENDMDL
