MODEL 1
REMARK minimizedAffinity 4.0278616
REMARK minimizedRMSD -1
REMARK  1 active torsions:
REMARK  status: ('A' for Active; 'I' for Inactive)
REMARK    1  A    between atoms: C1_2  and  C2_3 
ROOT
ATOM      1  C2  UNL d   1       0.705   1.205  -0.139  0.00  0.00    -0.081 A 
ATOM      2  C3  UNL d   1      -0.619   1.029   0.283  0.00  0.00     0.006 A 
ATOM      3  C4  UNL d   1      -1.162  -0.253   0.393  0.00  0.00     0.002 A 
ATOM      4  C5  UNL d   1      -0.390  -1.380   0.091  0.00  0.00    -0.080 A 
ATOM      5  C6  UNL d   1      -0.952  -2.763   0.234  0.00  0.00     0.076 C 
ATOM      6  C7  UNL d   1       0.927  -1.203  -0.347  0.00  0.00     0.002 A 
ATOM      7  C8  UNL d   1       1.471   0.078  -0.458  0.00  0.00     0.006 A 
ENDROOT
BRANCH   1   8
ATOM      8  C1  UNL d   1       1.314   2.583  -0.196  0.00  0.00     0.054 C 
ATOM      9  C   UNL d   1       0.907   3.418   1.009  0.00  0.00     0.018 C 
ENDBRANCH   1   8
TORSDOF 1
ENDMDL
