MODEL 1
REMARK minimizedAffinity -0.0860624015
REMARK minimizedRMSD -1
REMARK  1 active torsions:
REMARK  status: ('A' for Active; 'I' for Inactive)
REMARK    1  A    between atoms: C1_2  and  C2_3 
ROOT
ATOM      1  C2  UNL d   1       5.473  -0.518   4.751  0.00  0.00    -0.081 A 
ATOM      2  C3  UNL d   1       5.999   0.118   5.882  0.00  0.00     0.006 A 
ATOM      3  C4  UNL d   1       5.946   1.509   6.000  0.00  0.00     0.002 A 
ATOM      4  C5  UNL d   1       5.360   2.285   4.994  0.00  0.00    -0.080 A 
ATOM      5  C6  UNL d   1       5.270   3.777   5.123  0.00  0.00     0.076 C 
ATOM      6  C7  UNL d   1       4.850   1.651   3.856  0.00  0.00     0.002 A 
ATOM      7  C8  UNL d   1       4.904   0.260   3.737  0.00  0.00     0.006 A 
ENDROOT
BRANCH   1   8
ATOM      8  C1  UNL d   1       5.470  -2.022   4.650  0.00  0.00     0.054 C 
ATOM      9  C   UNL d   1       5.103  -2.665   5.980  0.00  0.00     0.018 C 
ENDBRANCH   1   8
TORSDOF 1
ENDMDL
