MODEL 1
REMARK minimizedAffinity -1.83166516
REMARK minimizedRMSD -1
REMARK  1 active torsions:
REMARK  status: ('A' for Active; 'I' for Inactive)
REMARK    1  A    between atoms: C1_2  and  C2_3 
ROOT
ATOM      1  C2  UNL d   1       1.199  -1.242  -0.863  0.00  0.00    -0.081 A 
ATOM      2  C3  UNL d   1       0.723   0.067  -1.007  0.00  0.00     0.006 A 
ATOM      3  C4  UNL d   1       0.951   0.777  -2.188  0.00  0.00     0.002 A 
ATOM      4  C5  UNL d   1       1.651   0.189  -3.246  0.00  0.00    -0.080 A 
ATOM      5  C6  UNL d   1       1.877   0.931  -4.531  0.00  0.00     0.076 C 
ATOM      6  C7  UNL d   1       2.143  -1.112  -3.096  0.00  0.00     0.002 A 
ATOM      7  C8  UNL d   1       1.916  -1.823  -1.916  0.00  0.00     0.006 A 
ENDROOT
BRANCH   1   8
ATOM      8  C1  UNL d   1       0.899  -2.034   0.384  0.00  0.00     0.054 C 
ATOM      9  C   UNL d   1      -0.312  -2.935   0.189  0.00  0.00     0.018 C 
ENDBRANCH   1   8
TORSDOF 1
ENDMDL
