MODEL 1
REMARK minimizedAffinity 3.07334781
REMARK minimizedRMSD -1
REMARK  1 active torsions:
REMARK  status: ('A' for Active; 'I' for Inactive)
REMARK    1  A    between atoms: C1_2  and  C2_3 
ROOT
ATOM      1  C2  UNL d   1       1.367  -0.547  -2.901  0.00  0.00    -0.081 A 
ATOM      2  C3  UNL d   1       1.675  -0.429  -4.262  0.00  0.00     0.006 A 
ATOM      3  C4  UNL d   1       1.716   0.826  -4.873  0.00  0.00     0.002 A 
ATOM      4  C5  UNL d   1       1.457   1.985  -4.132  0.00  0.00    -0.080 A 
ATOM      5  C6  UNL d   1       1.527   3.341  -4.768  0.00  0.00     0.076 C 
ATOM      6  C7  UNL d   1       1.133   1.865  -2.776  0.00  0.00     0.002 A 
ATOM      7  C8  UNL d   1       1.091   0.610  -2.165  0.00  0.00     0.006 A 
ENDROOT
BRANCH   1   8
ATOM      8  C1  UNL d   1       1.386  -1.895  -2.225  0.00  0.00     0.054 C 
ATOM      9  C   UNL d   1       2.475  -1.966  -1.164  0.00  0.00     0.018 C 
ENDBRANCH   1   8
TORSDOF 1
ENDMDL
