MODEL 1
REMARK minimizedAffinity -1.63100529
REMARK minimizedRMSD -1
REMARK  1 active torsions:
REMARK  status: ('A' for Active; 'I' for Inactive)
REMARK    1  A    between atoms: C1_2  and  C2_3 
ROOT
ATOM      1  C2  UNL d   1       5.394   1.443   4.735  0.00  0.00    -0.081 A 
ATOM      2  C3  UNL d   1       5.014   2.261   3.664  0.00  0.00     0.006 A 
ATOM      3  C4  UNL d   1       5.129   3.649   3.757  0.00  0.00     0.002 A 
ATOM      4  C5  UNL d   1       5.634   4.243   4.919  0.00  0.00    -0.080 A 
ATOM      5  C6  UNL d   1       5.792   5.731   5.021  0.00  0.00     0.076 C 
ATOM      6  C7  UNL d   1       5.998   3.427   5.996  0.00  0.00     0.002 A 
ATOM      7  C8  UNL d   1       5.882   2.038   5.903  0.00  0.00     0.006 A 
ENDROOT
BRANCH   1   8
ATOM      8  C1  UNL d   1       5.332  -0.058   4.613  0.00  0.00     0.054 C 
ATOM      9  C   UNL d   1       5.598  -0.734   5.950  0.00  0.00     0.018 C 
ENDBRANCH   1   8
TORSDOF 1
ENDMDL
