MODEL 1
REMARK minimizedAffinity 8.32600117
REMARK minimizedRMSD -1
REMARK  1 active torsions:
REMARK  status: ('A' for Active; 'I' for Inactive)
REMARK    1  A    between atoms: C1_2  and  C2_3 
ROOT
ATOM      1  C2  UNL d   1       2.020   1.078  -4.570  0.00  0.00    -0.081 A 
ATOM      2  C3  UNL d   1       1.260   1.874  -3.703  0.00  0.00     0.006 A 
ATOM      3  C4  UNL d   1       1.060   3.229  -3.978  0.00  0.00     0.002 A 
ATOM      4  C5  UNL d   1       1.609   3.809  -5.126  0.00  0.00    -0.080 A 
ATOM      5  C6  UNL d   1       1.377   5.255  -5.448  0.00  0.00     0.076 C 
ATOM      6  C7  UNL d   1       2.383   3.018  -5.983  0.00  0.00     0.002 A 
ATOM      7  C8  UNL d   1       2.584   1.664  -5.708  0.00  0.00     0.006 A 
ENDROOT
BRANCH   1   8
ATOM      8  C1  UNL d   1       2.183  -0.398  -4.310  0.00  0.00     0.054 C 
ATOM      9  C   UNL d   1       1.775  -0.758  -2.889  0.00  0.00     0.018 C 
ENDBRANCH   1   8
TORSDOF 1
ENDMDL
