MODEL 1
REMARK minimizedAffinity 4.27919292
REMARK minimizedRMSD -1
REMARK  1 active torsions:
REMARK  status: ('A' for Active; 'I' for Inactive)
REMARK    1  A    between atoms: C1_2  and  C2_3 
ROOT
ATOM      1  C2  UNL d   1      -1.300  -0.907   0.660  0.00  0.00    -0.081 A 
ATOM      2  C3  UNL d   1      -0.827  -2.218   0.532  0.00  0.00     0.006 A 
ATOM      3  C4  UNL d   1       0.340  -2.483  -0.189  0.00  0.00     0.002 A 
ATOM      4  C5  UNL d   1       1.056  -1.441  -0.787  0.00  0.00    -0.080 A 
ATOM      5  C6  UNL d   1       2.327  -1.708  -1.538  0.00  0.00     0.076 C 
ATOM      6  C7  UNL d   1       0.574  -0.133  -0.674  0.00  0.00     0.002 A 
ATOM      7  C8  UNL d   1      -0.593   0.133   0.046  0.00  0.00     0.006 A 
ENDROOT
BRANCH   1   8
ATOM      8  C1  UNL d   1      -2.522  -0.610   1.491  0.00  0.00     0.054 C 
ATOM      9  C   UNL d   1      -2.152  -0.333   2.941  0.00  0.00     0.018 C 
ENDBRANCH   1   8
TORSDOF 1
ENDMDL
