MODEL 1
REMARK minimizedAffinity 6.68588924
REMARK minimizedRMSD -1
REMARK  0 active torsions:
REMARK  status: ('A' for Active; 'I' for Inactive)
ROOT
ATOM      1  C1  BNZ d   1      -2.280  -2.981  -3.799  0.00  0.00     0.000 A 
ATOM      2  C2  BNZ d   1      -1.489  -2.740  -4.890  0.00  0.00     0.000 A 
ATOM      3  C3  BNZ d   1      -1.563  -3.538  -5.998  0.00  0.00     0.000 A 
ATOM      4  C4  BNZ d   1      -2.397  -4.597  -5.997  0.00  0.00     0.000 A 
ATOM      5  C5  BNZ d   1      -3.194  -4.859  -4.901  0.00  0.00     0.000 A 
ATOM      6  C6  BNZ d   1      -3.146  -4.031  -3.803  0.00  0.00     0.000 A 
ENDROOT
TORSDOF 0
ENDMDL
