MODEL 1
REMARK minimizedAffinity 12.7265139
REMARK minimizedRMSD -1
REMARK  0 active torsions:
REMARK  status: ('A' for Active; 'I' for Inactive)
ROOT
ATOM      1  C1  BNZ d   1      -0.326  -2.256  -0.794  0.00  0.00     0.000 A 
ATOM      2  C2  BNZ d   1       0.483  -3.185  -1.392  0.00  0.00     0.000 A 
ATOM      3  C3  BNZ d   1       0.533  -3.298  -2.753  0.00  0.00     0.000 A 
ATOM      4  C4  BNZ d   1      -0.256  -2.510  -3.513  0.00  0.00     0.000 A 
ATOM      5  C5  BNZ d   1      -1.084  -1.575  -2.924  0.00  0.00     0.000 A 
ATOM      6  C6  BNZ d   1      -1.102  -1.438  -1.555  0.00  0.00     0.000 A 
ENDROOT
TORSDOF 0
ENDMDL
