MODEL 1
REMARK minimizedAffinity 7.52854967
REMARK minimizedRMSD -1
REMARK  0 active torsions:
REMARK  status: ('A' for Active; 'I' for Inactive)
ROOT
ATOM      1  C1  BNZ d   1      -0.950  -3.584  -1.416  0.00  0.00     0.000 A 
ATOM      2  C2  BNZ d   1      -1.104  -3.394  -0.069  0.00  0.00     0.000 A 
ATOM      3  C3  BNZ d   1      -1.021  -2.143   0.476  0.00  0.00     0.000 A 
ATOM      4  C4  BNZ d   1      -0.745  -1.090  -0.320  0.00  0.00     0.000 A 
ATOM      5  C5  BNZ d   1      -0.577  -1.266  -1.679  0.00  0.00     0.000 A 
ATOM      6  C6  BNZ d   1      -0.700  -2.521  -2.230  0.00  0.00     0.000 A 
ENDROOT
TORSDOF 0
ENDMDL
