MODEL 1
REMARK minimizedAffinity 2.97018194
REMARK minimizedRMSD -1
REMARK  0 active torsions:
REMARK  status: ('A' for Active; 'I' for Inactive)
ROOT
ATOM      1  C1  BNZ d   1       0.001  -2.998   0.314  0.00  0.00     0.000 A 
ATOM      2  C2  BNZ d   1       0.649  -3.055  -0.891  0.00  0.00     0.000 A 
ATOM      3  C3  BNZ d   1       0.204  -2.327  -1.960  0.00  0.00     0.000 A 
ATOM      4  C4  BNZ d   1      -0.909  -1.576  -1.833  0.00  0.00     0.000 A 
ATOM      5  C5  BNZ d   1      -1.578  -1.516  -0.627  0.00  0.00     0.000 A 
ATOM      6  C6  BNZ d   1      -1.106  -2.220   0.457  0.00  0.00     0.000 A 
ENDROOT
TORSDOF 0
ENDMDL
