MODEL 1
REMARK minimizedAffinity 9.39014912
REMARK minimizedRMSD -1
REMARK  0 active torsions:
REMARK  status: ('A' for Active; 'I' for Inactive)
ROOT
ATOM      1  C1  BNZ d   1      -1.523  -2.155  -0.641  0.00  0.00     0.000 A 
ATOM      2  C2  BNZ d   1      -2.016  -1.917  -1.896  0.00  0.00     0.000 A 
ATOM      3  C3  BNZ d   1      -1.258  -2.168  -3.006  0.00  0.00     0.000 A 
ATOM      4  C4  BNZ d   1       0.005  -2.617  -2.858  0.00  0.00     0.000 A 
ATOM      5  C5  BNZ d   1       0.520  -2.853  -1.599  0.00  0.00     0.000 A 
ATOM      6  C6  BNZ d   1      -0.259  -2.636  -0.486  0.00  0.00     0.000 A 
ENDROOT
TORSDOF 0
ENDMDL
