MODEL 1
REMARK minimizedAffinity 6.89933348
REMARK minimizedRMSD -1
REMARK  0 active torsions:
REMARK  status: ('A' for Active; 'I' for Inactive)
ROOT
ATOM      1  C1  BNZ d   1       0.392  -3.210  -0.785  0.00  0.00     0.000 A 
ATOM      2  C2  BNZ d   1       0.524  -3.174  -2.147  0.00  0.00     0.000 A 
ATOM      3  C3  BNZ d   1      -0.475  -2.671  -2.933  0.00  0.00     0.000 A 
ATOM      4  C4  BNZ d   1      -1.618  -2.244  -2.360  0.00  0.00     0.000 A 
ATOM      5  C5  BNZ d   1      -1.770  -2.283  -0.989  0.00  0.00     0.000 A 
ATOM      6  C6  BNZ d   1      -0.747  -2.753  -0.197  0.00  0.00     0.000 A 
ENDROOT
TORSDOF 0
ENDMDL
