MODEL 1
REMARK minimizedAffinity 2.19809008
REMARK minimizedRMSD -1
REMARK  0 active torsions:
REMARK  status: ('A' for Active; 'I' for Inactive)
ROOT
ATOM      1  C1  BNZ d   1       4.068   4.621  -0.928  0.00  0.00     0.000 A 
ATOM      2  C2  BNZ d   1       4.079   4.625  -2.298  0.00  0.00     0.000 A 
ATOM      3  C3  BNZ d   1       5.058   5.285  -2.988  0.00  0.00     0.000 A 
ATOM      4  C4  BNZ d   1       6.000   5.971  -2.309  0.00  0.00     0.000 A 
ATOM      5  C5  BNZ d   1       5.997   5.984  -0.929  0.00  0.00     0.000 A 
ATOM      6  C6  BNZ d   1       5.033   5.287  -0.237  0.00  0.00     0.000 A 
ENDROOT
TORSDOF 0
ENDMDL
