MODEL 1
REMARK minimizedAffinity 6.08030987
REMARK minimizedRMSD -1
REMARK  0 active torsions:
REMARK  status: ('A' for Active; 'I' for Inactive)
ROOT
ATOM      1  C1  BNZ d   1       5.187  -5.524   5.999  0.00  0.00     0.000 A 
ATOM      2  C2  BNZ d   1       6.000  -4.421   6.000  0.00  0.00     0.000 A 
ATOM      3  C3  BNZ d   1       5.748  -3.366   5.168  0.00  0.00     0.000 A 
ATOM      4  C4  BNZ d   1       4.710  -3.431   4.309  0.00  0.00     0.000 A 
ATOM      5  C5  BNZ d   1       3.888  -4.540   4.290  0.00  0.00     0.000 A 
ATOM      6  C6  BNZ d   1       4.121  -5.584   5.156  0.00  0.00     0.000 A 
ENDROOT
TORSDOF 0
ENDMDL
