MODEL 1
REMARK minimizedAffinity 8.38230705
REMARK minimizedRMSD -1
REMARK  0 active torsions:
REMARK  status: ('A' for Active; 'I' for Inactive)
ROOT
ATOM      1  C1  BNZ d   1      -3.641  -5.514  -3.993  0.00  0.00     0.000 A 
ATOM      2  C2  BNZ d   1      -3.704  -5.999  -5.272  0.00  0.00     0.000 A 
ATOM      3  C3  BNZ d   1      -4.876  -5.969  -5.975  0.00  0.00     0.000 A 
ATOM      4  C4  BNZ d   1      -5.991  -5.492  -5.385  0.00  0.00     0.000 A 
ATOM      5  C5  BNZ d   1      -5.946  -5.009  -4.093  0.00  0.00     0.000 A 
ATOM      6  C6  BNZ d   1      -4.756  -5.005  -3.402  0.00  0.00     0.000 A 
ENDROOT
TORSDOF 0
ENDMDL
