MODEL 1
REMARK minimizedAffinity 4.7284956
REMARK minimizedRMSD -1
REMARK  0 active torsions:
REMARK  status: ('A' for Active; 'I' for Inactive)
ROOT
ATOM      1  C1  BNZ d   1       5.865   3.628  -2.373  0.00  0.00     0.000 A 
ATOM      2  C2  BNZ d   1       5.924   3.636  -3.741  0.00  0.00     0.000 A 
ATOM      3  C3  BNZ d   1       5.996   4.813  -4.432  0.00  0.00     0.000 A 
ATOM      4  C4  BNZ d   1       5.970   5.980  -3.757  0.00  0.00     0.000 A 
ATOM      5  C5  BNZ d   1       5.902   5.990  -2.378  0.00  0.00     0.000 A 
ATOM      6  C6  BNZ d   1       5.868   4.802  -1.684  0.00  0.00     0.000 A 
ENDROOT
TORSDOF 0
ENDMDL
