MODEL 1
REMARK minimizedAffinity 2.09031582
REMARK minimizedRMSD -1
REMARK  0 active torsions:
REMARK  status: ('A' for Active; 'I' for Inactive)
ROOT
ATOM      1  C1  BNZ d   1       4.424   5.206  -1.871  0.00  0.00     0.000 A 
ATOM      2  C2  BNZ d   1       4.302   6.000  -2.980  0.00  0.00     0.000 A 
ATOM      3  C3  BNZ d   1       3.152   6.000  -3.718  0.00  0.00     0.000 A 
ATOM      4  C4  BNZ d   1       2.140   5.178  -3.369  0.00  0.00     0.000 A 
ATOM      5  C5  BNZ d   1       2.251   4.365  -2.259  0.00  0.00     0.000 A 
ATOM      6  C6  BNZ d   1       3.396   4.396  -1.496  0.00  0.00     0.000 A 
ENDROOT
TORSDOF 0
ENDMDL
