MODEL 1
REMARK minimizedAffinity 2.14576149
REMARK minimizedRMSD -1
REMARK  0 active torsions:
REMARK  status: ('A' for Active; 'I' for Inactive)
ROOT
ATOM      1  C1  BNZ d   1       4.107  -3.885   4.578  0.00  0.00     0.000 A 
ATOM      2  C2  BNZ d   1       4.073  -5.254   4.591  0.00  0.00     0.000 A 
ATOM      3  C3  BNZ d   1       4.982  -5.970   5.318  0.00  0.00     0.000 A 
ATOM      4  C4  BNZ d   1       5.947  -5.319   6.000  0.00  0.00     0.000 A 
ATOM      5  C5  BNZ d   1       6.000  -3.939   5.990  0.00  0.00     0.000 A 
ATOM      6  C6  BNZ d   1       5.060  -3.220   5.288  0.00  0.00     0.000 A 
ENDROOT
TORSDOF 0
ENDMDL
