MODEL 1
REMARK minimizedAffinity 5.5306282
REMARK minimizedRMSD -1
REMARK  0 active torsions:
REMARK  status: ('A' for Active; 'I' for Inactive)
ROOT
ATOM      1  C1  BNZ d   1       0.045  -3.394  -0.807  0.00  0.00     0.000 A 
ATOM      2  C2  BNZ d   1       0.104  -3.644  -2.153  0.00  0.00     0.000 A 
ATOM      3  C3  BNZ d   1      -0.698  -2.963  -3.026  0.00  0.00     0.000 A 
ATOM      4  C4  BNZ d   1      -1.584  -2.065  -2.551  0.00  0.00     0.000 A 
ATOM      5  C5  BNZ d   1      -1.662  -1.808  -1.197  0.00  0.00     0.000 A 
ATOM      6  C6  BNZ d   1      -0.826  -2.467  -0.324  0.00  0.00     0.000 A 
ENDROOT
TORSDOF 0
ENDMDL
