MODEL 1
REMARK minimizedAffinity 13.3489351
REMARK minimizedRMSD -1
REMARK  2 active torsions:
REMARK  status: ('A' for Active; 'I' for Inactive)
REMARK    1  A    between atoms: C2'_3  and  C1'_4 
REMARK    2  A    between atoms: C1'_4  and  C1_5 
ROOT
ATOM      1  C1  I4B d   1      -3.985  -0.256   0.557  0.00  0.00    -0.075 A 
ATOM      2  C2  I4B d   1      -4.711   0.902   0.434  0.00  0.00     0.003 A 
ATOM      3  C3  I4B d   1      -4.189   2.126   0.918  0.00  0.00     0.002 A 
ATOM      4  C4  I4B d   1      -2.968   2.138   1.560  0.00  0.00    -0.004 A 
ATOM      5  C5  I4B d   1      -2.223   0.967   1.664  0.00  0.00     0.002 A 
ATOM      6  C6  I4B d   1      -2.728  -0.236   1.149  0.00  0.00     0.003 A 
ENDROOT
BRANCH   1   7
ATOM      7  C1' I4B d   1      -4.580  -1.536   0.064  0.00  0.00     0.060 C 
BRANCH   7   8
ATOM      8  C2' I4B d   1      -4.068  -2.659   0.943  0.00  0.00    -0.013 C 
ATOM      9  C4' I4B d   1      -5.136  -3.142   1.889  0.00  0.00     0.013 C 
ATOM     10  C3' I4B d   1      -3.594  -3.766   0.050  0.00  0.00     0.013 C 
ENDBRANCH   7   8
ENDBRANCH   1   7
TORSDOF 2
ENDMDL
