MODEL 1
REMARK minimizedAffinity 4.59595585
REMARK minimizedRMSD -1
REMARK  2 active torsions:
REMARK  status: ('A' for Active; 'I' for Inactive)
REMARK    1  A    between atoms: C2'_3  and  C1'_4 
REMARK    2  A    between atoms: C1'_4  and  C1_5 
ROOT
ATOM      1  C1  I4B d   1      -1.514   0.492   2.584  0.00  0.00    -0.075 A 
ATOM      2  C2  I4B d   1      -2.673   0.632   3.307  0.00  0.00     0.003 A 
ATOM      3  C3  I4B d   1      -3.930   0.451   2.680  0.00  0.00     0.002 A 
ATOM      4  C4  I4B d   1      -3.983   0.182   1.328  0.00  0.00    -0.004 A 
ATOM      5  C5  I4B d   1      -2.807   0.018   0.602  0.00  0.00     0.002 A 
ATOM      6  C6  I4B d   1      -1.564   0.161   1.236  0.00  0.00     0.003 A 
ENDROOT
BRANCH   1   7
ATOM      7  C1' I4B d   1      -0.205   0.723   3.270  0.00  0.00     0.060 C 
BRANCH   7   8
ATOM      8  C2' I4B d   1       0.664  -0.497   3.040  0.00  0.00    -0.013 C 
ATOM      9  C4' I4B d   1       2.094  -0.229   3.428  0.00  0.00     0.013 C 
ATOM     10  C3' I4B d   1       0.090  -1.631   3.836  0.00  0.00     0.013 C 
ENDBRANCH   7   8
ENDBRANCH   1   7
TORSDOF 2
ENDMDL
