MODEL 1
REMARK minimizedAffinity 14.5263309
REMARK minimizedRMSD -1
REMARK  2 active torsions:
REMARK  status: ('A' for Active; 'I' for Inactive)
REMARK    1  A    between atoms: C2'_3  and  C1'_4 
REMARK    2  A    between atoms: C1'_4  and  C1_5 
ROOT
ATOM      1  C1  I4B d   1      -3.314   0.316   1.527  0.00  0.00    -0.075 A 
ATOM      2  C2  I4B d   1      -2.186  -0.448   1.362  0.00  0.00     0.003 A 
ATOM      3  C3  I4B d   1      -0.936   0.013   1.843  0.00  0.00     0.002 A 
ATOM      4  C4  I4B d   1      -0.853   1.257   2.433  0.00  0.00    -0.004 A 
ATOM      5  C5  I4B d   1      -2.002   2.020   2.620  0.00  0.00     0.002 A 
ATOM      6  C6  I4B d   1      -3.243   1.541   2.176  0.00  0.00     0.003 A 
ENDROOT
BRANCH   1   7
ATOM      7  C1' I4B d   1      -4.611  -0.187   0.978  0.00  0.00     0.060 C 
BRANCH   7   8
ATOM      8  C2' I4B d   1      -4.518  -1.696   0.867  0.00  0.00    -0.013 C 
ATOM      9  C4' I4B d   1      -5.298  -2.372   1.963  0.00  0.00     0.013 C 
ATOM     10  C3' I4B d   1      -5.029  -2.093  -0.486  0.00  0.00     0.013 C 
ENDBRANCH   7   8
ENDBRANCH   1   7
TORSDOF 2
ENDMDL
