MODEL 1
REMARK minimizedAffinity 10.4713964
REMARK minimizedRMSD -1
REMARK  2 active torsions:
REMARK  status: ('A' for Active; 'I' for Inactive)
REMARK    1  A    between atoms: C2'_3  and  C1'_4 
REMARK    2  A    between atoms: C1'_4  and  C1_5 
ROOT
ATOM      1  C1  I4B d   1      -2.831   1.381   1.083  0.00  0.00    -0.075 A 
ATOM      2  C2  I4B d   1      -1.616   0.747   1.172  0.00  0.00     0.003 A 
ATOM      3  C3  I4B d   1      -0.541   1.361   1.858  0.00  0.00     0.002 A 
ATOM      4  C4  I4B d   1      -0.707   2.622   2.393  0.00  0.00    -0.004 A 
ATOM      5  C5  I4B d   1      -1.946   3.254   2.321  0.00  0.00     0.002 A 
ATOM      6  C6  I4B d   1      -3.018   2.624   1.673  0.00  0.00     0.003 A 
ENDROOT
BRANCH   1   7
ATOM      7  C1' I4B d   1      -3.935   0.718   0.323  0.00  0.00     0.060 C 
BRANCH   7   8
ATOM      8  C2' I4B d   1      -3.788  -0.780   0.497  0.00  0.00    -0.013 C 
ATOM      9  C4' I4B d   1      -3.940  -1.179   1.941  0.00  0.00     0.013 C 
ATOM     10  C3' I4B d   1      -4.821  -1.449  -0.361  0.00  0.00     0.013 C 
ENDBRANCH   7   8
ENDBRANCH   1   7
TORSDOF 2
ENDMDL
