MODEL 1
REMARK minimizedAffinity -4.40027618
REMARK minimizedRMSD -1
REMARK  2 active torsions:
REMARK  status: ('A' for Active; 'I' for Inactive)
REMARK    1  A    between atoms: C2'_3  and  C1'_4 
REMARK    2  A    between atoms: C1'_4  and  C1_5 
ROOT
ATOM      1  C1  I4B d   1      -1.858  -1.085   0.954  0.00  0.00    -0.075 A 
ATOM      2  C2  I4B d   1      -3.191  -0.840   0.736  0.00  0.00     0.003 A 
ATOM      3  C3  I4B d   1      -4.065  -1.902   0.400  0.00  0.00     0.002 A 
ATOM      4  C4  I4B d   1      -3.558  -3.176   0.244  0.00  0.00    -0.004 A 
ATOM      5  C5  I4B d   1      -2.211  -3.426   0.488  0.00  0.00     0.002 A 
ATOM      6  C6  I4B d   1      -1.357  -2.377   0.857  0.00  0.00     0.003 A 
ENDROOT
BRANCH   1   7
ATOM      7  C1' I4B d   1      -0.957   0.065   1.275  0.00  0.00     0.060 C 
BRANCH   7   8
ATOM      8  C2' I4B d   1      -1.092   0.366   2.754  0.00  0.00    -0.013 C 
ATOM      9  C4' I4B d   1       0.257   0.505   3.408  0.00  0.00     0.013 C 
ATOM     10  C3' I4B d   1      -1.897   1.623   2.899  0.00  0.00     0.013 C 
ENDBRANCH   7   8
ENDBRANCH   1   7
TORSDOF 2
ENDMDL
