MODEL 1
REMARK minimizedAffinity 11.7272921
REMARK minimizedRMSD -1
REMARK  2 active torsions:
REMARK  status: ('A' for Active; 'I' for Inactive)
REMARK    1  A    between atoms: C2'_3  and  C1'_4 
REMARK    2  A    between atoms: C1'_4  and  C1_5 
ROOT
ATOM      1  C1  I4B d   1      -4.383   0.434   3.612  0.00  0.00    -0.075 A 
ATOM      2  C2  I4B d   1      -5.230   1.513   3.620  0.00  0.00     0.003 A 
ATOM      3  C3  I4B d   1      -5.811   1.955   4.833  0.00  0.00     0.002 A 
ATOM      4  C4  I4B d   1      -5.558   1.261   5.999  0.00  0.00    -0.004 A 
ATOM      5  C5  I4B d   1      -4.681   0.181   5.993  0.00  0.00     0.002 A 
ATOM      6  C6  I4B d   1      -4.079  -0.229   4.794  0.00  0.00     0.003 A 
ENDROOT
BRANCH   1   7
ATOM      7  C1' I4B d   1      -3.813  -0.026   2.307  0.00  0.00     0.060 C 
BRANCH   7   8
ATOM      8  C2' I4B d   1      -3.028   1.125   1.710  0.00  0.00    -0.013 C 
ATOM      9  C4' I4B d   1      -1.555   0.813   1.664  0.00  0.00     0.013 C 
ATOM     10  C3' I4B d   1      -3.568   1.390   0.336  0.00  0.00     0.013 C 
ENDBRANCH   7   8
ENDBRANCH   1   7
TORSDOF 2
ENDMDL
