MODEL 1
REMARK minimizedAffinity 7.33510447
REMARK minimizedRMSD -1
REMARK  2 active torsions:
REMARK  status: ('A' for Active; 'I' for Inactive)
REMARK    1  A    between atoms: C2'_3  and  C1'_4 
REMARK    2  A    between atoms: C1'_4  and  C1_5 
ROOT
ATOM      1  C1  I4B d   1       2.643  -5.434   1.835  0.00  0.00    -0.075 A 
ATOM      2  C2  I4B d   1       2.214  -6.000   3.010  0.00  0.00     0.003 A 
ATOM      3  C3  I4B d   1       0.912  -5.730   3.497  0.00  0.00     0.002 A 
ATOM      4  C4  I4B d   1       0.097  -4.855   2.809  0.00  0.00    -0.004 A 
ATOM      5  C5  I4B d   1       0.525  -4.301   1.606  0.00  0.00     0.002 A 
ATOM      6  C6  I4B d   1       1.802  -4.601   1.109  0.00  0.00     0.003 A 
ENDROOT
BRANCH   1   7
ATOM      7  C1' I4B d   1       4.036  -5.715   1.367  0.00  0.00     0.060 C 
BRANCH   7   8
ATOM      8  C2' I4B d   1       4.995  -5.027   2.317  0.00  0.00    -0.013 C 
ATOM      9  C4' I4B d   1       6.000  -6.000   2.876  0.00  0.00     0.013 C 
ATOM     10  C3' I4B d   1       5.673  -3.919   1.568  0.00  0.00     0.013 C 
ENDBRANCH   7   8
ENDBRANCH   1   7
TORSDOF 2
ENDMDL
