MODEL 1
REMARK minimizedAffinity 0.175015926
REMARK minimizedRMSD -1
REMARK  2 active torsions:
REMARK  status: ('A' for Active; 'I' for Inactive)
REMARK    1  A    between atoms: C2'_3  and  C1'_4 
REMARK    2  A    between atoms: C1'_4  and  C1_5 
ROOT
ATOM      1  C1  I4B d   1      -2.515   0.974   2.480  0.00  0.00    -0.075 A 
ATOM      2  C2  I4B d   1      -3.396   0.899   1.430  0.00  0.00     0.003 A 
ATOM      3  C3  I4B d   1      -4.792   0.875   1.670  0.00  0.00     0.002 A 
ATOM      4  C4  I4B d   1      -5.257   0.877   2.969  0.00  0.00    -0.004 A 
ATOM      5  C5  I4B d   1      -4.364   0.976   4.031  0.00  0.00     0.002 A 
ATOM      6  C6  I4B d   1      -2.984   1.037   3.785  0.00  0.00     0.003 A 
ENDROOT
BRANCH   1   7
ATOM      7  C1' I4B d   1      -1.048   0.964   2.191  0.00  0.00     0.060 C 
BRANCH   7   8
ATOM      8  C2' I4B d   1      -0.316   0.757   3.501  0.00  0.00    -0.013 C 
ATOM      9  C4' I4B d   1       0.446  -0.543   3.501  0.00  0.00     0.013 C 
ATOM     10  C3' I4B d   1       0.604   1.923   3.708  0.00  0.00     0.013 C 
ENDBRANCH   7   8
ENDBRANCH   1   7
TORSDOF 2
ENDMDL
