MODEL 1
REMARK minimizedAffinity 1.59509051
REMARK minimizedRMSD -1
REMARK  2 active torsions:
REMARK  status: ('A' for Active; 'I' for Inactive)
REMARK    1  A    between atoms: C2'_3  and  C1'_4 
REMARK    2  A    between atoms: C1'_4  and  C1_5 
ROOT
ATOM      1  C1  I4B d   1      -5.279   2.548   3.538  0.00  0.00    -0.075 A 
ATOM      2  C2  I4B d   1      -5.389   1.340   4.180  0.00  0.00     0.003 A 
ATOM      3  C3  I4B d   1      -4.746   0.193   3.656  0.00  0.00     0.002 A 
ATOM      4  C4  I4B d   1      -4.049   0.287   2.469  0.00  0.00    -0.004 A 
ATOM      5  C5  I4B d   1      -3.919   1.518   1.831  0.00  0.00     0.002 A 
ATOM      6  C6  I4B d   1      -4.528   2.658   2.375  0.00  0.00     0.003 A 
ENDROOT
BRANCH   1   7
ATOM      7  C1' I4B d   1      -5.999   3.732   4.101  0.00  0.00     0.060 C 
BRANCH   7   8
ATOM      8  C2' I4B d   1      -5.161   4.294   5.231  0.00  0.00    -0.013 C 
ATOM      9  C4' I4B d   1      -3.900   4.932   4.710  0.00  0.00     0.013 C 
ATOM     10  C3' I4B d   1      -6.000   5.285   5.981  0.00  0.00     0.013 C 
ENDBRANCH   7   8
ENDBRANCH   1   7
TORSDOF 2
ENDMDL
