MODEL 1
REMARK minimizedAffinity -0.17298843
REMARK minimizedRMSD -1
REMARK  2 active torsions:
REMARK  status: ('A' for Active; 'I' for Inactive)
REMARK    1  A    between atoms: C2'_3  and  C1'_4 
REMARK    2  A    between atoms: C1'_4  and  C1_5 
ROOT
ATOM      1  C1  I4B d   1      -3.753  -2.498  -5.927  0.00  0.00    -0.075 A 
ATOM      2  C2  I4B d   1      -2.545  -3.139  -5.806  0.00  0.00     0.003 A 
ATOM      3  C3  I4B d   1      -1.343  -2.393  -5.765  0.00  0.00     0.002 A 
ATOM      4  C4  I4B d   1      -1.390  -1.020  -5.898  0.00  0.00    -0.004 A 
ATOM      5  C5  I4B d   1      -2.617  -0.370  -5.998  0.00  0.00     0.002 A 
ATOM      6  C6  I4B d   1      -3.807  -1.112  -6.000  0.00  0.00     0.003 A 
ENDROOT
BRANCH   1   7
ATOM      7  C1' I4B d   1      -5.001  -3.319  -6.000  0.00  0.00     0.060 C 
BRANCH   7   8
ATOM      8  C2' I4B d   1      -5.977  -2.778  -4.975  0.00  0.00    -0.013 C 
ATOM      9  C4' I4B d   1      -5.593  -3.200  -3.581  0.00  0.00     0.013 C 
ATOM     10  C3' I4B d   1      -5.999  -1.283  -5.101  0.00  0.00     0.013 C 
ENDBRANCH   7   8
ENDBRANCH   1   7
TORSDOF 2
ENDMDL
