MODEL 1
REMARK minimizedAffinity 13.4015589
REMARK minimizedRMSD -1
REMARK  2 active torsions:
REMARK  status: ('A' for Active; 'I' for Inactive)
REMARK    1  A    between atoms: C2'_3  and  C1'_4 
REMARK    2  A    between atoms: C1'_4  and  C1_5 
ROOT
ATOM      1  C1  I4B d   1      -0.310  -0.159  -5.634  0.00  0.00    -0.075 A 
ATOM      2  C2  I4B d   1      -0.496  -1.514  -5.746  0.00  0.00     0.003 A 
ATOM      3  C3  I4B d   1      -1.794  -2.040  -5.953  0.00  0.00     0.002 A 
ATOM      4  C4  I4B d   1      -2.876  -1.185  -5.991  0.00  0.00    -0.004 A 
ATOM      5  C5  I4B d   1      -2.682   0.191  -5.901  0.00  0.00     0.002 A 
ATOM      6  C6  I4B d   1      -1.390   0.708  -5.733  0.00  0.00     0.003 A 
ENDROOT
BRANCH   1   7
ATOM      7  C1' I4B d   1       1.071   0.360  -5.382  0.00  0.00     0.060 C 
BRANCH   7   8
ATOM      8  C2' I4B d   1       1.831  -0.693  -4.603  0.00  0.00    -0.013 C 
ATOM      9  C4' I4B d   1       3.244  -0.829  -5.104  0.00  0.00     0.013 C 
ATOM     10  C3' I4B d   1       1.805  -0.306  -3.154  0.00  0.00     0.013 C 
ENDBRANCH   7   8
ENDBRANCH   1   7
TORSDOF 2
ENDMDL
