MODEL 1
REMARK minimizedAffinity -4.33679008
REMARK minimizedRMSD -1
REMARK  0 active torsions:
REMARK  status: ('A' for Active; 'I' for Inactive)
ROOT
ATOM      1  C2' OXE d   1       4.313   0.815  -2.624  0.00  0.00     0.078 C 
ATOM      2  C1' OXE d   1       3.068  -1.701  -2.612  0.00  0.00     0.078 C 
ATOM      3  C1  OXE d   1       2.583  -0.672  -1.622  0.00  0.00    -0.078 A 
ATOM      4  C2  OXE d   1       3.229   0.541  -1.603  0.00  0.00    -0.078 A 
ATOM      5  C3  OXE d   1       2.786   1.545  -0.747  0.00  0.00     0.003 A 
ATOM      6  C4  OXE d   1       1.789   1.280   0.200  0.00  0.00    -0.002 A 
ATOM      7  C5  OXE d   1       1.145   0.038   0.224  0.00  0.00    -0.002 A 
ATOM      8  C6  OXE d   1       1.500  -0.932  -0.706  0.00  0.00     0.003 A 
ENDROOT
TORSDOF 0
ENDMDL
