MODEL 1
REMARK minimizedAffinity 3.22103786
REMARK minimizedRMSD -1
REMARK  0 active torsions:
REMARK  status: ('A' for Active; 'I' for Inactive)
ROOT
ATOM      1  C2' OXE d   1       2.690  -1.933  -3.253  0.00  0.00     0.078 C 
ATOM      2  C1' OXE d   1       1.463  -1.735  -0.737  0.00  0.00     0.078 C 
ATOM      3  C1  OXE d   1       2.307  -0.574  -1.201  0.00  0.00    -0.078 A 
ATOM      4  C2  OXE d   1       2.942  -0.700  -2.413  0.00  0.00    -0.078 A 
ATOM      5  C3  OXE d   1       3.689   0.363  -2.914  0.00  0.00     0.003 A 
ATOM      6  C4  OXE d   1       3.925   1.496  -2.126  0.00  0.00    -0.002 A 
ATOM      7  C5  OXE d   1       3.320   1.627  -0.871  0.00  0.00    -0.002 A 
ATOM      8  C6  OXE d   1       2.476   0.622  -0.413  0.00  0.00     0.003 A 
ENDROOT
TORSDOF 0
ENDMDL
