MODEL 1
REMARK minimizedAffinity 5.40134573
REMARK minimizedRMSD -1
REMARK  0 active torsions:
REMARK  status: ('A' for Active; 'I' for Inactive)
ROOT
ATOM      1  C2' OXE d   1       5.254   2.817  -1.574  0.00  0.00     0.078 C 
ATOM      2  C1' OXE d   1       5.998   0.616   0.002  0.00  0.00     0.078 C 
ATOM      3  C1  OXE d   1       4.549   0.736  -0.400  0.00  0.00    -0.078 A 
ATOM      4  C2  OXE d   1       4.186   1.841  -1.132  0.00  0.00    -0.078 A 
ATOM      5  C3  OXE d   1       2.873   1.972  -1.575  0.00  0.00     0.003 A 
ATOM      6  C4  OXE d   1       1.888   1.070  -1.153  0.00  0.00    -0.002 A 
ATOM      7  C5  OXE d   1       2.230  -0.041  -0.374  0.00  0.00    -0.002 A 
ATOM      8  C6  OXE d   1       3.561  -0.245  -0.025  0.00  0.00     0.003 A 
ENDROOT
TORSDOF 0
ENDMDL
