MODEL 1
REMARK minimizedAffinity 6.55576134
REMARK minimizedRMSD -1
REMARK  0 active torsions:
REMARK  status: ('A' for Active; 'I' for Inactive)
ROOT
ATOM      1  C2' OXE d   1       4.500   4.149  -0.004  0.00  0.00     0.078 C 
ATOM      2  C1' OXE d   1       6.000   2.034  -1.079  0.00  0.00     0.078 C 
ATOM      3  C1  OXE d   1       4.546   1.779  -0.769  0.00  0.00    -0.078 A 
ATOM      4  C2  OXE d   1       3.831   2.805  -0.200  0.00  0.00    -0.078 A 
ATOM      5  C3  OXE d   1       2.473   2.640   0.055  0.00  0.00     0.003 A 
ATOM      6  C4  OXE d   1       1.865   1.391  -0.120  0.00  0.00    -0.002 A 
ATOM      7  C5  OXE d   1       2.585   0.321  -0.661  0.00  0.00    -0.002 A 
ATOM      8  C6  OXE d   1       3.912   0.510  -1.030  0.00  0.00     0.003 A 
ENDROOT
TORSDOF 0
ENDMDL
