MODEL 1
REMARK minimizedAffinity 4.6304698
REMARK minimizedRMSD -1
REMARK  0 active torsions:
REMARK  status: ('A' for Active; 'I' for Inactive)
ROOT
ATOM      1  C2' OXE d   1      -2.918   1.899  -5.305  0.00  0.00     0.078 C 
ATOM      2  C1' OXE d   1      -5.659   2.280  -5.774  0.00  0.00     0.078 C 
ATOM      3  C1  OXE d   1      -4.915   3.363  -5.033  0.00  0.00    -0.078 A 
ATOM      4  C2  OXE d   1      -3.584   3.147  -4.767  0.00  0.00    -0.078 A 
ATOM      5  C3  OXE d   1      -2.838   4.137  -4.135  0.00  0.00     0.003 A 
ATOM      6  C4  OXE d   1      -3.464   5.284  -3.631  0.00  0.00    -0.002 A 
ATOM      7  C5  OXE d   1      -4.827   5.505  -3.856  0.00  0.00    -0.002 A 
ATOM      8  C6  OXE d   1      -5.556   4.576  -4.591  0.00  0.00     0.003 A 
ENDROOT
TORSDOF 0
ENDMDL
