MODEL 1
REMARK minimizedAffinity 13.0840187
REMARK minimizedRMSD -1
REMARK  0 active torsions:
REMARK  status: ('A' for Active; 'I' for Inactive)
ROOT
ATOM      1  C2' OXE d   1       5.992   3.080  -2.269  0.00  0.00     0.078 C 
ATOM      2  C1' OXE d   1       5.999   3.391   0.521  0.00  0.00     0.078 C 
ATOM      3  C1  OXE d   1       4.782   2.768  -0.114  0.00  0.00    -0.078 A 
ATOM      4  C2  OXE d   1       4.767   2.662  -1.484  0.00  0.00    -0.078 A 
ATOM      5  C3  OXE d   1       3.692   2.045  -2.117  0.00  0.00     0.003 A 
ATOM      6  C4  OXE d   1       2.559   1.670  -1.385  0.00  0.00    -0.002 A 
ATOM      7  C5  OXE d   1       2.536   1.805   0.007  0.00  0.00    -0.002 A 
ATOM      8  C6  OXE d   1       3.654   2.312   0.661  0.00  0.00     0.003 A 
ENDROOT
TORSDOF 0
ENDMDL
