MODEL 1
REMARK minimizedAffinity -0.977454722
REMARK minimizedRMSD -1
REMARK  0 active torsions:
REMARK  status: ('A' for Active; 'I' for Inactive)
ROOT
ATOM      1  C2' OXE d   1       2.758  -2.011  -2.553  0.00  0.00     0.078 C 
ATOM      2  C1' OXE d   1       1.439  -0.873  -0.352  0.00  0.00     0.078 C 
ATOM      3  C1  OXE d   1       2.551  -0.081  -0.992  0.00  0.00    -0.078 A 
ATOM      4  C2  OXE d   1       3.222  -0.665  -2.039  0.00  0.00    -0.078 A 
ATOM      5  C3  OXE d   1       4.220   0.046  -2.701  0.00  0.00     0.003 A 
ATOM      6  C4  OXE d   1       4.649   1.286  -2.213  0.00  0.00    -0.002 A 
ATOM      7  C5  OXE d   1       4.006   1.881  -1.123  0.00  0.00    -0.002 A 
ATOM      8  C6  OXE d   1       2.929   1.232  -0.529  0.00  0.00     0.003 A 
ENDROOT
TORSDOF 0
ENDMDL
