MODEL 1
REMARK minimizedAffinity 3.49127793
REMARK minimizedRMSD -1
REMARK  0 active torsions:
REMARK  status: ('A' for Active; 'I' for Inactive)
ROOT
ATOM      1  C2' OXE d   1       3.012  -1.819  -2.485  0.00  0.00     0.078 C 
ATOM      2  C1' OXE d   1       1.246  -1.426  -0.339  0.00  0.00     0.078 C 
ATOM      3  C1  OXE d   1       2.122  -0.269  -0.749  0.00  0.00    -0.078 A 
ATOM      4  C2  OXE d   1       3.016  -0.485  -1.770  0.00  0.00    -0.078 A 
ATOM      5  C3  OXE d   1       3.810   0.565  -2.225  0.00  0.00     0.003 A 
ATOM      6  C4  OXE d   1       3.815   1.792  -1.551  0.00  0.00    -0.002 A 
ATOM      7  C5  OXE d   1       2.941   2.020  -0.484  0.00  0.00    -0.002 A 
ATOM      8  C6  OXE d   1       2.059   1.016  -0.098  0.00  0.00     0.003 A 
ENDROOT
TORSDOF 0
ENDMDL
