MODEL 1
REMARK minimizedAffinity 7.48613453
REMARK minimizedRMSD -1
REMARK  0 active torsions:
REMARK  status: ('A' for Active; 'I' for Inactive)
ROOT
ATOM      1  C2' OXE d   1      -1.808   2.219   2.265  0.00  0.00     0.078 C 
ATOM      2  C1' OXE d   1       0.981   1.997   2.492  0.00  0.00     0.078 C 
ATOM      3  C1  OXE d   1       0.419   2.497   1.185  0.00  0.00    -0.078 A 
ATOM      4  C2  OXE d   1      -0.948   2.558   1.066  0.00  0.00    -0.078 A 
ATOM      5  C3  OXE d   1      -1.517   3.064  -0.099  0.00  0.00     0.003 A 
ATOM      6  C4  OXE d   1      -0.715   3.366  -1.206  0.00  0.00    -0.002 A 
ATOM      7  C5  OXE d   1       0.678   3.273  -1.120  0.00  0.00    -0.002 A 
ATOM      8  C6  OXE d   1       1.262   2.882   0.079  0.00  0.00     0.003 A 
ENDROOT
TORSDOF 0
ENDMDL
