MODEL 1
REMARK minimizedAffinity 11.2153502
REMARK minimizedRMSD -1
REMARK  0 active torsions:
REMARK  status: ('A' for Active; 'I' for Inactive)
ROOT
ATOM      1  C2' OXE d   1       1.229   0.249  -0.450  0.00  0.00     0.078 C 
ATOM      2  C1' OXE d   1       1.238   1.465   2.079  0.00  0.00     0.078 C 
ATOM      3  C1  OXE d   1       0.276   1.996   1.047  0.00  0.00    -0.078 A 
ATOM      4  C2  OXE d   1       0.310   1.426  -0.203  0.00  0.00    -0.078 A 
ATOM      5  C3  OXE d   1      -0.594   1.841  -1.175  0.00  0.00     0.003 A 
ATOM      6  C4  OXE d   1      -1.433   2.938  -0.941  0.00  0.00    -0.002 A 
ATOM      7  C5  OXE d   1      -1.457   3.559   0.312  0.00  0.00    -0.002 A 
ATOM      8  C6  OXE d   1      -0.641   3.074   1.328  0.00  0.00     0.003 A 
ENDROOT
TORSDOF 0
ENDMDL
