MODEL 1
REMARK minimizedAffinity 14.0188236
REMARK minimizedRMSD -1
REMARK  0 active torsions:
REMARK  status: ('A' for Active; 'I' for Inactive)
ROOT
ATOM      1  C2' OXE d   1      -2.394   5.469   0.845  0.00  0.00     0.078 C 
ATOM      2  C1' OXE d   1      -2.645   5.012  -1.914  0.00  0.00     0.078 C 
ATOM      3  C1  OXE d   1      -1.621   4.202  -1.157  0.00  0.00    -0.078 A 
ATOM      4  C2  OXE d   1      -1.473   4.466   0.184  0.00  0.00    -0.078 A 
ATOM      5  C3  OXE d   1      -0.582   3.710   0.940  0.00  0.00     0.003 A 
ATOM      6  C4  OXE d   1       0.273   2.791   0.319  0.00  0.00    -0.002 A 
ATOM      7  C5  OXE d   1       0.166   2.536  -1.052  0.00  0.00    -0.002 A 
ATOM      8  C6  OXE d   1      -0.803   3.201  -1.795  0.00  0.00     0.003 A 
ENDROOT
TORSDOF 0
ENDMDL
