MODEL 1
REMARK minimizedAffinity 14.8918619
REMARK minimizedRMSD -1
REMARK  0 active torsions:
REMARK  status: ('A' for Active; 'I' for Inactive)
ROOT
ATOM      1  C2' OXE d   1       0.321   5.053  -2.135  0.00  0.00     0.078 C 
ATOM      2  C1' OXE d   1      -1.300   5.651   0.078  0.00  0.00     0.078 C 
ATOM      3  C1  OXE d   1      -0.736   4.255  -0.026  0.00  0.00    -0.078 A 
ATOM      4  C2  OXE d   1       0.017   3.958  -1.135  0.00  0.00    -0.078 A 
ATOM      5  C3  OXE d   1       0.606   2.702  -1.253  0.00  0.00     0.003 A 
ATOM      6  C4  OXE d   1       0.311   1.692  -0.329  0.00  0.00    -0.002 A 
ATOM      7  C5  OXE d   1      -0.486   1.962   0.788  0.00  0.00    -0.002 A 
ATOM      8  C6  OXE d   1      -0.982   3.248   0.976  0.00  0.00     0.003 A 
ENDROOT
TORSDOF 0
ENDMDL
