MODEL 1
REMARK minimizedAffinity 6.22122431
REMARK minimizedRMSD -1
REMARK  0 active torsions:
REMARK  status: ('A' for Active; 'I' for Inactive)
ROOT
ATOM      1  C2' OXE d   1       0.756   1.622   2.790  0.00  0.00     0.078 C 
ATOM      2  C1' OXE d   1      -1.428   3.051   1.755  0.00  0.00     0.078 C 
ATOM      3  C1  OXE d   1      -0.465   2.430   0.775  0.00  0.00    -0.078 A 
ATOM      4  C2  OXE d   1       0.626   1.772   1.290  0.00  0.00    -0.078 A 
ATOM      5  C3  OXE d   1       1.516   1.134   0.430  0.00  0.00     0.003 A 
ATOM      6  C4  OXE d   1       1.394   1.286  -0.956  0.00  0.00    -0.002 A 
ATOM      7  C5  OXE d   1       0.312   1.986  -1.501  0.00  0.00    -0.002 A 
ATOM      8  C6  OXE d   1      -0.647   2.526  -0.653  0.00  0.00     0.003 A 
ENDROOT
TORSDOF 0
ENDMDL
