MODEL 1
REMARK minimizedAffinity 12.0592337
REMARK minimizedRMSD -1
REMARK  0 active torsions:
REMARK  status: ('A' for Active; 'I' for Inactive)
ROOT
ATOM      1  C2' OXE d   1       1.086   4.379  -2.431  0.00  0.00     0.078 C 
ATOM      2  C1' OXE d   1      -1.718   4.260  -2.438  0.00  0.00     0.078 C 
ATOM      3  C1  OXE d   1      -0.993   3.696  -1.242  0.00  0.00    -0.078 A 
ATOM      4  C2  OXE d   1       0.381   3.717  -1.268  0.00  0.00    -0.078 A 
ATOM      5  C3  OXE d   1       1.098   3.260  -0.166  0.00  0.00     0.003 A 
ATOM      6  C4  OXE d   1       0.438   2.639   0.902  0.00  0.00    -0.002 A 
ATOM      7  C5  OXE d   1      -0.959   2.572   0.930  0.00  0.00    -0.002 A 
ATOM      8  C6  OXE d   1      -1.690   3.133  -0.112  0.00  0.00     0.003 A 
ENDROOT
TORSDOF 0
ENDMDL
