MODEL 1
REMARK minimizedAffinity 13.4041891
REMARK minimizedRMSD -1
REMARK  0 active torsions:
REMARK  status: ('A' for Active; 'I' for Inactive)
ROOT
ATOM      1  C2' OXE d   1      -2.350  -0.383  -0.314  0.00  0.00     0.078 C 
ATOM      2  C1' OXE d   1      -1.254   2.159   0.149  0.00  0.00     0.078 C 
ATOM      3  C1  OXE d   1      -2.524   2.077  -0.661  0.00  0.00    -0.078 A 
ATOM      4  C2  OXE d   1      -3.027   0.826  -0.922  0.00  0.00    -0.078 A 
ATOM      5  C3  OXE d   1      -4.226   0.696  -1.619  0.00  0.00     0.003 A 
ATOM      6  C4  OXE d   1      -4.840   1.819  -2.187  0.00  0.00    -0.002 A 
ATOM      7  C5  OXE d   1      -4.322   3.099  -1.966  0.00  0.00    -0.002 A 
ATOM      8  C6  OXE d   1      -3.190   3.249  -1.172  0.00  0.00     0.003 A 
ENDROOT
TORSDOF 0
ENDMDL
