MODEL 1
REMARK minimizedAffinity 4.37689972
REMARK minimizedRMSD -1
REMARK  0 active torsions:
REMARK  status: ('A' for Active; 'I' for Inactive)
ROOT
ATOM      1  C2' OXE d   1       0.506   3.246  -1.415  0.00  0.00     0.078 C 
ATOM      2  C1' OXE d   1       2.228   3.350   0.799  0.00  0.00     0.078 C 
ATOM      3  C1  OXE d   1       0.780   3.012   1.049  0.00  0.00    -0.078 A 
ATOM      4  C2  OXE d   1      -0.065   3.009  -0.034  0.00  0.00    -0.078 A 
ATOM      5  C3  OXE d   1      -1.399   2.649   0.133  0.00  0.00     0.003 A 
ATOM      6  C4  OXE d   1      -1.922   2.441   1.415  0.00  0.00    -0.002 A 
ATOM      7  C5  OXE d   1      -1.087   2.479   2.537  0.00  0.00    -0.002 A 
ATOM      8  C6  OXE d   1       0.272   2.720   2.367  0.00  0.00     0.003 A 
ENDROOT
TORSDOF 0
ENDMDL
