MODEL 1
REMARK minimizedAffinity 10.3170528
REMARK minimizedRMSD -1
REMARK  0 active torsions:
REMARK  status: ('A' for Active; 'I' for Inactive)
ROOT
ATOM      1  C2' OXE d   1       2.351  -4.436  -4.924  0.00  0.00     0.078 C 
ATOM      2  C1' OXE d   1       3.897  -5.733  -2.972  0.00  0.00     0.078 C 
ATOM      3  C1  OXE d   1       2.588  -5.119  -2.540  0.00  0.00    -0.078 A 
ATOM      4  C2  OXE d   1       1.861  -4.446  -3.492  0.00  0.00    -0.078 A 
ATOM      5  C3  OXE d   1       0.620  -3.909  -3.159  0.00  0.00     0.003 A 
ATOM      6  C4  OXE d   1       0.179  -3.914  -1.831  0.00  0.00    -0.002 A 
ATOM      7  C5  OXE d   1       0.923  -4.560  -0.838  0.00  0.00    -0.002 A 
ATOM      8  C6  OXE d   1       2.107  -5.203  -1.183  0.00  0.00     0.003 A 
ENDROOT
TORSDOF 0
ENDMDL
