MODEL 1
REMARK minimizedAffinity 10.9971304
REMARK minimizedRMSD -1
REMARK  0 active torsions:
REMARK  status: ('A' for Active; 'I' for Inactive)
ROOT
ATOM      1  C   UNL d   1      -1.152   4.675  -1.713  0.00  0.00    -0.002 A 
ATOM      2  C1  UNL d   1       0.202   4.643  -2.017  0.00  0.00     0.010 A 
ATOM      3  C2  UNL d   1       1.113   4.050  -1.141  0.00  0.00     0.041 A 
ATOM      4  C3  UNL d   1       0.636   3.482   0.057  0.00  0.00    -0.075 A 
ATOM      5  S   UNL d   1       1.567   2.701   1.280  0.00  0.00     0.015 SA
ATOM      6  C4  UNL d   1       0.189   2.391   2.234  0.00  0.00     0.022 A 
ATOM      7  C5  UNL d   1      -0.961   2.865   1.650  0.00  0.00     0.026 A 
ATOM      8  C6  UNL d   1      -0.723   3.501   0.385  0.00  0.00    -0.082 A 
ATOM      9  C7  UNL d   1      -1.621   4.111  -0.524  0.00  0.00     0.045 A 
ENDROOT
TORSDOF 0
ENDMDL
