MODEL 1
REMARK minimizedAffinity 7.14758015
REMARK minimizedRMSD -1
REMARK  0 active torsions:
REMARK  status: ('A' for Active; 'I' for Inactive)
ROOT
ATOM      1  C   UNL d   1      -5.763   5.319  -2.116  0.00  0.00    -0.002 A 
ATOM      2  C1  UNL d   1      -5.782   5.966  -3.344  0.00  0.00     0.010 A 
ATOM      3  C2  UNL d   1      -5.848   5.234  -4.531  0.00  0.00     0.041 A 
ATOM      4  C3  UNL d   1      -5.898   3.828  -4.463  0.00  0.00    -0.075 A 
ATOM      5  S   UNL d   1      -5.984   2.726  -5.786  0.00  0.00     0.015 SA
ATOM      6  C4  UNL d   1      -5.999   1.371  -4.753  0.00  0.00     0.022 A 
ATOM      7  C5  UNL d   1      -5.940   1.732  -3.428  0.00  0.00     0.026 A 
ATOM      8  C6  UNL d   1      -5.882   3.154  -3.239  0.00  0.00    -0.082 A 
ATOM      9  C7  UNL d   1      -5.812   3.924  -2.053  0.00  0.00     0.045 A 
ENDROOT
TORSDOF 0
ENDMDL
