MODEL 1
REMARK minimizedAffinity 12.4426813
REMARK minimizedRMSD -1
REMARK  0 active torsions:
REMARK  status: ('A' for Active; 'I' for Inactive)
ROOT
ATOM      1  C   UNL d   1      -0.176   3.357   1.319  0.00  0.00    -0.002 A 
ATOM      2  C1  UNL d   1       0.751   2.887   0.399  0.00  0.00     0.010 A 
ATOM      3  C2  UNL d   1       0.751   3.360  -0.915  0.00  0.00     0.041 A 
ATOM      4  C3  UNL d   1      -0.205   4.324  -1.292  0.00  0.00    -0.075 A 
ATOM      5  S   UNL d   1      -0.394   5.049  -2.845  0.00  0.00     0.015 SA
ATOM      6  C4  UNL d   1      -1.709   5.999  -2.324  0.00  0.00     0.022 A 
ATOM      7  C5  UNL d   1      -2.010   5.782  -1.000  0.00  0.00     0.026 A 
ATOM      8  C6  UNL d   1      -1.148   4.814  -0.383  0.00  0.00    -0.082 A 
ATOM      9  C7  UNL d   1      -1.122   4.314   0.941  0.00  0.00     0.045 A 
ENDROOT
TORSDOF 0
ENDMDL
