MODEL 1
REMARK minimizedAffinity 15.3815699
REMARK minimizedRMSD -1
REMARK  0 active torsions:
REMARK  status: ('A' for Active; 'I' for Inactive)
ROOT
ATOM      1  C   UNL d   1       5.455  -3.015  -1.015  0.00  0.00    -0.002 A 
ATOM      2  C1  UNL d   1       5.083  -4.334  -1.239  0.00  0.00     0.010 A 
ATOM      3  C2  UNL d   1       3.735  -4.684  -1.337  0.00  0.00     0.041 A 
ATOM      4  C3  UNL d   1       2.758  -3.678  -1.207  0.00  0.00    -0.075 A 
ATOM      5  S   UNL d   1       1.047  -3.873  -1.293  0.00  0.00     0.015 SA
ATOM      6  C4  UNL d   1       0.769  -2.211  -1.036  0.00  0.00     0.022 A 
ATOM      7  C5  UNL d   1       1.942  -1.510  -0.886  0.00  0.00     0.026 A 
ATOM      8  C6  UNL d   1       3.108  -2.343  -0.983  0.00  0.00    -0.082 A 
ATOM      9  C7  UNL d   1       4.483  -2.020  -0.887  0.00  0.00     0.045 A 
ENDROOT
TORSDOF 0
ENDMDL
