MODEL 1
REMARK minimizedAffinity 4.57736397
REMARK minimizedRMSD -1
REMARK  0 active torsions:
REMARK  status: ('A' for Active; 'I' for Inactive)
ROOT
ATOM      1  C   UNL d   1      -4.294  -2.741   5.378  0.00  0.00    -0.002 A 
ATOM      2  C1  UNL d   1      -5.403  -2.144   5.960  0.00  0.00     0.010 A 
ATOM      3  C2  UNL d   1      -5.984  -1.012   5.386  0.00  0.00     0.041 A 
ATOM      4  C3  UNL d   1      -5.426  -0.485   4.204  0.00  0.00    -0.075 A 
ATOM      5  S   UNL d   1      -5.970   0.893   3.322  0.00  0.00     0.015 SA
ATOM      6  C4  UNL d   1      -4.743   0.722   2.152  0.00  0.00     0.022 A 
ATOM      7  C5  UNL d   1      -3.929  -0.355   2.412  0.00  0.00     0.026 A 
ATOM      8  C6  UNL d   1      -4.310  -1.069   3.599  0.00  0.00    -0.082 A 
ATOM      9  C7  UNL d   1      -3.744  -2.215   4.206  0.00  0.00     0.045 A 
ENDROOT
TORSDOF 0
ENDMDL
