MODEL 1
REMARK minimizedAffinity 5.84014797
REMARK minimizedRMSD -1
REMARK  0 active torsions:
REMARK  status: ('A' for Active; 'I' for Inactive)
ROOT
ATOM      1  C   UNL d   1       0.231   2.872   0.606  0.00  0.00    -0.002 A 
ATOM      2  C1  UNL d   1       1.321   3.582   0.122  0.00  0.00     0.010 A 
ATOM      3  C2  UNL d   1       1.159   4.529  -0.890  0.00  0.00     0.041 A 
ATOM      4  C3  UNL d   1      -0.130   4.755  -1.412  0.00  0.00    -0.075 A 
ATOM      5  S   UNL d   1      -0.568   5.868  -2.654  0.00  0.00     0.015 SA
ATOM      6  C4  UNL d   1      -2.213   5.427  -2.572  0.00  0.00     0.022 A 
ATOM      7  C5  UNL d   1      -2.440   4.457  -1.625  0.00  0.00     0.026 A 
ATOM      8  C6  UNL d   1      -1.244   4.054  -0.941  0.00  0.00    -0.082 A 
ATOM      9  C7  UNL d   1      -1.046   3.099   0.086  0.00  0.00     0.045 A 
ENDROOT
TORSDOF 0
ENDMDL
