MODEL 1
REMARK minimizedAffinity 5.73644304
REMARK minimizedRMSD -1
REMARK  0 active torsions:
REMARK  status: ('A' for Active; 'I' for Inactive)
ROOT
ATOM      1  C   UNL d   1      -0.789   5.887  -1.126  0.00  0.00    -0.002 A 
ATOM      2  C1  UNL d   1      -0.776   4.917  -2.118  0.00  0.00     0.010 A 
ATOM      3  C2  UNL d   1      -0.590   3.572  -1.794  0.00  0.00     0.041 A 
ATOM      4  C3  UNL d   1      -0.417   3.214  -0.442  0.00  0.00    -0.075 A 
ATOM      5  S   UNL d   1      -0.175   1.629   0.191  0.00  0.00     0.015 SA
ATOM      6  C4  UNL d   1      -0.083   2.202   1.793  0.00  0.00     0.022 A 
ATOM      7  C5  UNL d   1      -0.232   3.567   1.862  0.00  0.00     0.026 A 
ATOM      8  C6  UNL d   1      -0.428   4.172   0.575  0.00  0.00    -0.082 A 
ATOM      9  C7  UNL d   1      -0.618   5.528   0.214  0.00  0.00     0.045 A 
ENDROOT
TORSDOF 0
ENDMDL
