MODEL 1
REMARK minimizedAffinity 4.78788424
REMARK minimizedRMSD -1
REMARK  1 active torsions:
REMARK  status: ('A' for Active; 'I' for Inactive)
REMARK    1  A    between atoms: C1_2  and  C2_3 
ROOT
ATOM      1  C2  UNL d   1       0.971  -1.405   3.068  0.00  0.00    -0.081 A 
ATOM      2  C3  UNL d   1       0.802  -0.128   2.518  0.00  0.00     0.006 A 
ATOM      3  C4  UNL d   1      -0.357   0.188   1.805  0.00  0.00     0.002 A 
ATOM      4  C5  UNL d   1      -1.368  -0.763   1.636  0.00  0.00    -0.080 A 
ATOM      5  C6  UNL d   1      -2.630  -0.427   0.898  0.00  0.00     0.076 C 
ATOM      6  C7  UNL d   1      -1.192  -2.044   2.170  0.00  0.00     0.002 A 
ATOM      7  C8  UNL d   1      -0.034  -2.361   2.882  0.00  0.00     0.006 A 
ENDROOT
BRANCH   1   8
ATOM      8  C1  UNL d   1       2.190  -1.729   3.893  0.00  0.00     0.054 C 
ATOM      9  C   UNL d   1       1.985  -1.355   5.354  0.00  0.00     0.018 C 
ENDBRANCH   1   8
TORSDOF 1
ENDMDL
