MODEL 1
REMARK minimizedAffinity -0.107313
REMARK minimizedRMSD -1
REMARK  1 active torsions:
REMARK  status: ('A' for Active; 'I' for Inactive)
REMARK    1  A    between atoms: C1_2  and  C2_3 
ROOT
ATOM      1  C2  UNL d   1       0.556  -1.083   3.042  0.00  0.00    -0.081 A 
ATOM      2  C3  UNL d   1      -0.595  -1.863   3.205  0.00  0.00     0.006 A 
ATOM      3  C4  UNL d   1      -1.771  -1.542   2.523  0.00  0.00     0.002 A 
ATOM      4  C5  UNL d   1      -1.813  -0.441   1.660  0.00  0.00    -0.080 A 
ATOM      5  C6  UNL d   1      -3.060  -0.103   0.898  0.00  0.00     0.076 C 
ATOM      6  C7  UNL d   1      -0.668   0.349   1.511  0.00  0.00     0.002 A 
ATOM      7  C8  UNL d   1       0.507   0.029   2.194  0.00  0.00     0.006 A 
ENDROOT
BRANCH   1   8
ATOM      8  C1  UNL d   1       1.844  -1.464   3.727  0.00  0.00     0.054 C 
ATOM      9  C   UNL d   1       1.847  -1.025   5.184  0.00  0.00     0.018 C 
ENDBRANCH   1   8
TORSDOF 1
ENDMDL
