MODEL 1
REMARK minimizedAffinity 6.60444593
REMARK minimizedRMSD -1
REMARK  1 active torsions:
REMARK  status: ('A' for Active; 'I' for Inactive)
REMARK    1  A    between atoms: C1_2  and  C2_3 
ROOT
ATOM      1  C2  UNL d   1       0.279  -0.984  -4.776  0.00  0.00    -0.081 A 
ATOM      2  C3  UNL d   1       0.616  -0.048  -5.762  0.00  0.00     0.006 A 
ATOM      3  C4  UNL d   1       1.952   0.283  -5.997  0.00  0.00     0.002 A 
ATOM      4  C5  UNL d   1       2.974  -0.322  -5.258  0.00  0.00    -0.080 A 
ATOM      5  C6  UNL d   1       4.415   0.002  -5.522  0.00  0.00     0.076 C 
ATOM      6  C7  UNL d   1       2.637  -1.244  -4.261  0.00  0.00     0.002 A 
ATOM      7  C8  UNL d   1       1.301  -1.574  -4.025  0.00  0.00     0.006 A 
ENDROOT
BRANCH   1   8
ATOM      8  C1  UNL d   1      -1.156  -1.390  -4.564  0.00  0.00     0.054 C 
ATOM      9  C   UNL d   1      -2.115  -0.335  -5.096  0.00  0.00     0.018 C 
ENDBRANCH   1   8
TORSDOF 1
ENDMDL
