MODEL 1
REMARK minimizedAffinity -2.12725186
REMARK minimizedRMSD -1
REMARK  1 active torsions:
REMARK  status: ('A' for Active; 'I' for Inactive)
REMARK    1  A    between atoms: C1_2  and  C2_3 
ROOT
ATOM      1  C2  UNL d   1      -0.896  -1.854  -0.676  0.00  0.00    -0.081 A 
ATOM      2  C3  UNL d   1       0.059  -1.503   0.287  0.00  0.00     0.006 A 
ATOM      3  C4  UNL d   1      -0.300  -0.722   1.388  0.00  0.00     0.002 A 
ATOM      4  C5  UNL d   1      -1.619  -0.285   1.549  0.00  0.00    -0.080 A 
ATOM      5  C6  UNL d   1      -2.023   0.529   2.742  0.00  0.00     0.076 C 
ATOM      6  C7  UNL d   1      -2.569  -0.620   0.578  0.00  0.00     0.002 A 
ATOM      7  C8  UNL d   1      -2.211  -1.400  -0.524  0.00  0.00     0.006 A 
ENDROOT
BRANCH   1   8
ATOM      8  C1  UNL d   1      -0.527  -2.750  -1.831  0.00  0.00     0.054 C 
ATOM      9  C   UNL d   1       0.277  -1.997  -2.881  0.00  0.00     0.018 C 
ENDBRANCH   1   8
TORSDOF 1
ENDMDL
