MODEL 1
REMARK minimizedAffinity -4.17917395
REMARK minimizedRMSD -1
REMARK  1 active torsions:
REMARK  status: ('A' for Active; 'I' for Inactive)
REMARK    1  A    between atoms: C1_2  and  C2_3 
ROOT
ATOM      1  C2  UNL d   1       2.842  -0.492  -1.173  0.00  0.00    -0.076 A 
ATOM      2  C3  UNL d   1       2.287  -1.744  -1.492  0.00  0.00     0.004 A 
ATOM      3  C4  UNL d   1       3.070  -2.757  -2.041  0.00  0.00    -0.003 A 
ATOM      4  C5  UNL d   1       4.422  -2.536  -2.280  0.00  0.00     0.000 A 
ATOM      5  C6  UNL d   1       4.993  -1.307  -1.953  0.00  0.00     0.000 A 
ATOM      6  C7  UNL d   1       4.221  -0.280  -1.384  0.00  0.00    -0.073 A 
ATOM      7  C8  UNL d   1       4.888   1.028  -1.057  0.00  0.00     0.078 C 
ENDROOT
BRANCH   1   8
ATOM      8  C1  UNL d   1       1.937   0.577  -0.604  0.00  0.00     0.053 C 
ATOM      9  C   UNL d   1       0.521   0.077  -0.367  0.00  0.00     0.018 C 
ENDBRANCH   1   8
TORSDOF 1
ENDMDL
