MODEL 1
REMARK minimizedAffinity 2.24533105
REMARK minimizedRMSD -1
REMARK  1 active torsions:
REMARK  status: ('A' for Active; 'I' for Inactive)
REMARK    1  A    between atoms: C1_2  and  C2_3 
ROOT
ATOM      1  C2  UNL d   1       0.759   0.403  -1.455  0.00  0.00    -0.076 A 
ATOM      2  C3  UNL d   1       0.444   0.596  -2.812  0.00  0.00     0.004 A 
ATOM      3  C4  UNL d   1      -0.518  -0.190  -3.444  0.00  0.00    -0.003 A 
ATOM      4  C5  UNL d   1      -1.181  -1.182  -2.729  0.00  0.00     0.000 A 
ATOM      5  C6  UNL d   1      -0.894  -1.376  -1.379  0.00  0.00     0.000 A 
ATOM      6  C7  UNL d   1       0.061  -0.581  -0.722  0.00  0.00    -0.073 A 
ATOM      7  C8  UNL d   1       0.336  -0.837   0.735  0.00  0.00     0.078 C 
ENDROOT
BRANCH   1   8
ATOM      8  C1  UNL d   1       1.830   1.268  -0.830  0.00  0.00     0.053 C 
ATOM      9  C   UNL d   1       3.119   1.273  -1.637  0.00  0.00     0.018 C 
ENDBRANCH   1   8
TORSDOF 1
ENDMDL
