MODEL 1
REMARK minimizedAffinity 1.28138685
REMARK minimizedRMSD -1
REMARK  1 active torsions:
REMARK  status: ('A' for Active; 'I' for Inactive)
REMARK    1  A    between atoms: C1_2  and  C2_3 
ROOT
ATOM      1  C2  UNL d   1       2.504   0.582  -0.478  0.00  0.00    -0.076 A 
ATOM      2  C3  UNL d   1       2.010   1.803   0.012  0.00  0.00     0.004 A 
ATOM      3  C4  UNL d   1       0.741   1.888   0.581  0.00  0.00    -0.003 A 
ATOM      4  C5  UNL d   1      -0.056   0.751   0.670  0.00  0.00     0.000 A 
ATOM      5  C6  UNL d   1       0.425  -0.473   0.205  0.00  0.00     0.000 A 
ATOM      6  C7  UNL d   1       1.709  -0.578  -0.356  0.00  0.00    -0.073 A 
ATOM      7  C8  UNL d   1       2.174  -1.922  -0.847  0.00  0.00     0.078 C 
ENDROOT
BRANCH   1   8
ATOM      8  C1  UNL d   1       3.877   0.557  -1.110  0.00  0.00     0.053 C 
ATOM      9  C   UNL d   1       4.657   1.839  -0.860  0.00  0.00     0.018 C 
ENDBRANCH   1   8
TORSDOF 1
ENDMDL
