MODEL 1
REMARK minimizedAffinity 6.55875158
REMARK minimizedRMSD -1
REMARK  1 active torsions:
REMARK  status: ('A' for Active; 'I' for Inactive)
REMARK    1  A    between atoms: C1_2  and  C2_3 
ROOT
ATOM      1  C2  UNL d   1      -2.922   3.504  -5.463  0.00  0.00    -0.076 A 
ATOM      2  C3  UNL d   1      -3.470   2.219  -5.309  0.00  0.00     0.004 A 
ATOM      3  C4  UNL d   1      -4.839   2.000  -5.454  0.00  0.00    -0.003 A 
ATOM      4  C5  UNL d   1      -5.682   3.064  -5.756  0.00  0.00     0.000 A 
ATOM      5  C6  UNL d   1      -5.153   4.342  -5.931  0.00  0.00     0.000 A 
ATOM      6  C7  UNL d   1      -3.773   4.577  -5.804  0.00  0.00    -0.073 A 
ATOM      7  C8  UNL d   1      -3.258   5.977  -5.997  0.00  0.00     0.078 C 
ENDROOT
BRANCH   1   8
ATOM      8  C1  UNL d   1      -1.433   3.685  -5.267  0.00  0.00     0.053 C 
ATOM      9  C   UNL d   1      -0.933   5.017  -5.805  0.00  0.00     0.018 C 
ENDBRANCH   1   8
TORSDOF 1
ENDMDL
