MODEL 1
REMARK minimizedAffinity -2.48933816
REMARK minimizedRMSD -1
REMARK  1 active torsions:
REMARK  status: ('A' for Active; 'I' for Inactive)
REMARK    1  A    between atoms: C1_2  and  C2_3 
ROOT
ATOM      1  C2  UNL d   1      -4.550   3.676  -5.873  0.00  0.00    -0.076 A 
ATOM      2  C3  UNL d   1      -3.482   4.588  -5.812  0.00  0.00     0.004 A 
ATOM      3  C4  UNL d   1      -2.167   4.145  -5.684  0.00  0.00    -0.003 A 
ATOM      4  C5  UNL d   1      -1.898   2.782  -5.615  0.00  0.00     0.000 A 
ATOM      5  C6  UNL d   1      -2.943   1.863  -5.692  0.00  0.00     0.000 A 
ATOM      6  C7  UNL d   1      -4.273   2.292  -5.838  0.00  0.00    -0.073 A 
ATOM      7  C8  UNL d   1      -5.362   1.257  -5.910  0.00  0.00     0.078 C 
ENDROOT
BRANCH   1   8
ATOM      8  C1  UNL d   1      -5.958   4.215  -5.985  0.00  0.00     0.053 C 
ATOM      9  C   UNL d   1      -6.000   5.736  -5.998  0.00  0.00     0.018 C 
ENDBRANCH   1   8
TORSDOF 1
ENDMDL
