MODEL 1
REMARK minimizedAffinity 5.60708523
REMARK minimizedRMSD -1
REMARK  1 active torsions:
REMARK  status: ('A' for Active; 'I' for Inactive)
REMARK    1  A    between atoms: C1_2  and  C2_3 
ROOT
ATOM      1  C2  UNL d   1      -2.947   4.270  -5.731  0.00  0.00    -0.076 A 
ATOM      2  C3  UNL d   1      -2.450   2.955  -5.716  0.00  0.00     0.004 A 
ATOM      3  C4  UNL d   1      -3.308   1.863  -5.832  0.00  0.00    -0.003 A 
ATOM      4  C5  UNL d   1      -4.677   2.068  -5.965  0.00  0.00     0.000 A 
ATOM      5  C6  UNL d   1      -5.186   3.366  -5.999  0.00  0.00     0.000 A 
ATOM      6  C7  UNL d   1      -4.332   4.478  -5.900  0.00  0.00    -0.073 A 
ATOM      7  C8  UNL d   1      -4.935   5.856  -5.937  0.00  0.00     0.078 C 
ENDROOT
BRANCH   1   8
ATOM      8  C1  UNL d   1      -1.971   5.414  -5.575  0.00  0.00     0.053 C 
ATOM      9  C   UNL d   1      -0.556   5.034  -5.983  0.00  0.00     0.018 C 
ENDBRANCH   1   8
TORSDOF 1
ENDMDL
