MODEL 1
REMARK minimizedAffinity 6.39292669
REMARK minimizedRMSD -1
REMARK  1 active torsions:
REMARK  status: ('A' for Active; 'I' for Inactive)
REMARK    1  A    between atoms: C1_2  and  C2_3 
ROOT
ATOM      1  C2  UNL d   1      -4.288   2.979  -5.458  0.00  0.00    -0.076 A 
ATOM      2  C3  UNL d   1      -2.954   2.614  -5.207  0.00  0.00     0.004 A 
ATOM      3  C4  UNL d   1      -1.934   3.564  -5.225  0.00  0.00    -0.003 A 
ATOM      4  C5  UNL d   1      -2.232   4.896  -5.494  0.00  0.00     0.000 A 
ATOM      5  C6  UNL d   1      -3.552   5.279  -5.728  0.00  0.00     0.000 A 
ATOM      6  C7  UNL d   1      -4.594   4.336  -5.698  0.00  0.00    -0.073 A 
ATOM      7  C8  UNL d   1      -5.999   4.804  -5.964  0.00  0.00     0.078 C 
ENDROOT
BRANCH   1   8
ATOM      8  C1  UNL d   1      -5.348   1.901  -5.452  0.00  0.00     0.053 C 
ATOM      9  C   UNL d   1      -4.803   0.552  -5.009  0.00  0.00     0.018 C 
ENDBRANCH   1   8
TORSDOF 1
ENDMDL
