MODEL 1
REMARK minimizedAffinity -2.56609797
REMARK minimizedRMSD -1
REMARK  1 active torsions:
REMARK  status: ('A' for Active; 'I' for Inactive)
REMARK    1  A    between atoms: C1_2  and  C2_3 
ROOT
ATOM      1  C2  UNL d   1       3.527  -1.146  -3.698  0.00  0.00    -0.076 A 
ATOM      2  C3  UNL d   1       3.587  -0.951  -5.089  0.00  0.00     0.004 A 
ATOM      3  C4  UNL d   1       4.405  -1.745  -5.890  0.00  0.00    -0.003 A 
ATOM      4  C5  UNL d   1       5.177  -2.748  -5.313  0.00  0.00     0.000 A 
ATOM      5  C6  UNL d   1       5.117  -2.966  -3.937  0.00  0.00     0.000 A 
ATOM      6  C7  UNL d   1       4.285  -2.185  -3.117  0.00  0.00    -0.073 A 
ATOM      7  C8  UNL d   1       4.264  -2.460  -1.639  0.00  0.00     0.078 C 
ENDROOT
BRANCH   1   8
ATOM      8  C1  UNL d   1       2.642  -0.236  -2.877  0.00  0.00     0.053 C 
ATOM      9  C   UNL d   1       1.739  -1.005  -1.925  0.00  0.00     0.018 C 
ENDBRANCH   1   8
TORSDOF 1
ENDMDL
