MODEL 1
REMARK minimizedAffinity -2.84767127
REMARK minimizedRMSD -1
REMARK  1 active torsions:
REMARK  status: ('A' for Active; 'I' for Inactive)
REMARK    1  A    between atoms: C1_2  and  C2_3 
ROOT
ATOM      1  C2  UNL d   1      -3.330  -0.862  -5.925  0.00  0.00    -0.076 A 
ATOM      2  C3  UNL d   1      -2.717  -2.126  -5.874  0.00  0.00     0.004 A 
ATOM      3  C4  UNL d   1      -3.479  -3.290  -5.797  0.00  0.00    -0.003 A 
ATOM      4  C5  UNL d   1      -4.867  -3.210  -5.770  0.00  0.00     0.000 A 
ATOM      5  C6  UNL d   1      -5.492  -1.965  -5.838  0.00  0.00     0.000 A 
ATOM      6  C7  UNL d   1      -4.739  -0.782  -5.933  0.00  0.00    -0.073 A 
ATOM      7  C8  UNL d   1      -5.465   0.533  -5.997  0.00  0.00     0.078 C 
ENDROOT
BRANCH   1   8
ATOM      8  C1  UNL d   1      -2.451   0.367  -5.981  0.00  0.00     0.053 C 
ATOM      9  C   UNL d   1      -3.059   1.552  -5.246  0.00  0.00     0.018 C 
ENDBRANCH   1   8
TORSDOF 1
ENDMDL
