MODEL 1
REMARK minimizedAffinity -0.69870311
REMARK minimizedRMSD -1
REMARK  1 active torsions:
REMARK  status: ('A' for Active; 'I' for Inactive)
REMARK    1  A    between atoms: C1_2  and  C2_3 
ROOT
ATOM      1  C2  UNL d   1      -1.221  -0.138  -2.965  0.00  0.00    -0.076 A 
ATOM      2  C3  UNL d   1      -1.916   1.077  -3.099  0.00  0.00     0.004 A 
ATOM      3  C4  UNL d   1      -3.140   1.134  -3.762  0.00  0.00    -0.003 A 
ATOM      4  C5  UNL d   1      -3.691  -0.024  -4.301  0.00  0.00     0.000 A 
ATOM      5  C6  UNL d   1      -3.024  -1.241  -4.162  0.00  0.00     0.000 A 
ATOM      6  C7  UNL d   1      -1.796  -1.318  -3.482  0.00  0.00    -0.073 A 
ATOM      7  C8  UNL d   1      -1.118  -2.656  -3.367  0.00  0.00     0.078 C 
ENDROOT
BRANCH   1   8
ATOM      8  C1  UNL d   1       0.116  -0.134  -2.259  0.00  0.00     0.053 C 
ATOM      9  C   UNL d   1       0.000   0.254  -0.793  0.00  0.00     0.018 C 
ENDBRANCH   1   8
TORSDOF 1
ENDMDL
