MODEL 1
REMARK minimizedAffinity -4.91264772
REMARK minimizedRMSD -1
REMARK  0 active torsions:
REMARK  status: ('A' for Active; 'I' for Inactive)
ROOT
ATOM      1  C2' OXE d   1      -0.898  -1.032   1.442  0.00  0.00     0.078 C 
ATOM      2  C1' OXE d   1      -2.173   1.456   1.192  0.00  0.00     0.078 C 
ATOM      3  C1  OXE d   1      -0.998   1.174   0.290  0.00  0.00    -0.078 A 
ATOM      4  C2  OXE d   1      -0.351  -0.028   0.451  0.00  0.00    -0.078 A 
ATOM      5  C3  OXE d   1       0.705  -0.361  -0.393  0.00  0.00     0.003 A 
ATOM      6  C4  OXE d   1       1.211   0.578  -1.299  0.00  0.00    -0.002 A 
ATOM      7  C5  OXE d   1       0.592   1.823  -1.452  0.00  0.00    -0.002 A 
ATOM      8  C6  OXE d   1      -0.537   2.120  -0.697  0.00  0.00     0.003 A 
ENDROOT
TORSDOF 0
ENDMDL
