MODEL 1
REMARK minimizedAffinity -5.17129993
REMARK minimizedRMSD -1
REMARK  0 active torsions:
REMARK  status: ('A' for Active; 'I' for Inactive)
ROOT
ATOM      1  C2' OXE d   1      -1.348  -0.836   1.571  0.00  0.00     0.078 C 
ATOM      2  C1' OXE d   1      -2.342   1.734   1.034  0.00  0.00     0.078 C 
ATOM      3  C1  OXE d   1      -1.022   1.347   0.415  0.00  0.00    -0.078 A 
ATOM      4  C2  OXE d   1      -0.521   0.104   0.721  0.00  0.00    -0.078 A 
ATOM      5  C3  OXE d   1       0.666  -0.324   0.133  0.00  0.00     0.003 A 
ATOM      6  C4  OXE d   1       1.430   0.555  -0.644  0.00  0.00    -0.002 A 
ATOM      7  C5  OXE d   1       0.957   1.839  -0.935  0.00  0.00    -0.002 A 
ATOM      8  C6  OXE d   1      -0.284   2.234  -0.450  0.00  0.00     0.003 A 
ENDROOT
TORSDOF 0
ENDMDL
