MODEL 1
REMARK minimizedAffinity 0.437532157
REMARK minimizedRMSD -1
REMARK  0 active torsions:
REMARK  status: ('A' for Active; 'I' for Inactive)
ROOT
ATOM      1  C2' OXE d   1       0.385   2.645  -0.642  0.00  0.00     0.078 C 
ATOM      2  C1' OXE d   1      -0.948   2.267   1.799  0.00  0.00     0.078 C 
ATOM      3  C1  OXE d   1      -0.287   1.068   1.166  0.00  0.00    -0.078 A 
ATOM      4  C2  OXE d   1       0.324   1.253  -0.051  0.00  0.00    -0.078 A 
ATOM      5  C3  OXE d   1       0.996   0.193  -0.653  0.00  0.00     0.003 A 
ATOM      6  C4  OXE d   1       0.925  -1.094  -0.105  0.00  0.00    -0.002 A 
ATOM      7  C5  OXE d   1       0.275  -1.311   1.115  0.00  0.00    -0.002 A 
ATOM      8  C6  OXE d   1      -0.298  -0.235   1.783  0.00  0.00     0.003 A 
ENDROOT
TORSDOF 0
ENDMDL
