MODEL 1
REMARK minimizedAffinity -4.33455133
REMARK minimizedRMSD -1
REMARK  0 active torsions:
REMARK  status: ('A' for Active; 'I' for Inactive)
ROOT
ATOM      1  C2' OXE d   1      -0.078  -1.166   2.256  0.00  0.00     0.078 C 
ATOM      2  C1' OXE d   1       0.678  -0.792  -0.422  0.00  0.00     0.078 C 
ATOM      3  C1  OXE d   1      -0.149   0.286   0.233  0.00  0.00    -0.078 A 
ATOM      4  C2  OXE d   1      -0.554   0.073   1.529  0.00  0.00    -0.078 A 
ATOM      5  C3  OXE d   1      -1.272   1.060   2.198  0.00  0.00     0.003 A 
ATOM      6  C4  OXE d   1      -1.717   2.199   1.516  0.00  0.00    -0.002 A 
ATOM      7  C5  OXE d   1      -1.349   2.417   0.184  0.00  0.00    -0.002 A 
ATOM      8  C6  OXE d   1      -0.532   1.493  -0.458  0.00  0.00     0.003 A 
ENDROOT
TORSDOF 0
ENDMDL
