MODEL 1
REMARK minimizedAffinity -2.96948934
REMARK minimizedRMSD -1
REMARK  0 active torsions:
REMARK  status: ('A' for Active; 'I' for Inactive)
ROOT
ATOM      1  C2' OXE d   1       1.218  -0.840  -0.763  0.00  0.00     0.078 C 
ATOM      2  C1' OXE d   1       0.841   1.936  -0.932  0.00  0.00     0.078 C 
ATOM      3  C1  OXE d   1       0.176   1.204   0.206  0.00  0.00    -0.078 A 
ATOM      4  C2  OXE d   1       0.327  -0.161   0.255  0.00  0.00    -0.078 A 
ATOM      5  C3  OXE d   1      -0.220  -0.878   1.315  0.00  0.00     0.003 A 
ATOM      6  C4  OXE d   1      -1.050  -0.244   2.246  0.00  0.00    -0.002 A 
ATOM      7  C5  OXE d   1      -1.251   1.140   2.192  0.00  0.00    -0.002 A 
ATOM      8  C6  OXE d   1      -0.612   1.883   1.206  0.00  0.00     0.003 A 
ENDROOT
TORSDOF 0
ENDMDL
