MODEL 1
REMARK minimizedAffinity -2.17973375
REMARK minimizedRMSD -1
REMARK  0 active torsions:
REMARK  status: ('A' for Active; 'I' for Inactive)
ROOT
ATOM      1  C2' OXE d   1       0.765  -1.082  -0.768  0.00  0.00     0.078 C 
ATOM      2  C1' OXE d   1       0.761   1.686  -1.233  0.00  0.00     0.078 C 
ATOM      3  C1  OXE d   1       0.142   1.187   0.049  0.00  0.00    -0.078 A 
ATOM      4  C2  OXE d   1       0.106  -0.172   0.247  0.00  0.00    -0.078 A 
ATOM      5  C3  OXE d   1      -0.404  -0.682   1.437  0.00  0.00     0.003 A 
ATOM      6  C4  OXE d   1      -1.020   0.166   2.365  0.00  0.00    -0.002 A 
ATOM      7  C5  OXE d   1      -1.030   1.550   2.165  0.00  0.00    -0.002 A 
ATOM      8  C6  OXE d   1      -0.417   2.079   1.034  0.00  0.00     0.003 A 
ENDROOT
TORSDOF 0
ENDMDL
