MODEL 1
REMARK minimizedAffinity -5.69211388
REMARK minimizedRMSD -1
REMARK  0 active torsions:
REMARK  status: ('A' for Active; 'I' for Inactive)
ROOT
ATOM      1  C2' OXE d   1      -0.289   0.123  -0.161  0.00  0.00     0.078 C 
ATOM      2  C1' OXE d   1       1.109   2.088  -1.597  0.00  0.00     0.078 C 
ATOM      3  C1  OXE d   1       0.136   2.548  -0.540  0.00  0.00    -0.078 A 
ATOM      4  C2  OXE d   1      -0.578   1.581   0.126  0.00  0.00    -0.078 A 
ATOM      5  C3  OXE d   1      -1.448   1.948   1.149  0.00  0.00     0.003 A 
ATOM      6  C4  OXE d   1      -1.716   3.299   1.400  0.00  0.00    -0.002 A 
ATOM      7  C5  OXE d   1      -1.029   4.301   0.706  0.00  0.00    -0.002 A 
ATOM      8  C6  OXE d   1      -0.071   3.942  -0.235  0.00  0.00     0.003 A 
ENDROOT
TORSDOF 0
ENDMDL
