MODEL 1
REMARK minimizedAffinity -5.41749001
REMARK minimizedRMSD -1
REMARK  0 active torsions:
REMARK  status: ('A' for Active; 'I' for Inactive)
ROOT
ATOM      1  C2' OXE d   1      -0.706   3.506  -0.989  0.00  0.00     0.078 C 
ATOM      2  C1' OXE d   1      -2.352   2.888   1.199  0.00  0.00     0.078 C 
ATOM      3  C1  OXE d   1      -1.222   1.941   0.879  0.00  0.00    -0.078 A 
ATOM      4  C2  OXE d   1      -0.451   2.227  -0.221  0.00  0.00    -0.078 A 
ATOM      5  C3  OXE d   1       0.638   1.416  -0.529  0.00  0.00     0.003 A 
ATOM      6  C4  OXE d   1       0.861   0.229   0.180  0.00  0.00    -0.002 A 
ATOM      7  C5  OXE d   1       0.063  -0.101   1.280  0.00  0.00    -0.002 A 
ATOM      8  C6  OXE d   1      -0.954   0.764   1.668  0.00  0.00     0.003 A 
ENDROOT
TORSDOF 0
ENDMDL
