MODEL 1
REMARK minimizedAffinity -6.33816433
REMARK minimizedRMSD -1
REMARK  0 active torsions:
REMARK  status: ('A' for Active; 'I' for Inactive)
ROOT
ATOM      1  C2' OXE d   1      -0.285  -0.484   1.955  0.00  0.00     0.078 C 
ATOM      2  C1' OXE d   1       0.780  -0.075  -0.610  0.00  0.00     0.078 C 
ATOM      3  C1  OXE d   1      -0.128   0.990  -0.047  0.00  0.00    -0.078 A 
ATOM      4  C2  OXE d   1      -0.682   0.760   1.189  0.00  0.00    -0.078 A 
ATOM      5  C3  OXE d   1      -1.483   1.734   1.778  0.00  0.00     0.003 A 
ATOM      6  C4  OXE d   1      -1.853   2.877   1.059  0.00  0.00    -0.002 A 
ATOM      7  C5  OXE d   1      -1.332   3.112  -0.218  0.00  0.00    -0.002 A 
ATOM      8  C6  OXE d   1      -0.437   2.201  -0.767  0.00  0.00     0.003 A 
ENDROOT
TORSDOF 0
ENDMDL
