MODEL 1
REMARK minimizedAffinity -2.60140014
REMARK minimizedRMSD -1
REMARK  0 active torsions:
REMARK  status: ('A' for Active; 'I' for Inactive)
ROOT
ATOM      1  C2' OXE d   1       1.692   0.865  -1.036  0.00  0.00     0.078 C 
ATOM      2  C1' OXE d   1       0.204   3.158  -0.399  0.00  0.00     0.078 C 
ATOM      3  C1  OXE d   1      -0.112   1.886   0.346  0.00  0.00    -0.078 A 
ATOM      4  C2  OXE d   1       0.589   0.757  -0.005  0.00  0.00    -0.078 A 
ATOM      5  C3  OXE d   1       0.376  -0.431   0.689  0.00  0.00     0.003 A 
ATOM      6  C4  OXE d   1      -0.653  -0.524   1.634  0.00  0.00    -0.002 A 
ATOM      7  C5  OXE d   1      -1.406   0.604   1.978  0.00  0.00    -0.002 A 
ATOM      8  C6  OXE d   1      -1.120   1.824   1.375  0.00  0.00     0.003 A 
ENDROOT
TORSDOF 0
ENDMDL
