MODEL 1
REMARK minimizedAffinity -3.7952745
REMARK minimizedRMSD -1
REMARK  0 active torsions:
REMARK  status: ('A' for Active; 'I' for Inactive)
ROOT
ATOM      1  C2' OXE d   1       1.907  -3.067  -1.336  0.00  0.00     0.078 C 
ATOM      2  C1' OXE d   1      -0.642  -3.712  -2.319  0.00  0.00     0.078 C 
ATOM      3  C1  OXE d   1      -0.527  -2.534  -1.384  0.00  0.00    -0.078 A 
ATOM      4  C2  OXE d   1       0.717  -2.254  -0.870  0.00  0.00    -0.078 A 
ATOM      5  C3  OXE d   1       0.889  -1.146  -0.046  0.00  0.00     0.003 A 
ATOM      6  C4  OXE d   1      -0.218  -0.406   0.388  0.00  0.00    -0.002 A 
ATOM      7  C5  OXE d   1      -1.499  -0.699  -0.092  0.00  0.00    -0.002 A 
ATOM      8  C6  OXE d   1      -1.664  -1.731  -1.009  0.00  0.00     0.003 A 
ENDROOT
TORSDOF 0
ENDMDL
