MODEL 1
REMARK minimizedAffinity -4.63196516
REMARK minimizedRMSD -1
REMARK  0 active torsions:
REMARK  status: ('A' for Active; 'I' for Inactive)
ROOT
ATOM      1  C2' OXE d   1      -0.687   2.566  -1.249  0.00  0.00     0.078 C 
ATOM      2  C1' OXE d   1      -2.043   2.518   1.208  0.00  0.00     0.078 C 
ATOM      3  C1  OXE d   1      -1.035   1.429   0.939  0.00  0.00    -0.078 A 
ATOM      4  C2  OXE d   1      -0.410   1.434  -0.284  0.00  0.00    -0.078 A 
ATOM      5  C3  OXE d   1       0.569   0.484  -0.563  0.00  0.00     0.003 A 
ATOM      6  C4  OXE d   1       0.812  -0.566   0.331  0.00  0.00    -0.002 A 
ATOM      7  C5  OXE d   1       0.157  -0.613   1.567  0.00  0.00    -0.002 A 
ATOM      8  C6  OXE d   1      -0.736   0.399   1.903  0.00  0.00     0.003 A 
ENDROOT
TORSDOF 0
ENDMDL
