MODEL 1
REMARK minimizedAffinity -5.81826067
REMARK minimizedRMSD -1
REMARK  0 active torsions:
REMARK  status: ('A' for Active; 'I' for Inactive)
ROOT
ATOM      1  C2' OXE d   1      -0.105  -0.597   2.176  0.00  0.00     0.078 C 
ATOM      2  C1' OXE d   1       0.532  -0.545  -0.557  0.00  0.00     0.078 C 
ATOM      3  C1  OXE d   1      -0.118   0.679   0.037  0.00  0.00    -0.078 A 
ATOM      4  C2  OXE d   1      -0.469   0.627   1.365  0.00  0.00    -0.078 A 
ATOM      5  C3  OXE d   1      -1.022   1.749   1.976  0.00  0.00     0.003 A 
ATOM      6  C4  OXE d   1      -1.365   2.874   1.216  0.00  0.00    -0.002 A 
ATOM      7  C5  OXE d   1      -1.052   2.932  -0.147  0.00  0.00    -0.002 A 
ATOM      8  C6  OXE d   1      -0.392   1.862  -0.741  0.00  0.00     0.003 A 
ENDROOT
TORSDOF 0
ENDMDL
