MODEL 1
REMARK minimizedAffinity -3.45832682
REMARK minimizedRMSD -1
REMARK  0 active torsions:
REMARK  status: ('A' for Active; 'I' for Inactive)
ROOT
ATOM      1  C2' OXE d   1       1.614   0.743  -1.062  0.00  0.00     0.078 C 
ATOM      2  C1' OXE d   1       0.508   3.318  -0.895  0.00  0.00     0.078 C 
ATOM      3  C1  OXE d   1      -0.046   2.254   0.019  0.00  0.00    -0.078 A 
ATOM      4  C2  OXE d   1       0.469   0.985  -0.102  0.00  0.00    -0.078 A 
ATOM      5  C3  OXE d   1       0.032  -0.021   0.755  0.00  0.00     0.003 A 
ATOM      6  C4  OXE d   1      -1.034   0.209   1.633  0.00  0.00    -0.002 A 
ATOM      7  C5  OXE d   1      -1.600   1.484   1.744  0.00  0.00    -0.002 A 
ATOM      8  C6  OXE d   1      -1.090   2.525   0.976  0.00  0.00     0.003 A 
ENDROOT
TORSDOF 0
ENDMDL
