MODEL 1
REMARK minimizedAffinity -2.71702051
REMARK minimizedRMSD -1
REMARK  0 active torsions:
REMARK  status: ('A' for Active; 'I' for Inactive)
ROOT
ATOM      1  C2' OXE d   1      -0.143   1.724   3.015  0.00  0.00     0.078 C 
ATOM      2  C1' OXE d   1      -2.088   2.352   1.090  0.00  0.00     0.078 C 
ATOM      3  C1  OXE d   1      -1.110   1.248   0.769  0.00  0.00    -0.078 A 
ATOM      4  C2  OXE d   1      -0.133   0.980   1.698  0.00  0.00    -0.078 A 
ATOM      5  C3  OXE d   1       0.760  -0.065   1.476  0.00  0.00     0.003 A 
ATOM      6  C4  OXE d   1       0.769  -0.741   0.250  0.00  0.00    -0.002 A 
ATOM      7  C5  OXE d   1      -0.193  -0.456  -0.725  0.00  0.00    -0.002 A 
ATOM      8  C6  OXE d   1      -1.164   0.504  -0.465  0.00  0.00     0.003 A 
ENDROOT
TORSDOF 0
ENDMDL
