MODEL 1
REMARK minimizedAffinity -3.29682922
REMARK minimizedRMSD -1
REMARK  0 active torsions:
REMARK  status: ('A' for Active; 'I' for Inactive)
ROOT
ATOM      1  C2' OXE d   1      -0.668  -0.914   2.151  0.00  0.00     0.078 C 
ATOM      2  C1' OXE d   1       0.569  -0.883  -0.368  0.00  0.00     0.078 C 
ATOM      3  C1  OXE d   1       0.016   0.417   0.160  0.00  0.00    -0.078 A 
ATOM      4  C2  OXE d   1      -0.629   0.383   1.373  0.00  0.00    -0.078 A 
ATOM      5  C3  OXE d   1      -1.109   1.564   1.932  0.00  0.00     0.003 A 
ATOM      6  C4  OXE d   1      -1.077   2.758   1.202  0.00  0.00    -0.002 A 
ATOM      7  C5  OXE d   1      -0.460   2.807  -0.053  0.00  0.00    -0.002 A 
ATOM      8  C6  OXE d   1       0.128   1.657  -0.568  0.00  0.00     0.003 A 
ENDROOT
TORSDOF 0
ENDMDL
