MODEL 1
REMARK minimizedAffinity -4.16935778
REMARK minimizedRMSD -1
REMARK  0 active torsions:
REMARK  status: ('A' for Active; 'I' for Inactive)
ROOT
ATOM      1  C2' OXE d   1      -0.009  -0.641   1.894  0.00  0.00     0.078 C 
ATOM      2  C1' OXE d   1       0.498  -0.044  -0.802  0.00  0.00     0.078 C 
ATOM      3  C1  OXE d   1      -0.283   0.962   0.007  0.00  0.00    -0.078 A 
ATOM      4  C2  OXE d   1      -0.567   0.640   1.312  0.00  0.00    -0.078 A 
ATOM      5  C3  OXE d   1      -1.237   1.556   2.118  0.00  0.00     0.003 A 
ATOM      6  C4  OXE d   1      -1.759   2.734   1.569  0.00  0.00    -0.002 A 
ATOM      7  C5  OXE d   1      -1.515   3.063   0.231  0.00  0.00    -0.002 A 
ATOM      8  C6  OXE d   1      -0.744   2.209  -0.551  0.00  0.00     0.003 A 
ENDROOT
TORSDOF 0
ENDMDL
