MODEL 1
REMARK minimizedAffinity -4.16090918
REMARK minimizedRMSD -1
REMARK  0 active torsions:
REMARK  status: ('A' for Active; 'I' for Inactive)
ROOT
ATOM      1  C2' OXE d   1       0.440  -0.219  -0.751  0.00  0.00     0.078 C 
ATOM      2  C1' OXE d   1       0.520   2.455  -1.602  0.00  0.00     0.078 C 
ATOM      3  C1  OXE d   1      -0.056   2.168  -0.237  0.00  0.00    -0.078 A 
ATOM      4  C2  OXE d   1      -0.134   0.852   0.151  0.00  0.00    -0.078 A 
ATOM      5  C3  OXE d   1      -0.606   0.536   1.422  0.00  0.00     0.003 A 
ATOM      6  C4  OXE d   1      -1.144   1.531   2.247  0.00  0.00    -0.002 A 
ATOM      7  C5  OXE d   1      -1.111   2.873   1.853  0.00  0.00    -0.002 A 
ATOM      8  C6  OXE d   1      -0.533   3.212   0.635  0.00  0.00     0.003 A 
ENDROOT
TORSDOF 0
ENDMDL
