MODEL 1
REMARK minimizedAffinity -4.79760027
REMARK minimizedRMSD -1
REMARK  0 active torsions:
REMARK  status: ('A' for Active; 'I' for Inactive)
ROOT
ATOM      1  O1  BZF d   1       0.061  -0.762  -0.314  0.00  0.00    -0.204 OA
ATOM      2  C2  BZF d   1      -1.117  -0.928   0.388  0.00  0.00     0.174 A 
ATOM      3  C3  BZF d   1      -1.289   0.071   1.278  0.00  0.00    -0.012 A 
ATOM      4  C3A BZF d   1      -0.192   0.964   1.057  0.00  0.00    -0.107 A 
ATOM      5  C4  BZF d   1       0.181   2.150   1.622  0.00  0.00     0.055 A 
ATOM      6  C5  BZF d   1       1.346   2.730   1.231  0.00  0.00    -0.016 A 
ATOM      7  C6  BZF d   1       2.163   2.151   0.282  0.00  0.00     0.022 A 
ATOM      8  C7  BZF d   1       1.832   0.977  -0.310  0.00  0.00     0.029 A 
ATOM      9  C7A BZF d   1       0.639   0.405   0.060  0.00  0.00     0.058 A 
ENDROOT
TORSDOF 0
ENDMDL
