MODEL 1
REMARK minimizedAffinity -4.64011812
REMARK minimizedRMSD -1
REMARK  0 active torsions:
REMARK  status: ('A' for Active; 'I' for Inactive)
ROOT
ATOM      1  O1  BZF d   1      -1.891   0.527   0.322  0.00  0.00    -0.204 OA
ATOM      2  C2  BZF d   1      -1.607  -0.029  -0.910  0.00  0.00     0.174 A 
ATOM      3  C3  BZF d   1      -0.325   0.205  -1.256  0.00  0.00    -0.012 A 
ATOM      4  C3A BZF d   1       0.253   0.873  -0.131  0.00  0.00    -0.107 A 
ATOM      5  C4  BZF d   1       1.504   1.350   0.137  0.00  0.00     0.055 A 
ATOM      6  C5  BZF d   1       1.722   2.017   1.300  0.00  0.00    -0.016 A 
ATOM      7  C6  BZF d   1       0.711   2.230   2.215  0.00  0.00     0.022 A 
ATOM      8  C7  BZF d   1      -0.545   1.771   1.996  0.00  0.00     0.029 A 
ATOM      9  C7A BZF d   1      -0.760   1.068   0.836  0.00  0.00     0.058 A 
ENDROOT
TORSDOF 0
ENDMDL
