MODEL 1
REMARK minimizedAffinity -3.98513222
REMARK minimizedRMSD -1
REMARK  0 active torsions:
REMARK  status: ('A' for Active; 'I' for Inactive)
ROOT
ATOM      1  O1  BZF d   1       1.147  -1.059  -0.355  0.00  0.00    -0.204 OA
ATOM      2  C2  BZF d   1       2.381  -0.652  -0.824  0.00  0.00     0.174 A 
ATOM      3  C3  BZF d   1       2.547   0.675  -0.648  0.00  0.00    -0.012 A 
ATOM      4  C3A BZF d   1       1.378   1.109   0.054  0.00  0.00    -0.107 A 
ATOM      5  C4  BZF d   1       0.965   2.321   0.530  0.00  0.00     0.055 A 
ATOM      6  C5  BZF d   1      -0.262   2.421   1.105  0.00  0.00    -0.016 A 
ATOM      7  C6  BZF d   1      -1.103   1.334   1.216  0.00  0.00     0.022 A 
ATOM      8  C7  BZF d   1      -0.735   0.110   0.764  0.00  0.00     0.029 A 
ATOM      9  C7A BZF d   1       0.518  -0.002   0.212  0.00  0.00     0.058 A 
ENDROOT
TORSDOF 0
ENDMDL
