MODEL 1
REMARK minimizedAffinity -1.69038522
REMARK minimizedRMSD -1
REMARK  0 active torsions:
REMARK  status: ('A' for Active; 'I' for Inactive)
ROOT
ATOM      1  O1  BZF d   1      -2.396  -0.370  -2.132  0.00  0.00    -0.204 OA
ATOM      2  C2  BZF d   1      -1.847  -1.379  -2.900  0.00  0.00     0.174 A 
ATOM      3  C3  BZF d   1      -0.631  -1.727  -2.434  0.00  0.00    -0.012 A 
ATOM      4  C3A BZF d   1      -0.444  -0.948  -1.248  0.00  0.00    -0.107 A 
ATOM      5  C4  BZF d   1       0.563  -0.860  -0.331  0.00  0.00     0.055 A 
ATOM      6  C5  BZF d   1       0.467   0.054   0.670  0.00  0.00    -0.016 A 
ATOM      7  C6  BZF d   1      -0.618   0.898   0.781  0.00  0.00     0.022 A 
ATOM      8  C7  BZF d   1      -1.645   0.845  -0.102  0.00  0.00     0.029 A 
ATOM      9  C7A BZF d   1      -1.566  -0.100  -1.096  0.00  0.00     0.058 A 
ENDROOT
TORSDOF 0
ENDMDL
