MODEL 1
REMARK minimizedAffinity -4.1765151
REMARK minimizedRMSD -1
REMARK  0 active torsions:
REMARK  status: ('A' for Active; 'I' for Inactive)
ROOT
ATOM      1  O1  BZF d   1       2.164   0.218  -0.643  0.00  0.00    -0.204 OA
ATOM      2  C2  BZF d   1       1.648  -0.946  -1.179  0.00  0.00     0.174 A 
ATOM      3  C3  BZF d   1       0.424  -1.203  -0.676  0.00  0.00    -0.012 A 
ATOM      4  C3A BZF d   1       0.118  -0.084   0.162  0.00  0.00    -0.107 A 
ATOM      5  C4  BZF d   1      -0.964   0.250   0.925  0.00  0.00     0.055 A 
ATOM      6  C5  BZF d   1      -0.916   1.378   1.681  0.00  0.00    -0.016 A 
ATOM      7  C6  BZF d   1       0.198   2.192   1.701  0.00  0.00     0.022 A 
ATOM      8  C7  BZF d   1       1.293   1.904   0.957  0.00  0.00     0.029 A 
ATOM      9  C7A BZF d   1       1.236   0.782   0.167  0.00  0.00     0.058 A 
ENDROOT
TORSDOF 0
ENDMDL
