MODEL 1
REMARK minimizedAffinity -5.72425032
REMARK minimizedRMSD -1
REMARK  0 active torsions:
REMARK  status: ('A' for Active; 'I' for Inactive)
ROOT
ATOM      1  O1  BZF d   1       0.505  -0.509  -0.931  0.00  0.00    -0.204 OA
ATOM      2  C2  BZF d   1      -0.717  -0.954  -0.465  0.00  0.00     0.174 A 
ATOM      3  C3  BZF d   1      -1.157  -0.175   0.545  0.00  0.00    -0.012 A 
ATOM      4  C3A BZF d   1      -0.190   0.874   0.659  0.00  0.00    -0.107 A 
ATOM      5  C4  BZF d   1      -0.081   1.966   1.472  0.00  0.00     0.055 A 
ATOM      6  C5  BZF d   1       1.023   2.753   1.377  0.00  0.00    -0.016 A 
ATOM      7  C6  BZF d   1       2.038   2.474   0.485  0.00  0.00     0.022 A 
ATOM      8  C7  BZF d   1       1.973   1.405  -0.345  0.00  0.00     0.029 A 
ATOM      9  C7A BZF d   1       0.843   0.627  -0.275  0.00  0.00     0.058 A 
ENDROOT
TORSDOF 0
ENDMDL
