MODEL 1
REMARK minimizedAffinity -2.79902196
REMARK minimizedRMSD -1
REMARK  0 active torsions:
REMARK  status: ('A' for Active; 'I' for Inactive)
ROOT
ATOM      1  O1  BZF d   1      -0.024  -0.055  -1.128  0.00  0.00    -0.204 OA
ATOM      2  C2  BZF d   1      -0.027  -0.283   0.235  0.00  0.00     0.174 A 
ATOM      3  C3  BZF d   1      -1.015  -1.135   0.576  0.00  0.00    -0.012 A 
ATOM      4  C3A BZF d   1      -1.614  -1.532  -0.662  0.00  0.00    -0.107 A 
ATOM      5  C4  BZF d   1      -2.637  -2.378  -0.982  0.00  0.00     0.055 A 
ATOM      6  C5  BZF d   1      -3.022  -2.488  -2.281  0.00  0.00    -0.016 A 
ATOM      7  C6  BZF d   1      -2.409  -1.764  -3.283  0.00  0.00     0.022 A 
ATOM      8  C7  BZF d   1      -1.386  -0.916  -3.015  0.00  0.00     0.029 A 
ATOM      9  C7A BZF d   1      -0.974  -0.828  -1.708  0.00  0.00     0.058 A 
ENDROOT
TORSDOF 0
ENDMDL
