MODEL 1
REMARK minimizedAffinity -1.23681128
REMARK minimizedRMSD -1
REMARK  0 active torsions:
REMARK  status: ('A' for Active; 'I' for Inactive)
ROOT
ATOM      1  O1  BZF d   1       0.193  -0.141  -1.564  0.00  0.00    -0.204 OA
ATOM      2  C2  BZF d   1       0.310  -0.538  -0.246  0.00  0.00     0.174 A 
ATOM      3  C3  BZF d   1      -0.628  -1.456   0.063  0.00  0.00    -0.012 A 
ATOM      4  C3A BZF d   1      -1.321  -1.712  -1.163  0.00  0.00    -0.107 A 
ATOM      5  C4  BZF d   1      -2.350  -2.542  -1.504  0.00  0.00     0.055 A 
ATOM      6  C5  BZF d   1      -2.841  -2.500  -2.770  0.00  0.00    -0.016 A 
ATOM      7  C6  BZF d   1      -2.331  -1.638  -3.719  0.00  0.00     0.022 A 
ATOM      8  C7  BZF d   1      -1.306  -0.800  -3.429  0.00  0.00     0.029 A 
ATOM      9  C7A BZF d   1      -0.786  -0.863  -2.159  0.00  0.00     0.058 A 
ENDROOT
TORSDOF 0
ENDMDL
