MODEL 1
REMARK minimizedAffinity -0.689611793
REMARK minimizedRMSD -1
REMARK  0 active torsions:
REMARK  status: ('A' for Active; 'I' for Inactive)
ROOT
ATOM      1  O1  BZF d   1       1.062  -0.835  -0.657  0.00  0.00    -0.204 OA
ATOM      2  C2  BZF d   1      -0.260  -0.860  -0.258  0.00  0.00     0.174 A 
ATOM      3  C3  BZF d   1      -0.459  -0.037   0.791  0.00  0.00    -0.012 A 
ATOM      4  C3A BZF d   1       0.799   0.609   1.007  0.00  0.00    -0.107 A 
ATOM      5  C4  BZF d   1       1.231   1.550   1.897  0.00  0.00     0.055 A 
ATOM      6  C5  BZF d   1       2.540   1.915   1.890  0.00  0.00    -0.016 A 
ATOM      7  C6  BZF d   1       3.444   1.357   1.010  0.00  0.00     0.022 A 
ATOM      8  C7  BZF d   1       3.062   0.424   0.104  0.00  0.00     0.029 A 
ATOM      9  C7A BZF d   1       1.733   0.077   0.087  0.00  0.00     0.058 A 
ENDROOT
TORSDOF 0
ENDMDL
