MODEL 1
REMARK minimizedAffinity -4.32391596
REMARK minimizedRMSD -1
REMARK  0 active torsions:
REMARK  status: ('A' for Active; 'I' for Inactive)
ROOT
ATOM      1  O1  BZF d   1       0.594  -0.298  -0.834  0.00  0.00    -0.204 OA
ATOM      2  C2  BZF d   1      -0.675  -0.279  -0.288  0.00  0.00     0.174 A 
ATOM      3  C3  BZF d   1      -0.755   0.627   0.708  0.00  0.00    -0.012 A 
ATOM      4  C3A BZF d   1       0.520   1.276   0.728  0.00  0.00    -0.107 A 
ATOM      5  C4  BZF d   1       1.050   2.281   1.486  0.00  0.00     0.055 A 
ATOM      6  C5  BZF d   1       2.350   2.632   1.302  0.00  0.00    -0.016 A 
ATOM      7  C6  BZF d   1       3.149   1.998   0.373  0.00  0.00     0.022 A 
ATOM      8  C7  BZF d   1       2.666   0.999  -0.406  0.00  0.00     0.029 A 
ATOM      9  C7A BZF d   1       1.344   0.664  -0.245  0.00  0.00     0.058 A 
ENDROOT
TORSDOF 0
ENDMDL
