MODEL 1
REMARK minimizedAffinity -2.95326233
REMARK minimizedRMSD -1
REMARK  0 active torsions:
REMARK  status: ('A' for Active; 'I' for Inactive)
ROOT
ATOM      1  O1  BZF d   1       0.023   2.776   1.861  0.00  0.00    -0.204 OA
ATOM      2  C2  BZF d   1       1.179   2.958   1.126  0.00  0.00     0.174 A 
ATOM      3  C3  BZF d   1       1.344   1.956   0.238  0.00  0.00    -0.012 A 
ATOM      4  C3A BZF d   1       0.173   1.143   0.367  0.00  0.00    -0.107 A 
ATOM      5  C4  BZF d   1      -0.255   0.008  -0.260  0.00  0.00     0.055 A 
ATOM      6  C5  BZF d   1      -1.411  -0.577   0.150  0.00  0.00    -0.016 A 
ATOM      7  C6  BZF d   1      -2.160  -0.058   1.185  0.00  0.00     0.022 A 
ATOM      8  C7  BZF d   1      -1.779   1.069   1.833  0.00  0.00     0.029 A 
ATOM      9  C7A BZF d   1      -0.628   1.681   1.400  0.00  0.00     0.058 A 
ENDROOT
TORSDOF 0
ENDMDL
