MODEL 1
REMARK minimizedAffinity -5.0451231
REMARK minimizedRMSD -1
REMARK  0 active torsions:
REMARK  status: ('A' for Active; 'I' for Inactive)
ROOT
ATOM      1  O1  BZF d   1       0.977  -0.661  -0.669  0.00  0.00    -0.204 OA
ATOM      2  C2  BZF d   1      -0.306  -0.809  -0.180  0.00  0.00     0.174 A 
ATOM      3  C3  BZF d   1      -0.571   0.122   0.759  0.00  0.00    -0.012 A 
ATOM      4  C3A BZF d   1       0.589   0.959   0.797  0.00  0.00    -0.107 A 
ATOM      5  C4  BZF d   1       0.924   2.068   1.520  0.00  0.00     0.055 A 
ATOM      6  C5  BZF d   1       2.164   2.603   1.372  0.00  0.00    -0.016 A 
ATOM      7  C6  BZF d   1       3.095   2.053   0.515  0.00  0.00     0.022 A 
ATOM      8  C7  BZF d   1       2.807   0.956  -0.227  0.00  0.00     0.029 A 
ATOM      9  C7A BZF d   1       1.544   0.432  -0.104  0.00  0.00     0.058 A 
ENDROOT
TORSDOF 0
ENDMDL
