MODEL 1
REMARK minimizedAffinity -1.74214411
REMARK minimizedRMSD -1
REMARK  0 active torsions:
REMARK  status: ('A' for Active; 'I' for Inactive)
ROOT
ATOM      1  O1  BZF d   1       0.671  -1.238  -2.083  0.00  0.00    -0.204 OA
ATOM      2  C2  BZF d   1       0.864  -1.530  -0.747  0.00  0.00     0.174 A 
ATOM      3  C3  BZF d   1      -0.289  -1.932  -0.173  0.00  0.00    -0.012 A 
ATOM      4  C3A BZF d   1      -1.243  -1.978  -1.239  0.00  0.00    -0.107 A 
ATOM      5  C4  BZF d   1      -2.564  -2.320  -1.302  0.00  0.00     0.055 A 
ATOM      6  C5  BZF d   1      -3.225  -2.186  -2.482  0.00  0.00    -0.016 A 
ATOM      7  C6  BZF d   1      -2.599  -1.709  -3.615  0.00  0.00     0.022 A 
ATOM      8  C7  BZF d   1      -1.289  -1.361  -3.602  0.00  0.00     0.029 A 
ATOM      9  C7A BZF d   1      -0.610  -1.527  -2.420  0.00  0.00     0.058 A 
ENDROOT
TORSDOF 0
ENDMDL
