MODEL 1
REMARK minimizedAffinity -0.957402885
REMARK minimizedRMSD -1
REMARK  0 active torsions:
REMARK  status: ('A' for Active; 'I' for Inactive)
ROOT
ATOM      1  O1  BZF d   1       0.428  -1.373  -1.074  0.00  0.00    -0.204 OA
ATOM      2  C2  BZF d   1      -0.716  -1.619  -0.339  0.00  0.00     0.174 A 
ATOM      3  C3  BZF d   1      -0.913  -0.650   0.578  0.00  0.00    -0.012 A 
ATOM      4  C3A BZF d   1       0.125   0.306   0.344  0.00  0.00    -0.107 A 
ATOM      5  C4  BZF d   1       0.451   1.498   0.925  0.00  0.00     0.055 A 
ATOM      6  C5  BZF d   1       1.569   2.150   0.511  0.00  0.00    -0.016 A 
ATOM      7  C6  BZF d   1       2.386   1.637  -0.476  0.00  0.00     0.022 A 
ATOM      8  C7  BZF d   1       2.100   0.461  -1.084  0.00  0.00     0.029 A 
ATOM      9  C7A BZF d   1       0.953  -0.185  -0.691  0.00  0.00     0.058 A 
ENDROOT
TORSDOF 0
ENDMDL
