MODEL 1
REMARK minimizedAffinity -4.26065731
REMARK minimizedRMSD -1
REMARK  0 active torsions:
REMARK  status: ('A' for Active; 'I' for Inactive)
ROOT
ATOM      1  O1  BZF d   1       0.171  -0.397  -1.346  0.00  0.00    -0.204 OA
ATOM      2  C2  BZF d   1      -0.893  -1.209  -1.002  0.00  0.00     0.174 A 
ATOM      3  C3  BZF d   1      -1.359  -0.893   0.224  0.00  0.00    -0.012 A 
ATOM      4  C3A BZF d   1      -0.594   0.244   0.636  0.00  0.00    -0.107 A 
ATOM      5  C4  BZF d   1      -0.602   1.024   1.756  0.00  0.00     0.055 A 
ATOM      6  C5  BZF d   1       0.323   2.012   1.879  0.00  0.00    -0.016 A 
ATOM      7  C6  BZF d   1       1.272   2.244   0.906  0.00  0.00     0.022 A 
ATOM      8  C7  BZF d   1       1.317   1.499  -0.226  0.00  0.00     0.029 A 
ATOM      9  C7A BZF d   1       0.362   0.521  -0.368  0.00  0.00     0.058 A 
ENDROOT
TORSDOF 0
ENDMDL
