MODEL 1
REMARK minimizedAffinity 0.409411907
REMARK minimizedRMSD -1
REMARK  0 active torsions:
REMARK  status: ('A' for Active; 'I' for Inactive)
ROOT
ATOM      1  O1  BZF d   1       1.406   0.327   0.516  0.00  0.00    -0.204 OA
ATOM      2  C2  BZF d   1       0.091   0.240   0.102  0.00  0.00     0.174 A 
ATOM      3  C3  BZF d   1      -0.750   0.476   1.128  0.00  0.00    -0.012 A 
ATOM      4  C3A BZF d   1       0.091   0.818   2.234  0.00  0.00    -0.107 A 
ATOM      5  C4  BZF d   1      -0.158   1.172   3.529  0.00  0.00     0.055 A 
ATOM      6  C5  BZF d   1       0.889   1.371   4.373  0.00  0.00    -0.016 A 
ATOM      7  C6  BZF d   1       2.195   1.219   3.957  0.00  0.00     0.022 A 
ATOM      8  C7  BZF d   1       2.492   0.874   2.680  0.00  0.00     0.029 A 
ATOM      9  C7A BZF d   1       1.437   0.704   1.817  0.00  0.00     0.058 A 
ENDROOT
TORSDOF 0
ENDMDL
