MODEL 1
REMARK minimizedAffinity 7.78936434
REMARK minimizedRMSD -1
REMARK  0 active torsions:
REMARK  status: ('A' for Active; 'I' for Inactive)
ROOT
ATOM      1  N1  IND d   1       4.868   3.870  -5.319  0.00  0.00    -0.196 N 
ATOM      2  C2  IND d   1       5.555   5.001  -5.659  0.00  0.00     0.054 A 
ATOM      3  C3  IND d   1       4.697   5.989  -6.000  0.00  0.00    -0.031 A 
ATOM      4  C4  IND d   1       2.122   5.999  -5.973  0.00  0.00     0.051 A 
ATOM      5  C5  IND d   1       1.044   5.185  -5.769  0.00  0.00    -0.031 A 
ATOM      6  C6  IND d   1       1.188   3.864  -5.394  0.00  0.00     0.015 A 
ATOM      7  C7  IND d   1       2.421   3.310  -5.198  0.00  0.00    -0.016 A 
ATOM      8  C8  IND d   1       3.519   4.132  -5.411  0.00  0.00    -0.047 A 
ATOM      9  C9  IND d   1       3.380   5.461  -5.833  0.00  0.00    -0.096 A 
ATOM     10  HN1 IND d   1       5.219   3.120  -5.087  0.00  0.00     0.298 HD
ENDROOT
TORSDOF 0
ENDMDL
