MODEL 1
REMARK minimizedAffinity 6.51467323
REMARK minimizedRMSD -1
REMARK  0 active torsions:
REMARK  status: ('A' for Active; 'I' for Inactive)
ROOT
ATOM      1  N1  IND d   1       2.143  -2.174  -0.290  0.00  0.00    -0.196 N 
ATOM      2  C2  IND d   1       1.186  -1.706   0.566  0.00  0.00     0.054 A 
ATOM      3  C3  IND d   1       1.497  -2.030   1.841  0.00  0.00    -0.031 A 
ATOM      4  C4  IND d   1       3.577  -3.236   2.762  0.00  0.00     0.051 A 
ATOM      5  C5  IND d   1       4.711  -3.885   2.361  0.00  0.00    -0.031 A 
ATOM      6  C6  IND d   1       5.056  -3.997   1.030  0.00  0.00     0.015 A 
ATOM      7  C7  IND d   1       4.281  -3.452   0.045  0.00  0.00    -0.016 A 
ATOM      8  C8  IND d   1       3.125  -2.798   0.448  0.00  0.00    -0.047 A 
ATOM      9  C9  IND d   1       2.748  -2.718   1.795  0.00  0.00    -0.096 A 
ATOM     10  HN1 IND d   1       2.133  -2.093  -1.146  0.00  0.00     0.298 HD
ENDROOT
TORSDOF 0
ENDMDL
