MODEL 1
REMARK minimizedAffinity 5.01004124
REMARK minimizedRMSD -1
REMARK  0 active torsions:
REMARK  status: ('A' for Active; 'I' for Inactive)
ROOT
ATOM      1  N1  IND d   1      -3.710   2.204  -4.131  0.00  0.00    -0.196 N 
ATOM      2  C2  IND d   1      -2.585   2.670  -3.509  0.00  0.00     0.054 A 
ATOM      3  C3  IND d   1      -2.082   1.727  -2.680  0.00  0.00    -0.031 A 
ATOM      4  C4  IND d   1      -2.884  -0.684  -2.267  0.00  0.00     0.051 A 
ATOM      5  C5  IND d   1      -3.892  -1.552  -2.579  0.00  0.00    -0.031 A 
ATOM      6  C6  IND d   1      -4.911  -1.206  -3.444  0.00  0.00     0.015 A 
ATOM      7  C7  IND d   1      -4.952   0.022  -4.040  0.00  0.00    -0.016 A 
ATOM      8  C8  IND d   1      -3.934   0.909  -3.720  0.00  0.00    -0.047 A 
ATOM      9  C9  IND d   1      -2.921   0.579  -2.810  0.00  0.00    -0.096 A 
ATOM     10  HN1 IND d   1      -4.196   2.647  -4.685  0.00  0.00     0.298 HD
ENDROOT
TORSDOF 0
ENDMDL
