MODEL 1
REMARK minimizedAffinity -1.35171533
REMARK minimizedRMSD -1
REMARK  0 active torsions:
REMARK  status: ('A' for Active; 'I' for Inactive)
ROOT
ATOM      1  N1  IND d   1       2.386   5.914  -5.973  0.00  0.00    -0.196 N 
ATOM      2  C2  IND d   1       1.482   4.889  -5.975  0.00  0.00     0.054 A 
ATOM      3  C3  IND d   1       2.121   3.698  -6.000  0.00  0.00    -0.031 A 
ATOM      4  C4  IND d   1       4.645   3.195  -5.938  0.00  0.00     0.051 A 
ATOM      5  C5  IND d   1       5.867   3.807  -5.969  0.00  0.00    -0.031 A 
ATOM      6  C6  IND d   1       5.993   5.181  -6.000  0.00  0.00     0.015 A 
ATOM      7  C7  IND d   1       4.898   5.998  -5.991  0.00  0.00    -0.016 A 
ATOM      8  C8  IND d   1       3.656   5.379  -5.967  0.00  0.00    -0.047 A 
ATOM      9  C9  IND d   1       3.521   3.985  -5.978  0.00  0.00    -0.096 A 
ATOM     10  HN1 IND d   1       2.194   6.752  -5.976  0.00  0.00     0.298 HD
ENDROOT
TORSDOF 0
ENDMDL
