MODEL 1
REMARK minimizedAffinity 11.7920151
REMARK minimizedRMSD -1
REMARK  0 active torsions:
REMARK  status: ('A' for Active; 'I' for Inactive)
ROOT
ATOM      1  N1  IND d   1       5.886  -3.425   0.429  0.00  0.00    -0.196 N 
ATOM      2  C2  IND d   1       5.998  -4.757   0.713  0.00  0.00     0.054 A 
ATOM      3  C3  IND d   1       4.791  -5.270   1.042  0.00  0.00    -0.031 A 
ATOM      4  C4  IND d   1       2.483  -4.129   1.078  0.00  0.00     0.051 A 
ATOM      5  C5  IND d   1       1.881  -2.911   0.929  0.00  0.00    -0.031 A 
ATOM      6  C6  IND d   1       2.598  -1.780   0.595  0.00  0.00     0.015 A 
ATOM      7  C7  IND d   1       3.947  -1.827   0.387  0.00  0.00    -0.016 A 
ATOM      8  C8  IND d   1       4.563  -3.061   0.545  0.00  0.00    -0.047 A 
ATOM      9  C9  IND d   1       3.848  -4.204   0.925  0.00  0.00    -0.096 A 
ATOM     10  HN1 IND d   1       6.534  -2.902   0.213  0.00  0.00     0.298 HD
ENDROOT
TORSDOF 0
ENDMDL
