MODEL 1
REMARK minimizedAffinity 12.5156202
REMARK minimizedRMSD -1
REMARK  0 active torsions:
REMARK  status: ('A' for Active; 'I' for Inactive)
ROOT
ATOM      1  N1  IND d   1       4.821  -1.490   0.742  0.00  0.00    -0.196 N 
ATOM      2  C2  IND d   1       5.995  -2.090   0.382  0.00  0.00     0.054 A 
ATOM      3  C3  IND d   1       5.799  -3.408   0.151  0.00  0.00    -0.031 A 
ATOM      4  C4  IND d   1       3.615  -4.770   0.208  0.00  0.00     0.051 A 
ATOM      5  C5  IND d   1       2.289  -4.667   0.521  0.00  0.00    -0.031 A 
ATOM      6  C6  IND d   1       1.727  -3.474   0.929  0.00  0.00     0.015 A 
ATOM      7  C7  IND d   1       2.472  -2.333   1.029  0.00  0.00    -0.016 A 
ATOM      8  C8  IND d   1       3.820  -2.436   0.719  0.00  0.00    -0.047 A 
ATOM      9  C9  IND d   1       4.405  -3.653   0.345  0.00  0.00    -0.096 A 
ATOM     10  HN1 IND d   1       4.724  -0.661   0.949  0.00  0.00     0.298 HD
ENDROOT
TORSDOF 0
ENDMDL
