MODEL 1
REMARK minimizedAffinity 6.28604412
REMARK minimizedRMSD -1
REMARK  1 active torsions:
REMARK  status: ('A' for Active; 'I' for Inactive)
REMARK    1  A    between atoms: C1_2  and  C2_3 
ROOT
ATOM      1  C2  UNL d   1      -1.218   1.901  -4.154  0.00  0.00    -0.076 A 
ATOM      2  C3  UNL d   1      -0.129   2.264  -4.966  0.00  0.00     0.004 A 
ATOM      3  C4  UNL d   1      -0.079   3.514  -5.581  0.00  0.00    -0.003 A 
ATOM      4  C5  UNL d   1      -1.116   4.421  -5.394  0.00  0.00     0.000 A 
ATOM      5  C6  UNL d   1      -2.195   4.084  -4.577  0.00  0.00     0.000 A 
ATOM      6  C7  UNL d   1      -2.253   2.835  -3.936  0.00  0.00    -0.073 A 
ATOM      7  C8  UNL d   1      -3.443   2.522  -3.071  0.00  0.00     0.078 C 
ENDROOT
BRANCH   1   8
ATOM      8  C1  UNL d   1      -1.230   0.521  -3.535  0.00  0.00     0.053 C 
ATOM      9  C   UNL d   1       0.087  -0.215  -3.725  0.00  0.00     0.018 C 
ENDBRANCH   1   8
TORSDOF 1
ENDMDL
