MODEL 1
REMARK minimizedAffinity 8.25334263
REMARK minimizedRMSD -1
REMARK  1 active torsions:
REMARK  status: ('A' for Active; 'I' for Inactive)
REMARK    1  A    between atoms: C1_2  and  C2_3 
ROOT
ATOM      1  C2  UNL d   1      -2.316   2.935  -2.807  0.00  0.00    -0.076 A 
ATOM      2  C3  UNL d   1      -1.766   3.448  -1.619  0.00  0.00     0.004 A 
ATOM      3  C4  UNL d   1      -2.450   3.343  -0.409  0.00  0.00    -0.003 A 
ATOM      4  C5  UNL d   1      -3.694   2.723  -0.366  0.00  0.00     0.000 A 
ATOM      5  C6  UNL d   1      -4.246   2.193  -1.532  0.00  0.00     0.000 A 
ATOM      6  C7  UNL d   1      -3.563   2.276  -2.757  0.00  0.00    -0.073 A 
ATOM      7  C8  UNL d   1      -4.209   1.692  -3.984  0.00  0.00     0.078 C 
ENDROOT
BRANCH   1   8
ATOM      8  C1  UNL d   1      -1.541   3.101  -4.095  0.00  0.00     0.053 C 
ATOM      9  C   UNL d   1      -1.393   4.559  -4.501  0.00  0.00     0.018 C 
ENDBRANCH   1   8
TORSDOF 1
ENDMDL
