MODEL 1
REMARK minimizedAffinity 6.26296043
REMARK minimizedRMSD -1
REMARK  1 active torsions:
REMARK  status: ('A' for Active; 'I' for Inactive)
REMARK    1  A    between atoms: C1_2  and  C2_3 
ROOT
ATOM      1  C2  UNL d   1      -1.887   2.965  -4.135  0.00  0.00    -0.076 A 
ATOM      2  C3  UNL d   1      -2.086   4.206  -4.763  0.00  0.00     0.004 A 
ATOM      3  C4  UNL d   1      -1.166   4.699  -5.686  0.00  0.00    -0.003 A 
ATOM      4  C5  UNL d   1      -0.031   3.957  -5.997  0.00  0.00     0.000 A 
ATOM      5  C6  UNL d   1       0.173   2.715  -5.397  0.00  0.00     0.000 A 
ATOM      6  C7  UNL d   1      -0.753   2.197  -4.476  0.00  0.00    -0.073 A 
ATOM      7  C8  UNL d   1      -0.479   0.855  -3.854  0.00  0.00     0.078 C 
ENDROOT
BRANCH   1   8
ATOM      8  C1  UNL d   1      -2.906   2.494  -3.121  0.00  0.00     0.053 C 
ATOM      9  C   UNL d   1      -4.122   1.854  -3.771  0.00  0.00     0.018 C 
ENDBRANCH   1   8
TORSDOF 1
ENDMDL
