MODEL 1
REMARK minimizedAffinity 2.5167253
REMARK minimizedRMSD -1
REMARK  1 active torsions:
REMARK  status: ('A' for Active; 'I' for Inactive)
REMARK    1  A    between atoms: C1_2  and  C2_3 
ROOT
ATOM      1  C2  UNL d   1      -0.824   2.194  -4.721  0.00  0.00    -0.076 A 
ATOM      2  C3  UNL d   1      -0.390   3.317  -5.447  0.00  0.00     0.004 A 
ATOM      3  C4  UNL d   1       0.890   3.364  -5.998  0.00  0.00    -0.003 A 
ATOM      4  C5  UNL d   1       1.756   2.289  -5.831  0.00  0.00     0.000 A 
ATOM      5  C6  UNL d   1       1.336   1.161  -5.128  0.00  0.00     0.000 A 
ATOM      6  C7  UNL d   1       0.043   1.090  -4.581  0.00  0.00    -0.073 A 
ATOM      7  C8  UNL d   1      -0.355  -0.149  -3.827  0.00  0.00     0.078 C 
ENDROOT
BRANCH   1   8
ATOM      8  C1  UNL d   1      -2.214   2.211  -4.124  0.00  0.00     0.053 C 
ATOM      9  C   UNL d   1      -2.809   3.610  -4.073  0.00  0.00     0.018 C 
ENDBRANCH   1   8
TORSDOF 1
ENDMDL
