MODEL 1
REMARK minimizedAffinity 12.1875124
REMARK minimizedRMSD -1
REMARK  1 active torsions:
REMARK  status: ('A' for Active; 'I' for Inactive)
REMARK    1  A    between atoms: C1_2  and  C2_3 
ROOT
ATOM      1  C2  UNL d   1       3.145   5.160   4.734  0.00  0.00    -0.076 A 
ATOM      2  C3  UNL d   1       3.769   5.999   5.673  0.00  0.00     0.004 A 
ATOM      3  C4  UNL d   1       5.118   5.845   5.988  0.00  0.00    -0.003 A 
ATOM      4  C5  UNL d   1       5.866   4.851   5.366  0.00  0.00     0.000 A 
ATOM      5  C6  UNL d   1       5.267   4.021   4.419  0.00  0.00     0.000 A 
ATOM      6  C7  UNL d   1       3.912   4.173   4.078  0.00  0.00    -0.073 A 
ATOM      7  C8  UNL d   1       3.316   3.247   3.054  0.00  0.00     0.078 C 
ENDROOT
BRANCH   1   8
ATOM      8  C1  UNL d   1       1.672   5.357   4.453  0.00  0.00     0.053 C 
ATOM      9  C   UNL d   1       0.918   5.903   5.656  0.00  0.00     0.018 C 
ENDBRANCH   1   8
TORSDOF 1
ENDMDL
