MODEL 1
REMARK minimizedAffinity 11.1406574
REMARK minimizedRMSD -1
REMARK  1 active torsions:
REMARK  status: ('A' for Active; 'I' for Inactive)
REMARK    1  A    between atoms: C1_2  and  C2_3 
ROOT
ATOM      1  C2  UNL d   1       3.328  -3.054   0.130  0.00  0.00    -0.076 A 
ATOM      2  C3  UNL d   1       3.544  -4.414   0.414  0.00  0.00     0.004 A 
ATOM      3  C4  UNL d   1       4.834  -4.924   0.544  0.00  0.00    -0.003 A 
ATOM      4  C5  UNL d   1       5.931  -4.082   0.394  0.00  0.00     0.000 A 
ATOM      5  C6  UNL d   1       5.735  -2.727   0.129  0.00  0.00     0.000 A 
ATOM      6  C7  UNL d   1       4.441  -2.194   0.010  0.00  0.00    -0.073 A 
ATOM      7  C8  UNL d   1       4.288  -0.726  -0.282  0.00  0.00     0.078 C 
ENDROOT
BRANCH   1   8
ATOM      8  C1  UNL d   1       1.907  -2.564  -0.028  0.00  0.00     0.053 C 
ATOM      9  C   UNL d   1       0.903  -3.443   0.702  0.00  0.00     0.018 C 
ENDBRANCH   1   8
TORSDOF 1
ENDMDL
