MODEL 1
REMARK minimizedAffinity 1.80429173
REMARK minimizedRMSD -1
REMARK  0 active torsions:
REMARK  status: ('A' for Active; 'I' for Inactive)
ROOT
ATOM      1  C   UNL d   1       2.645  -1.889   0.185  0.00  0.00     0.078 C 
ATOM      2  C1  UNL d   1       2.437  -0.551  -0.460  0.00  0.00    -0.077 A 
ATOM      3  C2  UNL d   1       3.038   0.602   0.061  0.00  0.00    -0.001 A 
ATOM      4  C3  UNL d   1       2.828   1.842  -0.544  0.00  0.00     0.003 A 
ATOM      5  C4  UNL d   1       2.017   1.942  -1.672  0.00  0.00    -0.005 A 
ATOM      6  C5  UNL d   1       1.413   0.800  -2.196  0.00  0.00     0.003 A 
ATOM      7  C6  UNL d   1       1.622  -0.441  -1.593  0.00  0.00    -0.001 A 
ENDROOT
TORSDOF 0
ENDMDL
