MODEL 1
REMARK minimizedAffinity 4.60669708
REMARK minimizedRMSD -1
REMARK  0 active torsions:
REMARK  status: ('A' for Active; 'I' for Inactive)
ROOT
ATOM      1  C   UNL d   1       2.316  -1.091   1.689  0.00  0.00     0.078 C 
ATOM      2  C1  UNL d   1       2.156  -0.187   0.503  0.00  0.00    -0.077 A 
ATOM      3  C2  UNL d   1       2.517   1.164   0.572  0.00  0.00    -0.001 A 
ATOM      4  C3  UNL d   1       2.353   1.996  -0.537  0.00  0.00     0.003 A 
ATOM      5  C4  UNL d   1       1.827   1.486  -1.722  0.00  0.00    -0.005 A 
ATOM      6  C5  UNL d   1       1.463   0.143  -1.800  0.00  0.00     0.003 A 
ATOM      7  C6  UNL d   1       1.626  -0.690  -0.692  0.00  0.00    -0.001 A 
ENDROOT
TORSDOF 0
ENDMDL
