MODEL 1
REMARK minimizedAffinity 4.07744551
REMARK minimizedRMSD -1
REMARK  0 active torsions:
REMARK  status: ('A' for Active; 'I' for Inactive)
ROOT
ATOM      1  C   UNL d   1      -6.000   4.742  -6.000  0.00  0.00     0.078 C 
ATOM      2  C1  UNL d   1      -4.753   4.205  -5.362  0.00  0.00    -0.077 A 
ATOM      3  C2  UNL d   1      -4.167   3.016  -5.814  0.00  0.00    -0.001 A 
ATOM      4  C3  UNL d   1      -3.012   2.523  -5.205  0.00  0.00     0.003 A 
ATOM      5  C4  UNL d   1      -2.435   3.211  -4.140  0.00  0.00    -0.005 A 
ATOM      6  C5  UNL d   1      -3.012   4.393  -3.682  0.00  0.00     0.003 A 
ATOM      7  C6  UNL d   1      -4.167   4.888  -4.290  0.00  0.00    -0.001 A 
ENDROOT
TORSDOF 0
ENDMDL
