MODEL 1
REMARK minimizedAffinity 1.04997814
REMARK minimizedRMSD -1
REMARK  0 active torsions:
REMARK  status: ('A' for Active; 'I' for Inactive)
ROOT
ATOM      1  C   UNL d   1       1.176  -1.925   1.551  0.00  0.00     0.078 C 
ATOM      2  C1  UNL d   1       1.534  -1.237   0.267  0.00  0.00    -0.077 A 
ATOM      3  C2  UNL d   1       2.798  -1.402  -0.311  0.00  0.00    -0.001 A 
ATOM      4  C3  UNL d   1       3.121  -0.748  -1.501  0.00  0.00     0.003 A 
ATOM      5  C4  UNL d   1       2.185   0.076  -2.123  0.00  0.00    -0.005 A 
ATOM      6  C5  UNL d   1       0.925   0.247  -1.554  0.00  0.00     0.003 A 
ATOM      7  C6  UNL d   1       0.600  -0.406  -0.364  0.00  0.00    -0.001 A 
ENDROOT
TORSDOF 0
ENDMDL
