MODEL 1
REMARK minimizedAffinity 2.1411581
REMARK minimizedRMSD -1
REMARK  0 active torsions:
REMARK  status: ('A' for Active; 'I' for Inactive)
ROOT
ATOM      1  C   UNL d   1       1.824  -0.461  -2.422  0.00  0.00     0.078 C 
ATOM      2  C1  UNL d   1       1.224  -0.870  -1.110  0.00  0.00    -0.077 A 
ATOM      3  C2  UNL d   1      -0.139  -1.169  -1.002  0.00  0.00    -0.001 A 
ATOM      4  C3  UNL d   1      -0.686  -1.538   0.228  0.00  0.00     0.003 A 
ATOM      5  C4  UNL d   1       0.124  -1.611   1.360  0.00  0.00    -0.005 A 
ATOM      6  C5  UNL d   1       1.482  -1.313   1.263  0.00  0.00     0.003 A 
ATOM      7  C6  UNL d   1       2.030  -0.943   0.033  0.00  0.00    -0.001 A 
ENDROOT
TORSDOF 0
ENDMDL
