MODEL 1
REMARK minimizedAffinity -2.1528759
REMARK minimizedRMSD -1
REMARK  0 active torsions:
REMARK  status: ('A' for Active; 'I' for Inactive)
ROOT
ATOM      1  C   UNL d   1      -3.335   1.276   3.409  0.00  0.00     0.078 C 
ATOM      2  C1  UNL d   1      -2.147   0.430   3.059  0.00  0.00    -0.077 A 
ATOM      3  C2  UNL d   1      -2.164  -0.409   1.938  0.00  0.00    -0.001 A 
ATOM      4  C3  UNL d   1      -1.055  -1.198   1.630  0.00  0.00     0.003 A 
ATOM      5  C4  UNL d   1       0.079  -1.157   2.438  0.00  0.00    -0.005 A 
ATOM      6  C5  UNL d   1       0.104  -0.327   3.557  0.00  0.00     0.003 A 
ATOM      7  C6  UNL d   1      -1.004   0.462   3.867  0.00  0.00    -0.001 A 
ENDROOT
TORSDOF 0
ENDMDL
