MODEL 1
REMARK minimizedAffinity 2.82529354
REMARK minimizedRMSD -1
REMARK  0 active torsions:
REMARK  status: ('A' for Active; 'I' for Inactive)
ROOT
ATOM      1  C   UNL d   1       1.700  -1.150  -0.581  0.00  0.00     0.078 C 
ATOM      2  C1  UNL d   1       0.934  -1.058   0.704  0.00  0.00    -0.077 A 
ATOM      3  C2  UNL d   1      -0.121  -0.149   0.852  0.00  0.00    -0.001 A 
ATOM      4  C3  UNL d   1      -0.819  -0.067   2.057  0.00  0.00     0.003 A 
ATOM      5  C4  UNL d   1      -0.470  -0.892   3.125  0.00  0.00    -0.005 A 
ATOM      6  C5  UNL d   1       0.579  -1.799   2.988  0.00  0.00     0.003 A 
ATOM      7  C6  UNL d   1       1.279  -1.881   1.783  0.00  0.00    -0.001 A 
ENDROOT
TORSDOF 0
ENDMDL
