MODEL 1
REMARK minimizedAffinity -1.62646747
REMARK minimizedRMSD -1
REMARK  0 active torsions:
REMARK  status: ('A' for Active; 'I' for Inactive)
ROOT
ATOM      1  N1  IND d   1       0.356   1.417  -1.680  0.00  0.00    -0.196 N 
ATOM      2  C2  IND d   1      -0.885   1.438  -2.253  0.00  0.00     0.054 A 
ATOM      3  C3  IND d   1      -1.789   0.847  -1.440  0.00  0.00    -0.031 A 
ATOM      4  C4  IND d   1      -1.472  -0.131   0.920  0.00  0.00     0.051 A 
ATOM      5  C5  IND d   1      -0.510  -0.412   1.850  0.00  0.00    -0.031 A 
ATOM      6  C6  IND d   1       0.816  -0.088   1.648  0.00  0.00     0.015 A 
ATOM      7  C7  IND d   1       1.230   0.542   0.508  0.00  0.00    -0.016 A 
ATOM      8  C8  IND d   1       0.257   0.821  -0.441  0.00  0.00    -0.047 A 
ATOM      9  C9  IND d   1      -1.083   0.457  -0.260  0.00  0.00    -0.096 A 
ATOM     10  HN1 IND d   1       1.077   1.724  -2.033  0.00  0.00     0.298 HD
ENDROOT
TORSDOF 0
ENDMDL
