MODEL 1
REMARK minimizedAffinity -4.1378274
REMARK minimizedRMSD -1
REMARK  0 active torsions:
REMARK  status: ('A' for Active; 'I' for Inactive)
ROOT
ATOM      1  N1  IND d   1      -0.728  -0.195  -0.575  0.00  0.00    -0.196 N 
ATOM      2  C2  IND d   1       0.299  -0.588  -1.387  0.00  0.00     0.054 A 
ATOM      3  C3  IND d   1       1.430  -0.757  -0.666  0.00  0.00    -0.031 A 
ATOM      4  C4  IND d   1       1.798  -0.542   1.873  0.00  0.00     0.051 A 
ATOM      5  C5  IND d   1       1.165  -0.170   3.025  0.00  0.00    -0.031 A 
ATOM      6  C6  IND d   1      -0.159   0.218   3.037  0.00  0.00     0.015 A 
ATOM      7  C7  IND d   1      -0.906   0.238   1.894  0.00  0.00    -0.016 A 
ATOM      8  C8  IND d   1      -0.264  -0.133   0.720  0.00  0.00    -0.047 A 
ATOM      9  C9  IND d   1       1.091  -0.487   0.695  0.00  0.00    -0.096 A 
ATOM     10  HN1 IND d   1      -1.530  -0.016  -0.831  0.00  0.00     0.298 HD
ENDROOT
TORSDOF 0
ENDMDL
