MODEL 1
REMARK minimizedAffinity -2.65980983
REMARK minimizedRMSD -1
REMARK  0 active torsions:
REMARK  status: ('A' for Active; 'I' for Inactive)
ROOT
ATOM      1  N1  IND d   1      -1.417  -0.404   0.347  0.00  0.00    -0.196 N 
ATOM      2  C2  IND d   1      -0.875   0.039  -0.827  0.00  0.00     0.054 A 
ATOM      3  C3  IND d   1       0.453   0.249  -0.683  0.00  0.00    -0.031 A 
ATOM      4  C4  IND d   1       1.962  -0.166   1.361  0.00  0.00     0.051 A 
ATOM      5  C5  IND d   1       1.916  -0.533   2.677  0.00  0.00    -0.031 A 
ATOM      6  C6  IND d   1       0.734  -0.885   3.295  0.00  0.00     0.015 A 
ATOM      7  C7  IND d   1      -0.451  -0.895   2.614  0.00  0.00    -0.016 A 
ATOM      8  C8  IND d   1      -0.409  -0.516   1.280  0.00  0.00    -0.047 A 
ATOM      9  C9  IND d   1       0.781  -0.117   0.659  0.00  0.00    -0.096 A 
ATOM     10  HN1 IND d   1      -2.247  -0.583   0.480  0.00  0.00     0.298 HD
ENDROOT
TORSDOF 0
ENDMDL
