MODEL 1
REMARK minimizedAffinity -2.64253497
REMARK minimizedRMSD -1
REMARK  0 active torsions:
REMARK  status: ('A' for Active; 'I' for Inactive)
ROOT
ATOM      1  N1  IND d   1       1.268  -0.487   2.679  0.00  0.00    -0.196 N 
ATOM      2  C2  IND d   1       2.364   0.141   2.154  0.00  0.00     0.054 A 
ATOM      3  C3  IND d   1       2.161   0.429   0.849  0.00  0.00    -0.031 A 
ATOM      4  C4  IND d   1       0.069   0.051  -0.604  0.00  0.00     0.051 A 
ATOM      5  C5  IND d   1      -1.171  -0.522  -0.577  0.00  0.00    -0.031 A 
ATOM      6  C6  IND d   1      -1.673  -1.122   0.560  0.00  0.00     0.015 A 
ATOM      7  C7  IND d   1      -0.954  -1.162   1.721  0.00  0.00    -0.016 A 
ATOM      8  C8  IND d   1       0.308  -0.587   1.696  0.00  0.00    -0.047 A 
ATOM      9  C9  IND d   1       0.840  -0.015   0.533  0.00  0.00    -0.096 A 
ATOM     10  HN1 IND d   1       1.192  -0.771   3.486  0.00  0.00     0.298 HD
ENDROOT
TORSDOF 0
ENDMDL
