MODEL 1
REMARK minimizedAffinity -4.22080708
REMARK minimizedRMSD -1
REMARK  0 active torsions:
REMARK  status: ('A' for Active; 'I' for Inactive)
ROOT
ATOM      1  N1  IND d   1       1.991  -0.959   1.405  0.00  0.00    -0.196 N 
ATOM      2  C2  IND d   1       1.620  -1.169   2.704  0.00  0.00     0.054 A 
ATOM      3  C3  IND d   1       0.319  -0.845   2.880  0.00  0.00    -0.031 A 
ATOM      4  C4  IND d   1      -1.415  -0.045   1.154  0.00  0.00     0.051 A 
ATOM      5  C5  IND d   1      -1.538   0.331  -0.154  0.00  0.00    -0.031 A 
ATOM      6  C6  IND d   1      -0.470   0.293  -1.028  0.00  0.00     0.015 A 
ATOM      7  C7  IND d   1       0.763  -0.135  -0.626  0.00  0.00    -0.016 A 
ATOM      8  C8  IND d   1       0.894  -0.511   0.703  0.00  0.00    -0.047 A 
ATOM      9  C9  IND d   1      -0.176  -0.434   1.604  0.00  0.00    -0.096 A 
ATOM     10  HN1 IND d   1       2.778  -1.085   1.082  0.00  0.00     0.298 HD
ENDROOT
TORSDOF 0
ENDMDL
