MODEL 1
REMARK minimizedAffinity -3.6603713
REMARK minimizedRMSD -1
REMARK  0 active torsions:
REMARK  status: ('A' for Active; 'I' for Inactive)
ROOT
ATOM      1  N1  IND d   1       1.917  -0.726   1.350  0.00  0.00    -0.196 N 
ATOM      2  C2  IND d   1       1.414  -0.706   2.621  0.00  0.00     0.054 A 
ATOM      3  C3  IND d   1       0.081  -0.483   2.595  0.00  0.00    -0.031 A 
ATOM      4  C4  IND d   1      -1.496  -0.223   0.577  0.00  0.00     0.051 A 
ATOM      5  C5  IND d   1      -1.494  -0.132  -0.787  0.00  0.00    -0.031 A 
ATOM      6  C6  IND d   1      -0.332  -0.240  -1.523  0.00  0.00     0.015 A 
ATOM      7  C7  IND d   1       0.876  -0.454  -0.921  0.00  0.00    -0.016 A 
ATOM      8  C8  IND d   1       0.879  -0.540   0.464  0.00  0.00    -0.047 A 
ATOM      9  C9  IND d   1      -0.292  -0.389   1.220  0.00  0.00    -0.096 A 
ATOM     10  HN1 IND d   1       2.743  -0.836   1.139  0.00  0.00     0.298 HD
ENDROOT
TORSDOF 0
ENDMDL
