MODEL 1
REMARK minimizedAffinity -3.43170953
REMARK minimizedRMSD -1
REMARK  0 active torsions:
REMARK  status: ('A' for Active; 'I' for Inactive)
ROOT
ATOM      1  N1  IND d   1       1.887  -1.825  -0.893  0.00  0.00    -0.196 N 
ATOM      2  C2  IND d   1       1.230  -1.536  -2.056  0.00  0.00     0.054 A 
ATOM      3  C3  IND d   1       0.068  -0.896  -1.794  0.00  0.00    -0.031 A 
ATOM      4  C4  IND d   1      -0.904  -0.131   0.464  0.00  0.00     0.051 A 
ATOM      5  C5  IND d   1      -0.683  -0.200   1.810  0.00  0.00    -0.031 A 
ATOM      6  C6  IND d   1       0.430  -0.824   2.336  0.00  0.00     0.015 A 
ATOM      7  C7  IND d   1       1.373  -1.396   1.529  0.00  0.00    -0.016 A 
ATOM      8  C8  IND d   1       1.148  -1.334   0.161  0.00  0.00    -0.047 A 
ATOM      9  C9  IND d   1      -0.000  -0.739  -0.376  0.00  0.00    -0.096 A 
ATOM     10  HN1 IND d   1       2.635  -2.243  -0.830  0.00  0.00     0.298 HD
ENDROOT
TORSDOF 0
ENDMDL
