MODEL 1
REMARK minimizedAffinity -3.28271532
REMARK minimizedRMSD -1
REMARK  0 active torsions:
REMARK  status: ('A' for Active; 'I' for Inactive)
ROOT
ATOM      1  N1  IND d   1       1.105   0.654  -0.643  0.00  0.00    -0.196 N 
ATOM      2  C2  IND d   1       0.003   0.659  -1.452  0.00  0.00     0.054 A 
ATOM      3  C3  IND d   1      -1.002  -0.042  -0.881  0.00  0.00    -0.031 A 
ATOM      4  C4  IND d   1      -1.093  -1.192   1.420  0.00  0.00     0.051 A 
ATOM      5  C5  IND d   1      -0.317  -1.498   2.503  0.00  0.00    -0.031 A 
ATOM      6  C6  IND d   1       0.998  -1.091   2.595  0.00  0.00     0.015 A 
ATOM      7  C7  IND d   1       1.586  -0.351   1.609  0.00  0.00    -0.016 A 
ATOM      8  C8  IND d   1       0.803  -0.044   0.505  0.00  0.00    -0.047 A 
ATOM      9  C9  IND d   1      -0.519  -0.490   0.386  0.00  0.00    -0.096 A 
ATOM     10  HN1 IND d   1       1.860   1.026  -0.822  0.00  0.00     0.298 HD
ENDROOT
TORSDOF 0
ENDMDL
