MODEL 1
REMARK minimizedAffinity -4.74266815
REMARK minimizedRMSD -1
REMARK  0 active torsions:
REMARK  status: ('A' for Active; 'I' for Inactive)
ROOT
ATOM      1  N1  IND d   1       1.154  -1.172  -1.856  0.00  0.00    -0.196 N 
ATOM      2  C2  IND d   1       0.065  -0.600  -2.453  0.00  0.00     0.054 A 
ATOM      3  C3  IND d   1      -0.646   0.112  -1.551  0.00  0.00    -0.031 A 
ATOM      4  C4  IND d   1      -0.153   0.558   0.936  0.00  0.00     0.051 A 
ATOM      5  C5  IND d   1       0.708   0.217   1.942  0.00  0.00    -0.031 A 
ATOM      6  C6  IND d   1       1.785  -0.618   1.727  0.00  0.00     0.015 A 
ATOM      7  C7  IND d   1       2.049  -1.138   0.491  0.00  0.00    -0.016 A 
ATOM      8  C8  IND d   1       1.173  -0.800  -0.530  0.00  0.00    -0.047 A 
ATOM      9  C9  IND d   1       0.054   0.014  -0.309  0.00  0.00    -0.096 A 
ATOM     10  HN1 IND d   1       1.730  -1.679  -2.244  0.00  0.00     0.298 HD
ENDROOT
TORSDOF 0
ENDMDL
