MODEL 1
REMARK minimizedAffinity -5.49280262
REMARK minimizedRMSD -1
REMARK  0 active torsions:
REMARK  status: ('A' for Active; 'I' for Inactive)
ROOT
ATOM      1  N1  IND d   1       0.328   1.076  -0.380  0.00  0.00    -0.196 N 
ATOM      2  C2  IND d   1      -0.599   0.318  -1.040  0.00  0.00     0.054 A 
ATOM      3  C3  IND d   1      -0.902  -0.785  -0.319  0.00  0.00    -0.031 A 
ATOM      4  C4  IND d   1      -0.075  -1.494   2.014  0.00  0.00     0.051 A 
ATOM      5  C5  IND d   1       0.806  -1.141   2.997  0.00  0.00    -0.031 A 
ATOM      6  C6  IND d   1       1.587  -0.007   2.904  0.00  0.00     0.015 A 
ATOM      7  C7  IND d   1       1.506   0.827   1.825  0.00  0.00    -0.016 A 
ATOM      8  C8  IND d   1       0.618   0.468   0.821  0.00  0.00    -0.047 A 
ATOM      9  C9  IND d   1      -0.146  -0.704   0.890  0.00  0.00    -0.096 A 
ATOM     10  HN1 IND d   1       0.671   1.810  -0.668  0.00  0.00     0.298 HD
ENDROOT
TORSDOF 0
ENDMDL
