MODEL 1
REMARK minimizedAffinity 12.0294914
REMARK minimizedRMSD -1
REMARK  2 active torsions:
REMARK  status: ('A' for Active; 'I' for Inactive)
REMARK    1  A    between atoms: C1_2  and  C2_3 
REMARK    2  A    between atoms: C2_3  and  C3_4 
ROOT
ATOM      1  C3  UNL d   1      -3.470   3.255   4.807  0.00  0.00    -0.075 A 
ATOM      2  C4  UNL d   1      -3.823   2.608   6.000  0.00  0.00     0.002 A 
ATOM      3  C5  UNL d   1      -4.528   1.404   5.970  0.00  0.00     0.002 A 
ATOM      4  C6  UNL d   1      -4.896   0.839   4.751  0.00  0.00    -0.004 A 
ATOM      5  C7  UNL d   1      -4.565   1.482   3.561  0.00  0.00     0.002 A 
ATOM      6  C8  UNL d   1      -3.856   2.684   3.587  0.00  0.00     0.002 A 
ENDROOT
BRANCH   1   7
ATOM      7  C2  UNL d   1      -2.682   4.543   4.832  0.00  0.00     0.056 C 
BRANCH   7   8
ATOM      8  C1  UNL d   1      -3.036   5.469   6.000  0.00  0.00     0.007 C 
ATOM      9  C   UNL d   1      -4.495   5.907   5.998  0.00  0.00     0.009 C 
ENDBRANCH   7   8
ENDBRANCH   1   7
TORSDOF 2
ENDMDL
