MODEL 1
REMARK minimizedAffinity 10.8215418
REMARK minimizedRMSD -1
REMARK  2 active torsions:
REMARK  status: ('A' for Active; 'I' for Inactive)
REMARK    1  A    between atoms: C1_2  and  C2_3 
REMARK    2  A    between atoms: C2_3  and  C3_4 
ROOT
ATOM      1  C3  UNL d   1      -3.230   2.380  -3.392  0.00  0.00    -0.075 A 
ATOM      2  C4  UNL d   1      -1.969   1.889  -3.759  0.00  0.00     0.002 A 
ATOM      3  C5  UNL d   1      -1.370   0.858  -3.034  0.00  0.00     0.002 A 
ATOM      4  C6  UNL d   1      -2.019   0.313  -1.928  0.00  0.00    -0.004 A 
ATOM      5  C7  UNL d   1      -3.265   0.804  -1.544  0.00  0.00     0.002 A 
ATOM      6  C8  UNL d   1      -3.868   1.832  -2.271  0.00  0.00     0.002 A 
ENDROOT
BRANCH   1   7
ATOM      7  C2  UNL d   1      -3.896   3.474  -4.190  0.00  0.00     0.056 C 
BRANCH   7   8
ATOM      8  C1  UNL d   1      -4.523   2.995  -5.504  0.00  0.00     0.007 C 
ATOM      9  C   UNL d   1      -6.000   3.346  -5.627  0.00  0.00     0.009 C 
ENDBRANCH   7   8
ENDBRANCH   1   7
TORSDOF 2
ENDMDL
