MODEL 1
REMARK minimizedAffinity 10.6500511
REMARK minimizedRMSD -1
REMARK  2 active torsions:
REMARK  status: ('A' for Active; 'I' for Inactive)
REMARK    1  A    between atoms: C1_2  and  C2_3 
REMARK    2  A    between atoms: C2_3  and  C3_4 
ROOT
ATOM      1  C3  UNL d   1       1.270  -1.911   1.395  0.00  0.00    -0.075 A 
ATOM      2  C4  UNL d   1       0.023  -2.542   1.512  0.00  0.00     0.002 A 
ATOM      3  C5  UNL d   1      -1.018  -1.929   2.209  0.00  0.00     0.002 A 
ATOM      4  C6  UNL d   1      -0.824  -0.684   2.805  0.00  0.00    -0.004 A 
ATOM      5  C7  UNL d   1       0.416  -0.056   2.709  0.00  0.00     0.002 A 
ATOM      6  C8  UNL d   1       1.458  -0.666   2.008  0.00  0.00     0.002 A 
ENDROOT
BRANCH   1   7
ATOM      7  C2  UNL d   1       2.392  -2.557   0.617  0.00  0.00     0.056 C 
BRANCH   7   8
ATOM      8  C1  UNL d   1       3.047  -3.742   1.334  0.00  0.00     0.007 C 
ATOM      9  C   UNL d   1       2.677  -5.089   0.728  0.00  0.00     0.009 C 
ENDBRANCH   7   8
ENDBRANCH   1   7
TORSDOF 2
ENDMDL
