MODEL 1
REMARK minimizedAffinity 17.3576374
REMARK minimizedRMSD -1
REMARK  2 active torsions:
REMARK  status: ('A' for Active; 'I' for Inactive)
REMARK    1  A    between atoms: C1_2  and  C2_3 
REMARK    2  A    between atoms: C2_3  and  C3_4 
ROOT
ATOM      1  C3  UNL d   1      -3.635   2.658  -4.180  0.00  0.00    -0.075 A 
ATOM      2  C4  UNL d   1      -4.522   1.849  -4.906  0.00  0.00     0.002 A 
ATOM      3  C5  UNL d   1      -5.472   2.422  -5.752  0.00  0.00     0.002 A 
ATOM      4  C6  UNL d   1      -5.554   3.807  -5.875  0.00  0.00    -0.004 A 
ATOM      5  C7  UNL d   1      -4.689   4.621  -5.147  0.00  0.00     0.002 A 
ATOM      6  C8  UNL d   1      -3.735   4.050  -4.303  0.00  0.00     0.002 A 
ENDROOT
BRANCH   1   7
ATOM      7  C2  UNL d   1      -2.585   2.044  -3.285  0.00  0.00     0.056 C 
BRANCH   7   8
ATOM      8  C1  UNL d   1      -3.090   1.692  -1.882  0.00  0.00     0.007 C 
ATOM      9  C   UNL d   1      -3.482   0.228  -1.735  0.00  0.00     0.009 C 
ENDBRANCH   7   8
ENDBRANCH   1   7
TORSDOF 2
ENDMDL
