MODEL 1
REMARK minimizedAffinity 10.9428015
REMARK minimizedRMSD -1
REMARK  2 active torsions:
REMARK  status: ('A' for Active; 'I' for Inactive)
REMARK    1  A    between atoms: C1_2  and  C2_3 
REMARK    2  A    between atoms: C2_3  and  C3_4 
ROOT
ATOM      1  C3  UNL d   1      -2.914  -1.130   1.481  0.00  0.00    -0.075 A 
ATOM      2  C4  UNL d   1      -3.694  -0.022   1.842  0.00  0.00     0.002 A 
ATOM      3  C5  UNL d   1      -3.382   0.723   2.980  0.00  0.00     0.002 A 
ATOM      4  C6  UNL d   1      -2.297   0.364   3.775  0.00  0.00    -0.004 A 
ATOM      5  C7  UNL d   1      -1.525  -0.746   3.436  0.00  0.00     0.002 A 
ATOM      6  C8  UNL d   1      -1.832  -1.490   2.295  0.00  0.00     0.002 A 
ENDROOT
BRANCH   1   7
ATOM      7  C2  UNL d   1      -3.228  -1.923   0.234  0.00  0.00     0.056 C 
BRANCH   7   8
ATOM      8  C1  UNL d   1      -3.535  -1.058  -0.993  0.00  0.00     0.007 C 
ATOM      9  C   UNL d   1      -2.294  -0.694  -1.797  0.00  0.00     0.009 C 
ENDBRANCH   7   8
ENDBRANCH   1   7
TORSDOF 2
ENDMDL
