MODEL 1
REMARK minimizedAffinity 5.97519922
REMARK minimizedRMSD -1
REMARK  2 active torsions:
REMARK  status: ('A' for Active; 'I' for Inactive)
REMARK    1  A    between atoms: C1_2  and  C2_3 
REMARK    2  A    between atoms: C2_3  and  C3_4 
ROOT
ATOM      1  C3  UNL d   1       0.637  -1.260   2.420  0.00  0.00    -0.075 A 
ATOM      2  C4  UNL d   1       1.783  -0.811   3.093  0.00  0.00     0.002 A 
ATOM      3  C5  UNL d   1       3.034  -0.873   2.480  0.00  0.00     0.002 A 
ATOM      4  C6  UNL d   1       3.158  -1.394   1.193  0.00  0.00    -0.004 A 
ATOM      5  C7  UNL d   1       2.029  -1.858   0.522  0.00  0.00     0.002 A 
ATOM      6  C8  UNL d   1       0.775  -1.793   1.132  0.00  0.00     0.002 A 
ENDROOT
BRANCH   1   7
ATOM      7  C2  UNL d   1      -0.724  -1.168   3.067  0.00  0.00     0.056 C 
BRANCH   7   8
ATOM      8  C1  UNL d   1      -1.756  -2.144   2.491  0.00  0.00     0.007 C 
ATOM      9  C   UNL d   1      -2.176  -3.225   3.478  0.00  0.00     0.009 C 
ENDBRANCH   7   8
ENDBRANCH   1   7
TORSDOF 2
ENDMDL
