MODEL 1
REMARK minimizedAffinity -2.63188672
REMARK minimizedRMSD -1
REMARK  1 active torsions:
REMARK  status: ('A' for Active; 'I' for Inactive)
REMARK    1  A    between atoms: C1_2  and  C2_3 
ROOT
ATOM      1  C2  UNL d   1      -0.068   1.578   1.173  0.00  0.00    -0.081 A 
ATOM      2  C3  UNL d   1       0.603   1.579  -0.056  0.00  0.00     0.006 A 
ATOM      3  C4  UNL d   1       0.957   0.375  -0.671  0.00  0.00     0.002 A 
ATOM      4  C5  UNL d   1       0.639  -0.848  -0.071  0.00  0.00    -0.080 A 
ATOM      5  C6  UNL d   1       0.986  -2.148  -0.735  0.00  0.00     0.076 C 
ATOM      6  C7  UNL d   1      -0.015  -0.849   1.165  0.00  0.00     0.002 A 
ATOM      7  C8  UNL d   1      -0.369   0.354   1.780  0.00  0.00     0.006 A 
ENDROOT
BRANCH   1   8
ATOM      8  C1  UNL d   1      -0.508   2.873   1.806  0.00  0.00     0.054 C 
ATOM      9  C   UNL d   1       0.039   4.074   1.049  0.00  0.00     0.018 C 
ENDBRANCH   1   8
TORSDOF 1
ENDMDL
