MODEL 1
REMARK minimizedAffinity -2.65091181
REMARK minimizedRMSD -1
REMARK  1 active torsions:
REMARK  status: ('A' for Active; 'I' for Inactive)
REMARK    1  A    between atoms: C1_2  and  C2_3 
ROOT
ATOM      1  C2  UNL d   1       0.664  -1.310  -0.211  0.00  0.00    -0.081 A 
ATOM      2  C3  UNL d   1       0.908   0.029  -0.541  0.00  0.00     0.006 A 
ATOM      3  C4  UNL d   1       0.323   1.059   0.199  0.00  0.00     0.002 A 
ATOM      4  C5  UNL d   1      -0.508   0.768   1.287  0.00  0.00    -0.080 A 
ATOM      5  C6  UNL d   1      -1.117   1.865   2.109  0.00  0.00     0.076 C 
ATOM      6  C7  UNL d   1      -0.765  -0.569   1.606  0.00  0.00     0.002 A 
ATOM      7  C8  UNL d   1      -0.182  -1.600   0.866  0.00  0.00     0.006 A 
ENDROOT
BRANCH   1   8
ATOM      8  C1  UNL d   1       1.344  -2.422  -0.967  0.00  0.00     0.054 C 
ATOM      9  C   UNL d   1       0.886  -2.466  -2.418  0.00  0.00     0.018 C 
ENDBRANCH   1   8
TORSDOF 1
ENDMDL
