MODEL 1
REMARK minimizedAffinity 1.52510953
REMARK minimizedRMSD -1
REMARK  1 active torsions:
REMARK  status: ('A' for Active; 'I' for Inactive)
REMARK    1  A    between atoms: C1_2  and  C2_3 
ROOT
ATOM      1  C2  UNL d   1       0.668  -1.004  -0.927  0.00  0.00    -0.081 A 
ATOM      2  C3  UNL d   1      -0.188  -1.436   0.094  0.00  0.00     0.006 A 
ATOM      3  C4  UNL d   1      -0.794  -0.511   0.948  0.00  0.00     0.002 A 
ATOM      4  C5  UNL d   1      -0.560   0.859   0.790  0.00  0.00    -0.080 A 
ATOM      5  C6  UNL d   1      -1.228   1.864   1.681  0.00  0.00     0.076 C 
ATOM      6  C7  UNL d   1       0.308   1.289  -0.219  0.00  0.00     0.002 A 
ATOM      7  C8  UNL d   1       0.915   0.365  -1.072  0.00  0.00     0.006 A 
ENDROOT
BRANCH   1   8
ATOM      8  C1  UNL d   1       1.272  -1.994  -1.891  0.00  0.00     0.054 C 
ATOM      9  C   UNL d   1       1.450  -3.360  -1.242  0.00  0.00     0.018 C 
ENDBRANCH   1   8
TORSDOF 1
ENDMDL
