MODEL 1
REMARK minimizedAffinity -0.170568049
REMARK minimizedRMSD -1
REMARK  1 active torsions:
REMARK  status: ('A' for Active; 'I' for Inactive)
REMARK    1  A    between atoms: C1_2  and  C2_3 
ROOT
ATOM      1  C2  UNL d   1       0.155  -1.533  -0.837  0.00  0.00    -0.081 A 
ATOM      2  C3  UNL d   1       0.968  -0.413  -0.626  0.00  0.00     0.006 A 
ATOM      3  C4  UNL d   1       0.653   0.514   0.370  0.00  0.00     0.002 A 
ATOM      4  C5  UNL d   1      -0.475   0.333   1.177  0.00  0.00    -0.080 A 
ATOM      5  C6  UNL d   1      -0.808   1.305   2.270  0.00  0.00     0.076 C 
ATOM      6  C7  UNL d   1      -1.298  -0.777   0.955  0.00  0.00     0.002 A 
ATOM      7  C8  UNL d   1      -0.983  -1.704  -0.041  0.00  0.00     0.006 A 
ENDROOT
BRANCH   1   8
ATOM      8  C1  UNL d   1       0.528  -2.568  -1.867  0.00  0.00     0.054 C 
ATOM      9  C   UNL d   1      -0.161  -3.897  -1.590  0.00  0.00     0.018 C 
ENDBRANCH   1   8
TORSDOF 1
ENDMDL
