MODEL 1
REMARK minimizedAffinity -3.21779108
REMARK minimizedRMSD -1
REMARK  1 active torsions:
REMARK  status: ('A' for Active; 'I' for Inactive)
REMARK    1  A    between atoms: C1_2  and  C2_3 
ROOT
ATOM      1  C2  UNL d   1       0.641  -1.405  -1.106  0.00  0.00    -0.081 A 
ATOM      2  C3  UNL d   1       1.346  -0.372  -0.478  0.00  0.00     0.006 A 
ATOM      3  C4  UNL d   1       0.754   0.366   0.550  0.00  0.00     0.002 A 
ATOM      4  C5  UNL d   1      -0.548   0.078   0.972  0.00  0.00    -0.080 A 
ATOM      5  C6  UNL d   1      -1.184   0.842   2.095  0.00  0.00     0.076 C 
ATOM      6  C7  UNL d   1      -1.259  -0.943   0.332  0.00  0.00     0.002 A 
ATOM      7  C8  UNL d   1      -0.668  -1.681  -0.696  0.00  0.00     0.006 A 
ENDROOT
BRANCH   1   8
ATOM      8  C1  UNL d   1       1.300  -2.245  -2.171  0.00  0.00     0.054 C 
ATOM      9  C   UNL d   1       0.274  -3.057  -2.948  0.00  0.00     0.018 C 
ENDBRANCH   1   8
TORSDOF 1
ENDMDL
