MODEL 1
REMARK minimizedAffinity -0.880832672
REMARK minimizedRMSD -1
REMARK  1 active torsions:
REMARK  status: ('A' for Active; 'I' for Inactive)
REMARK    1  A    between atoms: C1_2  and  C2_3 
ROOT
ATOM      1  C2  UNL d   1       0.848  -1.137  -0.292  0.00  0.00    -0.081 A 
ATOM      2  C3  UNL d   1      -0.038  -1.570   0.702  0.00  0.00     0.006 A 
ATOM      3  C4  UNL d   1      -0.784  -0.645   1.437  0.00  0.00     0.002 A 
ATOM      4  C5  UNL d   1      -0.662   0.725   1.186  0.00  0.00    -0.080 A 
ATOM      5  C6  UNL d   1      -1.479   1.726   1.947  0.00  0.00     0.076 C 
ATOM      6  C7  UNL d   1       0.236   1.159   0.205  0.00  0.00     0.002 A 
ATOM      7  C8  UNL d   1       0.983   0.235  -0.530  0.00  0.00     0.006 A 
ENDROOT
BRANCH   1   8
ATOM      8  C1  UNL d   1       1.606  -2.135  -1.130  0.00  0.00     0.054 C 
ATOM      9  C   UNL d   1       0.744  -2.674  -2.263  0.00  0.00     0.018 C 
ENDBRANCH   1   8
TORSDOF 1
ENDMDL
