MODEL 1
REMARK minimizedAffinity -2.77637911
REMARK minimizedRMSD -1
REMARK  1 active torsions:
REMARK  status: ('A' for Active; 'I' for Inactive)
REMARK    1  A    between atoms: C1_2  and  C2_3 
ROOT
ATOM      1  C2  UNL d   1      -0.552   2.323   0.967  0.00  0.00    -0.081 A 
ATOM      2  C3  UNL d   1      -0.793   1.085   1.575  0.00  0.00     0.006 A 
ATOM      3  C4  UNL d   1      -0.398  -0.100   0.950  0.00  0.00     0.002 A 
ATOM      4  C5  UNL d   1       0.252  -0.067  -0.288  0.00  0.00    -0.080 A 
ATOM      5  C6  UNL d   1       0.709  -1.330  -0.955  0.00  0.00     0.076 C 
ATOM      6  C7  UNL d   1       0.478   1.169  -0.904  0.00  0.00     0.002 A 
ATOM      7  C8  UNL d   1       0.082   2.354  -0.280  0.00  0.00     0.006 A 
ENDROOT
BRANCH   1   8
ATOM      8  C1  UNL d   1      -0.919   3.606   1.668  0.00  0.00     0.054 C 
ATOM      9  C   UNL d   1       0.317   4.332   2.177  0.00  0.00     0.018 C 
ENDBRANCH   1   8
TORSDOF 1
ENDMDL
