MODEL 1
REMARK minimizedAffinity -4.53735447
REMARK minimizedRMSD -1
REMARK  1 active torsions:
REMARK  status: ('A' for Active; 'I' for Inactive)
REMARK    1  A    between atoms: C1_2  and  C2_3 
ROOT
ATOM      1  C2  UNL d   1      -0.400   1.670  -0.040  0.00  0.00    -0.081 A 
ATOM      2  C3  UNL d   1      -0.972   0.497   0.468  0.00  0.00     0.006 A 
ATOM      3  C4  UNL d   1      -0.509  -0.754   0.054  0.00  0.00     0.002 A 
ATOM      4  C5  UNL d   1       0.540  -0.854  -0.867  0.00  0.00    -0.080 A 
ATOM      5  C6  UNL d   1       1.067  -2.190  -1.296  0.00  0.00     0.076 C 
ATOM      6  C7  UNL d   1       1.100   0.318  -1.387  0.00  0.00     0.002 A 
ATOM      7  C8  UNL d   1       0.637   1.569  -0.975  0.00  0.00     0.006 A 
ENDROOT
BRANCH   1   8
ATOM      8  C1  UNL d   1      -0.854   3.020   0.453  0.00  0.00     0.054 C 
ATOM      9  C   UNL d   1      -1.664   2.897   1.735  0.00  0.00     0.018 C 
ENDBRANCH   1   8
TORSDOF 1
ENDMDL
