MODEL 1
REMARK minimizedAffinity -4.17978001
REMARK minimizedRMSD -1
REMARK  1 active torsions:
REMARK  status: ('A' for Active; 'I' for Inactive)
REMARK    1  A    between atoms: C1_2  and  C2_3 
ROOT
ATOM      1  C2  UNL d   1       0.337  -1.289  -1.084  0.00  0.00    -0.081 A 
ATOM      2  C3  UNL d   1      -0.924  -0.702  -1.251  0.00  0.00     0.006 A 
ATOM      3  C4  UNL d   1      -1.435   0.166  -0.284  0.00  0.00     0.002 A 
ATOM      4  C5  UNL d   1      -0.691   0.468   0.862  0.00  0.00    -0.080 A 
ATOM      5  C6  UNL d   1      -1.215   1.422   1.894  0.00  0.00     0.076 C 
ATOM      6  C7  UNL d   1       0.561  -0.132   1.038  0.00  0.00     0.002 A 
ATOM      7  C8  UNL d   1       1.072  -1.000   0.071  0.00  0.00     0.006 A 
ENDROOT
BRANCH   1   8
ATOM      8  C1  UNL d   1       0.918  -2.175  -2.157  0.00  0.00     0.054 C 
ATOM      9  C   UNL d   1       0.706  -3.647  -1.834  0.00  0.00     0.018 C 
ENDBRANCH   1   8
TORSDOF 1
ENDMDL
