MODEL 1
REMARK minimizedAffinity -2.31137919
REMARK minimizedRMSD -1
REMARK  1 active torsions:
REMARK  status: ('A' for Active; 'I' for Inactive)
REMARK    1  A    between atoms: C1_2  and  C2_3 
ROOT
ATOM      1  C2  UNL d   1      -0.261   2.622   0.257  0.00  0.00    -0.081 A 
ATOM      2  C3  UNL d   1      -0.919   2.313   1.453  0.00  0.00     0.006 A 
ATOM      3  C4  UNL d   1      -0.960   0.997   1.920  0.00  0.00     0.002 A 
ATOM      4  C5  UNL d   1      -0.337  -0.030   1.203  0.00  0.00    -0.080 A 
ATOM      5  C6  UNL d   1      -0.347  -1.442   1.708  0.00  0.00     0.076 C 
ATOM      6  C7  UNL d   1       0.306   0.276  -0.002  0.00  0.00     0.002 A 
ATOM      7  C8  UNL d   1       0.347   1.591  -0.469  0.00  0.00     0.006 A 
ENDROOT
BRANCH   1   8
ATOM      8  C1  UNL d   1      -0.159   4.050  -0.216  0.00  0.00     0.054 C 
ATOM      9  C   UNL d   1       0.374   4.959   0.882  0.00  0.00     0.018 C 
ENDBRANCH   1   8
TORSDOF 1
ENDMDL
