MODEL 1
REMARK minimizedAffinity -2.66203904
REMARK minimizedRMSD -1
REMARK  1 active torsions:
REMARK  status: ('A' for Active; 'I' for Inactive)
REMARK    1  A    between atoms: C1_2  and  C2_3 
ROOT
ATOM      1  C2  UNL d   1       0.122   0.363   0.757  0.00  0.00    -0.081 A 
ATOM      2  C3  UNL d   1       0.896   0.965  -0.242  0.00  0.00     0.006 A 
ATOM      3  C4  UNL d   1       0.919   2.355  -0.380  0.00  0.00     0.002 A 
ATOM      4  C5  UNL d   1       0.174   3.166   0.485  0.00  0.00    -0.080 A 
ATOM      5  C6  UNL d   1       0.213   4.660   0.367  0.00  0.00     0.076 C 
ATOM      6  C7  UNL d   1      -0.612   2.563   1.472  0.00  0.00     0.002 A 
ATOM      7  C8  UNL d   1      -0.636   1.173   1.609  0.00  0.00     0.006 A 
ENDROOT
BRANCH   1   8
ATOM      8  C1  UNL d   1       0.147  -1.132   0.949  0.00  0.00     0.054 C 
ATOM      9  C   UNL d   1      -0.289  -1.517   2.355  0.00  0.00     0.018 C 
ENDBRANCH   1   8
TORSDOF 1
ENDMDL
