MODEL 1
REMARK minimizedAffinity -4.50066996
REMARK minimizedRMSD -1
REMARK  1 active torsions:
REMARK  status: ('A' for Active; 'I' for Inactive)
REMARK    1  A    between atoms: C1_2  and  C2_3 
ROOT
ATOM      1  C2  UNL d   1       0.287  -0.786  -0.529  0.00  0.00    -0.081 A 
ATOM      2  C3  UNL d   1       0.892   0.441  -0.826  0.00  0.00     0.006 A 
ATOM      3  C4  UNL d   1       0.520   1.599  -0.140  0.00  0.00     0.002 A 
ATOM      4  C5  UNL d   1      -0.458   1.549   0.860  0.00  0.00    -0.080 A 
ATOM      5  C6  UNL d   1      -0.845   2.779   1.625  0.00  0.00     0.076 C 
ATOM      6  C7  UNL d   1      -1.075   0.326   1.145  0.00  0.00     0.002 A 
ATOM      7  C8  UNL d   1      -0.704  -0.832   0.458  0.00  0.00     0.006 A 
ENDROOT
BRANCH   1   8
ATOM      8  C1  UNL d   1       0.732  -2.048  -1.222  0.00  0.00     0.054 C 
ATOM      9  C   UNL d   1       0.356  -2.031  -2.697  0.00  0.00     0.018 C 
ENDBRANCH   1   8
TORSDOF 1
ENDMDL
