MODEL 1
REMARK minimizedAffinity -4.81250668
REMARK minimizedRMSD -1
REMARK  1 active torsions:
REMARK  status: ('A' for Active; 'I' for Inactive)
REMARK    1  A    between atoms: C1_2  and  C2_3 
ROOT
ATOM      1  C2  UNL d   1       0.941  -3.669  -1.879  0.00  0.00    -0.081 A 
ATOM      2  C3  UNL d   1       1.846  -3.051  -1.007  0.00  0.00     0.006 A 
ATOM      3  C4  UNL d   1       2.504  -3.796  -0.025  0.00  0.00     0.002 A 
ATOM      4  C5  UNL d   1       2.274  -5.171   0.096  0.00  0.00    -0.080 A 
ATOM      5  C6  UNL d   1       2.997  -5.988   1.126  0.00  0.00     0.076 C 
ATOM      6  C7  UNL d   1       1.357  -5.785  -0.765  0.00  0.00     0.002 A 
ATOM      7  C8  UNL d   1       0.699  -5.041  -1.746  0.00  0.00     0.006 A 
ENDROOT
BRANCH   1   8
ATOM      8  C1  UNL d   1       0.279  -2.881  -2.980  0.00  0.00     0.054 C 
ATOM      9  C   UNL d   1       1.309  -2.275  -3.923  0.00  0.00     0.018 C 
ENDBRANCH   1   8
TORSDOF 1
ENDMDL
