MODEL 1
REMARK minimizedAffinity -2.06626105
REMARK minimizedRMSD -1
REMARK  1 active torsions:
REMARK  status: ('A' for Active; 'I' for Inactive)
REMARK    1  A    between atoms: C1_2  and  C2_3 
ROOT
ATOM      1  C2  UNL d   1      -0.026   1.020   1.189  0.00  0.00    -0.081 A 
ATOM      2  C3  UNL d   1       0.671   1.384   0.031  0.00  0.00     0.006 A 
ATOM      3  C4  UNL d   1       1.032   0.417  -0.912  0.00  0.00     0.002 A 
ATOM      4  C5  UNL d   1       0.695  -0.926  -0.715  0.00  0.00    -0.080 A 
ATOM      5  C6  UNL d   1       1.050  -1.969  -1.734  0.00  0.00     0.076 C 
ATOM      6  C7  UNL d   1       0.014  -1.292   0.450  0.00  0.00     0.002 A 
ATOM      7  C8  UNL d   1      -0.347  -0.327   1.393  0.00  0.00     0.006 A 
ENDROOT
BRANCH   1   8
ATOM      8  C1  UNL d   1      -0.473   2.068   2.176  0.00  0.00     0.054 C 
ATOM      9  C   UNL d   1      -0.483   3.453   1.545  0.00  0.00     0.018 C 
ENDBRANCH   1   8
TORSDOF 1
ENDMDL
