MODEL 1
REMARK minimizedAffinity -4.58866549
REMARK minimizedRMSD -1
REMARK  0 active torsions:
REMARK  status: ('A' for Active; 'I' for Inactive)
ROOT
ATOM      1  C   UNL d   1       1.783  -2.643   0.822  0.00  0.00     0.077 C 
ATOM      2  C1  UNL d   1       0.664  -1.653   0.950  0.00  0.00    -0.074 A 
ATOM      3  C2  UNL d   1      -0.241  -1.726   2.014  0.00  0.00    -0.005 A 
ATOM      4  C3  UNL d   1      -1.271  -0.792   2.126  0.00  0.00     0.006 A 
ATOM      5  C4  UNL d   1      -1.407   0.222   1.177  0.00  0.00    -0.005 A 
ATOM      6  C5  UNL d   1      -0.511   0.311   0.107  0.00  0.00    -0.074 A 
ATOM      7  C6  UNL d   1      -0.636   1.400  -0.916  0.00  0.00     0.077 C 
ATOM      8  C7  UNL d   1       0.526  -0.627   0.005  0.00  0.00    -0.001 A 
ENDROOT
TORSDOF 0
ENDMDL
