MODEL 1
REMARK minimizedAffinity -5.68027401
REMARK minimizedRMSD -1
REMARK  0 active torsions:
REMARK  status: ('A' for Active; 'I' for Inactive)
ROOT
ATOM      1  C   UNL d   1      -1.336   0.830  -0.352  0.00  0.00     0.077 C 
ATOM      2  C1  UNL d   1      -0.182  -0.063  -0.004  0.00  0.00    -0.074 A 
ATOM      3  C2  UNL d   1       1.054   0.078  -0.643  0.00  0.00    -0.005 A 
ATOM      4  C3  UNL d   1       2.121  -0.753  -0.302  0.00  0.00     0.006 A 
ATOM      5  C4  UNL d   1       1.962  -1.733   0.678  0.00  0.00    -0.005 A 
ATOM      6  C5  UNL d   1       0.734  -1.889   1.328  0.00  0.00    -0.074 A 
ATOM      7  C6  UNL d   1       0.549  -2.931   2.391  0.00  0.00     0.077 C 
ATOM      8  C7  UNL d   1      -0.331  -1.045   0.985  0.00  0.00    -0.001 A 
ENDROOT
TORSDOF 0
ENDMDL
