MODEL 1
REMARK minimizedAffinity -6.20921087
REMARK minimizedRMSD -1
REMARK  0 active torsions:
REMARK  status: ('A' for Active; 'I' for Inactive)
ROOT
ATOM      1  C   UNL d   1      -0.599   1.272  -0.451  0.00  0.00     0.077 C 
ATOM      2  C1  UNL d   1       0.066   0.100   0.207  0.00  0.00    -0.074 A 
ATOM      3  C2  UNL d   1       1.383  -0.250  -0.108  0.00  0.00    -0.005 A 
ATOM      4  C3  UNL d   1       1.992  -1.337   0.519  0.00  0.00     0.006 A 
ATOM      5  C4  UNL d   1       1.291  -2.084   1.467  0.00  0.00    -0.005 A 
ATOM      6  C5  UNL d   1      -0.026  -1.748   1.796  0.00  0.00    -0.074 A 
ATOM      7  C6  UNL d   1      -0.790  -2.534   2.820  0.00  0.00     0.077 C 
ATOM      8  C7  UNL d   1      -0.629  -0.651   1.166  0.00  0.00    -0.001 A 
ENDROOT
TORSDOF 0
ENDMDL
