MODEL 1
REMARK minimizedAffinity -4.9305892
REMARK minimizedRMSD -1
REMARK  0 active torsions:
REMARK  status: ('A' for Active; 'I' for Inactive)
ROOT
ATOM      1  C   UNL d   1      -0.907   0.929  -0.716  0.00  0.00     0.077 C 
ATOM      2  C1  UNL d   1       0.162   0.001  -0.223  0.00  0.00    -0.074 A 
ATOM      3  C2  UNL d   1       1.480   0.114  -0.679  0.00  0.00    -0.005 A 
ATOM      4  C3  UNL d   1       2.465  -0.751  -0.203  0.00  0.00     0.006 A 
ATOM      5  C4  UNL d   1       2.145  -1.736   0.731  0.00  0.00    -0.005 A 
ATOM      6  C5  UNL d   1       0.833  -1.864   1.199  0.00  0.00    -0.074 A 
ATOM      7  C6  UNL d   1       0.473  -2.912   2.210  0.00  0.00     0.077 C 
ATOM      8  C7  UNL d   1      -0.151  -0.987   0.722  0.00  0.00    -0.001 A 
ENDROOT
TORSDOF 0
ENDMDL
