MODEL 1
REMARK minimizedAffinity -2.88355064
REMARK minimizedRMSD -1
REMARK  0 active torsions:
REMARK  status: ('A' for Active; 'I' for Inactive)
ROOT
ATOM      1  C   UNL d   1      -0.925   1.192   0.152  0.00  0.00     0.077 C 
ATOM      2  C1  UNL d   1      -1.377   1.243  -1.277  0.00  0.00    -0.074 A 
ATOM      3  C2  UNL d   1      -2.546   0.593  -1.684  0.00  0.00    -0.005 A 
ATOM      4  C3  UNL d   1      -2.959   0.657  -3.015  0.00  0.00     0.006 A 
ATOM      5  C4  UNL d   1      -2.209   1.372  -3.950  0.00  0.00    -0.005 A 
ATOM      6  C5  UNL d   1      -1.038   2.030  -3.560  0.00  0.00    -0.074 A 
ATOM      7  C6  UNL d   1      -0.226   2.811  -4.550  0.00  0.00     0.077 C 
ATOM      8  C7  UNL d   1      -0.633   1.966  -2.220  0.00  0.00    -0.001 A 
ENDROOT
TORSDOF 0
ENDMDL
