MODEL 1
REMARK minimizedAffinity -6.05321884
REMARK minimizedRMSD -1
REMARK  0 active torsions:
REMARK  status: ('A' for Active; 'I' for Inactive)
ROOT
ATOM      1  C   UNL d   1       1.329   0.149  -0.794  0.00  0.00     0.077 C 
ATOM      2  C1  UNL d   1       1.048  -0.844   0.294  0.00  0.00    -0.074 A 
ATOM      3  C2  UNL d   1       1.919  -1.911   0.536  0.00  0.00    -0.005 A 
ATOM      4  C3  UNL d   1       1.649  -2.821   1.558  0.00  0.00     0.006 A 
ATOM      5  C4  UNL d   1       0.508  -2.673   2.347  0.00  0.00    -0.005 A 
ATOM      6  C5  UNL d   1      -0.374  -1.612   2.121  0.00  0.00    -0.074 A 
ATOM      7  C6  UNL d   1      -1.600  -1.433   2.966  0.00  0.00     0.077 C 
ATOM      8  C7  UNL d   1      -0.092  -0.698   1.097  0.00  0.00    -0.001 A 
ENDROOT
TORSDOF 0
ENDMDL
