MODEL 1
REMARK minimizedAffinity -3.49898243
REMARK minimizedRMSD -1
REMARK  0 active torsions:
REMARK  status: ('A' for Active; 'I' for Inactive)
ROOT
ATOM      1  C   UNL d   1      -1.246   1.274   0.054  0.00  0.00     0.077 C 
ATOM      2  C1  UNL d   1      -0.023   0.407   0.019  0.00  0.00    -0.074 A 
ATOM      3  C2  UNL d   1       1.113   0.796  -0.698  0.00  0.00    -0.005 A 
ATOM      4  C3  UNL d   1       2.247  -0.017  -0.714  0.00  0.00     0.006 A 
ATOM      5  C4  UNL d   1       2.256  -1.224  -0.015  0.00  0.00    -0.005 A 
ATOM      6  C5  UNL d   1       1.130  -1.629   0.708  0.00  0.00    -0.074 A 
ATOM      7  C6  UNL d   1       1.127  -2.919   1.474  0.00  0.00     0.077 C 
ATOM      8  C7  UNL d   1      -0.003  -0.804   0.725  0.00  0.00    -0.001 A 
ENDROOT
TORSDOF 0
ENDMDL
