MODEL 1
REMARK minimizedAffinity -4.76902008
REMARK minimizedRMSD -1
REMARK  0 active torsions:
REMARK  status: ('A' for Active; 'I' for Inactive)
ROOT
ATOM      1  C   UNL d   1       0.184   0.843  -0.920  0.00  0.00     0.077 C 
ATOM      2  C1  UNL d   1       0.375  -0.323   0.005  0.00  0.00    -0.074 A 
ATOM      3  C2  UNL d   1       1.476  -1.174  -0.130  0.00  0.00    -0.005 A 
ATOM      4  C3  UNL d   1       1.646  -2.248   0.743  0.00  0.00     0.006 A 
ATOM      5  C4  UNL d   1       0.717  -2.482   1.759  0.00  0.00    -0.005 A 
ATOM      6  C5  UNL d   1      -0.390  -1.640   1.909  0.00  0.00    -0.074 A 
ATOM      7  C6  UNL d   1      -1.392  -1.871   3.001  0.00  0.00     0.077 C 
ATOM      8  C7  UNL d   1      -0.549  -0.559   1.032  0.00  0.00    -0.001 A 
ENDROOT
TORSDOF 0
ENDMDL
