MODEL 1
REMARK minimizedAffinity -3.69196844
REMARK minimizedRMSD -1
REMARK  0 active torsions:
REMARK  status: ('A' for Active; 'I' for Inactive)
ROOT
ATOM      1  C   UNL d   1       1.438   0.414  -0.714  0.00  0.00     0.077 C 
ATOM      2  C1  UNL d   1       1.180  -0.653   0.308  0.00  0.00    -0.074 A 
ATOM      3  C2  UNL d   1       2.206  -1.503   0.734  0.00  0.00    -0.005 A 
ATOM      4  C3  UNL d   1       1.954  -2.485   1.692  0.00  0.00     0.006 A 
ATOM      5  C4  UNL d   1       0.676  -2.626   2.234  0.00  0.00    -0.005 A 
ATOM      6  C5  UNL d   1      -0.362  -1.784   1.822  0.00  0.00    -0.074 A 
ATOM      7  C6  UNL d   1      -1.739  -1.916   2.401  0.00  0.00     0.077 C 
ATOM      8  C7  UNL d   1      -0.099  -0.796   0.863  0.00  0.00    -0.001 A 
ENDROOT
TORSDOF 0
ENDMDL
