MODEL 1
REMARK minimizedAffinity -4.77714157
REMARK minimizedRMSD -1
REMARK  0 active torsions:
REMARK  status: ('A' for Active; 'I' for Inactive)
ROOT
ATOM      1  C   UNL d   1      -1.434   0.960   0.352  0.00  0.00     0.077 C 
ATOM      2  C1  UNL d   1      -0.216   0.089   0.423  0.00  0.00    -0.074 A 
ATOM      3  C2  UNL d   1       0.904   0.352  -0.372  0.00  0.00    -0.005 A 
ATOM      4  C3  UNL d   1       2.034  -0.462  -0.287  0.00  0.00     0.006 A 
ATOM      5  C4  UNL d   1       2.055  -1.546   0.591  0.00  0.00    -0.005 A 
ATOM      6  C5  UNL d   1       0.945  -1.824   1.395  0.00  0.00    -0.074 A 
ATOM      7  C6  UNL d   1       0.955  -2.979   2.352  0.00  0.00     0.077 C 
ATOM      8  C7  UNL d   1      -0.184  -0.997   1.309  0.00  0.00    -0.001 A 
ENDROOT
TORSDOF 0
ENDMDL
