MODEL 1
REMARK minimizedAffinity -3.70427561
REMARK minimizedRMSD -1
REMARK  0 active torsions:
REMARK  status: ('A' for Active; 'I' for Inactive)
ROOT
ATOM      1  C   UNL d   1      -0.576  -2.280   2.831  0.00  0.00     0.077 C 
ATOM      2  C1  UNL d   1       0.197  -1.679   1.695  0.00  0.00    -0.074 A 
ATOM      3  C2  UNL d   1       1.436  -2.204   1.311  0.00  0.00    -0.005 A 
ATOM      4  C3  UNL d   1       2.139  -1.640   0.247  0.00  0.00     0.006 A 
ATOM      5  C4  UNL d   1       1.613  -0.548  -0.443  0.00  0.00    -0.005 A 
ATOM      6  C5  UNL d   1       0.376  -0.010  -0.074  0.00  0.00    -0.074 A 
ATOM      7  C6  UNL d   1      -0.209   1.159  -0.811  0.00  0.00     0.077 C 
ATOM      8  C7  UNL d   1      -0.328  -0.586   0.992  0.00  0.00    -0.001 A 
ENDROOT
TORSDOF 0
ENDMDL
