MODEL 1
REMARK minimizedAffinity -5.97751665
REMARK minimizedRMSD -1
REMARK  0 active torsions:
REMARK  status: ('A' for Active; 'I' for Inactive)
ROOT
ATOM      1  C   UNL d   1      -0.326   1.055  -0.702  0.00  0.00     0.077 C 
ATOM      2  C1  UNL d   1       0.262  -0.209  -0.150  0.00  0.00    -0.074 A 
ATOM      3  C2  UNL d   1       1.379  -0.803  -0.746  0.00  0.00    -0.005 A 
ATOM      4  C3  UNL d   1       1.921  -1.973  -0.215  0.00  0.00     0.006 A 
ATOM      5  C4  UNL d   1       1.352  -2.561   0.916  0.00  0.00    -0.005 A 
ATOM      6  C5  UNL d   1       0.236  -1.981   1.526  0.00  0.00    -0.074 A 
ATOM      7  C6  UNL d   1      -0.382  -2.594   2.748  0.00  0.00     0.077 C 
ATOM      8  C7  UNL d   1      -0.299  -0.801   0.991  0.00  0.00    -0.001 A 
ENDROOT
TORSDOF 0
ENDMDL
