MODEL 1
REMARK minimizedAffinity -6.0460124
REMARK minimizedRMSD -1
REMARK  0 active torsions:
REMARK  status: ('A' for Active; 'I' for Inactive)
ROOT
ATOM      1  C   UNL d   1      -1.114  -2.183   2.908  0.00  0.00     0.077 C 
ATOM      2  C1  UNL d   1      -0.265  -1.606   1.814  0.00  0.00    -0.074 A 
ATOM      3  C2  UNL d   1       0.994  -2.142   1.523  0.00  0.00    -0.005 A 
ATOM      4  C3  UNL d   1       1.768  -1.601   0.497  0.00  0.00     0.006 A 
ATOM      5  C4  UNL d   1       1.293  -0.521  -0.247  0.00  0.00    -0.005 A 
ATOM      6  C5  UNL d   1       0.037   0.027   0.028  0.00  0.00    -0.074 A 
ATOM      7  C6  UNL d   1      -0.493   1.182  -0.769  0.00  0.00     0.077 C 
ATOM      8  C7  UNL d   1      -0.739  -0.526   1.056  0.00  0.00    -0.001 A 
ENDROOT
TORSDOF 0
ENDMDL
