MODEL 1
REMARK minimizedAffinity -2.60917616
REMARK minimizedRMSD -1
REMARK  0 active torsions:
REMARK  status: ('A' for Active; 'I' for Inactive)
ROOT
ATOM      1  C   UNL d   1      -0.879   0.811  -0.329  0.00  0.00     0.077 C 
ATOM      2  C1  UNL d   1       0.240  -0.080   0.123  0.00  0.00    -0.074 A 
ATOM      3  C2  UNL d   1       1.454  -0.116  -0.570  0.00  0.00    -0.005 A 
ATOM      4  C3  UNL d   1       2.490  -0.942  -0.133  0.00  0.00     0.006 A 
ATOM      5  C4  UNL d   1       2.322  -1.739   1.000  0.00  0.00    -0.005 A 
ATOM      6  C5  UNL d   1       1.115  -1.715   1.707  0.00  0.00    -0.074 A 
ATOM      7  C6  UNL d   1       0.921  -2.558   2.932  0.00  0.00     0.077 C 
ATOM      8  C7  UNL d   1       0.082  -0.877   1.265  0.00  0.00    -0.001 A 
ENDROOT
TORSDOF 0
ENDMDL
