MODEL 1
REMARK minimizedAffinity -6.43449688
REMARK minimizedRMSD -1
REMARK  0 active torsions:
REMARK  status: ('A' for Active; 'I' for Inactive)
ROOT
ATOM      1  C   UNL d   1      -0.550   1.319   0.041  0.00  0.00     0.077 C 
ATOM      2  C1  UNL d   1       0.173   0.084   0.491  0.00  0.00    -0.074 A 
ATOM      3  C2  UNL d   1       1.349  -0.331  -0.141  0.00  0.00    -0.005 A 
ATOM      4  C3  UNL d   1       2.015  -1.476   0.295  0.00  0.00     0.006 A 
ATOM      5  C4  UNL d   1       1.512  -2.217   1.366  0.00  0.00    -0.005 A 
ATOM      6  C5  UNL d   1       0.338  -1.816   2.011  0.00  0.00    -0.074 A 
ATOM      7  C6  UNL d   1      -0.211  -2.595   3.169  0.00  0.00     0.077 C 
ATOM      8  C7  UNL d   1      -0.322  -0.660   1.571  0.00  0.00    -0.001 A 
ENDROOT
TORSDOF 0
ENDMDL
