MODEL 1
REMARK minimizedAffinity -3.23230433
REMARK minimizedRMSD -1
REMARK  0 active torsions:
REMARK  status: ('A' for Active; 'I' for Inactive)
ROOT
ATOM      1  C   UNL d   1       1.146  -3.014   1.138  0.00  0.00     0.077 C 
ATOM      2  C1  UNL d   1       1.206  -1.678   0.458  0.00  0.00    -0.074 A 
ATOM      3  C2  UNL d   1       2.410  -1.188  -0.058  0.00  0.00    -0.005 A 
ATOM      4  C3  UNL d   1       2.448   0.052  -0.696  0.00  0.00     0.006 A 
ATOM      5  C4  UNL d   1       1.285   0.812  -0.825  0.00  0.00    -0.005 A 
ATOM      6  C5  UNL d   1       0.072   0.338  -0.316  0.00  0.00    -0.074 A 
ATOM      7  C6  UNL d   1      -1.189   1.138  -0.455  0.00  0.00     0.077 C 
ATOM      8  C7  UNL d   1       0.040  -0.912   0.317  0.00  0.00    -0.001 A 
ENDROOT
TORSDOF 0
ENDMDL
