MODEL 1
REMARK minimizedAffinity -3.96941853
REMARK minimizedRMSD -1
REMARK  0 active torsions:
REMARK  status: ('A' for Active; 'I' for Inactive)
ROOT
ATOM      1  C   UNL d   1      -0.953   0.886  -0.509  0.00  0.00     0.077 C 
ATOM      2  C1  UNL d   1      -0.504  -0.107   0.522  0.00  0.00    -0.074 A 
ATOM      3  C2  UNL d   1      -1.319  -0.429   1.612  0.00  0.00    -0.005 A 
ATOM      4  C3  UNL d   1      -0.893  -1.361   2.557  0.00  0.00     0.006 A 
ATOM      5  C4  UNL d   1       0.351  -1.980   2.423  0.00  0.00    -0.005 A 
ATOM      6  C5  UNL d   1       1.179  -1.670   1.340  0.00  0.00    -0.074 A 
ATOM      7  C6  UNL d   1       2.515  -2.333   1.175  0.00  0.00     0.077 C 
ATOM      8  C7  UNL d   1       0.741  -0.738   0.390  0.00  0.00    -0.001 A 
ENDROOT
TORSDOF 0
ENDMDL
