MODEL 1
REMARK minimizedAffinity -0.318107516
REMARK minimizedRMSD -1
REMARK  0 active torsions:
REMARK  status: ('A' for Active; 'I' for Inactive)
ROOT
ATOM      1  C   UNL d   1      -1.017   2.152  -2.401  0.00  0.00     0.077 C 
ATOM      2  C1  UNL d   1      -0.792   1.249  -1.225  0.00  0.00    -0.074 A 
ATOM      3  C2  UNL d   1      -1.765   1.109  -0.229  0.00  0.00    -0.005 A 
ATOM      4  C3  UNL d   1      -1.545   0.258   0.854  0.00  0.00     0.006 A 
ATOM      5  C4  UNL d   1      -0.354  -0.461   0.952  0.00  0.00    -0.005 A 
ATOM      6  C5  UNL d   1       0.630  -0.335  -0.034  0.00  0.00    -0.074 A 
ATOM      7  C6  UNL d   1       1.912  -1.109   0.051  0.00  0.00     0.077 C 
ATOM      8  C7  UNL d   1       0.399   0.517  -1.123  0.00  0.00    -0.001 A 
ENDROOT
TORSDOF 0
ENDMDL
