MODEL 1
REMARK minimizedAffinity 15.0581455
REMARK minimizedRMSD -1
REMARK  0 active torsions:
REMARK  status: ('A' for Active; 'I' for Inactive)
ROOT
ATOM      1  C   UNL d   1      -0.760  -0.188   4.624  0.00  0.00    -0.002 A 
ATOM      2  C1  UNL d   1       0.118   0.156   5.642  0.00  0.00     0.010 A 
ATOM      3  C2  UNL d   1       1.473   0.357   5.373  0.00  0.00     0.041 A 
ATOM      4  C3  UNL d   1       1.935   0.207   4.051  0.00  0.00    -0.075 A 
ATOM      5  S   UNL d   1       3.552   0.404   3.486  0.00  0.00     0.015 SA
ATOM      6  C4  UNL d   1       3.115   0.037   1.880  0.00  0.00     0.022 A 
ATOM      7  C5  UNL d   1       1.772  -0.232   1.760  0.00  0.00     0.026 A 
ATOM      8  C6  UNL d   1       1.070  -0.138   3.009  0.00  0.00    -0.082 A 
ATOM      9  C7  UNL d   1      -0.298  -0.337   3.314  0.00  0.00     0.045 A 
ENDROOT
TORSDOF 0
ENDMDL
