MODEL 1
REMARK minimizedAffinity 31.0527058
REMARK minimizedRMSD -1
REMARK  0 active torsions:
REMARK  status: ('A' for Active; 'I' for Inactive)
ROOT
ATOM      1  C   UNL d   1       0.131  -2.218   2.358  0.00  0.00    -0.002 A 
ATOM      2  C1  UNL d   1      -0.102  -1.011   3.003  0.00  0.00     0.010 A 
ATOM      3  C2  UNL d   1       0.763   0.070   2.821  0.00  0.00     0.041 A 
ATOM      4  C3  UNL d   1       1.876  -0.084   1.971  0.00  0.00    -0.075 A 
ATOM      5  S   UNL d   1       3.070   1.103   1.597  0.00  0.00     0.015 SA
ATOM      6  C4  UNL d   1       3.916   0.036   0.572  0.00  0.00     0.022 A 
ATOM      7  C5  UNL d   1       3.317  -1.199   0.506  0.00  0.00     0.026 A 
ATOM      8  C6  UNL d   1       2.131  -1.289   1.310  0.00  0.00    -0.082 A 
ATOM      9  C7  UNL d   1       1.236  -2.366   1.515  0.00  0.00     0.045 A 
ENDROOT
TORSDOF 0
ENDMDL
