MODEL 1
REMARK minimizedAffinity 9.52276134
REMARK minimizedRMSD -1
REMARK  0 active torsions:
REMARK  status: ('A' for Active; 'I' for Inactive)
ROOT
ATOM      1  C   UNL d   1      -1.488   3.767  -3.325  0.00  0.00    -0.002 A 
ATOM      2  C1  UNL d   1      -1.521   2.582  -2.605  0.00  0.00     0.010 A 
ATOM      3  C2  UNL d   1      -2.469   2.388  -1.599  0.00  0.00     0.041 A 
ATOM      4  C3  UNL d   1      -3.394   3.415  -1.327  0.00  0.00    -0.075 A 
ATOM      5  S   UNL d   1      -4.645   3.400  -0.141  0.00  0.00     0.015 SA
ATOM      6  C4  UNL d   1      -5.167   4.967  -0.563  0.00  0.00     0.022 A 
ATOM      7  C5  UNL d   1      -4.415   5.503  -1.582  0.00  0.00     0.026 A 
ATOM      8  C6  UNL d   1      -3.382   4.617  -2.039  0.00  0.00    -0.082 A 
ATOM      9  C7  UNL d   1      -2.407   4.784  -3.053  0.00  0.00     0.045 A 
ENDROOT
TORSDOF 0
ENDMDL
