MODEL 1
REMARK minimizedAffinity 12.4051495
REMARK minimizedRMSD -1
REMARK  0 active torsions:
REMARK  status: ('A' for Active; 'I' for Inactive)
ROOT
ATOM      1  C   UNL d   1       0.800   2.924  -1.312  0.00  0.00    -0.002 A 
ATOM      2  C1  UNL d   1       0.369   3.045   0.001  0.00  0.00     0.010 A 
ATOM      3  C2  UNL d   1      -0.993   3.007   0.308  0.00  0.00     0.041 A 
ATOM      4  C3  UNL d   1      -1.923   2.842  -0.737  0.00  0.00    -0.075 A 
ATOM      5  S   UNL d   1      -3.640   2.765  -0.598  0.00  0.00     0.015 SA
ATOM      6  C4  UNL d   1      -3.841   2.570  -2.279  0.00  0.00     0.022 A 
ATOM      7  C5  UNL d   1      -2.639   2.561  -2.945  0.00  0.00     0.026 A 
ATOM      8  C6  UNL d   1      -1.513   2.717  -2.067  0.00  0.00    -0.082 A 
ATOM      9  C7  UNL d   1      -0.126   2.761  -2.346  0.00  0.00     0.045 A 
ENDROOT
TORSDOF 0
ENDMDL
