MODEL 1
REMARK minimizedAffinity 15.9513187
REMARK minimizedRMSD -1
REMARK  0 active torsions:
REMARK  status: ('A' for Active; 'I' for Inactive)
ROOT
ATOM      1  C   UNL d   1      -0.371   1.578  -0.689  0.00  0.00    -0.002 A 
ATOM      2  C1  UNL d   1      -0.879   2.072  -1.882  0.00  0.00     0.010 A 
ATOM      3  C2  UNL d   1      -0.673   3.404  -2.245  0.00  0.00     0.041 A 
ATOM      4  C3  UNL d   1       0.063   4.240  -1.381  0.00  0.00    -0.075 A 
ATOM      5  S   UNL d   1       0.442   5.904  -1.619  0.00  0.00     0.015 SA
ATOM      6  C4  UNL d   1       1.289   6.000  -0.143  0.00  0.00     0.022 A 
ATOM      7  C5  UNL d   1       1.292   4.800   0.528  0.00  0.00     0.026 A 
ATOM      8  C6  UNL d   1       0.586   3.765  -0.175  0.00  0.00    -0.082 A 
ATOM      9  C7  UNL d   1       0.358   2.410   0.165  0.00  0.00     0.045 A 
ENDROOT
TORSDOF 0
ENDMDL
