MODEL 1
REMARK minimizedAffinity 23.8860931
REMARK minimizedRMSD -1
REMARK  0 active torsions:
REMARK  status: ('A' for Active; 'I' for Inactive)
ROOT
ATOM      1  C   UNL d   1       4.141   0.050   1.717  0.00  0.00    -0.002 A 
ATOM      2  C1  UNL d   1       3.689   1.348   1.531  0.00  0.00     0.010 A 
ATOM      3  C2  UNL d   1       3.588   1.888   0.247  0.00  0.00     0.041 A 
ATOM      4  C3  UNL d   1       3.952   1.092  -0.857  0.00  0.00    -0.075 A 
ATOM      5  S   UNL d   1       3.910   1.542  -2.521  0.00  0.00     0.015 SA
ATOM      6  C4  UNL d   1       4.490   0.020  -3.024  0.00  0.00     0.022 A 
ATOM      7  C5  UNL d   1       4.716  -0.822  -1.961  0.00  0.00     0.026 A 
ATOM      8  C6  UNL d   1       4.409  -0.219  -0.695  0.00  0.00    -0.082 A 
ATOM      9  C7  UNL d   1       4.501  -0.737   0.619  0.00  0.00     0.045 A 
ENDROOT
TORSDOF 0
ENDMDL
