MODEL 1
REMARK minimizedAffinity 16.757267
REMARK minimizedRMSD -1
REMARK  0 active torsions:
REMARK  status: ('A' for Active; 'I' for Inactive)
ROOT
ATOM      1  C   UNL d   1      -0.408  -0.454   4.312  0.00  0.00    -0.002 A 
ATOM      2  C1  UNL d   1       0.442   0.008   5.306  0.00  0.00     0.010 A 
ATOM      3  C2  UNL d   1       1.782   0.284   5.024  0.00  0.00     0.041 A 
ATOM      4  C3  UNL d   1       2.256   0.087   3.712  0.00  0.00    -0.075 A 
ATOM      5  S   UNL d   1       3.858   0.360   3.134  0.00  0.00     0.015 SA
ATOM      6  C4  UNL d   1       3.451  -0.131   1.554  0.00  0.00     0.022 A 
ATOM      7  C5  UNL d   1       2.130  -0.497   1.451  0.00  0.00     0.026 A 
ATOM      8  C6  UNL d   1       1.419  -0.377   2.693  0.00  0.00    -0.082 A 
ATOM      9  C7  UNL d   1       0.067  -0.648   3.012  0.00  0.00     0.045 A 
ENDROOT
TORSDOF 0
ENDMDL
