MODEL 1
REMARK minimizedAffinity 19.7548447
REMARK minimizedRMSD -1
REMARK  0 active torsions:
REMARK  status: ('A' for Active; 'I' for Inactive)
ROOT
ATOM      1  C   UNL d   1      -2.709  -3.239   1.618  0.00  0.00    -0.002 A 
ATOM      2  C1  UNL d   1      -3.087  -2.948   2.921  0.00  0.00     0.010 A 
ATOM      3  C2  UNL d   1      -2.266  -2.174   3.743  0.00  0.00     0.041 A 
ATOM      4  C3  UNL d   1      -1.048  -1.690   3.228  0.00  0.00    -0.075 A 
ATOM      5  S   UNL d   1       0.117  -0.722   4.051  0.00  0.00     0.015 SA
ATOM      6  C4  UNL d   1       1.144  -0.670   2.692  0.00  0.00     0.022 A 
ATOM      7  C5  UNL d   1       0.627  -1.369   1.628  0.00  0.00     0.026 A 
ATOM      8  C6  UNL d   1      -0.645  -1.968   1.919  0.00  0.00    -0.082 A 
ATOM      9  C7  UNL d   1      -1.499  -2.757   1.110  0.00  0.00     0.045 A 
ENDROOT
TORSDOF 0
ENDMDL
