MODEL 1
REMARK minimizedAffinity 10.8943386
REMARK minimizedRMSD -1
REMARK  0 active torsions:
REMARK  status: ('A' for Active; 'I' for Inactive)
ROOT
ATOM      1  C   UNL d   1      -0.753   2.176  -0.612  0.00  0.00    -0.002 A 
ATOM      2  C1  UNL d   1      -0.872   2.554  -1.942  0.00  0.00     0.010 A 
ATOM      3  C2  UNL d   1      -0.210   3.687  -2.421  0.00  0.00     0.041 A 
ATOM      4  C3  UNL d   1       0.584   4.438  -1.532  0.00  0.00    -0.075 A 
ATOM      5  S   UNL d   1       1.488   5.861  -1.894  0.00  0.00     0.015 SA
ATOM      6  C4  UNL d   1       2.053   6.000  -0.292  0.00  0.00     0.022 A 
ATOM      7  C5  UNL d   1       1.574   4.994   0.513  0.00  0.00     0.026 A 
ATOM      8  C6  UNL d   1       0.720   4.077  -0.188  0.00  0.00    -0.082 A 
ATOM      9  C7  UNL d   1       0.035   2.924   0.266  0.00  0.00     0.045 A 
ENDROOT
TORSDOF 0
ENDMDL
