MODEL 1
REMARK minimizedAffinity -4.20931244
REMARK minimizedRMSD -1
REMARK  0 active torsions:
REMARK  status: ('A' for Active; 'I' for Inactive)
ROOT
ATOM      1  C   UNL d   1       0.167  -0.846  -0.110  0.00  0.00     0.078 C 
ATOM      2  C1  UNL d   1      -0.713   0.206  -0.715  0.00  0.00    -0.077 A 
ATOM      3  C2  UNL d   1      -1.595  -0.103  -1.758  0.00  0.00    -0.001 A 
ATOM      4  C3  UNL d   1      -2.400   0.889  -2.319  0.00  0.00     0.003 A 
ATOM      5  C4  UNL d   1      -2.331   2.198  -1.844  0.00  0.00    -0.005 A 
ATOM      6  C5  UNL d   1      -1.455   2.515  -0.809  0.00  0.00     0.003 A 
ATOM      7  C6  UNL d   1      -0.649   1.525  -0.247  0.00  0.00    -0.001 A 
ENDROOT
TORSDOF 0
ENDMDL
