MODEL 1
REMARK minimizedAffinity -3.68543577
REMARK minimizedRMSD -1
REMARK  0 active torsions:
REMARK  status: ('A' for Active; 'I' for Inactive)
ROOT
ATOM      1  C   UNL d   1      -1.160   1.905  -0.750  0.00  0.00     0.078 C 
ATOM      2  C1  UNL d   1      -0.061   0.962  -0.359  0.00  0.00    -0.077 A 
ATOM      3  C2  UNL d   1      -0.350  -0.301   0.172  0.00  0.00    -0.001 A 
ATOM      4  C3  UNL d   1       0.682  -1.165   0.541  0.00  0.00     0.003 A 
ATOM      5  C4  UNL d   1       2.011  -0.774   0.383  0.00  0.00    -0.005 A 
ATOM      6  C5  UNL d   1       2.308   0.481  -0.143  0.00  0.00     0.003 A 
ATOM      7  C6  UNL d   1       1.277   1.346  -0.512  0.00  0.00    -0.001 A 
ENDROOT
TORSDOF 0
ENDMDL
