MODEL 1
REMARK minimizedAffinity -1.92520678
REMARK minimizedRMSD -1
REMARK  0 active torsions:
REMARK  status: ('A' for Active; 'I' for Inactive)
ROOT
ATOM      1  C   UNL d   1      -1.722  -1.187   1.487  0.00  0.00     0.078 C 
ATOM      2  C1  UNL d   1      -0.350  -1.240   0.884  0.00  0.00    -0.077 A 
ATOM      3  C2  UNL d   1       0.426  -2.404   0.959  0.00  0.00    -0.001 A 
ATOM      4  C3  UNL d   1       1.705  -2.435   0.402  0.00  0.00     0.003 A 
ATOM      5  C4  UNL d   1       2.221  -1.307  -0.233  0.00  0.00    -0.005 A 
ATOM      6  C5  UNL d   1       1.457  -0.144  -0.310  0.00  0.00     0.003 A 
ATOM      7  C6  UNL d   1       0.177  -0.110   0.246  0.00  0.00    -0.001 A 
ENDROOT
TORSDOF 0
ENDMDL
