MODEL 1
REMARK minimizedAffinity -3.55991125
REMARK minimizedRMSD -1
REMARK  0 active torsions:
REMARK  status: ('A' for Active; 'I' for Inactive)
ROOT
ATOM      1  C   UNL d   1       1.775  -2.517   1.048  0.00  0.00     0.078 C 
ATOM      2  C1  UNL d   1       0.976  -1.350   0.551  0.00  0.00    -0.077 A 
ATOM      3  C2  UNL d   1      -0.409  -1.287   0.749  0.00  0.00    -0.001 A 
ATOM      4  C3  UNL d   1      -1.142  -0.199   0.272  0.00  0.00     0.003 A 
ATOM      5  C4  UNL d   1      -0.499   0.833  -0.408  0.00  0.00    -0.005 A 
ATOM      6  C5  UNL d   1       0.878   0.778  -0.612  0.00  0.00     0.003 A 
ATOM      7  C6  UNL d   1       1.613  -0.308  -0.136  0.00  0.00    -0.001 A 
ENDROOT
TORSDOF 0
ENDMDL
