MODEL 1
REMARK minimizedAffinity -4.79412889
REMARK minimizedRMSD -1
REMARK  0 active torsions:
REMARK  status: ('A' for Active; 'I' for Inactive)
ROOT
ATOM      1  C   UNL d   1      -0.593   0.932  -0.827  0.00  0.00     0.078 C 
ATOM      2  C1  UNL d   1       0.214  -0.172  -0.211  0.00  0.00    -0.077 A 
ATOM      3  C2  UNL d   1      -0.381  -1.389   0.142  0.00  0.00    -0.001 A 
ATOM      4  C3  UNL d   1       0.381  -2.404   0.724  0.00  0.00     0.003 A 
ATOM      5  C4  UNL d   1       1.741  -2.212   0.957  0.00  0.00    -0.005 A 
ATOM      6  C5  UNL d   1       2.341  -1.003   0.611  0.00  0.00     0.003 A 
ATOM      7  C6  UNL d   1       1.581   0.013   0.030  0.00  0.00    -0.001 A 
ENDROOT
TORSDOF 0
ENDMDL
