MODEL 1
REMARK minimizedAffinity -3.64824462
REMARK minimizedRMSD -1
REMARK  0 active torsions:
REMARK  status: ('A' for Active; 'I' for Inactive)
ROOT
ATOM      1  C   UNL d   1      -0.870   0.742  -0.293  0.00  0.00     0.078 C 
ATOM      2  C1  UNL d   1       0.108  -0.336   0.065  0.00  0.00    -0.077 A 
ATOM      3  C2  UNL d   1       0.043  -0.988   1.302  0.00  0.00    -0.001 A 
ATOM      4  C3  UNL d   1       0.967  -1.983   1.625  0.00  0.00     0.003 A 
ATOM      5  C4  UNL d   1       1.963  -2.334   0.717  0.00  0.00    -0.005 A 
ATOM      6  C5  UNL d   1       2.037  -1.690  -0.516  0.00  0.00     0.003 A 
ATOM      7  C6  UNL d   1       1.115  -0.695  -0.841  0.00  0.00    -0.001 A 
ENDROOT
TORSDOF 0
ENDMDL
