MODEL 1
REMARK minimizedAffinity -3.83362937
REMARK minimizedRMSD -1
REMARK  0 active torsions:
REMARK  status: ('A' for Active; 'I' for Inactive)
ROOT
ATOM      1  C   UNL d   1       1.567  -1.802   0.563  0.00  0.00     0.078 C 
ATOM      2  C1  UNL d   1       0.555  -0.803   0.085  0.00  0.00    -0.077 A 
ATOM      3  C2  UNL d   1       0.442  -0.485  -1.273  0.00  0.00    -0.001 A 
ATOM      4  C3  UNL d   1      -0.497   0.454  -1.703  0.00  0.00     0.003 A 
ATOM      5  C4  UNL d   1      -1.330   1.084  -0.779  0.00  0.00    -0.005 A 
ATOM      6  C5  UNL d   1      -1.223   0.775   0.575  0.00  0.00     0.003 A 
ATOM      7  C6  UNL d   1      -0.284  -0.164   1.006  0.00  0.00    -0.001 A 
ENDROOT
TORSDOF 0
ENDMDL
