MODEL 1
REMARK minimizedAffinity -3.60356593
REMARK minimizedRMSD -1
REMARK  0 active torsions:
REMARK  status: ('A' for Active; 'I' for Inactive)
ROOT
ATOM      1  C   UNL d   1      -1.145   0.773  -1.472  0.00  0.00     0.078 C 
ATOM      2  C1  UNL d   1      -0.173  -0.025  -0.655  0.00  0.00    -0.077 A 
ATOM      3  C2  UNL d   1       0.827  -0.790  -1.268  0.00  0.00    -0.001 A 
ATOM      4  C3  UNL d   1       1.718  -1.536  -0.495  0.00  0.00     0.003 A 
ATOM      5  C4  UNL d   1       1.617  -1.526   0.895  0.00  0.00    -0.005 A 
ATOM      6  C5  UNL d   1       0.624  -0.770   1.513  0.00  0.00     0.003 A 
ATOM      7  C6  UNL d   1      -0.268  -0.023   0.742  0.00  0.00    -0.001 A 
ENDROOT
TORSDOF 0
ENDMDL
