MODEL 1
REMARK minimizedAffinity -3.00636911
REMARK minimizedRMSD -1
REMARK  0 active torsions:
REMARK  status: ('A' for Active; 'I' for Inactive)
ROOT
ATOM      1  C   UNL d   1      -1.175   0.883  -0.716  0.00  0.00     0.078 C 
ATOM      2  C1  UNL d   1      -0.178  -0.203  -0.441  0.00  0.00    -0.077 A 
ATOM      3  C2  UNL d   1       0.092  -0.620   0.868  0.00  0.00    -0.001 A 
ATOM      4  C3  UNL d   1       1.030  -1.626   1.109  0.00  0.00     0.003 A 
ATOM      5  C4  UNL d   1       1.705  -2.222   0.046  0.00  0.00    -0.005 A 
ATOM      6  C5  UNL d   1       1.444  -1.813  -1.260  0.00  0.00     0.003 A 
ATOM      7  C6  UNL d   1       0.507  -0.807  -1.503  0.00  0.00    -0.001 A 
ENDROOT
TORSDOF 0
ENDMDL
