MODEL 1
REMARK minimizedAffinity -3.6818831
REMARK minimizedRMSD -1
REMARK  0 active torsions:
REMARK  status: ('A' for Active; 'I' for Inactive)
ROOT
ATOM      1  C   UNL d   1      -0.108  -0.334  -1.541  0.00  0.00     0.078 C 
ATOM      2  C1  UNL d   1       0.950  -0.581  -0.508  0.00  0.00    -0.077 A 
ATOM      3  C2  UNL d   1       1.813   0.443  -0.101  0.00  0.00    -0.001 A 
ATOM      4  C3  UNL d   1       2.801   0.197   0.854  0.00  0.00     0.003 A 
ATOM      5  C4  UNL d   1       2.935  -1.075   1.409  0.00  0.00    -0.005 A 
ATOM      6  C5  UNL d   1       2.083  -2.101   1.008  0.00  0.00     0.003 A 
ATOM      7  C6  UNL d   1       1.095  -1.856   0.053  0.00  0.00    -0.001 A 
ENDROOT
TORSDOF 0
ENDMDL
