MODEL 1
REMARK minimizedAffinity -3.75941396
REMARK minimizedRMSD -1
REMARK  0 active torsions:
REMARK  status: ('A' for Active; 'I' for Inactive)
ROOT
ATOM      1  C   UNL d   1       0.541  -0.011  -0.706  0.00  0.00     0.078 C 
ATOM      2  C1  UNL d   1       0.576  -1.022   0.401  0.00  0.00    -0.077 A 
ATOM      3  C2  UNL d   1      -0.286  -0.918   1.500  0.00  0.00    -0.001 A 
ATOM      4  C3  UNL d   1      -0.236  -1.860   2.528  0.00  0.00     0.003 A 
ATOM      5  C4  UNL d   1       0.676  -2.912   2.469  0.00  0.00    -0.005 A 
ATOM      6  C5  UNL d   1       1.540  -3.022   1.381  0.00  0.00     0.003 A 
ATOM      7  C6  UNL d   1       1.491  -2.081   0.352  0.00  0.00    -0.001 A 
ENDROOT
TORSDOF 0
ENDMDL
