MODEL 1
REMARK minimizedAffinity -4.31840754
REMARK minimizedRMSD -1
REMARK  0 active torsions:
REMARK  status: ('A' for Active; 'I' for Inactive)
ROOT
ATOM      1  C   UNL d   1      -0.378  -2.649   1.625  0.00  0.00     0.078 C 
ATOM      2  C1  UNL d   1      -0.449  -1.334   0.907  0.00  0.00    -0.077 A 
ATOM      3  C2  UNL d   1      -1.426  -0.386   1.234  0.00  0.00    -0.001 A 
ATOM      4  C3  UNL d   1      -1.486   0.830   0.551  0.00  0.00     0.003 A 
ATOM      5  C4  UNL d   1      -0.572   1.109  -0.463  0.00  0.00    -0.005 A 
ATOM      6  C5  UNL d   1       0.403   0.170  -0.797  0.00  0.00     0.003 A 
ATOM      7  C6  UNL d   1       0.464  -1.046  -0.115  0.00  0.00    -0.001 A 
ENDROOT
TORSDOF 0
ENDMDL
