MODEL 1
REMARK minimizedAffinity -2.29131413
REMARK minimizedRMSD -1
REMARK  0 active torsions:
REMARK  status: ('A' for Active; 'I' for Inactive)
ROOT
ATOM      1  C   UNL d   1       1.824  -1.991   0.692  0.00  0.00     0.078 C 
ATOM      2  C1  UNL d   1       0.795  -0.914   0.523  0.00  0.00    -0.077 A 
ATOM      3  C2  UNL d   1       0.988   0.132  -0.389  0.00  0.00    -0.001 A 
ATOM      4  C3  UNL d   1       0.026   1.133  -0.529  0.00  0.00     0.003 A 
ATOM      5  C4  UNL d   1      -1.136   1.099   0.239  0.00  0.00    -0.005 A 
ATOM      6  C5  UNL d   1      -1.336   0.064   1.150  0.00  0.00     0.003 A 
ATOM      7  C6  UNL d   1      -0.375  -0.938   1.292  0.00  0.00    -0.001 A 
ENDROOT
TORSDOF 0
ENDMDL
