MODEL 1
REMARK minimizedAffinity -5.19124842
REMARK minimizedRMSD -1
REMARK  0 active torsions:
REMARK  status: ('A' for Active; 'I' for Inactive)
ROOT
ATOM      1  C   UNL d   1      -0.575   0.810  -0.492  0.00  0.00     0.078 C 
ATOM      2  C1  UNL d   1       0.213  -0.381  -0.035  0.00  0.00    -0.077 A 
ATOM      3  C2  UNL d   1      -0.398  -1.419   0.678  0.00  0.00    -0.001 A 
ATOM      4  C3  UNL d   1       0.350  -2.517   1.106  0.00  0.00     0.003 A 
ATOM      5  C4  UNL d   1       1.714  -2.587   0.827  0.00  0.00    -0.005 A 
ATOM      6  C5  UNL d   1       2.331  -1.557   0.120  0.00  0.00     0.003 A 
ATOM      7  C6  UNL d   1       1.584  -0.458  -0.309  0.00  0.00    -0.001 A 
ENDROOT
TORSDOF 0
ENDMDL
