MODEL 1
REMARK minimizedAffinity -0.661634147
REMARK minimizedRMSD -1
REMARK  0 active torsions:
REMARK  status: ('A' for Active; 'I' for Inactive)
ROOT
ATOM      1  C   UNL d   1       1.431  -2.684   1.183  0.00  0.00     0.078 C 
ATOM      2  C1  UNL d   1       0.599  -1.477   0.867  0.00  0.00    -0.077 A 
ATOM      3  C2  UNL d   1       0.913  -0.649  -0.218  0.00  0.00    -0.001 A 
ATOM      4  C3  UNL d   1       0.136   0.477  -0.495  0.00  0.00     0.003 A 
ATOM      5  C4  UNL d   1      -0.960   0.786   0.309  0.00  0.00    -0.005 A 
ATOM      6  C5  UNL d   1      -1.279  -0.031   1.392  0.00  0.00     0.003 A 
ATOM      7  C6  UNL d   1      -0.503  -1.157   1.670  0.00  0.00    -0.001 A 
ENDROOT
TORSDOF 0
ENDMDL
