MODEL 1
REMARK minimizedAffinity 17.1648407
REMARK minimizedRMSD -1
REMARK  1 active torsions:
REMARK  status: ('A' for Active; 'I' for Inactive)
REMARK    1  A    between atoms: C1_2  and  C2_3 
ROOT
ATOM      1  C2  UNL d   1      -1.115  -1.204  -0.226  0.00  0.00    -0.076 A 
ATOM      2  C3  UNL d   1      -0.712  -1.119  -1.570  0.00  0.00     0.004 A 
ATOM      3  C4  UNL d   1      -0.501  -2.269  -2.330  0.00  0.00    -0.003 A 
ATOM      4  C5  UNL d   1      -0.691  -3.522  -1.757  0.00  0.00     0.000 A 
ATOM      5  C6  UNL d   1      -1.108  -3.624  -0.431  0.00  0.00     0.000 A 
ATOM      6  C7  UNL d   1      -1.340  -2.475   0.344  0.00  0.00    -0.073 A 
ATOM      7  C8  UNL d   1      -1.783  -2.644   1.772  0.00  0.00     0.078 C 
ENDROOT
BRANCH   1   8
ATOM      8  C1  UNL d   1      -1.301   0.077   0.556  0.00  0.00     0.053 C 
ATOM      9  C   UNL d   1      -2.765   0.379   0.838  0.00  0.00     0.018 C 
ENDBRANCH   1   8
TORSDOF 1
ENDMDL
