MODEL 1
REMARK minimizedAffinity 11.4642591
REMARK minimizedRMSD -1
REMARK  1 active torsions:
REMARK  status: ('A' for Active; 'I' for Inactive)
REMARK    1  A    between atoms: C1_2  and  C2_3 
ROOT
ATOM      1  C2  UNL d   1      -1.212  -2.567  -3.979  0.00  0.00    -0.076 A 
ATOM      2  C3  UNL d   1       0.109  -2.338  -3.558  0.00  0.00     0.004 A 
ATOM      3  C4  UNL d   1       0.425  -2.250  -2.203  0.00  0.00    -0.003 A 
ATOM      4  C5  UNL d   1      -0.576  -2.389  -1.248  0.00  0.00     0.000 A 
ATOM      5  C6  UNL d   1      -1.889  -2.633  -1.647  0.00  0.00     0.000 A 
ATOM      6  C7  UNL d   1      -2.222  -2.742  -3.009  0.00  0.00    -0.073 A 
ATOM      7  C8  UNL d   1      -3.655  -3.000  -3.383  0.00  0.00     0.078 C 
ENDROOT
BRANCH   1   8
ATOM      8  C1  UNL d   1      -1.499  -2.626  -5.463  0.00  0.00     0.053 C 
ATOM      9  C   UNL d   1      -1.499  -4.049  -6.000  0.00  0.00     0.018 C 
ENDBRANCH   1   8
TORSDOF 1
ENDMDL
