MODEL 1
REMARK minimizedAffinity 8.38944054
REMARK minimizedRMSD -1
REMARK  1 active torsions:
REMARK  status: ('A' for Active; 'I' for Inactive)
REMARK    1  A    between atoms: C1_2  and  C2_3 
ROOT
ATOM      1  C2  UNL d   1      -2.512  -3.014  -4.920  0.00  0.00    -0.076 A 
ATOM      2  C3  UNL d   1      -3.362  -2.584  -3.887  0.00  0.00     0.004 A 
ATOM      3  C4  UNL d   1      -2.885  -1.779  -2.853  0.00  0.00    -0.003 A 
ATOM      4  C5  UNL d   1      -1.550  -1.391  -2.837  0.00  0.00     0.000 A 
ATOM      5  C6  UNL d   1      -0.697  -1.793  -3.864  0.00  0.00     0.000 A 
ATOM      6  C7  UNL d   1      -1.165  -2.592  -4.922  0.00  0.00    -0.073 A 
ATOM      7  C8  UNL d   1      -0.199  -3.002  -5.999  0.00  0.00     0.078 C 
ENDROOT
BRANCH   1   8
ATOM      8  C1  UNL d   1      -3.079  -3.909  -6.000  0.00  0.00     0.053 C 
ATOM      9  C   UNL d   1      -3.914  -5.046  -5.434  0.00  0.00     0.018 C 
ENDBRANCH   1   8
TORSDOF 1
ENDMDL
