MODEL 1
REMARK minimizedAffinity 8.96288204
REMARK minimizedRMSD -1
REMARK  1 active torsions:
REMARK  status: ('A' for Active; 'I' for Inactive)
REMARK    1  A    between atoms: C1_2  and  C2_3 
ROOT
ATOM      1  C2  UNL d   1      -1.137  -2.216  -0.136  0.00  0.00    -0.076 A 
ATOM      2  C3  UNL d   1      -1.505  -1.655  -1.371  0.00  0.00     0.004 A 
ATOM      3  C4  UNL d   1      -0.655  -1.727  -2.474  0.00  0.00    -0.003 A 
ATOM      4  C5  UNL d   1       0.577  -2.361  -2.359  0.00  0.00     0.000 A 
ATOM      5  C6  UNL d   1       0.951  -2.939  -1.146  0.00  0.00     0.000 A 
ATOM      6  C7  UNL d   1       0.099  -2.889  -0.030  0.00  0.00    -0.073 A 
ATOM      7  C8  UNL d   1       0.556  -3.523   1.256  0.00  0.00     0.078 C 
ENDROOT
BRANCH   1   8
ATOM      8  C1  UNL d   1      -2.088  -2.083   1.032  0.00  0.00     0.053 C 
ATOM      9  C   UNL d   1      -3.037  -0.905   0.879  0.00  0.00     0.018 C 
ENDBRANCH   1   8
TORSDOF 1
ENDMDL
