MODEL 1
REMARK minimizedAffinity 18.6203213
REMARK minimizedRMSD -1
REMARK  1 active torsions:
REMARK  status: ('A' for Active; 'I' for Inactive)
REMARK    1  A    between atoms: C1_2  and  C2_3 
ROOT
ATOM      1  C2  UNL d   1       0.799  -3.655  -2.948  0.00  0.00    -0.076 A 
ATOM      2  C3  UNL d   1       1.903  -2.966  -3.479  0.00  0.00     0.004 A 
ATOM      3  C4  UNL d   1       3.144  -3.587  -3.606  0.00  0.00    -0.003 A 
ATOM      4  C5  UNL d   1       3.301  -4.909  -3.204  0.00  0.00     0.000 A 
ATOM      5  C6  UNL d   1       2.213  -5.614  -2.691  0.00  0.00     0.000 A 
ATOM      6  C7  UNL d   1       0.951  -5.007  -2.572  0.00  0.00    -0.073 A 
ATOM      7  C8  UNL d   1      -0.187  -5.812  -2.007  0.00  0.00     0.078 C 
ENDROOT
BRANCH   1   8
ATOM      8  C1  UNL d   1      -0.515  -2.921  -2.809  0.00  0.00     0.053 C 
ATOM      9  C   UNL d   1      -0.453  -1.804  -1.778  0.00  0.00     0.018 C 
ENDBRANCH   1   8
TORSDOF 1
ENDMDL
