MODEL 1
REMARK minimizedAffinity 18.2440777
REMARK minimizedRMSD -1
REMARK  1 active torsions:
REMARK  status: ('A' for Active; 'I' for Inactive)
REMARK    1  A    between atoms: C1_2  and  C2_3 
ROOT
ATOM      1  C2  UNL d   1       0.315  -3.312  -2.565  0.00  0.00    -0.076 A 
ATOM      2  C3  UNL d   1       0.835  -2.833  -1.350  0.00  0.00     0.004 A 
ATOM      3  C4  UNL d   1       0.209  -1.794  -0.662  0.00  0.00    -0.003 A 
ATOM      4  C5  UNL d   1      -0.947  -1.219  -1.178  0.00  0.00     0.000 A 
ATOM      5  C6  UNL d   1      -1.487  -1.694  -2.372  0.00  0.00     0.000 A 
ATOM      6  C7  UNL d   1      -0.878  -2.751  -3.070  0.00  0.00    -0.073 A 
ATOM      7  C8  UNL d   1      -1.500  -3.219  -4.357  0.00  0.00     0.078 C 
ENDROOT
BRANCH   1   8
ATOM      8  C1  UNL d   1       1.051  -4.422  -3.280  0.00  0.00     0.053 C 
ATOM      9  C   UNL d   1       2.467  -4.026  -3.668  0.00  0.00     0.018 C 
ENDBRANCH   1   8
TORSDOF 1
ENDMDL
