MODEL 1
REMARK minimizedAffinity 15.7202005
REMARK minimizedRMSD -1
REMARK  1 active torsions:
REMARK  status: ('A' for Active; 'I' for Inactive)
REMARK    1  A    between atoms: C1_2  and  C2_3 
ROOT
ATOM      1  C2  UNL d   1      -1.426  -2.157  -1.628  0.00  0.00    -0.076 A 
ATOM      2  C3  UNL d   1      -2.661  -1.691  -1.143  0.00  0.00     0.004 A 
ATOM      3  C4  UNL d   1      -2.962  -1.740   0.217  0.00  0.00    -0.003 A 
ATOM      4  C5  UNL d   1      -2.033  -2.256   1.114  0.00  0.00     0.000 A 
ATOM      5  C6  UNL d   1      -0.797  -2.706   0.653  0.00  0.00     0.000 A 
ATOM      6  C7  UNL d   1      -0.471  -2.648  -0.713  0.00  0.00    -0.073 A 
ATOM      7  C8  UNL d   1       0.875  -3.154  -1.156  0.00  0.00     0.078 C 
ENDROOT
BRANCH   1   8
ATOM      8  C1  UNL d   1      -1.166  -2.103  -3.116  0.00  0.00     0.053 C 
ATOM      9  C   UNL d   1      -2.222  -2.847  -3.920  0.00  0.00     0.018 C 
ENDBRANCH   1   8
TORSDOF 1
ENDMDL
