MODEL 1
REMARK minimizedAffinity 20.3307114
REMARK minimizedRMSD -1
REMARK  1 active torsions:
REMARK  status: ('A' for Active; 'I' for Inactive)
REMARK    1  A    between atoms: C1_2  and  C2_3 
ROOT
ATOM      1  C2  UNL d   1       3.407   5.033  -0.064  0.00  0.00    -0.076 A 
ATOM      2  C3  UNL d   1       4.536   4.744   0.722  0.00  0.00     0.004 A 
ATOM      3  C4  UNL d   1       5.822   5.015   0.258  0.00  0.00    -0.003 A 
ATOM      4  C5  UNL d   1       6.000   5.581  -0.999  0.00  0.00     0.000 A 
ATOM      5  C6  UNL d   1       4.890   5.892  -1.785  0.00  0.00     0.000 A 
ATOM      6  C7  UNL d   1       3.586   5.640  -1.325  0.00  0.00    -0.073 A 
ATOM      7  C8  UNL d   1       2.426   5.989  -2.217  0.00  0.00     0.078 C 
ENDROOT
BRANCH   1   8
ATOM      8  C1  UNL d   1       2.038   4.692   0.481  0.00  0.00     0.053 C 
ATOM      9  C   UNL d   1       1.539   5.717   1.488  0.00  0.00     0.018 C 
ENDBRANCH   1   8
TORSDOF 1
ENDMDL
