MODEL 1
REMARK minimizedAffinity 11.3670483
REMARK minimizedRMSD -1
REMARK  1 active torsions:
REMARK  status: ('A' for Active; 'I' for Inactive)
REMARK    1  A    between atoms: C1_2  and  C2_3 
ROOT
ATOM      1  C2  UNL d   1       4.176  -3.403   4.582  0.00  0.00    -0.076 A 
ATOM      2  C3  UNL d   1       3.673  -4.672   4.249  0.00  0.00     0.004 A 
ATOM      3  C4  UNL d   1       4.246  -5.831   4.769  0.00  0.00    -0.003 A 
ATOM      4  C5  UNL d   1       5.332  -5.739   5.633  0.00  0.00     0.000 A 
ATOM      5  C6  UNL d   1       5.833  -4.487   5.989  0.00  0.00     0.000 A 
ATOM      6  C7  UNL d   1       5.256  -3.309   5.486  0.00  0.00    -0.073 A 
ATOM      7  C8  UNL d   1       5.841  -1.986   5.898  0.00  0.00     0.078 C 
ENDROOT
BRANCH   1   8
ATOM      8  C1  UNL d   1       3.531  -2.182   3.965  0.00  0.00     0.053 C 
ATOM      9  C   UNL d   1       2.935  -2.468   2.595  0.00  0.00     0.018 C 
ENDBRANCH   1   8
TORSDOF 1
ENDMDL
