MODEL 1
REMARK minimizedAffinity 3.02508068
REMARK minimizedRMSD -1
REMARK  1 active torsions:
REMARK  status: ('A' for Active; 'I' for Inactive)
REMARK    1  A    between atoms: C1_2  and  C2_3 
ROOT
ATOM      1  C2  UNL d   1       5.947   3.731  -4.350  0.00  0.00    -0.076 A 
ATOM      2  C3  UNL d   1       5.937   3.255  -3.028  0.00  0.00     0.004 A 
ATOM      3  C4  UNL d   1       5.963   4.136  -1.948  0.00  0.00    -0.003 A 
ATOM      4  C5  UNL d   1       6.000   5.508  -2.173  0.00  0.00     0.000 A 
ATOM      5  C6  UNL d   1       5.993   5.998  -3.478  0.00  0.00     0.000 A 
ATOM      6  C7  UNL d   1       5.950   5.124  -4.578  0.00  0.00    -0.073 A 
ATOM      7  C8  UNL d   1       5.950   5.708  -5.964  0.00  0.00     0.078 C 
ENDROOT
BRANCH   1   8
ATOM      8  C1  UNL d   1       5.945   2.728  -5.481  0.00  0.00     0.053 C 
ATOM      9  C   UNL d   1       4.542   2.289  -5.868  0.00  0.00     0.018 C 
ENDBRANCH   1   8
TORSDOF 1
ENDMDL
