MODEL 1
REMARK minimizedAffinity 9.17330933
REMARK minimizedRMSD -1
REMARK  1 active torsions:
REMARK  status: ('A' for Active; 'I' for Inactive)
REMARK    1  A    between atoms: C1_2  and  C2_3 
ROOT
ATOM      1  C2  UNL d   1       5.927   3.570  -3.792  0.00  0.00    -0.076 A 
ATOM      2  C3  UNL d   1       5.847   3.586  -2.389  0.00  0.00     0.004 A 
ATOM      3  C4  UNL d   1       5.802   4.789  -1.686  0.00  0.00    -0.003 A 
ATOM      4  C5  UNL d   1       5.837   5.996  -2.376  0.00  0.00     0.000 A 
ATOM      5  C6  UNL d   1       5.898   5.999  -3.769  0.00  0.00     0.000 A 
ATOM      6  C7  UNL d   1       5.927   4.794  -4.493  0.00  0.00    -0.073 A 
ATOM      7  C8  UNL d   1       6.000   4.856  -5.994  0.00  0.00     0.078 C 
ENDROOT
BRANCH   1   8
ATOM      8  C1  UNL d   1       5.999   2.235  -4.498  0.00  0.00     0.053 C 
ATOM      9  C   UNL d   1       4.635   1.579  -4.646  0.00  0.00     0.018 C 
ENDBRANCH   1   8
TORSDOF 1
ENDMDL
