MODEL 1
REMARK minimizedAffinity 12.388588
REMARK minimizedRMSD -1
REMARK  1 active torsions:
REMARK  status: ('A' for Active; 'I' for Inactive)
REMARK    1  A    between atoms: C1_2  and  C2_3 
ROOT
ATOM      1  C2  UNL d   1      -1.181  -2.454  -2.419  0.00  0.00    -0.076 A 
ATOM      2  C3  UNL d   1      -1.924  -1.844  -1.394  0.00  0.00     0.004 A 
ATOM      3  C4  UNL d   1      -1.568  -2.004  -0.056  0.00  0.00    -0.003 A 
ATOM      4  C5  UNL d   1      -0.462  -2.778   0.278  0.00  0.00     0.000 A 
ATOM      5  C6  UNL d   1       0.298  -3.376  -0.727  0.00  0.00     0.000 A 
ATOM      6  C7  UNL d   1      -0.038  -3.210  -2.081  0.00  0.00    -0.073 A 
ATOM      7  C8  UNL d   1       0.812  -3.883  -3.123  0.00  0.00     0.078 C 
ENDROOT
BRANCH   1   8
ATOM      8  C1  UNL d   1      -1.631  -2.266  -3.850  0.00  0.00     0.053 C 
ATOM      9  C   UNL d   1      -2.756  -3.213  -4.236  0.00  0.00     0.018 C 
ENDBRANCH   1   8
TORSDOF 1
ENDMDL
