MODEL 1
REMARK minimizedAffinity 17.5751705
REMARK minimizedRMSD -1
REMARK  1 active torsions:
REMARK  status: ('A' for Active; 'I' for Inactive)
REMARK    1  A    between atoms: C1_2  and  C2_3 
ROOT
ATOM      1  C2  UNL d   1      -1.750   0.359  -0.163  0.00  0.00    -0.076 A 
ATOM      2  C3  UNL d   1      -0.744  -0.433  -0.744  0.00  0.00     0.004 A 
ATOM      3  C4  UNL d   1      -0.768  -1.822  -0.628  0.00  0.00    -0.003 A 
ATOM      4  C5  UNL d   1      -1.798  -2.442   0.070  0.00  0.00     0.000 A 
ATOM      5  C6  UNL d   1      -2.814  -1.673   0.637  0.00  0.00     0.000 A 
ATOM      6  C7  UNL d   1      -2.814  -0.273   0.516  0.00  0.00    -0.073 A 
ATOM      7  C8  UNL d   1      -3.931   0.507   1.154  0.00  0.00     0.078 C 
ENDROOT
BRANCH   1   8
ATOM      8  C1  UNL d   1      -1.658   1.862  -0.298  0.00  0.00     0.053 C 
ATOM      9  C   UNL d   1      -0.292   2.399   0.100  0.00  0.00     0.018 C 
ENDBRANCH   1   8
TORSDOF 1
ENDMDL
