MODEL 1
REMARK minimizedAffinity 10.3075333
REMARK minimizedRMSD -1
REMARK  1 active torsions:
REMARK  status: ('A' for Active; 'I' for Inactive)
REMARK    1  A    between atoms: C1_2  and  C2_3 
ROOT
ATOM      1  C2  UNL d   1      -1.293  -2.081   2.296  0.00  0.00    -0.076 A 
ATOM      2  C3  UNL d   1      -2.419  -1.761   1.518  0.00  0.00     0.004 A 
ATOM      3  C4  UNL d   1      -2.439  -2.012   0.147  0.00  0.00    -0.003 A 
ATOM      4  C5  UNL d   1      -1.333  -2.589  -0.468  0.00  0.00     0.000 A 
ATOM      5  C6  UNL d   1      -0.214  -2.929   0.292  0.00  0.00     0.000 A 
ATOM      6  C7  UNL d   1      -0.185  -2.698   1.678  0.00  0.00    -0.073 A 
ATOM      7  C8  UNL d   1       1.050  -3.080   2.447  0.00  0.00     0.078 C 
ENDROOT
BRANCH   1   8
ATOM      8  C1  UNL d   1      -1.319  -1.761   3.774  0.00  0.00     0.053 C 
ATOM      9  C   UNL d   1      -2.079  -0.479   4.079  0.00  0.00     0.018 C 
ENDBRANCH   1   8
TORSDOF 1
ENDMDL
