MODEL 1
REMARK minimizedAffinity 19.9170609
REMARK minimizedRMSD -1
REMARK  1 active torsions:
REMARK  status: ('A' for Active; 'I' for Inactive)
REMARK    1  A    between atoms: C1_2  and  C2_3 
ROOT
ATOM      1  C2  UNL d   1      -2.977   0.137   2.515  0.00  0.00    -0.076 A 
ATOM      2  C3  UNL d   1      -2.921   1.130   3.509  0.00  0.00     0.004 A 
ATOM      3  C4  UNL d   1      -2.487   0.829   4.799  0.00  0.00    -0.003 A 
ATOM      4  C5  UNL d   1      -2.101  -0.468   5.116  0.00  0.00     0.000 A 
ATOM      5  C6  UNL d   1      -2.134  -1.462   4.138  0.00  0.00     0.000 A 
ATOM      6  C7  UNL d   1      -2.553  -1.172   2.828  0.00  0.00    -0.073 A 
ATOM      7  C8  UNL d   1      -2.574  -2.283   1.815  0.00  0.00     0.078 C 
ENDROOT
BRANCH   1   8
ATOM      8  C1  UNL d   1      -3.482   0.516   1.141  0.00  0.00     0.053 C 
ATOM      9  C   UNL d   1      -3.112   1.941   0.757  0.00  0.00     0.018 C 
ENDBRANCH   1   8
TORSDOF 1
ENDMDL
