MODEL 1
REMARK minimizedAffinity 14.8607845
REMARK minimizedRMSD -1
REMARK  1 active torsions:
REMARK  status: ('A' for Active; 'I' for Inactive)
REMARK    1  A    between atoms: C1_2  and  C2_3 
ROOT
ATOM      1  C2  UNL d   1       4.067  -3.666   4.038  0.00  0.00    -0.076 A 
ATOM      2  C3  UNL d   1       4.687  -4.928   4.033  0.00  0.00     0.004 A 
ATOM      3  C4  UNL d   1       5.644  -5.260   4.990  0.00  0.00    -0.003 A 
ATOM      4  C5  UNL d   1       5.998  -4.337   5.968  0.00  0.00     0.000 A 
ATOM      5  C6  UNL d   1       5.381  -3.086   5.998  0.00  0.00     0.000 A 
ATOM      6  C7  UNL d   1       4.402  -2.741   5.050  0.00  0.00    -0.073 A 
ATOM      7  C8  UNL d   1       3.773  -1.376   5.126  0.00  0.00     0.078 C 
ENDROOT
BRANCH   1   8
ATOM      8  C1  UNL d   1       3.056  -3.351   2.959  0.00  0.00     0.053 C 
ATOM      9  C   UNL d   1       3.009  -1.870   2.618  0.00  0.00     0.018 C 
ENDBRANCH   1   8
TORSDOF 1
ENDMDL
