MODEL 1
REMARK minimizedAffinity 8.52370834
REMARK minimizedRMSD -1
REMARK  1 active torsions:
REMARK  status: ('A' for Active; 'I' for Inactive)
REMARK    1  A    between atoms: C1_2  and  C2_3 
ROOT
ATOM      1  C2  UNL d   1       3.221   5.251  -2.018  0.00  0.00    -0.076 A 
ATOM      2  C3  UNL d   1       4.335   5.274  -1.161  0.00  0.00     0.004 A 
ATOM      3  C4  UNL d   1       5.594   5.644  -1.629  0.00  0.00    -0.003 A 
ATOM      4  C5  UNL d   1       5.760   6.000  -2.963  0.00  0.00     0.000 A 
ATOM      5  C6  UNL d   1       4.663   6.000  -3.824  0.00  0.00     0.000 A 
ATOM      6  C7  UNL d   1       3.383   5.644  -3.364  0.00  0.00    -0.073 A 
ATOM      7  C8  UNL d   1       2.237   5.656  -4.338  0.00  0.00     0.078 C 
ENDROOT
BRANCH   1   8
ATOM      8  C1  UNL d   1       1.885   4.814  -1.460  0.00  0.00     0.053 C 
ATOM      9  C   UNL d   1       1.969   3.488  -0.720  0.00  0.00     0.018 C 
ENDBRANCH   1   8
TORSDOF 1
ENDMDL
