MODEL 1
REMARK minimizedAffinity 8.11660576
REMARK minimizedRMSD -1
REMARK  1 active torsions:
REMARK  status: ('A' for Active; 'I' for Inactive)
REMARK    1  A    between atoms: C1_2  and  C2_3 
ROOT
ATOM      1  C2  UNL d   1       1.027  -0.315   1.175  0.00  0.00    -0.073 A 
ATOM      2  C3  UNL d   1       1.802  -0.949   2.152  0.00  0.00    -0.002 A 
ATOM      3  C4  UNL d   1       1.431  -2.202   2.642  0.00  0.00     0.004 A 
ATOM      4  C5  UNL d   1       0.287  -2.835   2.157  0.00  0.00    -0.004 A 
ATOM      5  C6  UNL d   1      -0.494  -2.222   1.172  0.00  0.00    -0.075 A 
ATOM      6  C7  UNL d   1      -1.729  -2.889   0.641  0.00  0.00     0.076 C 
ATOM      7  C8  UNL d   1      -0.116  -0.963   0.686  0.00  0.00     0.001 A 
ENDROOT
BRANCH   1   8
ATOM      8  C1  UNL d   1       1.428   1.035   0.637  0.00  0.00     0.053 C 
ATOM      9  C   UNL d   1       2.866   1.383   0.986  0.00  0.00     0.018 C 
ENDBRANCH   1   8
TORSDOF 1
ENDMDL
