MODEL 1
REMARK minimizedAffinity -3.42702293
REMARK minimizedRMSD -1
REMARK  1 active torsions:
REMARK  status: ('A' for Active; 'I' for Inactive)
REMARK    1  A    between atoms: C1_2  and  C2_3 
ROOT
ATOM      1  C2  UNL d   1       2.331  -2.819   3.238  0.00  0.00    -0.073 A 
ATOM      2  C3  UNL d   1       1.049  -3.251   2.880  0.00  0.00    -0.002 A 
ATOM      3  C4  UNL d   1       0.340  -2.594   1.873  0.00  0.00     0.004 A 
ATOM      4  C5  UNL d   1       0.908  -1.506   1.210  0.00  0.00    -0.004 A 
ATOM      5  C6  UNL d   1       2.193  -1.068   1.545  0.00  0.00    -0.075 A 
ATOM      6  C7  UNL d   1       2.817   0.103   0.843  0.00  0.00     0.076 C 
ATOM      7  C8  UNL d   1       2.897  -1.730   2.560  0.00  0.00     0.001 A 
ENDROOT
BRANCH   1   8
ATOM      8  C1  UNL d   1       3.102  -3.529   4.321  0.00  0.00     0.053 C 
ATOM      9  C   UNL d   1       2.760  -5.009   4.388  0.00  0.00     0.018 C 
ENDBRANCH   1   8
TORSDOF 1
ENDMDL
