MODEL 1
REMARK minimizedAffinity 3.52572274
REMARK minimizedRMSD -1
REMARK  1 active torsions:
REMARK  status: ('A' for Active; 'I' for Inactive)
REMARK    1  A    between atoms: C1_2  and  C2_3 
ROOT
ATOM      1  C2  UNL d   1       0.772  -2.029   0.268  0.00  0.00    -0.073 A 
ATOM      2  C3  UNL d   1       0.138  -1.884   1.507  0.00  0.00    -0.002 A 
ATOM      3  C4  UNL d   1       0.892  -1.750   2.673  0.00  0.00     0.004 A 
ATOM      4  C5  UNL d   1       2.286  -1.752   2.612  0.00  0.00    -0.004 A 
ATOM      5  C6  UNL d   1       2.938  -1.884   1.382  0.00  0.00    -0.075 A 
ATOM      6  C7  UNL d   1       4.436  -1.891   1.299  0.00  0.00     0.076 C 
ATOM      7  C8  UNL d   1       2.173  -2.021   0.215  0.00  0.00     0.001 A 
ENDROOT
BRANCH   1   8
ATOM      8  C1  UNL d   1      -0.039  -2.167  -0.995  0.00  0.00     0.053 C 
ATOM      9  C   UNL d   1       0.843  -2.324  -2.224  0.00  0.00     0.018 C 
ENDBRANCH   1   8
TORSDOF 1
ENDMDL
