MODEL 1
REMARK minimizedAffinity 5.11773872
REMARK minimizedRMSD -1
REMARK  1 active torsions:
REMARK  status: ('A' for Active; 'I' for Inactive)
REMARK    1  A    between atoms: C1_2  and  C2_3 
ROOT
ATOM      1  C2  UNL d   1       1.186  -1.906   1.689  0.00  0.00    -0.073 A 
ATOM      2  C3  UNL d   1       2.279  -2.718   1.365  0.00  0.00    -0.002 A 
ATOM      3  C4  UNL d   1       3.539  -2.155   1.162  0.00  0.00     0.004 A 
ATOM      4  C5  UNL d   1       3.722  -0.778   1.287  0.00  0.00    -0.004 A 
ATOM      5  C6  UNL d   1       2.644   0.049   1.621  0.00  0.00    -0.075 A 
ATOM      6  C7  UNL d   1       2.823   1.532   1.757  0.00  0.00     0.076 C 
ATOM      7  C8  UNL d   1       1.381  -0.524   1.822  0.00  0.00     0.001 A 
ENDROOT
BRANCH   1   8
ATOM      8  C1  UNL d   1      -0.176  -2.510   1.916  0.00  0.00     0.053 C 
ATOM      9  C   UNL d   1      -1.280  -1.685   1.274  0.00  0.00     0.018 C 
ENDBRANCH   1   8
TORSDOF 1
ENDMDL
