MODEL 1
REMARK minimizedAffinity -4.90614414
REMARK minimizedRMSD -1
REMARK  0 active torsions:
REMARK  status: ('A' for Active; 'I' for Inactive)
ROOT
ATOM      1  C1  DEN d   1       0.156   0.253  -0.635  0.00  0.00     0.130 A 
ATOM      2  C2  DEN d   1      -0.155   0.738   0.707  0.00  0.00    -0.031 A 
ATOM      3  C3  DEN d   1      -0.588  -0.416   1.520  0.00  0.00     0.027 A 
ATOM      4  C4  DEN d   1      -0.803  -2.894   0.836  0.00  0.00     0.027 A 
ATOM      5  C5  DEN d   1      -0.662  -3.788  -0.202  0.00  0.00    -0.003 A 
ATOM      6  C6  DEN d   1      -0.274  -3.396  -1.456  0.00  0.00     0.001 A 
ATOM      7  C7  DEN d   1       0.030  -2.081  -1.693  0.00  0.00     0.017 A 
ATOM      8  C8  DEN d   1      -0.117  -1.173  -0.653  0.00  0.00    -0.094 A 
ATOM      9  C9  DEN d   1      -0.498  -1.591   0.611  0.00  0.00    -0.072 A 
ENDROOT
TORSDOF 0
ENDMDL
