MODEL 1
REMARK minimizedAffinity -3.0055809
REMARK minimizedRMSD -1
REMARK  0 active torsions:
REMARK  status: ('A' for Active; 'I' for Inactive)
ROOT
ATOM      1  C1  DEN d   1       0.030  -2.723  -1.390  0.00  0.00     0.130 A 
ATOM      2  C2  DEN d   1      -0.511  -3.625  -0.377  0.00  0.00    -0.031 A 
ATOM      3  C3  DEN d   1      -0.876  -2.819   0.805  0.00  0.00     0.027 A 
ATOM      4  C4  DEN d   1      -0.659  -0.273   1.162  0.00  0.00     0.027 A 
ATOM      5  C5  DEN d   1      -0.244   0.909   0.590  0.00  0.00    -0.003 A 
ATOM      6  C6  DEN d   1       0.318   0.959  -0.658  0.00  0.00     0.001 A 
ATOM      7  C7  DEN d   1       0.439  -0.190  -1.394  0.00  0.00     0.017 A 
ATOM      8  C8  DEN d   1       0.030  -1.387  -0.821  0.00  0.00    -0.094 A 
ATOM      9  C9  DEN d   1      -0.547  -1.415   0.437  0.00  0.00    -0.072 A 
ENDROOT
TORSDOF 0
ENDMDL
