MODEL 1
REMARK minimizedAffinity -5.62609577
REMARK minimizedRMSD -1
REMARK  0 active torsions:
REMARK  status: ('A' for Active; 'I' for Inactive)
ROOT
ATOM      1  C1  DEN d   1       0.115   0.257  -1.295  0.00  0.00     0.130 A 
ATOM      2  C2  DEN d   1      -0.311   1.015  -0.122  0.00  0.00    -0.031 A 
ATOM      3  C3  DEN d   1      -0.545   0.059   0.979  0.00  0.00     0.027 A 
ATOM      4  C4  DEN d   1      -0.286  -2.507   0.983  0.00  0.00     0.027 A 
ATOM      5  C5  DEN d   1       0.041  -3.603   0.215  0.00  0.00    -0.003 A 
ATOM      6  C6  DEN d   1       0.380  -3.494  -1.107  0.00  0.00     0.001 A 
ATOM      7  C7  DEN d   1       0.443  -2.257  -1.692  0.00  0.00     0.017 A 
ATOM      8  C8  DEN d   1       0.108  -1.148  -0.927  0.00  0.00    -0.094 A 
ATOM      9  C9  DEN d   1      -0.220  -1.278   0.412  0.00  0.00    -0.072 A 
ENDROOT
TORSDOF 0
ENDMDL
