MODEL 1
REMARK minimizedAffinity -7.02235651
REMARK minimizedRMSD -1
REMARK  0 active torsions:
REMARK  status: ('A' for Active; 'I' for Inactive)
ROOT
ATOM      1  C1  DEN d   1       0.286   0.566  -0.934  0.00  0.00     0.130 A 
ATOM      2  C2  DEN d   1      -0.028   1.089   0.393  0.00  0.00    -0.031 A 
ATOM      3  C3  DEN d   1      -0.414  -0.048   1.253  0.00  0.00     0.027 A 
ATOM      4  C4  DEN d   1      -0.550  -2.555   0.662  0.00  0.00     0.027 A 
ATOM      5  C5  DEN d   1      -0.389  -3.481  -0.344  0.00  0.00    -0.003 A 
ATOM      6  C6  DEN d   1      -0.028  -3.123  -1.616  0.00  0.00     0.001 A 
ATOM      7  C7  DEN d   1       0.229  -1.808  -1.903  0.00  0.00     0.017 A 
ATOM      8  C8  DEN d   1       0.062  -0.868  -0.896  0.00  0.00    -0.094 A 
ATOM      9  C9  DEN d   1      -0.293  -1.251   0.386  0.00  0.00    -0.072 A 
ENDROOT
TORSDOF 0
ENDMDL
