MODEL 1
REMARK minimizedAffinity -4.54351044
REMARK minimizedRMSD -1
REMARK  0 active torsions:
REMARK  status: ('A' for Active; 'I' for Inactive)
ROOT
ATOM      1  C1  DEN d   1      -0.205   0.081   0.530  0.00  0.00     0.130 A 
ATOM      2  C2  DEN d   1       0.236   1.161  -0.348  0.00  0.00    -0.031 A 
ATOM      3  C3  DEN d   1       0.603   0.570  -1.650  0.00  0.00     0.027 A 
ATOM      4  C4  DEN d   1       0.526  -1.900  -2.389  0.00  0.00     0.027 A 
ATOM      5  C5  DEN d   1       0.233  -3.184  -1.986  0.00  0.00    -0.003 A 
ATOM      6  C6  DEN d   1      -0.192  -3.471  -0.716  0.00  0.00     0.001 A 
ATOM      7  C7  DEN d   1      -0.377  -2.455   0.184  0.00  0.00     0.017 A 
ATOM      8  C8  DEN d   1      -0.076  -1.159  -0.213  0.00  0.00    -0.094 A 
ATOM      9  C9  DEN d   1       0.340  -0.888  -1.506  0.00  0.00    -0.072 A 
ENDROOT
TORSDOF 0
ENDMDL
