MODEL 1
REMARK minimizedAffinity -6.5772419
REMARK minimizedRMSD -1
REMARK  0 active torsions:
REMARK  status: ('A' for Active; 'I' for Inactive)
ROOT
ATOM      1  C1  DEN d   1      -0.067   0.343   0.465  0.00  0.00     0.130 A 
ATOM      2  C2  DEN d   1       0.199   1.207  -0.682  0.00  0.00    -0.031 A 
ATOM      3  C3  DEN d   1       0.475   0.345  -1.848  0.00  0.00     0.027 A 
ATOM      4  C4  DEN d   1       0.511  -2.230  -1.992  0.00  0.00     0.027 A 
ATOM      5  C5  DEN d   1       0.358  -3.396  -1.275  0.00  0.00    -0.003 A 
ATOM      6  C6  DEN d   1       0.089  -3.398   0.068  0.00  0.00     0.001 A 
ATOM      7  C7  DEN d   1      -0.081  -2.210   0.728  0.00  0.00     0.017 A 
ATOM      8  C8  DEN d   1       0.079  -1.029   0.014  0.00  0.00    -0.094 A 
ATOM      9  C9  DEN d   1       0.340  -1.048  -1.346  0.00  0.00    -0.072 A 
ENDROOT
TORSDOF 0
ENDMDL
