MODEL 1
REMARK minimizedAffinity -5.96074533
REMARK minimizedRMSD -1
REMARK  0 active torsions:
REMARK  status: ('A' for Active; 'I' for Inactive)
ROOT
ATOM      1  C1  DEN d   1      -0.448  -3.428  -0.527  0.00  0.00     0.130 A 
ATOM      2  C2  DEN d   1      -0.753  -2.955   0.821  0.00  0.00    -0.031 A 
ATOM      3  C3  DEN d   1      -0.582  -1.488   0.839  0.00  0.00     0.027 A 
ATOM      4  C4  DEN d   1       0.117   0.088  -1.080  0.00  0.00     0.027 A 
ATOM      5  C5  DEN d   1       0.491   0.147  -2.404  0.00  0.00    -0.003 A 
ATOM      6  C6  DEN d   1       0.610  -0.976  -3.180  0.00  0.00     0.001 A 
ATOM      7  C7  DEN d   1       0.309  -2.202  -2.650  0.00  0.00     0.017 A 
ATOM      8  C8  DEN d   1      -0.062  -2.271  -1.313  0.00  0.00    -0.094 A 
ATOM      9  C9  DEN d   1      -0.188  -1.124  -0.549  0.00  0.00    -0.072 A 
ENDROOT
TORSDOF 0
ENDMDL
