MODEL 1
REMARK minimizedAffinity -1.04243827
REMARK minimizedRMSD -1
REMARK  0 active torsions:
REMARK  status: ('A' for Active; 'I' for Inactive)
ROOT
ATOM      1  C1  DEN d   1       1.399   1.740  -0.890  0.00  0.00     0.130 A 
ATOM      2  C2  DEN d   1       1.227   2.936  -0.070  0.00  0.00    -0.031 A 
ATOM      3  C3  DEN d   1       0.376   2.580   1.084  0.00  0.00     0.027 A 
ATOM      4  C4  DEN d   1      -0.682   0.304   1.679  0.00  0.00     0.027 A 
ATOM      5  C5  DEN d   1      -0.827  -1.005   1.277  0.00  0.00    -0.003 A 
ATOM      6  C6  DEN d   1      -0.274  -1.479   0.117  0.00  0.00     0.001 A 
ATOM      7  C7  DEN d   1       0.489  -0.648  -0.659  0.00  0.00     0.017 A 
ATOM      8  C8  DEN d   1       0.635   0.675  -0.265  0.00  0.00    -0.094 A 
ATOM      9  C9  DEN d   1       0.077   1.132   0.917  0.00  0.00    -0.072 A 
ENDROOT
TORSDOF 0
ENDMDL
