MODEL 1
REMARK minimizedAffinity -6.78871202
REMARK minimizedRMSD -1
REMARK  0 active torsions:
REMARK  status: ('A' for Active; 'I' for Inactive)
ROOT
ATOM      1  C1  DEN d   1      -0.365  -0.256   1.609  0.00  0.00     0.130 A 
ATOM      2  C2  DEN d   1      -0.304   0.928   0.756  0.00  0.00    -0.031 A 
ATOM      3  C3  DEN d   1      -0.053   0.480  -0.629  0.00  0.00     0.027 A 
ATOM      4  C4  DEN d   1       0.242  -1.918  -1.531  0.00  0.00     0.027 A 
ATOM      5  C5  DEN d   1       0.283  -3.250  -1.184  0.00  0.00    -0.003 A 
ATOM      6  C6  DEN d   1       0.147  -3.672   0.111  0.00  0.00     0.001 A 
ATOM      7  C7  DEN d   1      -0.083  -2.756   1.103  0.00  0.00     0.017 A 
ATOM      8  C8  DEN d   1      -0.119  -1.410   0.763  0.00  0.00    -0.094 A 
ATOM      9  C9  DEN d   1       0.009  -1.004  -0.555  0.00  0.00    -0.072 A 
ENDROOT
TORSDOF 0
ENDMDL
