MODEL 1
REMARK minimizedAffinity -4.33589172
REMARK minimizedRMSD -1
REMARK  0 active torsions:
REMARK  status: ('A' for Active; 'I' for Inactive)
ROOT
ATOM      1  C1  DEN d   1       0.580  -0.674   1.407  0.00  0.00     0.130 A 
ATOM      2  C2  DEN d   1      -0.805  -0.919   1.012  0.00  0.00    -0.031 A 
ATOM      3  C3  DEN d   1      -1.285   0.265   0.272  0.00  0.00     0.027 A 
ATOM      4  C4  DEN d   1      -0.025   2.441  -0.302  0.00  0.00     0.027 A 
ATOM      5  C5  DEN d   1       1.169   3.115  -0.169  0.00  0.00    -0.003 A 
ATOM      6  C6  DEN d   1       2.229   2.593   0.523  0.00  0.00     0.001 A 
ATOM      7  C7  DEN d   1       2.133   1.340   1.069  0.00  0.00     0.017 A 
ATOM      8  C8  DEN d   1       0.930   0.657   0.945  0.00  0.00    -0.094 A 
ATOM      9  C9  DEN d   1      -0.126   1.197   0.232  0.00  0.00    -0.072 A 
ENDROOT
TORSDOF 0
ENDMDL
