MODEL 1
REMARK minimizedAffinity -6.19782352
REMARK minimizedRMSD -1
REMARK  0 active torsions:
REMARK  status: ('A' for Active; 'I' for Inactive)
ROOT
ATOM      1  C1  DEN d   1       0.664  -0.235  -0.799  0.00  0.00     0.130 A 
ATOM      2  C2  DEN d   1       0.580   0.296   0.559  0.00  0.00    -0.031 A 
ATOM      3  C3  DEN d   1       0.094  -0.783   1.442  0.00  0.00     0.027 A 
ATOM      4  C4  DEN d   1      -0.529  -3.213   0.843  0.00  0.00     0.027 A 
ATOM      5  C5  DEN d   1      -0.632  -4.125  -0.184  0.00  0.00    -0.003 A 
ATOM      6  C6  DEN d   1      -0.344  -3.798  -1.483  0.00  0.00     0.001 A 
ATOM      7  C7  DEN d   1       0.103  -2.538  -1.782  0.00  0.00     0.017 A 
ATOM      8  C8  DEN d   1       0.202  -1.611  -0.753  0.00  0.00    -0.094 A 
ATOM      9  C9  DEN d   1      -0.081  -1.965   0.555  0.00  0.00    -0.072 A 
ENDROOT
TORSDOF 0
ENDMDL
