MODEL 1
REMARK minimizedAffinity -3.08387208
REMARK minimizedRMSD -1
REMARK  0 active torsions:
REMARK  status: ('A' for Active; 'I' for Inactive)
ROOT
ATOM      1  C1  DEN d   1       0.915   1.197  -0.536  0.00  0.00     0.130 A 
ATOM      2  C2  DEN d   1       0.569   2.270   0.392  0.00  0.00    -0.031 A 
ATOM      3  C3  DEN d   1      -0.197   1.680   1.508  0.00  0.00     0.027 A 
ATOM      4  C4  DEN d   1      -0.873  -0.780   1.890  0.00  0.00     0.027 A 
ATOM      5  C5  DEN d   1      -0.816  -2.053   1.368  0.00  0.00    -0.003 A 
ATOM      6  C6  DEN d   1      -0.213  -2.325   0.169  0.00  0.00     0.001 A 
ATOM      7  C7  DEN d   1       0.398  -1.316  -0.528  0.00  0.00     0.017 A 
ATOM      8  C8  DEN d   1       0.338  -0.028  -0.012  0.00  0.00    -0.094 A 
ATOM      9  C9  DEN d   1      -0.266   0.224   1.208  0.00  0.00    -0.072 A 
ENDROOT
TORSDOF 0
ENDMDL
