MODEL 1
REMARK minimizedAffinity -5.0059309
REMARK minimizedRMSD -1
REMARK  0 active torsions:
REMARK  status: ('A' for Active; 'I' for Inactive)
ROOT
ATOM      1  C1  DEN d   1       0.082  -3.614  -1.112  0.00  0.00     0.130 A 
ATOM      2  C2  DEN d   1       0.363  -3.074  -2.440  0.00  0.00    -0.031 A 
ATOM      3  C3  DEN d   1       0.360  -1.600  -2.344  0.00  0.00     0.027 A 
ATOM      4  C4  DEN d   1      -0.043  -0.110  -0.278  0.00  0.00     0.027 A 
ATOM      5  C5  DEN d   1      -0.333  -0.113   1.069  0.00  0.00    -0.003 A 
ATOM      6  C6  DEN d   1      -0.536  -1.272   1.770  0.00  0.00     0.001 A 
ATOM      7  C7  DEN d   1      -0.408  -2.479   1.137  0.00  0.00     0.017 A 
ATOM      8  C8  DEN d   1      -0.124  -2.485  -0.223  0.00  0.00    -0.094 A 
ATOM      9  C9  DEN d   1       0.090  -1.303  -0.911  0.00  0.00    -0.072 A 
ENDROOT
TORSDOF 0
ENDMDL
