MODEL 1
REMARK minimizedAffinity -3.86904716
REMARK minimizedRMSD -1
REMARK  0 active torsions:
REMARK  status: ('A' for Active; 'I' for Inactive)
ROOT
ATOM      1  C1  DEN d   1       0.816   0.670  -1.072  0.00  0.00     0.130 A 
ATOM      2  C2  DEN d   1       0.211   1.760  -0.312  0.00  0.00    -0.031 A 
ATOM      3  C3  DEN d   1      -0.610   1.166   0.763  0.00  0.00     0.027 A 
ATOM      4  C4  DEN d   1      -0.995  -1.322   1.323  0.00  0.00     0.027 A 
ATOM      5  C5  DEN d   1      -0.700  -2.615   0.952  0.00  0.00    -0.003 A 
ATOM      6  C6  DEN d   1       0.087  -2.902  -0.132  0.00  0.00     0.001 A 
ATOM      7  C7  DEN d   1       0.643  -1.881  -0.856  0.00  0.00     0.017 A 
ATOM      8  C8  DEN d   1       0.344  -0.574  -0.492  0.00  0.00    -0.094 A 
ATOM      9  C9  DEN d   1      -0.443  -0.305   0.614  0.00  0.00    -0.072 A 
ENDROOT
TORSDOF 0
ENDMDL
