MODEL 1
REMARK minimizedAffinity -6.7784543
REMARK minimizedRMSD -1
REMARK  0 active torsions:
REMARK  status: ('A' for Active; 'I' for Inactive)
ROOT
ATOM      1  C1  DEN d   1       0.416   0.487  -0.962  0.00  0.00     0.130 A 
ATOM      2  C2  DEN d   1      -0.227   0.945   0.266  0.00  0.00    -0.031 A 
ATOM      3  C3  DEN d   1      -0.734  -0.240   0.986  0.00  0.00     0.027 A 
ATOM      4  C4  DEN d   1      -0.580  -2.729   0.325  0.00  0.00     0.027 A 
ATOM      5  C5  DEN d   1      -0.135  -3.609  -0.636  0.00  0.00    -0.003 A 
ATOM      6  C6  DEN d   1       0.490  -3.188  -1.780  0.00  0.00     0.001 A 
ATOM      7  C7  DEN d   1       0.727  -1.852  -1.970  0.00  0.00     0.017 A 
ATOM      8  C8  DEN d   1       0.275  -0.957  -1.009  0.00  0.00    -0.094 A 
ATOM      9  C9  DEN d   1      -0.344  -1.404   0.146  0.00  0.00    -0.072 A 
ENDROOT
TORSDOF 0
ENDMDL
