MODEL 1
REMARK minimizedAffinity -6.37019205
REMARK minimizedRMSD -1
REMARK  0 active torsions:
REMARK  status: ('A' for Active; 'I' for Inactive)
ROOT
ATOM      1  C1  DEN d   1       0.329   0.113  -0.864  0.00  0.00     0.130 A 
ATOM      2  C2  DEN d   1      -0.260   0.582   0.387  0.00  0.00    -0.031 A 
ATOM      3  C3  DEN d   1      -0.790  -0.592   1.110  0.00  0.00     0.027 A 
ATOM      4  C4  DEN d   1      -0.753  -3.076   0.419  0.00  0.00     0.027 A 
ATOM      5  C5  DEN d   1      -0.372  -3.962  -0.564  0.00  0.00    -0.003 A 
ATOM      6  C6  DEN d   1       0.235  -3.552  -1.722  0.00  0.00     0.001 A 
ATOM      7  C7  DEN d   1       0.518  -2.224  -1.906  0.00  0.00     0.017 A 
ATOM      8  C8  DEN d   1       0.130  -1.324  -0.922  0.00  0.00    -0.094 A 
ATOM      9  C9  DEN d   1      -0.471  -1.760   0.246  0.00  0.00    -0.072 A 
ENDROOT
TORSDOF 0
ENDMDL
