MODEL 1
REMARK minimizedAffinity 24.3483524
REMARK minimizedRMSD -1
REMARK  0 active torsions:
REMARK  status: ('A' for Active; 'I' for Inactive)
ROOT
ATOM      1  C   UNL d   1       3.703  -0.470   1.515  0.00  0.00    -0.002 A 
ATOM      2  C1  UNL d   1       2.620   0.358   1.776  0.00  0.00     0.010 A 
ATOM      3  C2  UNL d   1       2.254   1.356   0.870  0.00  0.00     0.041 A 
ATOM      4  C3  UNL d   1       3.002   1.509  -0.314  0.00  0.00    -0.075 A 
ATOM      5  S   UNL d   1       2.738   2.662  -1.568  0.00  0.00     0.015 SA
ATOM      6  C4  UNL d   1       4.056   2.083  -2.480  0.00  0.00     0.022 A 
ATOM      7  C5  UNL d   1       4.693   1.036  -1.858  0.00  0.00     0.026 A 
ATOM      8  C6  UNL d   1       4.096   0.687  -0.599  0.00  0.00    -0.082 A 
ATOM      9  C7  UNL d   1       4.442  -0.315   0.339  0.00  0.00     0.045 A 
ENDROOT
TORSDOF 0
ENDMDL
