MODEL 1
REMARK minimizedAffinity 31.5763702
REMARK minimizedRMSD -1
REMARK  0 active torsions:
REMARK  status: ('A' for Active; 'I' for Inactive)
ROOT
ATOM      1  C   UNL d   1      -2.830  -6.000   1.504  0.00  0.00    -0.002 A 
ATOM      2  C1  UNL d   1      -1.563  -5.952   2.070  0.00  0.00     0.010 A 
ATOM      3  C2  UNL d   1      -0.758  -4.822   1.915  0.00  0.00     0.041 A 
ATOM      4  C3  UNL d   1      -1.253  -3.729   1.175  0.00  0.00    -0.075 A 
ATOM      5  S   UNL d   1      -0.445  -2.240   0.854  0.00  0.00     0.015 SA
ATOM      6  C4  UNL d   1      -1.762  -1.633  -0.041  0.00  0.00     0.022 A 
ATOM      7  C5  UNL d   1      -2.801  -2.531  -0.103  0.00  0.00     0.026 A 
ATOM      8  C6  UNL d   1      -2.525  -3.754   0.597  0.00  0.00    -0.082 A 
ATOM      9  C7  UNL d   1      -3.317  -4.914   0.772  0.00  0.00     0.045 A 
ENDROOT
TORSDOF 0
ENDMDL
