MODEL 1
REMARK minimizedAffinity 22.1129913
REMARK minimizedRMSD -1
REMARK  0 active torsions:
REMARK  status: ('A' for Active; 'I' for Inactive)
ROOT
ATOM      1  C   UNL d   1      -0.120  -0.368   5.183  0.00  0.00    -0.002 A 
ATOM      2  C1  UNL d   1       0.283   0.540   4.214  0.00  0.00     0.010 A 
ATOM      3  C2  UNL d   1       0.064   0.277   2.860  0.00  0.00     0.041 A 
ATOM      4  C3  UNL d   1      -0.574  -0.924   2.494  0.00  0.00    -0.075 A 
ATOM      5  S   UNL d   1      -0.947  -1.458   0.897  0.00  0.00     0.015 SA
ATOM      6  C4  UNL d   1      -1.650  -2.903   1.465  0.00  0.00     0.022 A 
ATOM      7  C5  UNL d   1      -1.610  -2.992   2.836  0.00  0.00     0.026 A 
ATOM      8  C6  UNL d   1      -0.989  -1.853   3.452  0.00  0.00    -0.082 A 
ATOM      9  C7  UNL d   1      -0.752  -1.558   4.816  0.00  0.00     0.045 A 
ENDROOT
TORSDOF 0
ENDMDL
