MODEL 1
REMARK minimizedAffinity 9.03857517
REMARK minimizedRMSD -1
REMARK  0 active torsions:
REMARK  status: ('A' for Active; 'I' for Inactive)
ROOT
ATOM      1  C   UNL d   1       0.585   0.235   3.973  0.00  0.00    -0.002 A 
ATOM      2  C1  UNL d   1       0.807   0.957   2.809  0.00  0.00     0.010 A 
ATOM      3  C2  UNL d   1       0.290   0.514   1.590  0.00  0.00     0.041 A 
ATOM      4  C3  UNL d   1      -0.461  -0.677   1.560  0.00  0.00    -0.075 A 
ATOM      5  S   UNL d   1      -1.192  -1.411   0.182  0.00  0.00     0.015 SA
ATOM      6  C4  UNL d   1      -1.816  -2.699   1.106  0.00  0.00     0.022 A 
ATOM      7  C5  UNL d   1      -1.484  -2.589   2.435  0.00  0.00     0.026 A 
ATOM      8  C6  UNL d   1      -0.698  -1.421   2.719  0.00  0.00    -0.082 A 
ATOM      9  C7  UNL d   1      -0.161  -0.946   3.940  0.00  0.00     0.045 A 
ENDROOT
TORSDOF 0
ENDMDL
