MODEL 1
REMARK minimizedAffinity 22.6666698
REMARK minimizedRMSD -1
REMARK  0 active torsions:
REMARK  status: ('A' for Active; 'I' for Inactive)
ROOT
ATOM      1  C   UNL d   1       2.174   4.938  -5.821  0.00  0.00    -0.002 A 
ATOM      2  C1  UNL d   1       2.778   6.000  -5.162  0.00  0.00     0.010 A 
ATOM      3  C2  UNL d   1       3.445   5.799  -3.952  0.00  0.00     0.041 A 
ATOM      4  C3  UNL d   1       3.496   4.499  -3.410  0.00  0.00    -0.075 A 
ATOM      5  S   UNL d   1       4.257   4.015  -1.941  0.00  0.00     0.015 SA
ATOM      6  C4  UNL d   1       3.798   2.387  -2.152  0.00  0.00     0.022 A 
ATOM      7  C5  UNL d   1       3.081   2.200  -3.310  0.00  0.00     0.026 A 
ATOM      8  C6  UNL d   1       2.896   3.414  -4.055  0.00  0.00    -0.082 A 
ATOM      9  C7  UNL d   1       2.227   3.651  -5.280  0.00  0.00     0.045 A 
ENDROOT
TORSDOF 0
ENDMDL
