MODEL 1
REMARK minimizedAffinity 12.2861509
REMARK minimizedRMSD -1
REMARK  0 active torsions:
REMARK  status: ('A' for Active; 'I' for Inactive)
ROOT
ATOM      1  C   UNL d   1      -3.400  -6.000   1.442  0.00  0.00    -0.002 A 
ATOM      2  C1  UNL d   1      -2.616  -4.931   1.855  0.00  0.00     0.010 A 
ATOM      3  C2  UNL d   1      -2.394  -3.844   1.007  0.00  0.00     0.041 A 
ATOM      4  C3  UNL d   1      -2.980  -3.848  -0.274  0.00  0.00    -0.075 A 
ATOM      5  S   UNL d   1      -2.846  -2.625  -1.481  0.00  0.00     0.015 SA
ATOM      6  C4  UNL d   1      -3.827  -3.491  -2.573  0.00  0.00     0.022 A 
ATOM      7  C5  UNL d   1      -4.255  -4.686  -2.046  0.00  0.00     0.026 A 
ATOM      8  C6  UNL d   1      -3.774  -4.912  -0.712  0.00  0.00    -0.082 A 
ATOM      9  C7  UNL d   1      -3.980  -6.000   0.171  0.00  0.00     0.045 A 
ENDROOT
TORSDOF 0
ENDMDL
