MODEL 1
REMARK minimizedAffinity 8.04516029
REMARK minimizedRMSD -1
REMARK  0 active torsions:
REMARK  status: ('A' for Active; 'I' for Inactive)
ROOT
ATOM      1  C   UNL d   1       4.124   3.510  -0.371  0.00  0.00    -0.002 A 
ATOM      2  C1  UNL d   1       3.304   3.305   0.730  0.00  0.00     0.010 A 
ATOM      3  C2  UNL d   1       3.382   2.119   1.462  0.00  0.00     0.041 A 
ATOM      4  C3  UNL d   1       4.308   1.133   1.067  0.00  0.00    -0.075 A 
ATOM      5  S   UNL d   1       4.580  -0.397   1.813  0.00  0.00     0.015 SA
ATOM      6  C4  UNL d   1       5.791  -0.814   0.690  0.00  0.00     0.022 A 
ATOM      7  C5  UNL d   1       5.996   0.179  -0.240  0.00  0.00     0.026 A 
ATOM      8  C6  UNL d   1       5.145   1.317  -0.037  0.00  0.00    -0.082 A 
ATOM      9  C7  UNL d   1       5.042   2.530  -0.760  0.00  0.00     0.045 A 
ENDROOT
TORSDOF 0
ENDMDL
