MODEL 1
REMARK minimizedAffinity 10.05334
REMARK minimizedRMSD -1
REMARK  0 active torsions:
REMARK  status: ('A' for Active; 'I' for Inactive)
ROOT
ATOM      1  C   UNL d   1       6.000   0.004   0.000  0.00  0.00    -0.002 A 
ATOM      2  C1  UNL d   1       6.000   1.102  -0.849  0.00  0.00     0.010 A 
ATOM      3  C2  UNL d   1       5.003   2.074  -0.752  0.00  0.00     0.041 A 
ATOM      4  C3  UNL d   1       3.997   1.925   0.223  0.00  0.00    -0.075 A 
ATOM      5  S   UNL d   1       2.676   2.991   0.526  0.00  0.00     0.015 SA
ATOM      6  C4  UNL d   1       2.081   2.014   1.790  0.00  0.00     0.022 A 
ATOM      7  C5  UNL d   1       2.859   0.899   1.989  0.00  0.00     0.026 A 
ATOM      8  C6  UNL d   1       3.976   0.829   1.090  0.00  0.00    -0.082 A 
ATOM      9  C7  UNL d   1       5.000  -0.141   0.966  0.00  0.00     0.045 A 
ENDROOT
TORSDOF 0
ENDMDL
