MODEL 1
REMARK minimizedAffinity 18.9687901
REMARK minimizedRMSD -1
REMARK  0 active torsions:
REMARK  status: ('A' for Active; 'I' for Inactive)
ROOT
ATOM      1  C   UNL d   1       3.502   1.735  -3.593  0.00  0.00    -0.002 A 
ATOM      2  C1  UNL d   1       3.741   2.624  -2.555  0.00  0.00     0.010 A 
ATOM      3  C2  UNL d   1       3.361   3.964  -2.666  0.00  0.00     0.041 A 
ATOM      4  C3  UNL d   1       2.730   4.397  -3.849  0.00  0.00    -0.075 A 
ATOM      5  S   UNL d   1       2.177   5.990  -4.208  0.00  0.00     0.015 SA
ATOM      6  C4  UNL d   1       1.610   5.527  -5.747  0.00  0.00     0.022 A 
ATOM      7  C5  UNL d   1       1.830   4.193  -5.997  0.00  0.00     0.026 A 
ATOM      8  C6  UNL d   1       2.478   3.520  -4.907  0.00  0.00    -0.082 A 
ATOM      9  C7  UNL d   1       2.876   2.168  -4.764  0.00  0.00     0.045 A 
ENDROOT
TORSDOF 0
ENDMDL
