MODEL 1
REMARK minimizedAffinity 19.8481293
REMARK minimizedRMSD -1
REMARK  0 active torsions:
REMARK  status: ('A' for Active; 'I' for Inactive)
ROOT
ATOM      1  C   UNL d   1       1.477   0.857   1.451  0.00  0.00    -0.002 A 
ATOM      2  C1  UNL d   1       2.476  -0.081   1.671  0.00  0.00     0.010 A 
ATOM      3  C2  UNL d   1       3.632  -0.085   0.889  0.00  0.00     0.041 A 
ATOM      4  C3  UNL d   1       3.771   0.881  -0.127  0.00  0.00    -0.075 A 
ATOM      5  S   UNL d   1       5.100   1.070  -1.208  0.00  0.00     0.015 SA
ATOM      6  C4  UNL d   1       4.375   2.401  -1.987  0.00  0.00     0.022 A 
ATOM      7  C5  UNL d   1       3.148   2.708  -1.448  0.00  0.00     0.026 A 
ATOM      8  C6  UNL d   1       2.779   1.837  -0.367  0.00  0.00    -0.082 A 
ATOM      9  C7  UNL d   1       1.618   1.814   0.443  0.00  0.00     0.045 A 
ENDROOT
TORSDOF 0
ENDMDL
