MODEL 1
REMARK minimizedAffinity 19.8968868
REMARK minimizedRMSD -1
REMARK  0 active torsions:
REMARK  status: ('A' for Active; 'I' for Inactive)
ROOT
ATOM      1  C   UNL d   1       1.936   2.649  -1.961  0.00  0.00    -0.002 A 
ATOM      2  C1  UNL d   1       1.622   2.710  -3.312  0.00  0.00     0.010 A 
ATOM      3  C2  UNL d   1       2.524   2.246  -4.272  0.00  0.00     0.041 A 
ATOM      4  C3  UNL d   1       3.757   1.713  -3.847  0.00  0.00    -0.075 A 
ATOM      5  S   UNL d   1       5.016   1.084  -4.843  0.00  0.00     0.015 SA
ATOM      6  C4  UNL d   1       5.999   0.720  -3.499  0.00  0.00     0.022 A 
ATOM      7  C5  UNL d   1       5.397   1.063  -2.312  0.00  0.00     0.026 A 
ATOM      8  C6  UNL d   1       4.095   1.641  -2.493  0.00  0.00    -0.082 A 
ATOM      9  C7  UNL d   1       3.160   2.120  -1.544  0.00  0.00     0.045 A 
ENDROOT
TORSDOF 0
ENDMDL
