MODEL 1
REMARK minimizedAffinity 0.614346802
REMARK minimizedRMSD -1
REMARK  0 active torsions:
REMARK  status: ('A' for Active; 'I' for Inactive)
ROOT
ATOM      1  C   UNL d   1       5.169   2.733  -2.935  0.00  0.00    -0.002 A 
ATOM      2  C1  UNL d   1       5.047   2.091  -4.159  0.00  0.00     0.010 A 
ATOM      3  C2  UNL d   1       4.218   2.611  -5.155  0.00  0.00     0.041 A 
ATOM      4  C3  UNL d   1       3.508   3.800  -4.898  0.00  0.00    -0.075 A 
ATOM      5  S   UNL d   1       2.434   4.621  -5.969  0.00  0.00     0.015 SA
ATOM      6  C4  UNL d   1       2.113   5.845  -4.827  0.00  0.00     0.022 A 
ATOM      7  C5  UNL d   1       2.799   5.648  -3.652  0.00  0.00     0.026 A 
ATOM      8  C6  UNL d   1       3.615   4.466  -3.674  0.00  0.00    -0.082 A 
ATOM      9  C7  UNL d   1       4.463   3.913  -2.685  0.00  0.00     0.045 A 
ENDROOT
TORSDOF 0
ENDMDL
