MODEL 1
REMARK minimizedAffinity -3.3306284
REMARK minimizedRMSD -1
REMARK  0 active torsions:
REMARK  status: ('A' for Active; 'I' for Inactive)
ROOT
ATOM      1  C   UNL d   1      -1.639   2.041  -2.527  0.00  0.00     0.172 C 
ATOM      2  N   UNL d   1      -1.610   1.073  -1.457  0.00  0.00    -0.070 N 
ATOM      3  C1  UNL d   1      -0.539   0.814  -0.643  0.00  0.00    -0.004 A 
ATOM      4  C2  UNL d   1      -0.912  -0.171   0.246  0.00  0.00    -0.047 A 
ATOM      5  C3  UNL d   1      -2.254  -0.516  -0.044  0.00  0.00    -0.047 A 
ATOM      6  C4  UNL d   1      -2.661   0.268  -1.102  0.00  0.00    -0.004 A 
ENDROOT
TORSDOF 0
ENDMDL
