MODEL 1
REMARK minimizedAffinity -3.98961568
REMARK minimizedRMSD -1
REMARK  0 active torsions:
REMARK  status: ('A' for Active; 'I' for Inactive)
ROOT
ATOM      1  C   UNL d   1      -1.960   0.635   0.735  0.00  0.00     0.172 C 
ATOM      2  N   UNL d   1      -0.715  -0.057   0.499  0.00  0.00    -0.070 N 
ATOM      3  C1  UNL d   1      -0.364  -1.271   1.026  0.00  0.00    -0.004 A 
ATOM      4  C2  UNL d   1       0.896  -1.585   0.562  0.00  0.00    -0.047 A 
ATOM      5  C3  UNL d   1       1.316  -0.522  -0.272  0.00  0.00    -0.047 A 
ATOM      6  C4  UNL d   1       0.300   0.410  -0.293  0.00  0.00    -0.004 A 
ENDROOT
TORSDOF 0
ENDMDL
