MODEL 1
REMARK minimizedAffinity -2.49284458
REMARK minimizedRMSD -1
REMARK  0 active torsions:
REMARK  status: ('A' for Active; 'I' for Inactive)
ROOT
ATOM      1  C   UNL d   1      -1.066   0.018   0.565  0.00  0.00     0.172 C 
ATOM      2  N   UNL d   1      -1.493   0.644  -0.664  0.00  0.00    -0.070 N 
ATOM      3  C1  UNL d   1      -0.766   1.546  -1.394  0.00  0.00    -0.004 A 
ATOM      4  C2  UNL d   1      -1.519   1.904  -2.492  0.00  0.00    -0.047 A 
ATOM      5  C3  UNL d   1      -2.741   1.194  -2.417  0.00  0.00    -0.047 A 
ATOM      6  C4  UNL d   1      -2.698   0.422  -1.276  0.00  0.00    -0.004 A 
ENDROOT
TORSDOF 0
ENDMDL
