MODEL 1
REMARK minimizedAffinity -0.712789893
REMARK minimizedRMSD -1
REMARK  0 active torsions:
REMARK  status: ('A' for Active; 'I' for Inactive)
ROOT
ATOM      1  C   UNL d   1       0.579   0.825  -0.181  0.00  0.00     0.172 C 
ATOM      2  N   UNL d   1      -0.567   1.026  -1.037  0.00  0.00    -0.070 N 
ATOM      3  C1  UNL d   1      -0.696   2.012  -1.978  0.00  0.00    -0.004 A 
ATOM      4  C2  UNL d   1      -1.928   1.863  -2.579  0.00  0.00    -0.047 A 
ATOM      5  C3  UNL d   1      -2.560   0.749  -1.977  0.00  0.00    -0.047 A 
ATOM      6  C4  UNL d   1      -1.696   0.250  -1.026  0.00  0.00    -0.004 A 
ENDROOT
TORSDOF 0
ENDMDL
