MODEL 1
REMARK minimizedAffinity -1.6223712
REMARK minimizedRMSD -1
REMARK  0 active torsions:
REMARK  status: ('A' for Active; 'I' for Inactive)
ROOT
ATOM      1  C   UNL d   1       2.250  -1.496   0.628  0.00  0.00     0.172 C 
ATOM      2  N   UNL d   1       1.171  -0.568   0.381  0.00  0.00    -0.070 N 
ATOM      3  C1  UNL d   1      -0.116  -0.703   0.829  0.00  0.00    -0.004 A 
ATOM      4  C2  UNL d   1      -0.834   0.385   0.384  0.00  0.00    -0.047 A 
ATOM      5  C3  UNL d   1       0.051   1.202  -0.358  0.00  0.00    -0.047 A 
ATOM      6  C4  UNL d   1       1.286   0.588  -0.344  0.00  0.00    -0.004 A 
ENDROOT
TORSDOF 0
ENDMDL
