MODEL 1
REMARK minimizedAffinity -2.34469867
REMARK minimizedRMSD -1
REMARK  0 active torsions:
REMARK  status: ('A' for Active; 'I' for Inactive)
ROOT
ATOM      1  C   UNL d   1      -1.703  -0.523   1.845  0.00  0.00     0.172 C 
ATOM      2  N   UNL d   1      -0.622  -0.101   0.986  0.00  0.00    -0.070 N 
ATOM      3  C1  UNL d   1       0.540  -0.791   0.767  0.00  0.00    -0.004 A 
ATOM      4  C2  UNL d   1       1.308  -0.058  -0.112  0.00  0.00    -0.047 A 
ATOM      5  C3  UNL d   1       0.582   1.114  -0.432  0.00  0.00    -0.047 A 
ATOM      6  C4  UNL d   1      -0.609   1.061   0.261  0.00  0.00    -0.004 A 
ENDROOT
TORSDOF 0
ENDMDL
