MODEL 1
REMARK minimizedAffinity -0.272292018
REMARK minimizedRMSD -1
REMARK  0 active torsions:
REMARK  status: ('A' for Active; 'I' for Inactive)
ROOT
ATOM      1  C   UNL d   1      -1.570  -0.314   2.042  0.00  0.00     0.172 C 
ATOM      2  N   UNL d   1      -0.689  -0.013   0.937  0.00  0.00    -0.070 N 
ATOM      3  C1  UNL d   1       0.677   0.061   1.003  0.00  0.00    -0.004 A 
ATOM      4  C2  UNL d   1       1.143   0.369  -0.257  0.00  0.00    -0.047 A 
ATOM      5  C3  UNL d   1       0.019   0.484  -1.109  0.00  0.00    -0.047 A 
ATOM      6  C4  UNL d   1      -1.103   0.243  -0.343  0.00  0.00    -0.004 A 
ENDROOT
TORSDOF 0
ENDMDL
