MODEL 1
REMARK minimizedAffinity 0.10326235
REMARK minimizedRMSD -1
REMARK  0 active torsions:
REMARK  status: ('A' for Active; 'I' for Inactive)
ROOT
ATOM      1  C   UNL d   1       2.210  -1.061   1.193  0.00  0.00     0.172 C 
ATOM      2  N   UNL d   1       1.529  -0.257   0.206  0.00  0.00    -0.070 N 
ATOM      3  C1  UNL d   1       0.504  -0.679  -0.598  0.00  0.00    -0.004 A 
ATOM      4  C2  UNL d   1       0.130   0.380  -1.396  0.00  0.00    -0.047 A 
ATOM      5  C3  UNL d   1       0.958   1.477  -1.060  0.00  0.00    -0.047 A 
ATOM      6  C4  UNL d   1       1.815   1.055  -0.066  0.00  0.00    -0.004 A 
ENDROOT
TORSDOF 0
ENDMDL
