MODEL 1
REMARK minimizedAffinity -3.83255506
REMARK minimizedRMSD -1
REMARK  0 active torsions:
REMARK  status: ('A' for Active; 'I' for Inactive)
ROOT
ATOM      1  C   UNL d   1      -1.090  -0.016  -0.085  0.00  0.00     0.172 C 
ATOM      2  N   UNL d   1      -0.652  -1.099   0.764  0.00  0.00    -0.070 N 
ATOM      3  C1  UNL d   1       0.437  -1.898   0.542  0.00  0.00    -0.004 A 
ATOM      4  C2  UNL d   1       0.513  -2.806   1.576  0.00  0.00    -0.047 A 
ATOM      5  C3  UNL d   1      -0.569  -2.544   2.450  0.00  0.00    -0.047 A 
ATOM      6  C4  UNL d   1      -1.274  -1.483   1.923  0.00  0.00    -0.004 A 
ENDROOT
TORSDOF 0
ENDMDL
