MODEL 1
REMARK minimizedAffinity -3.55716801
REMARK minimizedRMSD -1
REMARK  0 active torsions:
REMARK  status: ('A' for Active; 'I' for Inactive)
ROOT
ATOM      1  C   UNL d   1      -2.087   1.561  -3.201  0.00  0.00     0.172 C 
ATOM      2  N   UNL d   1      -2.026   0.844  -1.949  0.00  0.00    -0.070 N 
ATOM      3  C1  UNL d   1      -1.007   0.916  -1.037  0.00  0.00    -0.004 A 
ATOM      4  C2  UNL d   1      -1.326   0.088   0.018  0.00  0.00    -0.047 A 
ATOM      5  C3  UNL d   1      -2.578  -0.503  -0.271  0.00  0.00    -0.047 A 
ATOM      6  C4  UNL d   1      -2.989  -0.018  -1.495  0.00  0.00    -0.004 A 
ENDROOT
TORSDOF 0
ENDMDL
