MODEL 1
REMARK minimizedAffinity -0.389068633
REMARK minimizedRMSD -1
REMARK  0 active torsions:
REMARK  status: ('A' for Active; 'I' for Inactive)
ROOT
ATOM      1  C   UNL d   1      -1.823  -0.898   2.575  0.00  0.00     0.172 C 
ATOM      2  N   UNL d   1      -1.271  -0.430   1.325  0.00  0.00    -0.070 N 
ATOM      3  C1  UNL d   1       0.027  -0.048   1.119  0.00  0.00    -0.004 A 
ATOM      4  C2  UNL d   1       0.152   0.329  -0.201  0.00  0.00    -0.047 A 
ATOM      5  C3  UNL d   1      -1.116   0.169  -0.809  0.00  0.00    -0.047 A 
ATOM      6  C4  UNL d   1      -1.978  -0.302   0.158  0.00  0.00    -0.004 A 
ENDROOT
TORSDOF 0
ENDMDL
