MODEL 1
REMARK minimizedAffinity -1.85902452
REMARK minimizedRMSD -1
REMARK  0 active torsions:
REMARK  status: ('A' for Active; 'I' for Inactive)
ROOT
ATOM      1  C   UNL d   1      -1.018   0.334   0.946  0.00  0.00     0.172 C 
ATOM      2  N   UNL d   1      -1.744   0.547  -0.284  0.00  0.00    -0.070 N 
ATOM      3  C1  UNL d   1      -2.879  -0.116  -0.667  0.00  0.00    -0.004 A 
ATOM      4  C2  UNL d   1      -3.260   0.374  -1.897  0.00  0.00    -0.047 A 
ATOM      5  C3  UNL d   1      -2.322   1.366  -2.267  0.00  0.00    -0.047 A 
ATOM      6  C4  UNL d   1      -1.394   1.453  -1.251  0.00  0.00    -0.004 A 
ENDROOT
TORSDOF 0
ENDMDL
