MODEL 1
REMARK minimizedAffinity -3.6589756
REMARK minimizedRMSD -1
REMARK  0 active torsions:
REMARK  status: ('A' for Active; 'I' for Inactive)
ROOT
ATOM      1  C   UNL d   1       1.613  -1.822   0.712  0.00  0.00     0.172 C 
ATOM      2  N   UNL d   1       0.566  -0.840   0.556  0.00  0.00    -0.070 N 
ATOM      3  C1  UNL d   1      -0.693  -0.925   1.088  0.00  0.00    -0.004 A 
ATOM      4  C2  UNL d   1      -1.387   0.205   0.713  0.00  0.00    -0.047 A 
ATOM      5  C3  UNL d   1      -0.514   0.997  -0.071  0.00  0.00    -0.047 A 
ATOM      6  C4  UNL d   1       0.688   0.326  -0.152  0.00  0.00    -0.004 A 
ENDROOT
TORSDOF 0
ENDMDL
