MODEL 1
REMARK minimizedAffinity -2.87806511
REMARK minimizedRMSD -1
REMARK  0 active torsions:
REMARK  status: ('A' for Active; 'I' for Inactive)
ROOT
ATOM      1  C   UNL d   1      -1.858   0.187   1.474  0.00  0.00     0.172 C 
ATOM      2  N   UNL d   1      -0.619   0.207   0.732  0.00  0.00    -0.070 N 
ATOM      3  C1  UNL d   1       0.416  -0.677   0.882  0.00  0.00    -0.004 A 
ATOM      4  C2  UNL d   1       1.409  -0.320  -0.004  0.00  0.00    -0.047 A 
ATOM      5  C3  UNL d   1       0.956   0.820  -0.711  0.00  0.00    -0.047 A 
ATOM      6  C4  UNL d   1      -0.302   1.125  -0.235  0.00  0.00    -0.004 A 
ENDROOT
TORSDOF 0
ENDMDL
