MODEL 1
REMARK minimizedAffinity -3.83489037
REMARK minimizedRMSD -1
REMARK  0 active torsions:
REMARK  status: ('A' for Active; 'I' for Inactive)
ROOT
ATOM      1  C   UNL d   1      -1.446  -0.585   1.515  0.00  0.00     0.172 C 
ATOM      2  N   UNL d   1      -0.251  -1.334   1.827  0.00  0.00    -0.070 N 
ATOM      3  C1  UNL d   1       0.769  -1.608   0.956  0.00  0.00    -0.004 A 
ATOM      4  C2  UNL d   1       1.718  -2.342   1.635  0.00  0.00    -0.047 A 
ATOM      5  C3  UNL d   1       1.251  -2.516   2.959  0.00  0.00    -0.047 A 
ATOM      6  C4  UNL d   1       0.029  -1.882   3.050  0.00  0.00    -0.004 A 
ENDROOT
TORSDOF 0
ENDMDL
