MODEL 1
REMARK minimizedAffinity 19.6237793
REMARK minimizedRMSD -1
REMARK  1 active torsions:
REMARK  status: ('A' for Active; 'I' for Inactive)
REMARK    1  A    between atoms: C1_2  and  C2_3 
ROOT
ATOM      1  C2  UNL d   1       1.084  -1.735   4.029  0.00  0.00    -0.073 A 
ATOM      2  C3  UNL d   1       1.613  -0.463   4.275  0.00  0.00    -0.002 A 
ATOM      3  C4  UNL d   1       1.218   0.626   3.497  0.00  0.00     0.004 A 
ATOM      4  C5  UNL d   1       0.287   0.457   2.472  0.00  0.00    -0.004 A 
ATOM      5  C6  UNL d   1      -0.261  -0.804   2.219  0.00  0.00    -0.075 A 
ATOM      6  C7  UNL d   1      -1.262  -1.003   1.119  0.00  0.00     0.076 C 
ATOM      7  C8  UNL d   1       0.142  -1.894   3.003  0.00  0.00     0.001 A 
ENDROOT
BRANCH   1   8
ATOM      8  C1  UNL d   1       1.502  -2.914   4.870  0.00  0.00     0.053 C 
ATOM      9  C   UNL d   1       2.998  -3.172   4.786  0.00  0.00     0.018 C 
ENDBRANCH   1   8
TORSDOF 1
ENDMDL
