MODEL 1
REMARK minimizedAffinity 12.2621365
REMARK minimizedRMSD -1
REMARK  1 active torsions:
REMARK  status: ('A' for Active; 'I' for Inactive)
REMARK    1  A    between atoms: C1_2  and  C2_3 
ROOT
ATOM      1  C2  UNL d   1       3.479  -1.866   5.334  0.00  0.00    -0.073 A 
ATOM      2  C3  UNL d   1       4.330  -0.785   5.590  0.00  0.00    -0.002 A 
ATOM      3  C4  UNL d   1       4.107   0.448   4.977  0.00  0.00     0.004 A 
ATOM      4  C5  UNL d   1       3.029   0.616   4.109  0.00  0.00    -0.004 A 
ATOM      5  C6  UNL d   1       2.159  -0.449   3.850  0.00  0.00    -0.075 A 
ATOM      6  C7  UNL d   1       0.996  -0.285   2.917  0.00  0.00     0.076 C 
ATOM      7  C8  UNL d   1       2.392  -1.685   4.467  0.00  0.00     0.001 A 
ENDROOT
BRANCH   1   8
ATOM      8  C1  UNL d   1       3.712  -3.198   5.999  0.00  0.00     0.053 C 
ATOM      9  C   UNL d   1       5.162  -3.641   5.894  0.00  0.00     0.018 C 
ENDBRANCH   1   8
TORSDOF 1
ENDMDL
