MODEL 1
REMARK minimizedAffinity 16.6806278
REMARK minimizedRMSD -1
REMARK  1 active torsions:
REMARK  status: ('A' for Active; 'I' for Inactive)
REMARK    1  A    between atoms: C1_2  and  C2_3 
ROOT
ATOM      1  C2  UNL d   1      -0.434   0.209   2.753  0.00  0.00    -0.073 A 
ATOM      2  C3  UNL d   1       0.702   0.799   2.187  0.00  0.00    -0.002 A 
ATOM      3  C4  UNL d   1       1.971   0.278   2.447  0.00  0.00     0.004 A 
ATOM      4  C5  UNL d   1       2.115  -0.841   3.268  0.00  0.00    -0.004 A 
ATOM      5  C6  UNL d   1       0.990  -1.451   3.833  0.00  0.00    -0.075 A 
ATOM      6  C7  UNL d   1       1.129  -2.654   4.720  0.00  0.00     0.076 C 
ATOM      7  C8  UNL d   1      -0.279  -0.920   3.569  0.00  0.00     0.001 A 
ENDROOT
BRANCH   1   8
ATOM      8  C1  UNL d   1      -1.806   0.765   2.469  0.00  0.00     0.053 C 
ATOM      9  C   UNL d   1      -1.811   2.285   2.442  0.00  0.00     0.018 C 
ENDBRANCH   1   8
TORSDOF 1
ENDMDL
