MODEL 1
REMARK minimizedAffinity 10.2935848
REMARK minimizedRMSD -1
REMARK  1 active torsions:
REMARK  status: ('A' for Active; 'I' for Inactive)
REMARK    1  A    between atoms: C1_2  and  C2_3 
ROOT
ATOM      1  C2  UNL d   1       1.251  -1.187  -4.988  0.00  0.00    -0.073 A 
ATOM      2  C3  UNL d   1       0.350  -0.836  -6.000  0.00  0.00    -0.002 A 
ATOM      3  C4  UNL d   1      -1.023  -0.838  -5.753  0.00  0.00     0.004 A 
ATOM      4  C5  UNL d   1      -1.509  -1.183  -4.491  0.00  0.00    -0.004 A 
ATOM      5  C6  UNL d   1      -0.624  -1.525  -3.464  0.00  0.00    -0.075 A 
ATOM      6  C7  UNL d   1      -1.130  -1.901  -2.103  0.00  0.00     0.076 C 
ATOM      7  C8  UNL d   1       0.754  -1.524  -3.721  0.00  0.00     0.001 A 
ENDROOT
BRANCH   1   8
ATOM      8  C1  UNL d   1       2.735  -1.181  -5.249  0.00  0.00     0.053 C 
ATOM      9  C   UNL d   1       3.433  -2.367  -4.602  0.00  0.00     0.018 C 
ENDBRANCH   1   8
TORSDOF 1
ENDMDL
