MODEL 1
REMARK minimizedAffinity 12.0082445
REMARK minimizedRMSD -1
REMARK  1 active torsions:
REMARK  status: ('A' for Active; 'I' for Inactive)
REMARK    1  A    between atoms: C1_2  and  C2_3 
ROOT
ATOM      1  C2  UNL d   1       2.318  -0.325  -5.341  0.00  0.00    -0.073 A 
ATOM      2  C3  UNL d   1       0.981   0.059  -5.499  0.00  0.00    -0.002 A 
ATOM      3  C4  UNL d   1       0.010  -0.889  -5.824  0.00  0.00     0.004 A 
ATOM      4  C5  UNL d   1       0.362  -2.228  -5.988  0.00  0.00    -0.004 A 
ATOM      5  C6  UNL d   1       1.691  -2.633  -5.823  0.00  0.00    -0.075 A 
ATOM      6  C7  UNL d   1       2.086  -4.070  -5.998  0.00  0.00     0.076 C 
ATOM      7  C8  UNL d   1       2.661  -1.676  -5.499  0.00  0.00     0.001 A 
ENDROOT
BRANCH   1   8
ATOM      8  C1  UNL d   1       3.370   0.693  -4.984  0.00  0.00     0.053 C 
ATOM      9  C   UNL d   1       4.502   0.723  -5.998  0.00  0.00     0.018 C 
ENDBRANCH   1   8
TORSDOF 1
ENDMDL
