MODEL 1
REMARK minimizedAffinity -2.48894882
REMARK minimizedRMSD -1
REMARK  0 active torsions:
REMARK  status: ('A' for Active; 'I' for Inactive)
ROOT
ATOM      1  C1  BNZ d   1       0.446   1.091   2.209  0.00  0.00     0.000 A 
ATOM      2  C2  BNZ d   1       0.787   0.749   0.928  0.00  0.00     0.000 A 
ATOM      3  C3  BNZ d   1      -0.048  -0.013   0.161  0.00  0.00     0.000 A 
ATOM      4  C4  BNZ d   1      -1.204  -0.466   0.688  0.00  0.00     0.000 A 
ATOM      5  C5  BNZ d   1      -1.558  -0.138   1.982  0.00  0.00     0.000 A 
ATOM      6  C6  BNZ d   1      -0.732   0.662   2.738  0.00  0.00     0.000 A 
ENDROOT
TORSDOF 0
ENDMDL
