MODEL 1
REMARK minimizedAffinity -2.55416441
REMARK minimizedRMSD -1
REMARK  0 active torsions:
REMARK  status: ('A' for Active; 'I' for Inactive)
ROOT
ATOM      1  C1  BNZ d   1      -1.457   0.642   0.703  0.00  0.00     0.000 A 
ATOM      2  C2  BNZ d   1      -1.201  -0.061  -0.443  0.00  0.00     0.000 A 
ATOM      3  C3  BNZ d   1       0.064  -0.490  -0.734  0.00  0.00     0.000 A 
ATOM      4  C4  BNZ d   1       1.077  -0.181   0.101  0.00  0.00     0.000 A 
ATOM      5  C5  BNZ d   1       0.836   0.536   1.256  0.00  0.00     0.000 A 
ATOM      6  C6  BNZ d   1      -0.445   0.933   1.565  0.00  0.00     0.000 A 
ENDROOT
TORSDOF 0
ENDMDL
