MODEL 1
REMARK minimizedAffinity -4.12445116
REMARK minimizedRMSD -1
REMARK  0 active torsions:
REMARK  status: ('A' for Active; 'I' for Inactive)
ROOT
ATOM      1  C1  BNZ d   1       0.823   1.063   0.884  0.00  0.00     0.000 A 
ATOM      2  C2  BNZ d   1      -0.359   1.377   1.500  0.00  0.00     0.000 A 
ATOM      3  C3  BNZ d   1      -1.517   0.733   1.163  0.00  0.00     0.000 A 
ATOM      4  C4  BNZ d   1      -1.499  -0.194   0.184  0.00  0.00     0.000 A 
ATOM      5  C5  BNZ d   1      -0.317  -0.515  -0.453  0.00  0.00     0.000 A 
ATOM      6  C6  BNZ d   1       0.853   0.107  -0.084  0.00  0.00     0.000 A 
ENDROOT
TORSDOF 0
ENDMDL
