MODEL 1
REMARK minimizedAffinity -1.081159
REMARK minimizedRMSD -1
REMARK  0 active torsions:
REMARK  status: ('A' for Active; 'I' for Inactive)
ROOT
ATOM      1  C1  BNZ d   1      -1.546   0.500   0.384  0.00  0.00     0.000 A 
ATOM      2  C2  BNZ d   1      -0.897  -0.127  -0.647  0.00  0.00     0.000 A 
ATOM      3  C3  BNZ d   1       0.386  -0.575  -0.496  0.00  0.00     0.000 A 
ATOM      4  C4  BNZ d   1       1.030  -0.361   0.669  0.00  0.00     0.000 A 
ATOM      5  C5  BNZ d   1       0.393   0.278   1.714  0.00  0.00     0.000 A 
ATOM      6  C6  BNZ d   1      -0.912   0.693   1.572  0.00  0.00     0.000 A 
ENDROOT
TORSDOF 0
ENDMDL
