MODEL 1
REMARK minimizedAffinity 8.07492924
REMARK minimizedRMSD -1
REMARK  1 active torsions:
REMARK  status: ('A' for Active; 'I' for Inactive)
REMARK    1  A    between atoms: C1_2  and  C2_3 
ROOT
ATOM      1  C2  UNL d   1      -0.030   3.722  -0.330  0.00  0.00    -0.077 A 
ATOM      2  C3  UNL d   1       0.698   4.887  -0.053  0.00  0.00     0.002 A 
ATOM      3  C4  UNL d   1       0.599   5.998  -0.894  0.00  0.00     0.002 A 
ATOM      4  C5  UNL d   1      -0.230   5.955  -2.013  0.00  0.00    -0.004 A 
ATOM      5  C6  UNL d   1      -0.956   4.800  -2.298  0.00  0.00     0.002 A 
ATOM      6  C7  UNL d   1      -0.858   3.688  -1.460  0.00  0.00     0.002 A 
ENDROOT
BRANCH   1   7
ATOM      7  C1  UNL d   1       0.037   2.540   0.602  0.00  0.00     0.055 C 
ATOM      8  C   UNL d   1       0.182   2.985   2.050  0.00  0.00     0.019 C 
ENDBRANCH   1   7
TORSDOF 1
ENDMDL
