MODEL 1
REMARK minimizedAffinity 0.113826215
REMARK minimizedRMSD -1
REMARK  1 active torsions:
REMARK  status: ('A' for Active; 'I' for Inactive)
REMARK    1  A    between atoms: C1_2  and  C2_3 
ROOT
ATOM      1  C2  UNL d   1       0.009   3.297   1.740  0.00  0.00    -0.077 A 
ATOM      2  C3  UNL d   1      -0.942   4.234   1.313  0.00  0.00     0.002 A 
ATOM      3  C4  UNL d   1      -0.577   5.266   0.446  0.00  0.00     0.002 A 
ATOM      4  C5  UNL d   1       0.738   5.368  -0.004  0.00  0.00    -0.004 A 
ATOM      5  C6  UNL d   1       1.691   4.442   0.416  0.00  0.00     0.002 A 
ATOM      6  C7  UNL d   1       1.329   3.410   1.283  0.00  0.00     0.002 A 
ENDROOT
BRANCH   1   7
ATOM      7  C1  UNL d   1      -0.393   2.154   2.635  0.00  0.00     0.055 C 
ATOM      8  C   UNL d   1       0.681   1.076   2.674  0.00  0.00     0.019 C 
ENDBRANCH   1   7
TORSDOF 1
ENDMDL
