MODEL 1
REMARK minimizedAffinity 2.60240746
REMARK minimizedRMSD -1
REMARK  1 active torsions:
REMARK  status: ('A' for Active; 'I' for Inactive)
REMARK    1  A    between atoms: C1_2  and  C2_3 
ROOT
ATOM      1  C2  UNL d   1      -3.743   2.876  -2.664  0.00  0.00    -0.077 A 
ATOM      2  C3  UNL d   1      -4.876   2.622  -1.878  0.00  0.00     0.002 A 
ATOM      3  C4  UNL d   1      -6.000   2.009  -2.437  0.00  0.00     0.002 A 
ATOM      4  C5  UNL d   1      -6.000   1.643  -3.781  0.00  0.00    -0.004 A 
ATOM      5  C6  UNL d   1      -4.878   1.894  -4.571  0.00  0.00     0.002 A 
ATOM      6  C7  UNL d   1      -3.755   2.507  -4.015  0.00  0.00     0.002 A 
ENDROOT
BRANCH   1   7
ATOM      7  C1  UNL d   1      -2.512   3.492  -2.051  0.00  0.00     0.055 C 
ATOM      8  C   UNL d   1      -2.247   4.879  -2.617  0.00  0.00     0.019 C 
ENDBRANCH   1   7
TORSDOF 1
ENDMDL
