MODEL 1
REMARK minimizedAffinity 4.91273165
REMARK minimizedRMSD -1
REMARK  1 active torsions:
REMARK  status: ('A' for Active; 'I' for Inactive)
REMARK    1  A    between atoms: C1_2  and  C2_3 
ROOT
ATOM      1  C2  UNL d   1       0.672   3.151   0.772  0.00  0.00    -0.077 A 
ATOM      2  C3  UNL d   1       1.496   3.970  -0.013  0.00  0.00     0.002 A 
ATOM      3  C4  UNL d   1       1.024   5.191  -0.496  0.00  0.00     0.002 A 
ATOM      4  C5  UNL d   1      -0.272   5.607  -0.197  0.00  0.00    -0.004 A 
ATOM      5  C6  UNL d   1      -1.100   4.799   0.581  0.00  0.00     0.002 A 
ATOM      6  C7  UNL d   1      -0.630   3.577   1.064  0.00  0.00     0.002 A 
ENDROOT
BRANCH   1   7
ATOM      7  C1  UNL d   1       1.196   1.856   1.336  0.00  0.00     0.055 C 
ATOM      8  C   UNL d   1       1.136   1.850   2.857  0.00  0.00     0.019 C 
ENDBRANCH   1   7
TORSDOF 1
ENDMDL
