MODEL 1
REMARK minimizedAffinity 0.709933937
REMARK minimizedRMSD -1
REMARK  1 active torsions:
REMARK  status: ('A' for Active; 'I' for Inactive)
REMARK    1  A    between atoms: C1_2  and  C2_3 
ROOT
ATOM      1  C2  UNL d   1      -5.278   2.900  -3.781  0.00  0.00    -0.077 A 
ATOM      2  C3  UNL d   1      -3.884   3.051  -3.771  0.00  0.00     0.002 A 
ATOM      3  C4  UNL d   1      -3.227   3.612  -4.867  0.00  0.00     0.002 A 
ATOM      4  C5  UNL d   1      -3.955   4.031  -5.979  0.00  0.00    -0.004 A 
ATOM      5  C6  UNL d   1      -5.341   3.884  -6.000  0.00  0.00     0.002 A 
ATOM      6  C7  UNL d   1      -6.000   3.321  -4.905  0.00  0.00     0.002 A 
ENDROOT
BRANCH   1   7
ATOM      7  C1  UNL d   1      -5.994   2.340  -2.580  0.00  0.00     0.055 C 
ATOM      8  C   UNL d   1      -6.000   3.332  -1.427  0.00  0.00     0.019 C 
ENDBRANCH   1   7
TORSDOF 1
ENDMDL
