MODEL 1
REMARK minimizedAffinity -2.3680203
REMARK minimizedRMSD -1
REMARK  0 active torsions:
REMARK  status: ('A' for Active; 'I' for Inactive)
ROOT
ATOM      1  C   UNL d   1       4.774   5.109   1.177  0.00  0.00     0.023 A 
ATOM      2  C1  UNL d   1       5.710   4.210   1.687  0.00  0.00     0.003 A 
ATOM      3  C2  UNL d   1       5.999   4.201   3.053  0.00  0.00     0.048 A 
ATOM      4  C3  UNL d   1       5.346   5.093   3.904  0.00  0.00     0.023 A 
ATOM      5  C4  UNL d   1       4.408   5.993   3.398  0.00  0.00     0.048 A 
ATOM      6  C5  UNL d   1       4.123   6.000   2.031  0.00  0.00     0.003 A 
ATOM      7  I   UNL d   1       5.774   5.080   5.938  0.00  0.00    -0.146 I 
ENDROOT
TORSDOF 0
ENDMDL
