MODEL 1
REMARK minimizedAffinity -1.57551873
REMARK minimizedRMSD -1
REMARK  0 active torsions:
REMARK  status: ('A' for Active; 'I' for Inactive)
ROOT
ATOM      1  C   UNL d   1       4.379   5.998  -0.245  0.00  0.00     0.023 A 
ATOM      2  C1  UNL d   1       3.342   5.998   0.689  0.00  0.00     0.003 A 
ATOM      3  C2  UNL d   1       3.631   5.997   2.055  0.00  0.00     0.048 A 
ATOM      4  C3  UNL d   1       4.959   5.997   2.481  0.00  0.00     0.023 A 
ATOM      5  C4  UNL d   1       5.999   5.998   1.551  0.00  0.00     0.048 A 
ATOM      6  C5  UNL d   1       5.706   5.998   0.186  0.00  0.00     0.003 A 
ATOM      7  I   UNL d   1       5.391   5.997   4.514  0.00  0.00    -0.146 I 
ENDROOT
TORSDOF 0
ENDMDL
