MODEL 1
REMARK minimizedAffinity 8.12316895
REMARK minimizedRMSD -1
REMARK  0 active torsions:
REMARK  status: ('A' for Active; 'I' for Inactive)
ROOT
ATOM      1  C   UNL d   1       4.730   5.258   0.453  0.00  0.00     0.023 A 
ATOM      2  C1  UNL d   1       3.652   4.926   1.273  0.00  0.00     0.003 A 
ATOM      3  C2  UNL d   1       3.742   5.107   2.655  0.00  0.00     0.048 A 
ATOM      4  C3  UNL d   1       4.913   5.621   3.210  0.00  0.00     0.023 A 
ATOM      5  C4  UNL d   1       5.995   5.955   2.393  0.00  0.00     0.048 A 
ATOM      6  C5  UNL d   1       5.900   5.771   1.012  0.00  0.00     0.003 A 
ATOM      7  I   UNL d   1       5.050   5.891   5.266  0.00  0.00    -0.146 I 
ENDROOT
TORSDOF 0
ENDMDL
