MODEL 1
REMARK minimizedAffinity 7.92431068
REMARK minimizedRMSD -1
REMARK  0 active torsions:
REMARK  status: ('A' for Active; 'I' for Inactive)
ROOT
ATOM      1  C   UNL d   1      -2.235  -0.223   2.716  0.00  0.00     0.023 A 
ATOM      2  C1  UNL d   1      -1.880   0.946   2.042  0.00  0.00     0.003 A 
ATOM      3  C2  UNL d   1      -1.734   2.142   2.747  0.00  0.00     0.048 A 
ATOM      4  C3  UNL d   1      -1.943   2.163   4.125  0.00  0.00     0.023 A 
ATOM      5  C4  UNL d   1      -2.297   0.996   4.804  0.00  0.00     0.048 A 
ATOM      6  C5  UNL d   1      -2.444  -0.198   4.095  0.00  0.00     0.003 A 
ATOM      7  I   UNL d   1      -1.725   3.943   5.176  0.00  0.00    -0.146 I 
ENDROOT
TORSDOF 0
ENDMDL
