MODEL 1
REMARK minimizedAffinity 6.45747089
REMARK minimizedRMSD -1
REMARK  0 active torsions:
REMARK  status: ('A' for Active; 'I' for Inactive)
ROOT
ATOM      1  C   UNL d   1       6.000  -0.446  -3.004  0.00  0.00     0.023 A 
ATOM      2  C1  UNL d   1       5.418  -1.133  -1.938  0.00  0.00     0.003 A 
ATOM      3  C2  UNL d   1       4.046  -1.022  -1.700  0.00  0.00     0.048 A 
ATOM      4  C3  UNL d   1       3.262  -0.223  -2.532  0.00  0.00     0.023 A 
ATOM      5  C4  UNL d   1       3.840   0.465  -3.600  0.00  0.00     0.048 A 
ATOM      6  C5  UNL d   1       5.212   0.352  -3.834  0.00  0.00     0.003 A 
ATOM      7  I   UNL d   1       1.221  -0.056  -2.180  0.00  0.00    -0.146 I 
ENDROOT
TORSDOF 0
ENDMDL
