MODEL 1
REMARK minimizedAffinity 10.13766
REMARK minimizedRMSD -1
REMARK  0 active torsions:
REMARK  status: ('A' for Active; 'I' for Inactive)
ROOT
ATOM      1  C   UNL d   1       0.873  -2.383  -2.295  0.00  0.00     0.023 A 
ATOM      2  C1  UNL d   1       0.078  -3.507  -2.069  0.00  0.00     0.003 A 
ATOM      3  C2  UNL d   1      -1.206  -3.361  -1.541  0.00  0.00     0.048 A 
ATOM      4  C3  UNL d   1      -1.690  -2.087  -1.243  0.00  0.00     0.023 A 
ATOM      5  C4  UNL d   1      -0.899  -0.960  -1.468  0.00  0.00     0.048 A 
ATOM      6  C5  UNL d   1       0.385  -1.111  -1.995  0.00  0.00     0.003 A 
ATOM      7  I   UNL d   1      -3.602  -1.867  -0.457  0.00  0.00    -0.146 I 
ENDROOT
TORSDOF 0
ENDMDL
