MODEL 1
REMARK minimizedAffinity 5.60714912
REMARK minimizedRMSD -1
REMARK  0 active torsions:
REMARK  status: ('A' for Active; 'I' for Inactive)
ROOT
ATOM      1  C   UNL d   1       2.261   1.068  -2.726  0.00  0.00     0.023 A 
ATOM      2  C1  UNL d   1       2.473   0.003  -1.851  0.00  0.00     0.003 A 
ATOM      3  C2  UNL d   1       1.391  -0.747  -1.387  0.00  0.00     0.048 A 
ATOM      4  C3  UNL d   1       0.099  -0.428  -1.803  0.00  0.00     0.023 A 
ATOM      5  C4  UNL d   1      -0.118   0.637  -2.680  0.00  0.00     0.048 A 
ATOM      6  C5  UNL d   1       0.967   1.385  -3.140  0.00  0.00     0.003 A 
ATOM      7  I   UNL d   1      -1.514  -1.543  -1.115  0.00  0.00    -0.146 I 
ENDROOT
TORSDOF 0
ENDMDL
