MODEL 1
REMARK minimizedAffinity -3.16111779
REMARK minimizedRMSD -1
REMARK  0 active torsions:
REMARK  status: ('A' for Active; 'I' for Inactive)
ROOT
ATOM      1  C   UNL d   1       4.695  -5.903   5.305  0.00  0.00     0.023 A 
ATOM      2  C1  UNL d   1       3.933  -5.184   4.385  0.00  0.00     0.003 A 
ATOM      3  C2  UNL d   1       4.200  -3.833   4.158  0.00  0.00     0.048 A 
ATOM      4  C3  UNL d   1       5.233  -3.206   4.855  0.00  0.00     0.023 A 
ATOM      5  C4  UNL d   1       6.000  -3.922   5.776  0.00  0.00     0.048 A 
ATOM      6  C5  UNL d   1       5.728  -5.273   6.000  0.00  0.00     0.003 A 
ATOM      7  I   UNL d   1       5.634  -1.195   4.519  0.00  0.00    -0.146 I 
ENDROOT
TORSDOF 0
ENDMDL
