MODEL 1
REMARK minimizedAffinity 18.5380707
REMARK minimizedRMSD -1
REMARK  0 active torsions:
REMARK  status: ('A' for Active; 'I' for Inactive)
ROOT
ATOM      1  C   UNL d   1      -0.217  -5.291   1.708  0.00  0.00     0.023 A 
ATOM      2  C1  UNL d   1       1.162  -5.486   1.780  0.00  0.00     0.003 A 
ATOM      3  C2  UNL d   1       2.019  -4.723   0.984  0.00  0.00     0.048 A 
ATOM      4  C3  UNL d   1       1.490  -3.765   0.120  0.00  0.00     0.023 A 
ATOM      5  C4  UNL d   1       0.111  -3.565   0.045  0.00  0.00     0.048 A 
ATOM      6  C5  UNL d   1      -0.742  -4.331   0.841  0.00  0.00     0.003 A 
ATOM      7  I   UNL d   1       2.764  -2.628  -1.065  0.00  0.00    -0.146 I 
ENDROOT
TORSDOF 0
ENDMDL
