MODEL 1
REMARK minimizedAffinity 9.04995155
REMARK minimizedRMSD -1
REMARK  0 active torsions:
REMARK  status: ('A' for Active; 'I' for Inactive)
ROOT
ATOM      1  C   UNL d   1       2.240  -3.417  -1.127  0.00  0.00     0.023 A 
ATOM      2  C1  UNL d   1       2.904  -2.298  -0.625  0.00  0.00     0.003 A 
ATOM      3  C2  UNL d   1       2.440  -1.016  -0.927  0.00  0.00     0.048 A 
ATOM      4  C3  UNL d   1       1.311  -0.860  -1.730  0.00  0.00     0.023 A 
ATOM      5  C4  UNL d   1       0.643  -1.977  -2.233  0.00  0.00     0.048 A 
ATOM      6  C5  UNL d   1       1.111  -3.257  -1.930  0.00  0.00     0.003 A 
ATOM      7  I   UNL d   1       0.618   1.047  -2.180  0.00  0.00    -0.146 I 
ENDROOT
TORSDOF 0
ENDMDL
