MODEL 1
REMARK minimizedAffinity 7.24878693
REMARK minimizedRMSD -1
REMARK  0 active torsions:
REMARK  status: ('A' for Active; 'I' for Inactive)
ROOT
ATOM      1  C   UNL d   1      -3.188   1.477   2.297  0.00  0.00     0.023 A 
ATOM      2  C1  UNL d   1      -2.312   1.106   3.317  0.00  0.00     0.003 A 
ATOM      3  C2  UNL d   1      -1.876   2.054   4.245  0.00  0.00     0.048 A 
ATOM      4  C3  UNL d   1      -2.322   3.372   4.147  0.00  0.00     0.023 A 
ATOM      5  C4  UNL d   1      -3.200   3.748   3.129  0.00  0.00     0.048 A 
ATOM      6  C5  UNL d   1      -3.631   2.796   2.203  0.00  0.00     0.003 A 
ATOM      7  I   UNL d   1      -1.675   4.785   5.527  0.00  0.00    -0.146 I 
ENDROOT
TORSDOF 0
ENDMDL
