MODEL 1
REMARK minimizedAffinity 2.16632318
REMARK minimizedRMSD -1
REMARK  0 active torsions:
REMARK  status: ('A' for Active; 'I' for Inactive)
ROOT
ATOM      1  C   UNL d   1       4.794   4.900   5.828  0.00  0.00     0.023 A 
ATOM      2  C1  UNL d   1       5.793   4.237   5.114  0.00  0.00     0.003 A 
ATOM      3  C2  UNL d   1       5.933   4.452   3.742  0.00  0.00     0.048 A 
ATOM      4  C3  UNL d   1       5.071   5.333   3.089  0.00  0.00     0.023 A 
ATOM      5  C4  UNL d   1       4.071   6.000   3.799  0.00  0.00     0.048 A 
ATOM      6  C5  UNL d   1       3.934   5.780   5.171  0.00  0.00     0.003 A 
ATOM      7  I   UNL d   1       5.277   5.656   1.046  0.00  0.00    -0.146 I 
ENDROOT
TORSDOF 0
ENDMDL
