MODEL 1
REMARK minimizedAffinity 0.585155189
REMARK minimizedRMSD -1
REMARK  0 active torsions:
REMARK  status: ('A' for Active; 'I' for Inactive)
ROOT
ATOM      1  C   UNL d   1       1.811  -1.830  -1.603  0.00  0.00     0.023 A 
ATOM      2  C1  UNL d   1       0.951  -0.845  -2.090  0.00  0.00     0.003 A 
ATOM      3  C2  UNL d   1       1.387   0.478  -2.187  0.00  0.00     0.048 A 
ATOM      4  C3  UNL d   1       2.683   0.810  -1.796  0.00  0.00     0.023 A 
ATOM      5  C4  UNL d   1       3.548  -0.172  -1.309  0.00  0.00     0.048 A 
ATOM      6  C5  UNL d   1       3.108  -1.494  -1.213  0.00  0.00     0.003 A 
ATOM      7  I   UNL d   1       3.333   2.779  -1.940  0.00  0.00    -0.146 I 
ENDROOT
TORSDOF 0
ENDMDL
