MODEL 1
REMARK minimizedAffinity 7.27559996
REMARK minimizedRMSD -1
REMARK  0 active torsions:
REMARK  status: ('A' for Active; 'I' for Inactive)
ROOT
ATOM      1  C   UNL d   1       4.658   5.863   4.929  0.00  0.00     0.023 A 
ATOM      2  C1  UNL d   1       5.889   5.641   4.312  0.00  0.00     0.003 A 
ATOM      3  C2  UNL d   1       5.969   5.553   2.921  0.00  0.00     0.048 A 
ATOM      4  C3  UNL d   1       4.813   5.690   2.152  0.00  0.00     0.023 A 
ATOM      5  C4  UNL d   1       3.579   5.913   2.765  0.00  0.00     0.048 A 
ATOM      6  C5  UNL d   1       3.504   5.999   4.156  0.00  0.00     0.003 A 
ATOM      7  I   UNL d   1       4.929   5.560   0.081  0.00  0.00    -0.146 I 
ENDROOT
TORSDOF 0
ENDMDL
