MODEL 1
REMARK minimizedAffinity 6.48152781
REMARK minimizedRMSD -1
REMARK  0 active torsions:
REMARK  status: ('A' for Active; 'I' for Inactive)
ROOT
ATOM      1  C   UNL d   1       4.578   4.613   1.215  0.00  0.00     0.023 A 
ATOM      2  C1  UNL d   1       3.924   5.651   1.879  0.00  0.00     0.003 A 
ATOM      3  C2  UNL d   1       4.305   6.000   3.177  0.00  0.00     0.048 A 
ATOM      4  C3  UNL d   1       5.340   5.308   3.803  0.00  0.00     0.023 A 
ATOM      5  C4  UNL d   1       5.998   4.270   3.142  0.00  0.00     0.048 A 
ATOM      6  C5  UNL d   1       5.614   3.924   1.845  0.00  0.00     0.003 A 
ATOM      7  I   UNL d   1       5.908   5.826   5.734  0.00  0.00    -0.146 I 
ENDROOT
TORSDOF 0
ENDMDL
