MODEL 1
REMARK minimizedAffinity -5.04405451
REMARK minimizedRMSD -1
REMARK  1 active torsions:
REMARK  status: ('A' for Active; 'I' for Inactive)
REMARK    1  A    between atoms: C3_4  and  O_7 
ROOT
ATOM      1  C   UNL d   1      -0.448   1.046   3.467  0.00  0.00    -0.033 A 
ATOM      2  C1  UNL d   1       0.827   0.551   3.188  0.00  0.00     0.039 A 
ATOM      3  C2  UNL d   1       1.211   0.310   1.867  0.00  0.00    -0.080 A 
ATOM      4  C3  UNL d   1       0.311   0.569   0.837  0.00  0.00     0.150 A 
ATOM      5  C4  UNL d   1      -0.960   1.066   1.108  0.00  0.00    -0.007 A 
ATOM      6  C5  UNL d   1      -1.341   1.305   2.427  0.00  0.00     0.039 A 
ENDROOT
BRANCH   4   7
ATOM      7  O   UNL d   1       0.638   0.345  -0.468  0.00  0.00    -0.526 OA
ATOM      8  H5  UNL d   1       1.536  -0.025  -0.500  0.00  0.00     0.418 HD
ENDBRANCH   4   7
TORSDOF 1
ENDMDL
