MODEL 1
REMARK minimizedAffinity -4.16254377
REMARK minimizedRMSD -1
REMARK  1 active torsions:
REMARK  status: ('A' for Active; 'I' for Inactive)
REMARK    1  A    between atoms: C3_4  and  O_7 
ROOT
ATOM      1  C   UNL d   1       0.547  -0.127  -1.253  0.00  0.00    -0.033 A 
ATOM      2  C1  UNL d   1       0.082   1.177  -1.076  0.00  0.00     0.039 A 
ATOM      3  C2  UNL d   1      -1.017   1.423  -0.251  0.00  0.00    -0.080 A 
ATOM      4  C3  UNL d   1      -1.642   0.356   0.390  0.00  0.00     0.150 A 
ATOM      5  C4  UNL d   1      -1.182  -0.945   0.221  0.00  0.00    -0.007 A 
ATOM      6  C5  UNL d   1      -0.084  -1.189  -0.603  0.00  0.00     0.039 A 
ENDROOT
BRANCH   4   7
ATOM      7  O   UNL d   1      -2.721   0.546   1.201  0.00  0.00    -0.526 OA
ATOM      8  H5  UNL d   1      -2.944   1.492   1.200  0.00  0.00     0.418 HD
ENDBRANCH   4   7
TORSDOF 1
ENDMDL
