MODEL 1
REMARK minimizedAffinity -2.67843628
REMARK minimizedRMSD -1
REMARK  1 active torsions:
REMARK  status: ('A' for Active; 'I' for Inactive)
REMARK    1  A    between atoms: C3_4  and  O_7 
ROOT
ATOM      1  C   UNL d   1       1.012  -0.592   3.544  0.00  0.00    -0.033 A 
ATOM      2  C1  UNL d   1       1.940  -1.013   2.590  0.00  0.00     0.039 A 
ATOM      3  C2  UNL d   1       1.585  -1.057   1.240  0.00  0.00    -0.080 A 
ATOM      4  C3  UNL d   1       0.301  -0.678   0.858  0.00  0.00     0.150 A 
ATOM      5  C4  UNL d   1      -0.627  -0.254   1.803  0.00  0.00    -0.007 A 
ATOM      6  C5  UNL d   1      -0.271  -0.211   3.151  0.00  0.00     0.039 A 
ENDROOT
BRANCH   4   7
ATOM      7  O   UNL d   1      -0.093  -0.709  -0.446  0.00  0.00    -0.526 OA
ATOM      8  H5  UNL d   1       0.643  -1.050  -0.982  0.00  0.00     0.418 HD
ENDBRANCH   4   7
TORSDOF 1
ENDMDL
