MODEL 1
REMARK minimizedAffinity -3.0088625
REMARK minimizedRMSD -1
REMARK  1 active torsions:
REMARK  status: ('A' for Active; 'I' for Inactive)
REMARK    1  A    between atoms: C3_4  and  O_7 
ROOT
ATOM      1  C   UNL d   1      -1.209   0.293   2.299  0.00  0.00    -0.033 A 
ATOM      2  C1  UNL d   1      -2.128   0.386   1.252  0.00  0.00     0.039 A 
ATOM      3  C2  UNL d   1      -1.752   0.027  -0.044  0.00  0.00    -0.080 A 
ATOM      4  C3  UNL d   1      -0.455  -0.422  -0.279  0.00  0.00     0.150 A 
ATOM      5  C4  UNL d   1       0.465  -0.520   0.760  0.00  0.00    -0.007 A 
ATOM      6  C5  UNL d   1       0.087  -0.161   2.053  0.00  0.00     0.039 A 
ENDROOT
BRANCH   4   7
ATOM      7  O   UNL d   1      -0.040  -0.778  -1.528  0.00  0.00    -0.526 OA
ATOM      8  H5  UNL d   1      -0.773  -0.632  -2.149  0.00  0.00     0.418 HD
ENDBRANCH   4   7
TORSDOF 1
ENDMDL
