MODEL 1
REMARK minimizedAffinity -4.37557459
REMARK minimizedRMSD -1
REMARK  1 active torsions:
REMARK  status: ('A' for Active; 'I' for Inactive)
REMARK    1  A    between atoms: C3_4  and  O_7 
ROOT
ATOM      1  C   UNL d   1      -0.449   0.118   2.686  0.00  0.00    -0.033 A 
ATOM      2  C1  UNL d   1      -1.439   0.442   1.756  0.00  0.00     0.039 A 
ATOM      3  C2  UNL d   1      -1.159   0.391   0.389  0.00  0.00    -0.080 A 
ATOM      4  C3  UNL d   1       0.113   0.013  -0.035  0.00  0.00     0.150 A 
ATOM      5  C4  UNL d   1       1.102  -0.315   0.886  0.00  0.00    -0.007 A 
ATOM      6  C5  UNL d   1       0.821  -0.262   2.251  0.00  0.00     0.039 A 
ENDROOT
BRANCH   4   7
ATOM      7  O   UNL d   1       0.434  -0.047  -1.358  0.00  0.00    -0.526 OA
ATOM      8  H5  UNL d   1      -0.339   0.234  -1.876  0.00  0.00     0.418 HD
ENDBRANCH   4   7
TORSDOF 1
ENDMDL
