MODEL 1
REMARK minimizedAffinity -2.40036678
REMARK minimizedRMSD -1
REMARK  1 active torsions:
REMARK  status: ('A' for Active; 'I' for Inactive)
REMARK    1  A    between atoms: C3_4  and  O_7 
ROOT
ATOM      1  C   UNL d   1       0.790  -0.823   0.096  0.00  0.00    -0.033 A 
ATOM      2  C1  UNL d   1       0.592  -0.153   1.305  0.00  0.00     0.039 A 
ATOM      3  C2  UNL d   1      -0.680   0.307   1.651  0.00  0.00    -0.080 A 
ATOM      4  C3  UNL d   1      -1.745   0.090   0.781  0.00  0.00     0.150 A 
ATOM      5  C4  UNL d   1      -1.556  -0.581  -0.423  0.00  0.00    -0.007 A 
ATOM      6  C5  UNL d   1      -0.285  -1.038  -0.767  0.00  0.00     0.039 A 
ENDROOT
BRANCH   4   7
ATOM      7  O   UNL d   1      -3.004   0.524   1.073  0.00  0.00    -0.526 OA
ATOM      8  H5  UNL d   1      -2.977   0.995   1.923  0.00  0.00     0.418 HD
ENDBRANCH   4   7
TORSDOF 1
ENDMDL
