MODEL 1
REMARK minimizedAffinity -3.05987453
REMARK minimizedRMSD -1
REMARK  1 active torsions:
REMARK  status: ('A' for Active; 'I' for Inactive)
REMARK    1  A    between atoms: C3_4  and  O_7 
ROOT
ATOM      1  C   UNL d   1      -1.195   0.373   2.459  0.00  0.00    -0.033 A 
ATOM      2  C1  UNL d   1      -2.058   0.553   1.377  0.00  0.00     0.039 A 
ATOM      3  C2  UNL d   1      -1.589   0.387   0.072  0.00  0.00    -0.080 A 
ATOM      4  C3  UNL d   1      -0.257   0.041  -0.136  0.00  0.00     0.150 A 
ATOM      5  C4  UNL d   1       0.608  -0.143   0.938  0.00  0.00    -0.007 A 
ATOM      6  C5  UNL d   1       0.138   0.024   2.240  0.00  0.00     0.039 A 
ENDROOT
BRANCH   4   7
ATOM      7  O   UNL d   1       0.248  -0.127  -1.391  0.00  0.00    -0.526 OA
ATOM      8  H5  UNL d   1      -0.456   0.061  -2.034  0.00  0.00     0.418 HD
ENDBRANCH   4   7
TORSDOF 1
ENDMDL
