MODEL 1
REMARK minimizedAffinity -5.24752045
REMARK minimizedRMSD -1
REMARK  0 active torsions:
REMARK  status: ('A' for Active; 'I' for Inactive)
ROOT
ATOM      1  C4' PXY d   1      -1.196   1.719  -1.062  0.00  0.00     0.077 C 
ATOM      2  C1' PXY d   1       1.741  -2.508   1.568  0.00  0.00     0.077 C 
ATOM      3  C1  PXY d   1       0.960  -1.404   0.883  0.00  0.00    -0.082 A 
ATOM      4  C2  PXY d   1       1.454  -0.828  -0.201  0.00  0.00     0.003 A 
ATOM      5  C3  PXY d   1       0.775   0.194  -0.814  0.00  0.00     0.003 A 
ATOM      6  C4  PXY d   1      -0.447   0.594  -0.344  0.00  0.00    -0.082 A 
ATOM      7  C5  PXY d   1      -0.963   0.004   0.755  0.00  0.00     0.003 A 
ATOM      8  C6  PXY d   1      -0.239  -1.003   1.387  0.00  0.00     0.003 A 
ENDROOT
TORSDOF 0
ENDMDL
