MODEL 1
REMARK minimizedAffinity -4.63870049
REMARK minimizedRMSD -1
REMARK  0 active torsions:
REMARK  status: ('A' for Active; 'I' for Inactive)
ROOT
ATOM      1  C4' PXY d   1       3.367   1.133  -0.453  0.00  0.00     0.077 C 
ATOM      2  C1' PXY d   1      -0.563  -2.964   0.637  0.00  0.00     0.077 C 
ATOM      3  C1  PXY d   1       0.461  -1.885   0.341  0.00  0.00    -0.082 A 
ATOM      4  C2  PXY d   1       1.714  -2.047   0.733  0.00  0.00     0.003 A 
ATOM      5  C3  PXY d   1       2.645  -1.068   0.502  0.00  0.00     0.003 A 
ATOM      6  C4  PXY d   1       2.302   0.066  -0.184  0.00  0.00    -0.082 A 
ATOM      7  C5  PXY d   1       1.028   0.235  -0.596  0.00  0.00     0.003 A 
ATOM      8  C6  PXY d   1       0.088  -0.753  -0.316  0.00  0.00     0.003 A 
ENDROOT
TORSDOF 0
ENDMDL
