MODEL 1
REMARK minimizedAffinity -2.22591949
REMARK minimizedRMSD -1
REMARK  0 active torsions:
REMARK  status: ('A' for Active; 'I' for Inactive)
ROOT
ATOM      1  C4' PXY d   1       2.069  -1.636   2.200  0.00  0.00     0.077 C 
ATOM      2  C1' PXY d   1      -1.062   1.427  -1.572  0.00  0.00     0.077 C 
ATOM      3  C1  PXY d   1      -0.252   0.622  -0.576  0.00  0.00    -0.082 A 
ATOM      4  C2  PXY d   1       1.047   0.846  -0.455  0.00  0.00     0.003 A 
ATOM      5  C3  PXY d   1       1.800   0.105   0.418  0.00  0.00     0.003 A 
ATOM      6  C4  PXY d   1       1.209  -0.840   1.214  0.00  0.00    -0.082 A 
ATOM      7  C5  PXY d   1      -0.117  -1.067   1.105  0.00  0.00     0.003 A 
ATOM      8  C6  PXY d   1      -0.857  -0.332   0.183  0.00  0.00     0.003 A 
ENDROOT
TORSDOF 0
ENDMDL
