MODEL 1
REMARK minimizedAffinity -2.58186102
REMARK minimizedRMSD -1
REMARK  0 active torsions:
REMARK  status: ('A' for Active; 'I' for Inactive)
ROOT
ATOM      1  C4' PXY d   1       4.052  -0.637   1.580  0.00  0.00     0.077 C 
ATOM      2  C1' PXY d   1      -1.155  -1.000  -0.902  0.00  0.00     0.077 C 
ATOM      3  C1  PXY d   1       0.214  -0.897  -0.261  0.00  0.00    -0.082 A 
ATOM      4  C2  PXY d   1       0.634  -1.859   0.544  0.00  0.00     0.003 A 
ATOM      5  C3  PXY d   1       1.856  -1.767   1.158  0.00  0.00     0.003 A 
ATOM      6  C4  PXY d   1       2.681  -0.704   0.903  0.00  0.00    -0.082 A 
ATOM      7  C5  PXY d   1       2.264   0.277   0.075  0.00  0.00     0.003 A 
ATOM      8  C6  PXY d   1       1.003   0.185  -0.506  0.00  0.00     0.003 A 
ENDROOT
TORSDOF 0
ENDMDL
