MODEL 1
REMARK minimizedAffinity -4.96933842
REMARK minimizedRMSD -1
REMARK  0 active torsions:
REMARK  status: ('A' for Active; 'I' for Inactive)
ROOT
ATOM      1  C4' PXY d   1      -1.214   1.960  -1.621  0.00  0.00     0.077 C 
ATOM      2  C1' PXY d   1       1.731  -2.516   0.550  0.00  0.00     0.077 C 
ATOM      3  C1  PXY d   1       0.950  -1.343  -0.009  0.00  0.00    -0.082 A 
ATOM      4  C2  PXY d   1       1.045  -1.048  -1.296  0.00  0.00     0.003 A 
ATOM      5  C3  PXY d   1       0.370   0.028  -1.812  0.00  0.00     0.003 A 
ATOM      6  C4  PXY d   1      -0.451   0.779  -1.014  0.00  0.00    -0.082 A 
ATOM      7  C5  PXY d   1      -0.561   0.478   0.297  0.00  0.00     0.003 A 
ATOM      8  C6  PXY d   1       0.164  -0.594   0.810  0.00  0.00     0.003 A 
ENDROOT
TORSDOF 0
ENDMDL
