MODEL 1
REMARK minimizedAffinity -2.12377214
REMARK minimizedRMSD -1
REMARK  0 active torsions:
REMARK  status: ('A' for Active; 'I' for Inactive)
ROOT
ATOM      1  C4' PXY d   1      -1.220   0.636  -1.661  0.00  0.00     0.077 C 
ATOM      2  C1' PXY d   1       1.788  -2.896   1.788  0.00  0.00     0.077 C 
ATOM      3  C1  PXY d   1       0.989  -1.970   0.892  0.00  0.00    -0.082 A 
ATOM      4  C2  PXY d   1       1.298  -1.875  -0.392  0.00  0.00     0.003 A 
ATOM      5  C3  PXY d   1       0.606  -1.019  -1.209  0.00  0.00     0.003 A 
ATOM      6  C4  PXY d   1      -0.447  -0.293  -0.721  0.00  0.00    -0.082 A 
ATOM      7  C5  PXY d   1      -0.775  -0.393   0.585  0.00  0.00     0.003 A 
ATOM      8  C6  PXY d   1      -0.034  -1.237   1.408  0.00  0.00     0.003 A 
ENDROOT
TORSDOF 0
ENDMDL
