MODEL 1
REMARK minimizedAffinity -5.11105108
REMARK minimizedRMSD -1
REMARK  0 active torsions:
REMARK  status: ('A' for Active; 'I' for Inactive)
ROOT
ATOM      1  C4' PXY d   1      -0.717   1.723  -0.975  0.00  0.00     0.077 C 
ATOM      2  C1' PXY d   1       1.489  -3.146   1.225  0.00  0.00     0.077 C 
ATOM      3  C1  PXY d   1       0.922  -1.864   0.649  0.00  0.00    -0.082 A 
ATOM      4  C2  PXY d   1      -0.380  -1.636   0.716  0.00  0.00     0.003 A 
ATOM      5  C3  PXY d   1      -0.913  -0.496   0.172  0.00  0.00     0.003 A 
ATOM      6  C4  PXY d   1      -0.100   0.446  -0.399  0.00  0.00    -0.082 A 
ATOM      7  C5  PXY d   1       1.231   0.226  -0.462  0.00  0.00     0.003 A 
ATOM      8  C6  PXY d   1       1.748  -0.957   0.060  0.00  0.00     0.003 A 
ENDROOT
TORSDOF 0
ENDMDL
