MODEL 1
REMARK minimizedAffinity -3.91215253
REMARK minimizedRMSD -1
REMARK  0 active torsions:
REMARK  status: ('A' for Active; 'I' for Inactive)
ROOT
ATOM      1  C4' PXY d   1      -1.549   1.432  -1.634  0.00  0.00     0.077 C 
ATOM      2  C1' PXY d   1       1.604  -2.609   1.040  0.00  0.00     0.077 C 
ATOM      3  C1  PXY d   1       0.769  -1.549   0.349  0.00  0.00    -0.082 A 
ATOM      4  C2  PXY d   1       0.815  -1.436  -0.969  0.00  0.00     0.003 A 
ATOM      5  C3  PXY d   1       0.091  -0.463  -1.607  0.00  0.00     0.003 A 
ATOM      6  C4  PXY d   1      -0.730   0.370  -0.894  0.00  0.00    -0.082 A 
ATOM      7  C5  PXY d   1      -0.790   0.254   0.449  0.00  0.00     0.003 A 
ATOM      8  C6  PXY d   1      -0.016  -0.714   1.082  0.00  0.00     0.003 A 
ENDROOT
TORSDOF 0
ENDMDL
