MODEL 1
REMARK minimizedAffinity -4.42335796
REMARK minimizedRMSD -1
REMARK  0 active torsions:
REMARK  status: ('A' for Active; 'I' for Inactive)
ROOT
ATOM      1  C4' PXY d   1      -1.832   1.152  -2.597  0.00  0.00     0.077 C 
ATOM      2  C1' PXY d   1       2.401  -1.123   0.615  0.00  0.00     0.077 C 
ATOM      3  C1  PXY d   1       1.283  -0.528  -0.217  0.00  0.00    -0.082 A 
ATOM      4  C2  PXY d   1       1.330  -0.617  -1.536  0.00  0.00     0.003 A 
ATOM      5  C3  PXY d   1       0.343  -0.056  -2.305  0.00  0.00     0.003 A 
ATOM      6  C4  PXY d   1      -0.730   0.557  -1.716  0.00  0.00    -0.082 A 
ATOM      7  C5  PXY d   1      -0.791   0.643  -0.370  0.00  0.00     0.003 A 
ATOM      8  C6  PXY d   1       0.241   0.103   0.391  0.00  0.00     0.003 A 
ENDROOT
TORSDOF 0
ENDMDL
