MODEL 1
REMARK minimizedAffinity -5.30825806
REMARK minimizedRMSD -1
REMARK  0 active torsions:
REMARK  status: ('A' for Active; 'I' for Inactive)
ROOT
ATOM      1  C4' PXY d   1      -1.536   1.258  -1.650  0.00  0.00     0.077 C 
ATOM      2  C1' PXY d   1       1.668  -2.718   1.060  0.00  0.00     0.077 C 
ATOM      3  C1  PXY d   1       0.817  -1.679   0.355  0.00  0.00    -0.082 A 
ATOM      4  C2  PXY d   1       1.225  -1.172  -0.797  0.00  0.00     0.003 A 
ATOM      5  C3  PXY d   1       0.483  -0.209  -1.432  0.00  0.00     0.003 A 
ATOM      6  C4  PXY d   1      -0.714   0.200  -0.909  0.00  0.00    -0.082 A 
ATOM      7  C5  PXY d   1      -1.142  -0.320   0.261  0.00  0.00     0.003 A 
ATOM      8  C6  PXY d   1      -0.355  -1.267   0.910  0.00  0.00     0.003 A 
ENDROOT
TORSDOF 0
ENDMDL
