MODEL 1
REMARK minimizedAffinity -2.9698
REMARK minimizedRMSD -1
REMARK  0 active torsions:
REMARK  status: ('A' for Active; 'I' for Inactive)
ROOT
ATOM      1  C4' PXY d   1      -1.316   1.885  -1.639  0.00  0.00     0.077 C 
ATOM      2  C1' PXY d   1       2.557  -1.877   0.426  0.00  0.00     0.077 C 
ATOM      3  C1  PXY d   1       1.535  -0.891  -0.104  0.00  0.00    -0.082 A 
ATOM      4  C2  PXY d   1       1.351  -0.777  -1.410  0.00  0.00     0.003 A 
ATOM      5  C3  PXY d   1       0.454   0.132  -1.908  0.00  0.00     0.003 A 
ATOM      6  C4  PXY d   1      -0.302   0.896  -1.059  0.00  0.00    -0.082 A 
ATOM      7  C5  PXY d   1      -0.128   0.778   0.275  0.00  0.00     0.003 A 
ATOM      8  C6  PXY d   1       0.817  -0.122   0.759  0.00  0.00     0.003 A 
ENDROOT
TORSDOF 0
ENDMDL
