MODEL 1
REMARK minimizedAffinity -3.8766191
REMARK minimizedRMSD -1
REMARK  0 active torsions:
REMARK  status: ('A' for Active; 'I' for Inactive)
ROOT
ATOM      1  C4' PXY d   1      -1.363   1.924  -1.106  0.00  0.00     0.077 C 
ATOM      2  C1' PXY d   1       2.074  -1.942   1.473  0.00  0.00     0.077 C 
ATOM      3  C1  PXY d   1       1.162  -0.935   0.800  0.00  0.00    -0.082 A 
ATOM      4  C2  PXY d   1       1.617  -0.215  -0.213  0.00  0.00     0.003 A 
ATOM      5  C3  PXY d   1       0.816   0.723  -0.811  0.00  0.00     0.003 A 
ATOM      6  C4  PXY d   1      -0.481   0.889  -0.404  0.00  0.00    -0.082 A 
ATOM      7  C5  PXY d   1      -0.955   0.151   0.623  0.00  0.00     0.003 A 
ATOM      8  C6  PXY d   1      -0.113  -0.767   1.244  0.00  0.00     0.003 A 
ENDROOT
TORSDOF 0
ENDMDL
