MODEL 1
REMARK minimizedAffinity -3.76037765
REMARK minimizedRMSD -1
REMARK  0 active torsions:
REMARK  status: ('A' for Active; 'I' for Inactive)
ROOT
ATOM      1  C4' PXY d   1       4.106  -1.004   1.483  0.00  0.00     0.077 C 
ATOM      2  C1' PXY d   1      -1.006  -0.044  -1.039  0.00  0.00     0.077 C 
ATOM      3  C1  PXY d   1       0.328  -0.302  -0.368  0.00  0.00    -0.082 A 
ATOM      4  C2  PXY d   1       1.359   0.482  -0.639  0.00  0.00     0.003 A 
ATOM      5  C3  PXY d   1       2.582   0.243  -0.066  0.00  0.00     0.003 A 
ATOM      6  C4  PXY d   1       2.737  -0.775   0.836  0.00  0.00    -0.082 A 
ATOM      7  C5  PXY d   1       1.687  -1.573   1.126  0.00  0.00     0.003 A 
ATOM      8  C6  PXY d   1       0.466  -1.339   0.502  0.00  0.00     0.003 A 
ENDROOT
TORSDOF 0
ENDMDL
