MODEL 1
REMARK minimizedAffinity -5.12890434
REMARK minimizedRMSD -1
REMARK  0 active torsions:
REMARK  status: ('A' for Active; 'I' for Inactive)
ROOT
ATOM      1  C4' PXY d   1      -0.579   2.014  -0.041  0.00  0.00     0.077 C 
ATOM      2  C1' PXY d   1       1.803  -3.120   1.134  0.00  0.00     0.077 C 
ATOM      3  C1  PXY d   1       1.190  -1.769   0.823  0.00  0.00    -0.082 A 
ATOM      4  C2  PXY d   1       0.033  -1.434   1.370  0.00  0.00     0.003 A 
ATOM      5  C3  PXY d   1      -0.551  -0.229   1.074  0.00  0.00     0.003 A 
ATOM      6  C4  PXY d   1       0.082   0.664   0.252  0.00  0.00    -0.082 A 
ATOM      7  C5  PXY d   1       1.268   0.334  -0.302  0.00  0.00     0.003 A 
ATOM      8  C6  PXY d   1       1.824  -0.910  -0.021  0.00  0.00     0.003 A 
ENDROOT
TORSDOF 0
ENDMDL
