MODEL 1
REMARK minimizedAffinity 1.71665645
REMARK minimizedRMSD -1
REMARK  0 active torsions:
REMARK  status: ('A' for Active; 'I' for Inactive)
ROOT
ATOM      1  C4' PXY d   1      -2.524   0.575   1.315  0.00  0.00     0.077 C 
ATOM      2  C1' PXY d   1       2.814  -1.584   1.826  0.00  0.00     0.077 C 
ATOM      3  C1  PXY d   1       1.418  -1.010   1.682  0.00  0.00    -0.082 A 
ATOM      4  C2  PXY d   1       0.587  -1.045   2.711  0.00  0.00     0.003 A 
ATOM      5  C3  PXY d   1      -0.689  -0.559   2.589  0.00  0.00     0.003 A 
ATOM      6  C4  PXY d   1      -1.102   0.016   1.417  0.00  0.00    -0.082 A 
ATOM      7  C5  PXY d   1      -0.257   0.065   0.366  0.00  0.00     0.003 A 
ATOM      8  C6  PXY d   1       1.021  -0.470   0.498  0.00  0.00     0.003 A 
ENDROOT
TORSDOF 0
ENDMDL
