MODEL 1
REMARK minimizedAffinity -1.71243262
REMARK minimizedRMSD -1
REMARK  0 active torsions:
REMARK  status: ('A' for Active; 'I' for Inactive)
ROOT
ATOM      1  C4' PXY d   1       2.546  -1.427   0.625  0.00  0.00     0.077 C 
ATOM      2  C1' PXY d   1      -2.153   1.298  -1.354  0.00  0.00     0.077 C 
ATOM      3  C1  PXY d   1      -0.928   0.573  -0.831  0.00  0.00    -0.082 A 
ATOM      4  C2  PXY d   1       0.136   1.268  -0.464  0.00  0.00     0.003 A 
ATOM      5  C3  PXY d   1       1.264   0.627  -0.020  0.00  0.00     0.003 A 
ATOM      6  C4  PXY d   1       1.283  -0.736   0.101  0.00  0.00    -0.082 A 
ATOM      7  C5  PXY d   1       0.198  -1.452  -0.262  0.00  0.00     0.003 A 
ATOM      8  C6  PXY d   1      -0.922  -0.785  -0.750  0.00  0.00     0.003 A 
ENDROOT
TORSDOF 0
ENDMDL
