MODEL 1
REMARK minimizedAffinity -4.07264328
REMARK minimizedRMSD -1
REMARK  0 active torsions:
REMARK  status: ('A' for Active; 'I' for Inactive)
ROOT
ATOM      1  C4' PXY d   1      -1.779   1.412  -2.259  0.00  0.00     0.077 C 
ATOM      2  C1' PXY d   1       2.508  -1.192   0.614  0.00  0.00     0.077 C 
ATOM      3  C1  PXY d   1       1.379  -0.504  -0.128  0.00  0.00    -0.082 A 
ATOM      4  C2  PXY d   1       0.982  -0.977  -1.298  0.00  0.00     0.003 A 
ATOM      5  C3  PXY d   1      -0.016  -0.348  -1.998  0.00  0.00     0.003 A 
ATOM      6  C4  PXY d   1      -0.650   0.744  -1.470  0.00  0.00    -0.082 A 
ATOM      7  C5  PXY d   1      -0.257   1.227  -0.272  0.00  0.00     0.003 A 
ATOM      8  C6  PXY d   1       0.785   0.599   0.404  0.00  0.00     0.003 A 
ENDROOT
TORSDOF 0
ENDMDL
