MODEL 1
REMARK minimizedAffinity -4.70627785
REMARK minimizedRMSD -1
REMARK  0 active torsions:
REMARK  status: ('A' for Active; 'I' for Inactive)
ROOT
ATOM      1  C4' PXY d   1      -2.391   1.880  -2.624  0.00  0.00     0.077 C 
ATOM      2  C1' PXY d   1       1.629  -1.225   0.136  0.00  0.00     0.077 C 
ATOM      3  C1  PXY d   1       0.568  -0.408  -0.576  0.00  0.00    -0.082 A 
ATOM      4  C2  PXY d   1       0.348  -0.606  -1.866  0.00  0.00     0.003 A 
ATOM      5  C3  PXY d   1      -0.585   0.146  -2.533  0.00  0.00     0.003 A 
ATOM      6  C4  PXY d   1      -1.337   1.073  -1.862  0.00  0.00    -0.082 A 
ATOM      7  C5  PXY d   1      -1.125   1.273  -0.544  0.00  0.00     0.003 A 
ATOM      8  C6  PXY d   1      -0.145   0.528   0.106  0.00  0.00     0.003 A 
ENDROOT
TORSDOF 0
ENDMDL
