MODEL 1
REMARK minimizedAffinity -3.47956562
REMARK minimizedRMSD -1
REMARK  0 active torsions:
REMARK  status: ('A' for Active; 'I' for Inactive)
ROOT
ATOM      1  C4' PXY d   1       1.937  -2.589   0.626  0.00  0.00     0.077 C 
ATOM      2  C1' PXY d   1      -1.068   2.034  -1.109  0.00  0.00     0.077 C 
ATOM      3  C1  PXY d   1      -0.271   0.824  -0.663  0.00  0.00    -0.082 A 
ATOM      4  C2  PXY d   1      -0.864  -0.126   0.042  0.00  0.00     0.003 A 
ATOM      5  C3  PXY d   1      -0.151  -1.212   0.480  0.00  0.00     0.003 A 
ATOM      6  C4  PXY d   1       1.170  -1.353   0.147  0.00  0.00    -0.082 A 
ATOM      7  C5  PXY d   1       1.779  -0.394  -0.581  0.00  0.00     0.003 A 
ATOM      8  C6  PXY d   1       1.048   0.721  -0.981  0.00  0.00     0.003 A 
ENDROOT
TORSDOF 0
ENDMDL
