MODEL 1
REMARK minimizedAffinity -2.32745838
REMARK minimizedRMSD -1
REMARK  0 active torsions:
REMARK  status: ('A' for Active; 'I' for Inactive)
ROOT
ATOM      1  C4' PXY d   1       4.552  -0.669   1.884  0.00  0.00     0.077 C 
ATOM      2  C1' PXY d   1      -0.345  -0.173  -1.149  0.00  0.00     0.077 C 
ATOM      3  C1  PXY d   1       0.933  -0.311  -0.345  0.00  0.00    -0.082 A 
ATOM      4  C2  PXY d   1       1.871   0.618  -0.443  0.00  0.00     0.003 A 
ATOM      5  C3  PXY d   1       3.046   0.493   0.253  0.00  0.00     0.003 A 
ATOM      6  C4  PXY d   1       3.241  -0.567   1.098  0.00  0.00    -0.082 A 
ATOM      7  C5  PXY d   1       2.285  -1.513   1.211  0.00  0.00     0.003 A 
ATOM      8  C6  PXY d   1       1.117  -1.388   0.465  0.00  0.00     0.003 A 
ENDROOT
TORSDOF 0
ENDMDL
