MODEL 1
REMARK minimizedAffinity -5.25838184
REMARK minimizedRMSD -1
REMARK  2 active torsions:
REMARK  status: ('A' for Active; 'I' for Inactive)
REMARK    1  A    between atoms: C2'_3  and  C1'_4 
REMARK    2  A    between atoms: C1'_4  and  C1_5 
ROOT
ATOM      1  C1  I4B d   1      -0.542   0.738   0.356  0.00  0.00    -0.075 A 
ATOM      2  C2  I4B d   1      -1.309   1.707   0.952  0.00  0.00     0.003 A 
ATOM      3  C3  I4B d   1      -1.009   3.077   0.753  0.00  0.00     0.002 A 
ATOM      4  C4  I4B d   1       0.090   3.428  -0.004  0.00  0.00    -0.004 A 
ATOM      5  C5  I4B d   1       0.853   2.444  -0.627  0.00  0.00     0.002 A 
ATOM      6  C6  I4B d   1       0.528   1.091  -0.456  0.00  0.00     0.003 A 
ENDROOT
BRANCH   1   7
ATOM      7  C1' I4B d   1      -0.867  -0.699   0.615  0.00  0.00     0.060 C 
BRANCH   7   8
ATOM      8  C2' I4B d   1       0.097  -1.548  -0.188  0.00  0.00    -0.013 C 
ATOM      9  C4' I4B d   1       1.351  -1.836   0.595  0.00  0.00     0.013 C 
ATOM     10  C3' I4B d   1      -0.607  -2.816  -0.567  0.00  0.00     0.013 C 
ENDBRANCH   7   8
ENDBRANCH   1   7
TORSDOF 2
ENDMDL
