MODEL 1
REMARK minimizedAffinity -1.97506034
REMARK minimizedRMSD -1
REMARK  2 active torsions:
REMARK  status: ('A' for Active; 'I' for Inactive)
REMARK    1  A    between atoms: C2'_3  and  C1'_4 
REMARK    2  A    between atoms: C1'_4  and  C1_5 
ROOT
ATOM      1  C1  I4B d   1      -0.035   0.038  -0.087  0.00  0.00    -0.075 A 
ATOM      2  C2  I4B d   1       0.940   0.587  -0.882  0.00  0.00     0.003 A 
ATOM      3  C3  I4B d   1       0.960   1.982  -1.124  0.00  0.00     0.002 A 
ATOM      4  C4  I4B d   1      -0.035   2.778  -0.596  0.00  0.00    -0.004 A 
ATOM      5  C5  I4B d   1      -1.010   2.223   0.229  0.00  0.00     0.002 A 
ATOM      6  C6  I4B d   1      -1.003   0.846   0.495  0.00  0.00     0.003 A 
ENDROOT
BRANCH   1   7
ATOM      7  C1' I4B d   1      -0.047  -1.444   0.120  0.00  0.00     0.060 C 
BRANCH   7   8
ATOM      8  C2' I4B d   1      -1.278  -2.001  -0.563  0.00  0.00    -0.013 C 
ATOM      9  C4' I4B d   1      -0.951  -2.518  -1.940  0.00  0.00     0.013 C 
ATOM     10  C3' I4B d   1      -1.837  -3.089   0.305  0.00  0.00     0.013 C 
ENDBRANCH   7   8
ENDBRANCH   1   7
TORSDOF 2
ENDMDL
