MODEL 1
REMARK minimizedAffinity -4.20679808
REMARK minimizedRMSD -1
REMARK  2 active torsions:
REMARK  status: ('A' for Active; 'I' for Inactive)
REMARK    1  A    between atoms: C2'_3  and  C1'_4 
REMARK    2  A    between atoms: C1'_4  and  C1_5 
ROOT
ATOM      1  C1  I4B d   1       0.934   1.278  -0.140  0.00  0.00    -0.075 A 
ATOM      2  C2  I4B d   1       0.362   2.523  -0.059  0.00  0.00     0.003 A 
ATOM      3  C3  I4B d   1       1.069   3.595   0.540  0.00  0.00     0.002 A 
ATOM      4  C4  I4B d   1       2.315   3.366   1.087  0.00  0.00    -0.004 A 
ATOM      5  C5  I4B d   1       2.902   2.108   0.984  0.00  0.00     0.002 A 
ATOM      6  C6  I4B d   1       2.213   1.061   0.356  0.00  0.00     0.003 A 
ENDROOT
BRANCH   1   7
ATOM      7  C1' I4B d   1       0.147   0.162  -0.749  0.00  0.00     0.060 C 
BRANCH   7   8
ATOM      8  C2' I4B d   1       0.034  -0.945   0.279  0.00  0.00    -0.013 C 
ATOM      9  C4' I4B d   1      -0.829  -0.526   1.439  0.00  0.00     0.013 C 
ATOM     10  C3' I4B d   1      -0.528  -2.156  -0.405  0.00  0.00     0.013 C 
ENDBRANCH   7   8
ENDBRANCH   1   7
TORSDOF 2
ENDMDL
