MODEL 1
REMARK minimizedAffinity -2.94591904
REMARK minimizedRMSD -1
REMARK  2 active torsions:
REMARK  status: ('A' for Active; 'I' for Inactive)
REMARK    1  A    between atoms: C2'_3  and  C1'_4 
REMARK    2  A    between atoms: C1'_4  and  C1_5 
ROOT
ATOM      1  C1  I4B d   1      -0.043   0.177   0.356  0.00  0.00    -0.075 A 
ATOM      2  C2  I4B d   1       0.503   1.219  -0.350  0.00  0.00     0.003 A 
ATOM      3  C3  I4B d   1       0.067   2.546  -0.114  0.00  0.00     0.002 A 
ATOM      4  C4  I4B d   1      -0.946   2.777   0.794  0.00  0.00    -0.004 A 
ATOM      5  C5  I4B d   1      -1.483   1.721   1.525  0.00  0.00     0.002 A 
ATOM      6  C6  I4B d   1      -1.020   0.414   1.314  0.00  0.00     0.003 A 
ENDROOT
BRANCH   1   7
ATOM      7  C1' I4B d   1       0.418  -1.215   0.058  0.00  0.00     0.060 C 
BRANCH   7   8
ATOM      8  C2' I4B d   1      -0.323  -1.699  -1.172  0.00  0.00    -0.013 C 
ATOM      9  C4' I4B d   1       0.631  -2.235  -2.207  0.00  0.00     0.013 C 
ATOM     10  C3' I4B d   1      -1.301  -2.751  -0.740  0.00  0.00     0.013 C 
ENDBRANCH   7   8
ENDBRANCH   1   7
TORSDOF 2
ENDMDL
