MODEL 1
REMARK minimizedAffinity -4.07872581
REMARK minimizedRMSD -1
REMARK  2 active torsions:
REMARK  status: ('A' for Active; 'I' for Inactive)
REMARK    1  A    between atoms: C2'_3  and  C1'_4 
REMARK    2  A    between atoms: C1'_4  and  C1_5 
ROOT
ATOM      1  C1  I4B d   1      -0.369  -0.401   0.214  0.00  0.00    -0.075 A 
ATOM      2  C2  I4B d   1       0.772   0.281   0.557  0.00  0.00     0.003 A 
ATOM      3  C3  I4B d   1       0.746   1.690   0.695  0.00  0.00     0.002 A 
ATOM      4  C4  I4B d   1      -0.422   2.377   0.435  0.00  0.00    -0.004 A 
ATOM      5  C5  I4B d   1      -1.584   1.682   0.110  0.00  0.00     0.002 A 
ATOM      6  C6  I4B d   1      -1.561   0.284   0.011  0.00  0.00     0.003 A 
ENDROOT
BRANCH   1   7
ATOM      7  C1' I4B d   1      -0.298  -1.885   0.044  0.00  0.00     0.060 C 
BRANCH   7   8
ATOM      8  C2' I4B d   1      -0.921  -2.232  -1.293  0.00  0.00    -0.013 C 
ATOM      9  C4' I4B d   1       0.129  -2.630  -2.297  0.00  0.00     0.013 C 
ATOM     10  C3' I4B d   1      -1.906  -3.341  -1.071  0.00  0.00     0.013 C 
ENDBRANCH   7   8
ENDBRANCH   1   7
TORSDOF 2
ENDMDL
