MODEL 1
REMARK minimizedAffinity 0.26823923
REMARK minimizedRMSD -1
REMARK  2 active torsions:
REMARK  status: ('A' for Active; 'I' for Inactive)
REMARK    1  A    between atoms: C2'_3  and  C1'_4 
REMARK    2  A    between atoms: C1'_4  and  C1_5 
ROOT
ATOM      1  C1  I4B d   1       0.078   0.087   0.548  0.00  0.00    -0.075 A 
ATOM      2  C2  I4B d   1      -0.787   1.122   0.802  0.00  0.00     0.003 A 
ATOM      3  C3  I4B d   1      -0.289   2.378   1.227  0.00  0.00     0.002 A 
ATOM      4  C4  I4B d   1       1.066   2.538   1.432  0.00  0.00    -0.004 A 
ATOM      5  C5  I4B d   1       1.943   1.495   1.151  0.00  0.00     0.002 A 
ATOM      6  C6  I4B d   1       1.447   0.265   0.695  0.00  0.00     0.003 A 
ENDROOT
BRANCH   1   7
ATOM      7  C1' I4B d   1      -0.484  -1.235   0.132  0.00  0.00     0.060 C 
BRANCH   7   8
ATOM      8  C2' I4B d   1      -0.542  -1.263  -1.382  0.00  0.00    -0.013 C 
ATOM      9  C4' I4B d   1      -1.204  -2.522  -1.879  0.00  0.00     0.013 C 
ATOM     10  C3' I4B d   1      -1.285  -0.044  -1.839  0.00  0.00     0.013 C 
ENDBRANCH   7   8
ENDBRANCH   1   7
TORSDOF 2
ENDMDL
