MODEL 1
REMARK minimizedAffinity -3.54817653
REMARK minimizedRMSD -1
REMARK  2 active torsions:
REMARK  status: ('A' for Active; 'I' for Inactive)
REMARK    1  A    between atoms: C2'_3  and  C1'_4 
REMARK    2  A    between atoms: C1'_4  and  C1_5 
ROOT
ATOM      1  C1  I4B d   1      -0.431   0.883   0.143  0.00  0.00    -0.075 A 
ATOM      2  C2  I4B d   1      -0.099   2.100   0.685  0.00  0.00     0.003 A 
ATOM      3  C3  I4B d   1       0.265   3.179  -0.156  0.00  0.00     0.002 A 
ATOM      4  C4  I4B d   1       0.332   2.985  -1.520  0.00  0.00    -0.004 A 
ATOM      5  C5  I4B d   1      -0.027   1.758  -2.070  0.00  0.00     0.002 A 
ATOM      6  C6  I4B d   1      -0.423   0.704  -1.234  0.00  0.00     0.003 A 
ENDROOT
BRANCH   1   7
ATOM      7  C1' I4B d   1      -0.779  -0.245   1.062  0.00  0.00     0.060 C 
BRANCH   7   8
ATOM      8  C2' I4B d   1       0.208  -1.368   0.817  0.00  0.00    -0.013 C 
ATOM      9  C4' I4B d   1      -0.095  -2.089  -0.470  0.00  0.00     0.013 C 
ATOM     10  C3' I4B d   1       1.586  -0.776   0.795  0.00  0.00     0.013 C 
ENDBRANCH   7   8
ENDBRANCH   1   7
TORSDOF 2
ENDMDL
