MODEL 1
REMARK minimizedAffinity -3.93586349
REMARK minimizedRMSD -1
REMARK  2 active torsions:
REMARK  status: ('A' for Active; 'I' for Inactive)
REMARK    1  A    between atoms: C2'_3  and  C1'_4 
REMARK    2  A    between atoms: C1'_4  and  C1_5 
ROOT
ATOM      1  C1  I4B d   1       1.047   0.646  -0.342  0.00  0.00    -0.075 A 
ATOM      2  C2  I4B d   1       0.681  -0.540   0.244  0.00  0.00     0.003 A 
ATOM      3  C3  I4B d   1       1.630  -1.298   0.972  0.00  0.00     0.002 A 
ATOM      4  C4  I4B d   1       2.937  -0.862   1.044  0.00  0.00    -0.004 A 
ATOM      5  C5  I4B d   1       3.301   0.352   0.469  0.00  0.00     0.002 A 
ATOM      6  C6  I4B d   1       2.347   1.117  -0.218  0.00  0.00     0.003 A 
ENDROOT
BRANCH   1   7
ATOM      7  C1' I4B d   1       0.027   1.405  -1.130  0.00  0.00     0.060 C 
BRANCH   7   8
ATOM      8  C2' I4B d   1      -0.411   2.596  -0.303  0.00  0.00    -0.013 C 
ATOM      9  C4' I4B d   1      -0.576   2.222   1.147  0.00  0.00     0.013 C 
ATOM     10  C3' I4B d   1       0.615   3.677  -0.469  0.00  0.00     0.013 C 
ENDBRANCH   7   8
ENDBRANCH   1   7
TORSDOF 2
ENDMDL
