MODEL 1
REMARK minimizedAffinity -0.0475956313
REMARK minimizedRMSD -1
REMARK  2 active torsions:
REMARK  status: ('A' for Active; 'I' for Inactive)
REMARK    1  A    between atoms: C2'_3  and  C1'_4 
REMARK    2  A    between atoms: C1'_4  and  C1_5 
ROOT
ATOM      1  C1  I4B d   1       0.227   1.134   1.043  0.00  0.00    -0.075 A 
ATOM      2  C2  I4B d   1      -0.664   2.079   0.598  0.00  0.00     0.003 A 
ATOM      3  C3  I4B d   1      -2.031   1.749   0.435  0.00  0.00     0.002 A 
ATOM      4  C4  I4B d   1      -2.452   0.457   0.678  0.00  0.00    -0.004 A 
ATOM      5  C5  I4B d   1      -1.552  -0.493   1.151  0.00  0.00     0.002 A 
ATOM      6  C6  I4B d   1      -0.206  -0.150   1.346  0.00  0.00     0.003 A 
ENDROOT
BRANCH   1   7
ATOM      7  C1' I4B d   1       1.669   1.508   1.173  0.00  0.00     0.060 C 
BRANCH   7   8
ATOM      8  C2' I4B d   1       2.501   0.319   0.736  0.00  0.00    -0.013 C 
ATOM      9  C4' I4B d   1       2.118  -0.135  -0.648  0.00  0.00     0.013 C 
ATOM     10  C3' I4B d   1       3.945   0.717   0.795  0.00  0.00     0.013 C 
ENDBRANCH   7   8
ENDBRANCH   1   7
TORSDOF 2
ENDMDL
