MODEL 1
REMARK minimizedAffinity 22.2642651
REMARK minimizedRMSD -1
REMARK  0 active torsions:
REMARK  status: ('A' for Active; 'I' for Inactive)
ROOT
ATOM      1  C1  DEN d   1      -1.512  -3.052   3.752  0.00  0.00     0.130 A 
ATOM      2  C2  DEN d   1      -2.510  -2.052   4.125  0.00  0.00    -0.031 A 
ATOM      3  C3  DEN d   1      -3.000  -1.413   2.887  0.00  0.00     0.027 A 
ATOM      4  C4  DEN d   1      -2.318  -1.875   0.443  0.00  0.00     0.027 A 
ATOM      5  C5  DEN d   1      -1.500  -2.626  -0.372  0.00  0.00    -0.003 A 
ATOM      6  C6  DEN d   1      -0.611  -3.540   0.130  0.00  0.00     0.001 A 
ATOM      7  C7  DEN d   1      -0.552  -3.759   1.481  0.00  0.00     0.017 A 
ATOM      8  C8  DEN d   1      -1.369  -3.000   2.308  0.00  0.00    -0.094 A 
ATOM      9  C9  DEN d   1      -2.269  -2.090   1.782  0.00  0.00    -0.072 A 
ENDROOT
TORSDOF 0
ENDMDL
