MODEL 1
REMARK minimizedAffinity 21.5395145
REMARK minimizedRMSD -1
REMARK  0 active torsions:
REMARK  status: ('A' for Active; 'I' for Inactive)
ROOT
ATOM      1  C1  DEN d   1      -0.695  -1.438  -1.212  0.00  0.00     0.130 A 
ATOM      2  C2  DEN d   1      -0.597  -1.578  -2.663  0.00  0.00    -0.031 A 
ATOM      3  C3  DEN d   1      -0.464  -3.015  -2.975  0.00  0.00     0.027 A 
ATOM      4  C4  DEN d   1      -0.405  -5.027  -1.363  0.00  0.00     0.027 A 
ATOM      5  C5  DEN d   1      -0.444  -5.406  -0.039  0.00  0.00    -0.003 A 
ATOM      6  C6  DEN d   1      -0.533  -4.495   0.979  0.00  0.00     0.001 A 
ATOM      7  C7  DEN d   1      -0.634  -3.160   0.689  0.00  0.00     0.017 A 
ATOM      8  C8  DEN d   1      -0.588  -2.769  -0.643  0.00  0.00    -0.094 A 
ATOM      9  C9  DEN d   1      -0.510  -3.707  -1.659  0.00  0.00    -0.072 A 
ENDROOT
TORSDOF 0
ENDMDL
