MODEL 1
REMARK minimizedAffinity 19.1865387
REMARK minimizedRMSD -1
REMARK  0 active torsions:
REMARK  status: ('A' for Active; 'I' for Inactive)
ROOT
ATOM      1  C1  DEN d   1      -1.621  -1.112  -1.566  0.00  0.00     0.130 A 
ATOM      2  C2  DEN d   1      -1.974  -1.345  -2.964  0.00  0.00    -0.031 A 
ATOM      3  C3  DEN d   1      -1.627  -2.741  -3.297  0.00  0.00     0.027 A 
ATOM      4  C4  DEN d   1      -0.588  -4.558  -1.790  0.00  0.00     0.027 A 
ATOM      5  C5  DEN d   1      -0.103  -4.828  -0.529  0.00  0.00    -0.003 A 
ATOM      6  C6  DEN d   1      -0.059  -3.878   0.456  0.00  0.00     0.001 A 
ATOM      7  C7  DEN d   1      -0.550  -2.623   0.210  0.00  0.00     0.017 A 
ATOM      8  C8  DEN d   1      -1.033  -2.340  -1.061  0.00  0.00    -0.094 A 
ATOM      9  C9  DEN d   1      -1.081  -3.318  -2.039  0.00  0.00    -0.072 A 
ENDROOT
TORSDOF 0
ENDMDL
