MODEL 1
REMARK minimizedAffinity 13.9671364
REMARK minimizedRMSD -1
REMARK  0 active torsions:
REMARK  status: ('A' for Active; 'I' for Inactive)
ROOT
ATOM      1  C1  DEN d   1      -0.902  -1.915  -1.032  0.00  0.00     0.130 A 
ATOM      2  C2  DEN d   1      -1.474  -1.827  -2.373  0.00  0.00    -0.031 A 
ATOM      3  C3  DEN d   1      -1.537  -3.192  -2.933  0.00  0.00     0.027 A 
ATOM      4  C4  DEN d   1      -0.812  -5.422  -1.858  0.00  0.00     0.027 A 
ATOM      5  C5  DEN d   1      -0.259  -6.000  -0.737  0.00  0.00    -0.003 A 
ATOM      6  C6  DEN d   1       0.147  -5.260   0.341  0.00  0.00     0.001 A 
ATOM      7  C7  DEN d   1      -0.036  -3.902   0.341  0.00  0.00     0.017 A 
ATOM      8  C8  DEN d   1      -0.587  -3.311  -0.789  0.00  0.00    -0.094 A 
ATOM      9  C9  DEN d   1      -1.002  -4.078  -1.864  0.00  0.00    -0.072 A 
ENDROOT
TORSDOF 0
ENDMDL
