MODEL 1
REMARK minimizedAffinity 16.0968628
REMARK minimizedRMSD -1
REMARK  0 active torsions:
REMARK  status: ('A' for Active; 'I' for Inactive)
ROOT
ATOM      1  C1  DEN d   1      -0.826  -1.989  -1.476  0.00  0.00     0.130 A 
ATOM      2  C2  DEN d   1      -1.729  -0.845  -1.390  0.00  0.00    -0.031 A 
ATOM      3  C3  DEN d   1      -2.378  -0.875  -0.063  0.00  0.00     0.027 A 
ATOM      4  C4  DEN d   1      -2.070  -2.569   1.856  0.00  0.00     0.027 A 
ATOM      5  C5  DEN d   1      -1.418  -3.719   2.245  0.00  0.00    -0.003 A 
ATOM      6  C6  DEN d   1      -0.556  -4.386   1.415  0.00  0.00     0.001 A 
ATOM      7  C7  DEN d   1      -0.288  -3.883   0.169  0.00  0.00     0.017 A 
ATOM      8  C8  DEN d   1      -0.947  -2.729  -0.232  0.00  0.00    -0.094 A 
ATOM      9  C9  DEN d   1      -1.805  -2.062   0.626  0.00  0.00    -0.072 A 
ENDROOT
TORSDOF 0
ENDMDL
