MODEL 1
REMARK minimizedAffinity 13.9806767
REMARK minimizedRMSD -1
REMARK  0 active torsions:
REMARK  status: ('A' for Active; 'I' for Inactive)
ROOT
ATOM      1  C1  DEN d   1      -0.832  -2.810   2.059  0.00  0.00     0.130 A 
ATOM      2  C2  DEN d   1       0.272  -2.974   1.116  0.00  0.00    -0.031 A 
ATOM      3  C3  DEN d   1       1.528  -2.662   1.826  0.00  0.00     0.027 A 
ATOM      4  C4  DEN d   1       1.872  -1.952   4.282  0.00  0.00     0.027 A 
ATOM      5  C5  DEN d   1       1.232  -1.668   5.468  0.00  0.00    -0.003 A 
ATOM      6  C6  DEN d   1      -0.132  -1.710   5.591  0.00  0.00     0.001 A 
ATOM      7  C7  DEN d   1      -0.898  -2.090   4.520  0.00  0.00     0.017 A 
ATOM      8  C8  DEN d   1      -0.261  -2.371   3.319  0.00  0.00    -0.094 A 
ATOM      9  C9  DEN d   1       1.120  -2.334   3.218  0.00  0.00    -0.072 A 
ENDROOT
TORSDOF 0
ENDMDL
