MODEL 1
REMARK minimizedAffinity 12.8638611
REMARK minimizedRMSD -1
REMARK  0 active torsions:
REMARK  status: ('A' for Active; 'I' for Inactive)
ROOT
ATOM      1  C1  DEN d   1      -0.594  -4.045   0.015  0.00  0.00     0.130 A 
ATOM      2  C2  DEN d   1      -1.077  -4.477   1.324  0.00  0.00    -0.031 A 
ATOM      3  C3  DEN d   1      -2.227  -3.626   1.689  0.00  0.00     0.027 A 
ATOM      4  C4  DEN d   1      -3.304  -1.695   0.360  0.00  0.00     0.027 A 
ATOM      5  C5  DEN d   1      -3.234  -0.954  -0.798  0.00  0.00    -0.003 A 
ATOM      6  C6  DEN d   1      -2.266  -1.166  -1.743  0.00  0.00     0.001 A 
ATOM      7  C7  DEN d   1      -1.355  -2.175  -1.568  0.00  0.00     0.017 A 
ATOM      8  C8  DEN d   1      -1.415  -2.922  -0.399  0.00  0.00    -0.094 A 
ATOM      9  C9  DEN d   1      -2.409  -2.700   0.539  0.00  0.00    -0.072 A 
ENDROOT
TORSDOF 0
ENDMDL
