MODEL 1
REMARK minimizedAffinity 21.055645
REMARK minimizedRMSD -1
REMARK  0 active torsions:
REMARK  status: ('A' for Active; 'I' for Inactive)
ROOT
ATOM      1  C1  DEN d   1      -5.950   4.724  -5.986  0.00  0.00     0.130 A 
ATOM      2  C2  DEN d   1      -5.819   5.955  -5.211  0.00  0.00    -0.031 A 
ATOM      3  C3  DEN d   1      -4.655   5.808  -4.315  0.00  0.00     0.027 A 
ATOM      4  C4  DEN d   1      -3.049   3.807  -4.056  0.00  0.00     0.027 A 
ATOM      5  C5  DEN d   1      -2.765   2.531  -4.491  0.00  0.00    -0.003 A 
ATOM      6  C6  DEN d   1      -3.537   1.890  -5.424  0.00  0.00     0.001 A 
ATOM      7  C7  DEN d   1      -4.605   2.539  -5.984  0.00  0.00     0.017 A 
ATOM      8  C8  DEN d   1      -4.901   3.823  -5.544  0.00  0.00    -0.094 A 
ATOM      9  C9  DEN d   1      -4.102   4.459  -4.610  0.00  0.00    -0.072 A 
ENDROOT
TORSDOF 0
ENDMDL
