MODEL 1
REMARK minimizedAffinity 13.4131565
REMARK minimizedRMSD -1
REMARK  0 active torsions:
REMARK  status: ('A' for Active; 'I' for Inactive)
ROOT
ATOM      1  C1  DEN d   1      -2.984   4.179  -1.034  0.00  0.00     0.130 A 
ATOM      2  C2  DEN d   1      -3.179   5.119  -2.133  0.00  0.00    -0.031 A 
ATOM      3  C3  DEN d   1      -4.314   5.999  -1.786  0.00  0.00     0.027 A 
ATOM      4  C4  DEN d   1      -5.776   5.998   0.339  0.00  0.00     0.027 A 
ATOM      5  C5  DEN d   1      -5.998   5.377   1.548  0.00  0.00    -0.003 A 
ATOM      6  C6  DEN d   1      -5.260   4.300   1.963  0.00  0.00     0.001 A 
ATOM      7  C7  DEN d   1      -4.233   3.840   1.182  0.00  0.00     0.017 A 
ATOM      8  C8  DEN d   1      -4.007   4.456  -0.042  0.00  0.00    -0.094 A 
ATOM      9  C9  DEN d   1      -4.757   5.551  -0.438  0.00  0.00    -0.072 A 
ENDROOT
TORSDOF 0
ENDMDL
