MODEL 1
REMARK minimizedAffinity 23.5831089
REMARK minimizedRMSD -1
REMARK  0 active torsions:
REMARK  status: ('A' for Active; 'I' for Inactive)
ROOT
ATOM      1  C1  DEN d   1       2.540  -0.813  -2.611  0.00  0.00     0.130 A 
ATOM      2  C2  DEN d   1       1.890   0.383  -2.082  0.00  0.00    -0.031 A 
ATOM      3  C3  DEN d   1       2.761   1.541  -2.371  0.00  0.00     0.027 A 
ATOM      4  C4  DEN d   1       5.037   1.597  -3.582  0.00  0.00     0.027 A 
ATOM      5  C5  DEN d   1       6.000   0.829  -4.199  0.00  0.00    -0.003 A 
ATOM      6  C6  DEN d   1       5.893  -0.533  -4.299  0.00  0.00     0.001 A 
ATOM      7  C7  DEN d   1       4.779  -1.164  -3.814  0.00  0.00     0.017 A 
ATOM      8  C8  DEN d   1       3.808  -0.398  -3.183  0.00  0.00    -0.094 A 
ATOM      9  C9  DEN d   1       3.928   0.979  -3.103  0.00  0.00    -0.072 A 
ENDROOT
TORSDOF 0
ENDMDL
