MODEL 1
REMARK minimizedAffinity 17.5143604
REMARK minimizedRMSD -1
REMARK  0 active torsions:
REMARK  status: ('A' for Active; 'I' for Inactive)
ROOT
ATOM      1  C1  DEN d   1      -0.307  -4.876  -1.051  0.00  0.00     0.130 A 
ATOM      2  C2  DEN d   1      -0.203  -4.500   0.356  0.00  0.00    -0.031 A 
ATOM      3  C3  DEN d   1      -0.665  -3.103   0.491  0.00  0.00     0.027 A 
ATOM      4  C4  DEN d   1      -1.532  -1.498  -1.332  0.00  0.00     0.027 A 
ATOM      5  C5  DEN d   1      -1.792  -1.363  -2.677  0.00  0.00    -0.003 A 
ATOM      6  C6  DEN d   1      -1.546  -2.370  -3.573  0.00  0.00     0.001 A 
ATOM      7  C7  DEN d   1      -1.066  -3.573  -3.127  0.00  0.00     0.017 A 
ATOM      8  C8  DEN d   1      -0.794  -3.714  -1.773  0.00  0.00    -0.094 A 
ATOM      9  C9  DEN d   1      -1.061  -2.688  -0.881  0.00  0.00    -0.072 A 
ENDROOT
TORSDOF 0
ENDMDL
