MODEL 1
REMARK minimizedAffinity 21.6265049
REMARK minimizedRMSD -1
REMARK  0 active torsions:
REMARK  status: ('A' for Active; 'I' for Inactive)
ROOT
ATOM      1  C1  DEN d   1      -4.436   0.438   4.416  0.00  0.00     0.130 A 
ATOM      2  C2  DEN d   1      -4.298   1.554   5.348  0.00  0.00    -0.031 A 
ATOM      3  C3  DEN d   1      -2.978   1.444   5.999  0.00  0.00     0.027 A 
ATOM      4  C4  DEN d   1      -1.141  -0.333   5.654  0.00  0.00     0.027 A 
ATOM      5  C5  DEN d   1      -0.805  -1.483   4.975  0.00  0.00    -0.003 A 
ATOM      6  C6  DEN d   1      -1.663  -2.088   4.094  0.00  0.00     0.001 A 
ATOM      7  C7  DEN d   1      -2.882  -1.519   3.835  0.00  0.00     0.017 A 
ATOM      8  C8  DEN d   1      -3.230  -0.363   4.522  0.00  0.00    -0.094 A 
ATOM      9  C9  DEN d   1      -2.345   0.239   5.399  0.00  0.00    -0.072 A 
ENDROOT
TORSDOF 0
ENDMDL
