MODEL 1
REMARK minimizedAffinity 16.111845
REMARK minimizedRMSD -1
REMARK  0 active torsions:
REMARK  status: ('A' for Active; 'I' for Inactive)
ROOT
ATOM      1  C1  DEN d   1       2.121   0.295  -0.658  0.00  0.00     0.130 A 
ATOM      2  C2  DEN d   1       2.434   0.488  -2.071  0.00  0.00    -0.031 A 
ATOM      3  C3  DEN d   1       3.295   1.682  -2.189  0.00  0.00     0.027 A 
ATOM      4  C4  DEN d   1       4.173   3.238  -0.329  0.00  0.00     0.027 A 
ATOM      5  C5  DEN d   1       4.165   3.484   1.026  0.00  0.00    -0.003 A 
ATOM      6  C6  DEN d   1       3.454   2.710   1.904  0.00  0.00     0.001 A 
ATOM      7  C7  DEN d   1       2.756   1.626   1.442  0.00  0.00     0.017 A 
ATOM      8  C8  DEN d   1       2.753   1.376   0.075  0.00  0.00    -0.094 A 
ATOM      9  C9  DEN d   1       3.489   2.163  -0.795  0.00  0.00    -0.072 A 
ENDROOT
TORSDOF 0
ENDMDL
