MODEL 1
REMARK minimizedAffinity -2.97406745
REMARK minimizedRMSD -1
REMARK  1 active torsions:
REMARK  status: ('A' for Active; 'I' for Inactive)
REMARK    1  A    between atoms: C1_2  and  C2_3 
ROOT
ATOM      1  C2  UNL d   1      -2.180   0.174  -2.458  0.00  0.00    -0.077 A 
ATOM      2  C3  UNL d   1      -2.043  -0.179  -3.808  0.00  0.00     0.002 A 
ATOM      3  C4  UNL d   1      -2.426   0.711  -4.813  0.00  0.00     0.002 A 
ATOM      4  C5  UNL d   1      -2.943   1.961  -4.479  0.00  0.00    -0.004 A 
ATOM      5  C6  UNL d   1      -3.085   2.321  -3.139  0.00  0.00     0.002 A 
ATOM      6  C7  UNL d   1      -2.704   1.432  -2.133  0.00  0.00     0.002 A 
ENDROOT
BRANCH   1   7
ATOM      7  C1  UNL d   1      -1.722  -0.766  -1.373  0.00  0.00     0.055 C 
ATOM      8  C   UNL d   1      -0.822  -1.858  -1.931  0.00  0.00     0.019 C 
ENDBRANCH   1   7
TORSDOF 1
ENDMDL
