MODEL 1
REMARK minimizedAffinity 0.586790204
REMARK minimizedRMSD -1
REMARK  1 active torsions:
REMARK  status: ('A' for Active; 'I' for Inactive)
REMARK    1  A    between atoms: C1_2  and  C2_3 
ROOT
ATOM      1  C2  UNL d   1      -0.179  -3.158  -2.226  0.00  0.00    -0.077 A 
ATOM      2  C3  UNL d   1      -1.507  -3.534  -2.473  0.00  0.00     0.002 A 
ATOM      3  C4  UNL d   1      -2.071  -3.344  -3.736  0.00  0.00     0.002 A 
ATOM      4  C5  UNL d   1      -1.315  -2.781  -4.762  0.00  0.00    -0.004 A 
ATOM      5  C6  UNL d   1       0.006  -2.402  -4.525  0.00  0.00     0.002 A 
ATOM      6  C7  UNL d   1       0.571  -2.590  -3.264  0.00  0.00     0.002 A 
ENDROOT
BRANCH   1   7
ATOM      7  C1  UNL d   1       0.447  -3.408  -0.879  0.00  0.00     0.055 C 
ATOM      8  C   UNL d   1       0.451  -4.891  -0.537  0.00  0.00     0.019 C 
ENDBRANCH   1   7
TORSDOF 1
ENDMDL
