MODEL 1
REMARK minimizedAffinity 1.74304616
REMARK minimizedRMSD -1
REMARK  1 active torsions:
REMARK  status: ('A' for Active; 'I' for Inactive)
REMARK    1  A    between atoms: C1_2  and  C2_3 
ROOT
ATOM      1  C2  UNL d   1       0.966   0.902  -0.563  0.00  0.00    -0.077 A 
ATOM      2  C3  UNL d   1       1.504   1.286   0.674  0.00  0.00     0.002 A 
ATOM      3  C4  UNL d   1       1.124   2.493   1.265  0.00  0.00     0.002 A 
ATOM      4  C5  UNL d   1       0.203   3.323   0.629  0.00  0.00    -0.004 A 
ATOM      5  C6  UNL d   1      -0.336   2.951  -0.602  0.00  0.00     0.002 A 
ATOM      6  C7  UNL d   1       0.043   1.746  -1.195  0.00  0.00     0.002 A 
ENDROOT
BRANCH   1   7
ATOM      7  C1  UNL d   1       1.336  -0.422  -1.178  0.00  0.00     0.055 C 
ATOM      8  C   UNL d   1       0.269  -1.474  -0.912  0.00  0.00     0.019 C 
ENDBRANCH   1   7
TORSDOF 1
ENDMDL
