MODEL 1
REMARK minimizedAffinity 5.54544497
REMARK minimizedRMSD -1
REMARK  1 active torsions:
REMARK  status: ('A' for Active; 'I' for Inactive)
REMARK    1  A    between atoms: C1_2  and  C2_3 
ROOT
ATOM      1  C2  UNL d   1       0.375   3.472   0.164  0.00  0.00    -0.077 A 
ATOM      2  C3  UNL d   1      -0.476   2.853  -0.762  0.00  0.00     0.002 A 
ATOM      3  C4  UNL d   1      -1.537   2.059  -0.326  0.00  0.00     0.002 A 
ATOM      4  C5  UNL d   1      -1.760   1.879   1.038  0.00  0.00    -0.004 A 
ATOM      5  C6  UNL d   1      -0.919   2.489   1.967  0.00  0.00     0.002 A 
ATOM      6  C7  UNL d   1       0.144   3.282   1.533  0.00  0.00     0.002 A 
ENDROOT
BRANCH   1   7
ATOM      7  C1  UNL d   1       1.491   4.369  -0.304  0.00  0.00     0.055 C 
ATOM      8  C   UNL d   1       1.077   5.174  -1.527  0.00  0.00     0.019 C 
ENDBRANCH   1   7
TORSDOF 1
ENDMDL
