MODEL 1
REMARK minimizedAffinity -4.26704741
REMARK minimizedRMSD -1
REMARK  3 active torsions:
REMARK  status: ('A' for Active; 'I' for Inactive)
REMARK    1  A    between atoms: C3'_2  and  C2'_3 
REMARK    2  A    between atoms: C2'_3  and  C1'_4 
REMARK    3  A    between atoms: C1'_4  and  C1_5 
ROOT
ATOM      1  C1  N4B d   1       0.591   0.529   0.287  0.00  0.00    -0.075 A 
ATOM      2  C2  N4B d   1      -0.593   1.299   0.320  0.00  0.00     0.002 A 
ATOM      3  C3  N4B d   1      -0.534   2.636   0.629  0.00  0.00     0.002 A 
ATOM      4  C4  N4B d   1       0.689   3.218   0.925  0.00  0.00    -0.004 A 
ATOM      5  C5  N4B d   1       1.831   2.473   0.866  0.00  0.00     0.002 A 
ATOM      6  C6  N4B d   1       1.787   1.130   0.553  0.00  0.00     0.002 A 
ENDROOT
BRANCH   1   7
ATOM      7  C1' N4B d   1       0.566  -0.954   0.038  0.00  0.00     0.057 C 
BRANCH   7   8
ATOM      8  C2' N4B d   1      -0.879  -1.441   0.057  0.00  0.00     0.009 C 
BRANCH   8   9
ATOM      9  C3' N4B d   1      -1.039  -2.775  -0.653  0.00  0.00     0.004 C 
ATOM     10  C4' N4B d   1      -2.396  -2.947  -1.267  0.00  0.00     0.003 C 
ENDBRANCH   8   9
ENDBRANCH   7   8
ENDBRANCH   1   7
TORSDOF 3
ENDMDL
