MODEL 1
REMARK minimizedAffinity -1.52462053
REMARK minimizedRMSD -1
REMARK  3 active torsions:
REMARK  status: ('A' for Active; 'I' for Inactive)
REMARK    1  A    between atoms: C3'_2  and  C2'_3 
REMARK    2  A    between atoms: C2'_3  and  C1'_4 
REMARK    3  A    between atoms: C1'_4  and  C1_5 
ROOT
ATOM      1  C1  N4B d   1      -0.503  -1.243  -0.173  0.00  0.00    -0.075 A 
ATOM      2  C2  N4B d   1      -1.450  -0.196  -0.197  0.00  0.00     0.002 A 
ATOM      3  C3  N4B d   1      -1.104   1.053   0.255  0.00  0.00     0.002 A 
ATOM      4  C4  N4B d   1       0.173   1.274   0.750  0.00  0.00    -0.004 A 
ATOM      5  C5  N4B d   1       1.090   0.264   0.746  0.00  0.00     0.002 A 
ATOM      6  C6  N4B d   1       0.756  -0.996   0.291  0.00  0.00     0.002 A 
ENDROOT
BRANCH   1   7
ATOM      7  C1' N4B d   1      -0.861  -2.648  -0.576  0.00  0.00     0.057 C 
BRANCH   7   8
ATOM      8  C2' N4B d   1      -0.289  -2.932  -1.962  0.00  0.00     0.009 C 
BRANCH   8   9
ATOM      9  C3' N4B d   1      -1.343  -3.477  -2.911  0.00  0.00     0.004 C 
ATOM     10  C4' N4B d   1      -2.724  -3.442  -2.327  0.00  0.00     0.003 C 
ENDBRANCH   8   9
ENDBRANCH   7   8
ENDBRANCH   1   7
TORSDOF 3
ENDMDL
