MODEL 1
REMARK minimizedAffinity -4.23919392
REMARK minimizedRMSD -1
REMARK  3 active torsions:
REMARK  status: ('A' for Active; 'I' for Inactive)
REMARK    1  A    between atoms: C3'_2  and  C2'_3 
REMARK    2  A    between atoms: C2'_3  and  C1'_4 
REMARK    3  A    between atoms: C1'_4  and  C1_5 
ROOT
ATOM      1  C1  N4B d   1      -0.335   0.260   0.231  0.00  0.00    -0.075 A 
ATOM      2  C2  N4B d   1      -1.195   1.184   0.864  0.00  0.00     0.002 A 
ATOM      3  C3  N4B d   1      -1.002   2.533   0.690  0.00  0.00     0.002 A 
ATOM      4  C4  N4B d   1       0.052   2.979  -0.093  0.00  0.00    -0.004 A 
ATOM      5  C5  N4B d   1       0.863   2.080  -0.722  0.00  0.00     0.002 A 
ATOM      6  C6  N4B d   1       0.677   0.722  -0.560  0.00  0.00     0.002 A 
ENDROOT
BRANCH   1   7
ATOM      7  C1' N4B d   1      -0.455  -1.221   0.460  0.00  0.00     0.057 C 
BRANCH   7   8
ATOM      8  C2' N4B d   1      -0.264  -1.950  -0.867  0.00  0.00     0.009 C 
BRANCH   8   9
ATOM      9  C3' N4B d   1      -1.197  -3.142  -1.000  0.00  0.00     0.004 C 
ATOM     10  C4' N4B d   1      -1.096  -3.812  -2.337  0.00  0.00     0.003 C 
ENDBRANCH   8   9
ENDBRANCH   7   8
ENDBRANCH   1   7
TORSDOF 3
ENDMDL
