MODEL 1
REMARK minimizedAffinity 5.17623568
REMARK minimizedRMSD -1
REMARK  3 active torsions:
REMARK  status: ('A' for Active; 'I' for Inactive)
REMARK    1  A    between atoms: C3'_2  and  C2'_3 
REMARK    2  A    between atoms: C2'_3  and  C1'_4 
REMARK    3  A    between atoms: C1'_4  and  C1_5 
ROOT
ATOM      1  C1  N4B d   1       1.137   2.564   0.816  0.00  0.00    -0.075 A 
ATOM      2  C2  N4B d   1       2.250   3.271   1.323  0.00  0.00     0.002 A 
ATOM      3  C3  N4B d   1       3.491   2.684   1.331  0.00  0.00     0.002 A 
ATOM      4  C4  N4B d   1       3.641   1.389   0.857  0.00  0.00    -0.004 A 
ATOM      5  C5  N4B d   1       2.566   0.722   0.347  0.00  0.00     0.002 A 
ATOM      6  C6  N4B d   1       1.313   1.301   0.329  0.00  0.00     0.002 A 
ENDROOT
BRANCH   1   7
ATOM      7  C1' N4B d   1      -0.255   3.132   0.866  0.00  0.00     0.057 C 
BRANCH   7   8
ATOM      8  C2' N4B d   1      -1.264   1.999   0.700  0.00  0.00     0.009 C 
BRANCH   8   9
ATOM      9  C3' N4B d   1      -2.501   2.448  -0.058  0.00  0.00     0.004 C 
ATOM     10  C4' N4B d   1      -3.686   1.561   0.187  0.00  0.00     0.003 C 
ENDBRANCH   8   9
ENDBRANCH   7   8
ENDBRANCH   1   7
TORSDOF 3
ENDMDL
