MODEL 1
REMARK minimizedAffinity -2.82883
REMARK minimizedRMSD -1
REMARK  3 active torsions:
REMARK  status: ('A' for Active; 'I' for Inactive)
REMARK    1  A    between atoms: C3'_2  and  C2'_3 
REMARK    2  A    between atoms: C2'_3  and  C1'_4 
REMARK    3  A    between atoms: C1'_4  and  C1_5 
ROOT
ATOM      1  C1  N4B d   1      -0.063  -0.253   0.364  0.00  0.00    -0.075 A 
ATOM      2  C2  N4B d   1      -1.236   0.533   0.390  0.00  0.00     0.002 A 
ATOM      3  C3  N4B d   1      -1.165   1.861   0.731  0.00  0.00     0.002 A 
ATOM      4  C4  N4B d   1       0.060   2.419   1.067  0.00  0.00    -0.004 A 
ATOM      5  C5  N4B d   1       1.192   1.659   1.014  0.00  0.00     0.002 A 
ATOM      6  C6  N4B d   1       1.136   0.324   0.670  0.00  0.00     0.002 A 
ENDROOT
BRANCH   1   7
ATOM      7  C1' N4B d   1      -0.103  -1.730   0.081  0.00  0.00     0.057 C 
BRANCH   7   8
ATOM      8  C2' N4B d   1      -1.552  -2.206   0.110  0.00  0.00     0.009 C 
BRANCH   8   9
ATOM      9  C3' N4B d   1      -1.756  -3.455  -0.730  0.00  0.00     0.004 C 
ATOM     10  C4' N4B d   1      -3.132  -3.539  -1.322  0.00  0.00     0.003 C 
ENDBRANCH   8   9
ENDBRANCH   7   8
ENDBRANCH   1   7
TORSDOF 3
ENDMDL
