MODEL 1
REMARK minimizedAffinity -5.92409086
REMARK minimizedRMSD -1
REMARK  3 active torsions:
REMARK  status: ('A' for Active; 'I' for Inactive)
REMARK    1  A    between atoms: C3'_2  and  C2'_3 
REMARK    2  A    between atoms: C2'_3  and  C1'_4 
REMARK    3  A    between atoms: C1'_4  and  C1_5 
ROOT
ATOM      1  C1  N4B d   1      -0.814  -2.488  -0.328  0.00  0.00    -0.075 A 
ATOM      2  C2  N4B d   1      -2.063  -2.396  -0.981  0.00  0.00     0.002 A 
ATOM      3  C3  N4B d   1      -2.196  -2.845  -2.272  0.00  0.00     0.002 A 
ATOM      4  C4  N4B d   1      -1.096  -3.370  -2.933  0.00  0.00    -0.004 A 
ATOM      5  C5  N4B d   1       0.100  -3.478  -2.286  0.00  0.00     0.002 A 
ATOM      6  C6  N4B d   1       0.248  -3.034  -0.988  0.00  0.00     0.002 A 
ENDROOT
BRANCH   1   7
ATOM      7  C1' N4B d   1      -0.598  -1.931   1.053  0.00  0.00     0.057 C 
BRANCH   7   8
ATOM      8  C2' N4B d   1      -1.055  -0.476   1.084  0.00  0.00     0.009 C 
BRANCH   8   9
ATOM      9  C3' N4B d   1      -0.146   0.422   0.263  0.00  0.00     0.004 C 
ATOM     10  C4' N4B d   1      -0.339   1.878   0.567  0.00  0.00     0.003 C 
ENDBRANCH   8   9
ENDBRANCH   7   8
ENDBRANCH   1   7
TORSDOF 3
ENDMDL
