MODEL 1
REMARK minimizedAffinity -1.72177529
REMARK minimizedRMSD -1
REMARK  3 active torsions:
REMARK  status: ('A' for Active; 'I' for Inactive)
REMARK    1  A    between atoms: C3'_2  and  C2'_3 
REMARK    2  A    between atoms: C2'_3  and  C1'_4 
REMARK    3  A    between atoms: C1'_4  and  C1_5 
ROOT
ATOM      1  C1  N4B d   1       2.148   0.771   0.093  0.00  0.00    -0.075 A 
ATOM      2  C2  N4B d   1       1.365   1.941  -0.023  0.00  0.00     0.002 A 
ATOM      3  C3  N4B d   1       0.004   1.876   0.149  0.00  0.00     0.002 A 
ATOM      4  C4  N4B d   1      -0.596   0.655   0.417  0.00  0.00    -0.004 A 
ATOM      5  C5  N4B d   1       0.170  -0.466   0.553  0.00  0.00     0.002 A 
ATOM      6  C6  N4B d   1       1.539  -0.415   0.386  0.00  0.00     0.002 A 
ENDROOT
BRANCH   1   7
ATOM      7  C1' N4B d   1       3.629   0.777  -0.172  0.00  0.00     0.057 C 
BRANCH   7   8
ATOM      8  C2' N4B d   1       3.923   1.701  -1.350  0.00  0.00     0.009 C 
BRANCH   8   9
ATOM      9  C3' N4B d   1       5.415   1.857  -1.590  0.00  0.00     0.004 C 
ATOM     10  C4' N4B d   1       5.998   3.041  -0.878  0.00  0.00     0.003 C 
ENDBRANCH   8   9
ENDBRANCH   7   8
ENDBRANCH   1   7
TORSDOF 3
ENDMDL
