MODEL 1
REMARK minimizedAffinity 11.780633
REMARK minimizedRMSD -1
REMARK  3 active torsions:
REMARK  status: ('A' for Active; 'I' for Inactive)
REMARK    1  A    between atoms: C3'_2  and  C2'_3 
REMARK    2  A    between atoms: C2'_3  and  C1'_4 
REMARK    3  A    between atoms: C1'_4  and  C1_5 
ROOT
ATOM      1  C1  N4B d   1       0.288   0.316   0.436  0.00  0.00    -0.075 A 
ATOM      2  C2  N4B d   1      -0.961   0.342   1.094  0.00  0.00     0.002 A 
ATOM      3  C3  N4B d   1      -1.843  -0.699   0.933  0.00  0.00     0.002 A 
ATOM      4  C4  N4B d   1      -1.507  -1.761   0.107  0.00  0.00    -0.004 A 
ATOM      5  C5  N4B d   1      -0.288  -1.790  -0.504  0.00  0.00     0.002 A 
ATOM      6  C6  N4B d   1       0.610  -0.754  -0.348  0.00  0.00     0.002 A 
ENDROOT
BRANCH   1   7
ATOM      7  C1' N4B d   1       1.250   1.470   0.513  0.00  0.00     0.057 C 
BRANCH   7   8
ATOM      8  C2' N4B d   1       2.589   1.047  -0.083  0.00  0.00     0.009 C 
BRANCH   8   9
ATOM      9  C3' N4B d   1       3.123   2.073  -1.068  0.00  0.00     0.004 C 
ATOM     10  C4' N4B d   1       4.616   2.198  -1.024  0.00  0.00     0.003 C 
ENDBRANCH   8   9
ENDBRANCH   7   8
ENDBRANCH   1   7
TORSDOF 3
ENDMDL
