MODEL 1
REMARK minimizedAffinity 0.325941503
REMARK minimizedRMSD -1
REMARK  3 active torsions:
REMARK  status: ('A' for Active; 'I' for Inactive)
REMARK    1  A    between atoms: C3'_2  and  C2'_3 
REMARK    2  A    between atoms: C2'_3  and  C1'_4 
REMARK    3  A    between atoms: C1'_4  and  C1_5 
ROOT
ATOM      1  C1  N4B d   1       4.592   2.844   1.039  0.00  0.00    -0.075 A 
ATOM      2  C2  N4B d   1       5.243   3.944   0.439  0.00  0.00     0.002 A 
ATOM      3  C3  N4B d   1       5.345   5.134   1.116  0.00  0.00     0.002 A 
ATOM      4  C4  N4B d   1       4.790   5.253   2.381  0.00  0.00    -0.004 A 
ATOM      5  C5  N4B d   1       4.185   4.178   2.964  0.00  0.00     0.002 A 
ATOM      6  C6  N4B d   1       4.078   2.975   2.296  0.00  0.00     0.002 A 
ENDROOT
BRANCH   1   7
ATOM      7  C1' N4B d   1       4.380   1.549   0.303  0.00  0.00     0.057 C 
BRANCH   7   8
ATOM      8  C2' N4B d   1       3.812   0.512   1.267  0.00  0.00     0.009 C 
BRANCH   8   9
ATOM      9  C3' N4B d   1       3.534  -0.813   0.579  0.00  0.00     0.004 C 
ATOM     10  C4' N4B d   1       2.084  -1.002   0.245  0.00  0.00     0.003 C 
ENDBRANCH   8   9
ENDBRANCH   7   8
ENDBRANCH   1   7
TORSDOF 3
ENDMDL
