MODEL 1
REMARK minimizedAffinity 6.80627251
REMARK minimizedRMSD -1
REMARK  3 active torsions:
REMARK  status: ('A' for Active; 'I' for Inactive)
REMARK    1  A    between atoms: C3'_2  and  C2'_3 
REMARK    2  A    between atoms: C2'_3  and  C1'_4 
REMARK    3  A    between atoms: C1'_4  and  C1_5 
ROOT
ATOM      1  C1  N4B d   1       0.442  -2.033   0.858  0.00  0.00    -0.075 A 
ATOM      2  C2  N4B d   1      -0.601  -2.799   0.291  0.00  0.00     0.002 A 
ATOM      3  C3  N4B d   1      -1.810  -2.211   0.012  0.00  0.00     0.002 A 
ATOM      4  C4  N4B d   1      -2.006  -0.871   0.308  0.00  0.00    -0.004 A 
ATOM      5  C5  N4B d   1      -0.985  -0.132   0.832  0.00  0.00     0.002 A 
ATOM      6  C6  N4B d   1       0.237  -0.708   1.113  0.00  0.00     0.002 A 
ENDROOT
BRANCH   1   7
ATOM      7  C1' N4B d   1       1.753  -2.652   1.260  0.00  0.00     0.057 C 
BRANCH   7   8
ATOM      8  C2' N4B d   1       2.894  -1.871   0.614  0.00  0.00     0.009 C 
BRANCH   8   9
ATOM      9  C3' N4B d   1       4.019  -2.783   0.155  0.00  0.00     0.004 C 
ATOM     10  C4' N4B d   1       3.533  -4.138  -0.265  0.00  0.00     0.003 C 
ENDBRANCH   8   9
ENDBRANCH   7   8
ENDBRANCH   1   7
TORSDOF 3
ENDMDL
