MODEL 1
REMARK minimizedAffinity 3.0070796
REMARK minimizedRMSD -1
REMARK  3 active torsions:
REMARK  status: ('A' for Active; 'I' for Inactive)
REMARK    1  A    between atoms: C3'_2  and  C2'_3 
REMARK    2  A    between atoms: C2'_3  and  C1'_4 
REMARK    3  A    between atoms: C1'_4  and  C1_5 
ROOT
ATOM      1  C1  N4B d   1       3.669   1.424   0.298  0.00  0.00    -0.075 A 
ATOM      2  C2  N4B d   1       3.797   0.041   0.552  0.00  0.00     0.002 A 
ATOM      3  C3  N4B d   1       4.394  -0.393   1.710  0.00  0.00     0.002 A 
ATOM      4  C4  N4B d   1       4.887   0.534   2.616  0.00  0.00    -0.004 A 
ATOM      5  C5  N4B d   1       4.737   1.869   2.376  0.00  0.00     0.002 A 
ATOM      6  C6  N4B d   1       4.134   2.319   1.218  0.00  0.00     0.002 A 
ENDROOT
BRANCH   1   7
ATOM      7  C1' N4B d   1       3.100   1.945  -0.993  0.00  0.00     0.057 C 
BRANCH   7   8
ATOM      8  C2' N4B d   1       4.219   2.054  -2.025  0.00  0.00     0.009 C 
BRANCH   8   9
ATOM      9  C3' N4B d   1       3.912   1.257  -3.281  0.00  0.00     0.004 C 
ATOM     10  C4' N4B d   1       2.510   0.726  -3.304  0.00  0.00     0.003 C 
ENDBRANCH   8   9
ENDBRANCH   7   8
ENDBRANCH   1   7
TORSDOF 3
ENDMDL
