MODEL 1
REMARK minimizedAffinity 9.65674686
REMARK minimizedRMSD -1
REMARK  3 active torsions:
REMARK  status: ('A' for Active; 'I' for Inactive)
REMARK    1  A    between atoms: C3'_2  and  C2'_3 
REMARK    2  A    between atoms: C2'_3  and  C1'_4 
REMARK    3  A    between atoms: C1'_4  and  C1_5 
ROOT
ATOM      1  C1  N4B d   1       1.442  -1.679   1.569  0.00  0.00    -0.075 A 
ATOM      2  C2  N4B d   1       2.195  -2.489   2.447  0.00  0.00     0.002 A 
ATOM      3  C3  N4B d   1       1.831  -2.595   3.767  0.00  0.00     0.002 A 
ATOM      4  C4  N4B d   1       0.733  -1.887   4.234  0.00  0.00    -0.004 A 
ATOM      5  C5  N4B d   1      -0.003  -1.126   3.374  0.00  0.00     0.002 A 
ATOM      6  C6  N4B d   1       0.349  -1.014   2.044  0.00  0.00     0.002 A 
ENDROOT
BRANCH   1   7
ATOM      7  C1' N4B d   1       1.852  -1.465   0.138  0.00  0.00     0.057 C 
BRANCH   7   8
ATOM      8  C2' N4B d   1       3.259  -0.877   0.102  0.00  0.00     0.009 C 
BRANCH   8   9
ATOM      9  C3' N4B d   1       3.295   0.546   0.632  0.00  0.00     0.004 C 
ATOM     10  C4' N4B d   1       3.677   1.547  -0.417  0.00  0.00     0.003 C 
ENDBRANCH   8   9
ENDBRANCH   7   8
ENDBRANCH   1   7
TORSDOF 3
ENDMDL
