MODEL 1
REMARK minimizedAffinity 1.2029357
REMARK minimizedRMSD -1
REMARK  3 active torsions:
REMARK  status: ('A' for Active; 'I' for Inactive)
REMARK    1  A    between atoms: C3'_2  and  C2'_3 
REMARK    2  A    between atoms: C2'_3  and  C1'_4 
REMARK    3  A    between atoms: C1'_4  and  C1_5 
ROOT
ATOM      1  C1  N4B d   1      -4.465  -2.086  -4.712  0.00  0.00    -0.075 A 
ATOM      2  C2  N4B d   1      -4.067  -3.263  -4.039  0.00  0.00     0.002 A 
ATOM      3  C3  N4B d   1      -4.648  -4.466  -4.358  0.00  0.00     0.002 A 
ATOM      4  C4  N4B d   1      -5.637  -4.514  -5.329  0.00  0.00    -0.004 A 
ATOM      5  C5  N4B d   1      -5.997  -3.377  -5.992  0.00  0.00     0.002 A 
ATOM      6  C6  N4B d   1      -5.419  -2.162  -5.685  0.00  0.00     0.002 A 
ENDROOT
BRANCH   1   7
ATOM      7  C1' N4B d   1      -3.920  -0.735  -4.338  0.00  0.00     0.057 C 
BRANCH   7   8
ATOM      8  C2' N4B d   1      -5.080   0.238  -4.151  0.00  0.00     0.009 C 
BRANCH   8   9
ATOM      9  C3' N4B d   1      -5.994  -0.179  -3.011  0.00  0.00     0.004 C 
ATOM     10  C4' N4B d   1      -5.849   0.695  -1.801  0.00  0.00     0.003 C 
ENDBRANCH   8   9
ENDBRANCH   7   8
ENDBRANCH   1   7
TORSDOF 3
ENDMDL
