MODEL 1
REMARK minimizedAffinity 13.1417322
REMARK minimizedRMSD -1
REMARK  3 active torsions:
REMARK  status: ('A' for Active; 'I' for Inactive)
REMARK    1  A    between atoms: C3'_2  and  C2'_3 
REMARK    2  A    between atoms: C2'_3  and  C1'_4 
REMARK    3  A    between atoms: C1'_4  and  C1_5 
ROOT
ATOM      1  C1  N4B d   1      -0.666  -1.477   0.907  0.00  0.00    -0.075 A 
ATOM      2  C2  N4B d   1      -0.888  -0.200   1.467  0.00  0.00     0.002 A 
ATOM      3  C3  N4B d   1      -1.983   0.536   1.086  0.00  0.00     0.002 A 
ATOM      4  C4  N4B d   1      -2.856   0.025   0.137  0.00  0.00    -0.004 A 
ATOM      5  C5  N4B d   1      -2.648  -1.220  -0.380  0.00  0.00     0.002 A 
ATOM      6  C6  N4B d   1      -1.554  -1.972  -0.003  0.00  0.00     0.002 A 
ENDROOT
BRANCH   1   7
ATOM      7  C1' N4B d   1       0.564  -2.282   1.229  0.00  0.00     0.057 C 
BRANCH   7   8
ATOM      8  C2' N4B d   1       1.442  -1.492   2.194  0.00  0.00     0.009 C 
BRANCH   8   9
ATOM      9  C3' N4B d   1       1.283  -1.969   3.627  0.00  0.00     0.004 C 
ATOM     10  C4' N4B d   1       1.586  -3.428   3.790  0.00  0.00     0.003 C 
ENDBRANCH   8   9
ENDBRANCH   7   8
ENDBRANCH   1   7
TORSDOF 3
ENDMDL
