MODEL 1
REMARK minimizedAffinity 1.71004331
REMARK minimizedRMSD -1
REMARK  3 active torsions:
REMARK  status: ('A' for Active; 'I' for Inactive)
REMARK    1  A    between atoms: C3'_2  and  C2'_3 
REMARK    2  A    between atoms: C2'_3  and  C1'_4 
REMARK    3  A    between atoms: C1'_4  and  C1_5 
ROOT
ATOM      1  C1  N4B d   1      -2.379   0.496   2.495  0.00  0.00    -0.075 A 
ATOM      2  C2  N4B d   1      -1.154  -0.046   2.942  0.00  0.00     0.002 A 
ATOM      3  C3  N4B d   1      -0.363  -0.759   2.075  0.00  0.00     0.002 A 
ATOM      4  C4  N4B d   1      -0.783  -0.958   0.768  0.00  0.00    -0.004 A 
ATOM      5  C5  N4B d   1      -1.956  -0.409   0.338  0.00  0.00     0.002 A 
ATOM      6  C6  N4B d   1      -2.759   0.313   1.197  0.00  0.00     0.002 A 
ENDROOT
BRANCH   1   7
ATOM      7  C1' N4B d   1      -3.319   1.210   3.429  0.00  0.00     0.057 C 
BRANCH   7   8
ATOM      8  C2' N4B d   1      -4.615   0.413   3.540  0.00  0.00     0.009 C 
BRANCH   8   9
ATOM      9  C3' N4B d   1      -5.219   0.502   4.931  0.00  0.00     0.004 C 
ATOM     10  C4' N4B d   1      -5.020  -0.749   5.733  0.00  0.00     0.003 C 
ENDBRANCH   8   9
ENDBRANCH   7   8
ENDBRANCH   1   7
TORSDOF 3
ENDMDL
