MODEL 1
REMARK minimizedAffinity -4.56144094
REMARK minimizedRMSD -1
REMARK  0 active torsions:
REMARK  status: ('A' for Active; 'I' for Inactive)
ROOT
ATOM      1  N1  IND d   1      -0.590  -0.094  -1.711  0.00  0.00    -0.196 N 
ATOM      2  C2  IND d   1       0.327  -1.108  -1.724  0.00  0.00     0.054 A 
ATOM      3  C3  IND d   1       0.742  -1.383  -0.467  0.00  0.00    -0.031 A 
ATOM      4  C4  IND d   1      -0.024  -0.362   1.769  0.00  0.00     0.051 A 
ATOM      5  C5  IND d   1      -0.817   0.623   2.288  0.00  0.00    -0.031 A 
ATOM      6  C6  IND d   1      -1.592   1.434   1.484  0.00  0.00     0.015 A 
ATOM      7  C7  IND d   1      -1.613   1.282   0.127  0.00  0.00    -0.016 A 
ATOM      8  C8  IND d   1      -0.803   0.287  -0.404  0.00  0.00    -0.047 A 
ATOM      9  C9  IND d   1       0.018  -0.511   0.403  0.00  0.00    -0.096 A 
ATOM     10  HN1 IND d   1      -0.969   0.248  -2.402  0.00  0.00     0.298 HD
ENDROOT
TORSDOF 0
ENDMDL
