MODEL 1
REMARK minimizedAffinity -3.16687226
REMARK minimizedRMSD -1
REMARK  0 active torsions:
REMARK  status: ('A' for Active; 'I' for Inactive)
ROOT
ATOM      1  N1  IND d   1      -1.250   1.534   2.571  0.00  0.00    -0.196 N 
ATOM      2  C2  IND d   1      -0.485   0.770   3.408  0.00  0.00     0.054 A 
ATOM      3  C3  IND d   1       0.223  -0.139   2.701  0.00  0.00    -0.031 A 
ATOM      4  C4  IND d   1       0.358  -0.484   0.154  0.00  0.00     0.051 A 
ATOM      5  C5  IND d   1      -0.188  -0.052  -1.022  0.00  0.00    -0.031 A 
ATOM      6  C6  IND d   1      -1.133   0.953  -1.062  0.00  0.00     0.015 A 
ATOM      7  C7  IND d   1      -1.561   1.574   0.078  0.00  0.00    -0.016 A 
ATOM      8  C8  IND d   1      -1.014   1.133   1.274  0.00  0.00    -0.047 A 
ATOM      9  C9  IND d   1      -0.086   0.084   1.324  0.00  0.00    -0.096 A 
ATOM     10  HN1 IND d   1      -1.788   2.159   2.813  0.00  0.00     0.298 HD
ENDROOT
TORSDOF 0
ENDMDL
