MODEL 1
REMARK minimizedAffinity -3.89359283
REMARK minimizedRMSD -1
REMARK  0 active torsions:
REMARK  status: ('A' for Active; 'I' for Inactive)
ROOT
ATOM      1  N1  IND d   1       0.166   0.454  -1.164  0.00  0.00    -0.196 N 
ATOM      2  C2  IND d   1       0.889  -0.706  -1.133  0.00  0.00     0.054 A 
ATOM      3  C3  IND d   1       0.833  -1.262   0.097  0.00  0.00    -0.031 A 
ATOM      4  C4  IND d   1      -0.468  -0.495   2.182  0.00  0.00     0.051 A 
ATOM      5  C5  IND d   1      -1.243   0.528   2.652  0.00  0.00    -0.031 A 
ATOM      6  C6  IND d   1      -1.597   1.599   1.857  0.00  0.00     0.015 A 
ATOM      7  C7  IND d   1      -1.197   1.681   0.553  0.00  0.00    -0.016 A 
ATOM      8  C8  IND d   1      -0.404   0.648   0.075  0.00  0.00    -0.047 A 
ATOM      9  C9  IND d   1      -0.006  -0.420   0.889  0.00  0.00    -0.096 A 
ATOM     10  HN1 IND d   1       0.082   0.975  -1.843  0.00  0.00     0.298 HD
ENDROOT
TORSDOF 0
ENDMDL
