MODEL 1
REMARK minimizedAffinity -3.43168712
REMARK minimizedRMSD -1
REMARK  0 active torsions:
REMARK  status: ('A' for Active; 'I' for Inactive)
ROOT
ATOM      1  N1  IND d   1      -0.325  -0.291  -1.298  0.00  0.00    -0.196 N 
ATOM      2  C2  IND d   1       0.597  -1.284  -1.121  0.00  0.00     0.054 A 
ATOM      3  C3  IND d   1       0.929  -1.391   0.185  0.00  0.00    -0.031 A 
ATOM      4  C4  IND d   1       0.006  -0.107   2.217  0.00  0.00     0.051 A 
ATOM      5  C5  IND d   1      -0.827   0.923   2.552  0.00  0.00    -0.031 A 
ATOM      6  C6  IND d   1      -1.552   1.614   1.603  0.00  0.00     0.015 A 
ATOM      7  C7  IND d   1      -1.479   1.291   0.277  0.00  0.00    -0.016 A 
ATOM      8  C8  IND d   1      -0.629   0.249  -0.068  0.00  0.00    -0.047 A 
ATOM      9  C9  IND d   1       0.141  -0.427   0.886  0.00  0.00    -0.096 A 
ATOM     10  HN1 IND d   1      -0.659  -0.045  -2.052  0.00  0.00     0.298 HD
ENDROOT
TORSDOF 0
ENDMDL
