MODEL 1
REMARK minimizedAffinity -3.29460049
REMARK minimizedRMSD -1
REMARK  0 active torsions:
REMARK  status: ('A' for Active; 'I' for Inactive)
ROOT
ATOM      1  N1  IND d   1      -0.834  -0.140   2.495  0.00  0.00    -0.196 N 
ATOM      2  C2  IND d   1       0.205  -0.957   2.147  0.00  0.00     0.054 A 
ATOM      3  C3  IND d   1       0.612  -0.687   0.886  0.00  0.00    -0.031 A 
ATOM      4  C4  IND d   1      -0.215   1.121  -0.749  0.00  0.00     0.051 A 
ATOM      5  C5  IND d   1      -1.172   2.086  -0.893  0.00  0.00    -0.031 A 
ATOM      6  C6  IND d   1      -2.082   2.366   0.105  0.00  0.00     0.015 A 
ATOM      7  C7  IND d   1      -2.062   1.696   1.296  0.00  0.00    -0.016 A 
ATOM      8  C8  IND d   1      -1.096   0.710   1.444  0.00  0.00    -0.047 A 
ATOM      9  C9  IND d   1      -0.197   0.393   0.417  0.00  0.00    -0.096 A 
ATOM     10  HN1 IND d   1      -1.254  -0.155   3.246  0.00  0.00     0.298 HD
ENDROOT
TORSDOF 0
ENDMDL
