MODEL 1
REMARK minimizedAffinity -1.97482264
REMARK minimizedRMSD -1
REMARK  0 active torsions:
REMARK  status: ('A' for Active; 'I' for Inactive)
ROOT
ATOM      1  N1  IND d   1       0.589  -0.079  -0.565  0.00  0.00    -0.196 N 
ATOM      2  C2  IND d   1       1.394  -0.724   0.331  0.00  0.00     0.054 A 
ATOM      3  C3  IND d   1       0.960  -0.509   1.593  0.00  0.00    -0.031 A 
ATOM      4  C4  IND d   1      -1.110   0.785   2.412  0.00  0.00     0.051 A 
ATOM      5  C5  IND d   1      -2.130   1.578   1.967  0.00  0.00    -0.031 A 
ATOM      6  C6  IND d   1      -2.302   1.862   0.627  0.00  0.00     0.015 A 
ATOM      7  C7  IND d   1      -1.462   1.352  -0.322  0.00  0.00    -0.016 A 
ATOM      8  C8  IND d   1      -0.420   0.553   0.127  0.00  0.00    -0.047 A 
ATOM      9  C9  IND d   1      -0.216   0.296   1.489  0.00  0.00    -0.096 A 
ATOM     10  HN1 IND d   1       0.695  -0.070  -1.419  0.00  0.00     0.298 HD
ENDROOT
TORSDOF 0
ENDMDL
