MODEL 1
REMARK minimizedAffinity -2.39577436
REMARK minimizedRMSD -1
REMARK  0 active torsions:
REMARK  status: ('A' for Active; 'I' for Inactive)
ROOT
ATOM      1  N1  IND d   1      -0.312   0.373  -1.382  0.00  0.00    -0.196 N 
ATOM      2  C2  IND d   1       0.770  -0.460  -1.440  0.00  0.00     0.054 A 
ATOM      3  C3  IND d   1       1.111  -0.875  -0.199  0.00  0.00    -0.031 A 
ATOM      4  C4  IND d   1      -0.028  -0.391   2.058  0.00  0.00     0.051 A 
ATOM      5  C5  IND d   1      -1.030   0.347   2.623  0.00  0.00    -0.031 A 
ATOM      6  C6  IND d   1      -1.863   1.146   1.866  0.00  0.00     0.015 A 
ATOM      7  C7  IND d   1      -1.730   1.228   0.508  0.00  0.00    -0.016 A 
ATOM      8  C8  IND d   1      -0.710   0.485  -0.068  0.00  0.00    -0.047 A 
ATOM      9  C9  IND d   1       0.165  -0.295   0.700  0.00  0.00    -0.096 A 
ATOM     10  HN1 IND d   1      -0.682   0.762  -2.053  0.00  0.00     0.298 HD
ENDROOT
TORSDOF 0
ENDMDL
