MODEL 1
REMARK minimizedAffinity -3.6100204
REMARK minimizedRMSD -1
REMARK  0 active torsions:
REMARK  status: ('A' for Active; 'I' for Inactive)
ROOT
ATOM      1  N1  IND d   1       0.766  -0.919   0.471  0.00  0.00    -0.196 N 
ATOM      2  C2  IND d   1       0.667  -0.710  -0.876  0.00  0.00     0.054 A 
ATOM      3  C3  IND d   1      -0.111   0.366  -1.130  0.00  0.00    -0.031 A 
ATOM      4  C4  IND d   1      -1.241   1.992   0.515  0.00  0.00     0.051 A 
ATOM      5  C5  IND d   1      -1.468   2.191   1.848  0.00  0.00    -0.031 A 
ATOM      6  C6  IND d   1      -0.949   1.348   2.810  0.00  0.00     0.015 A 
ATOM      7  C7  IND d   1      -0.171   0.277   2.473  0.00  0.00    -0.016 A 
ATOM      8  C8  IND d   1       0.055   0.067   1.120  0.00  0.00    -0.047 A 
ATOM      9  C9  IND d   1      -0.504   0.894   0.138  0.00  0.00    -0.096 A 
ATOM     10  HN1 IND d   1       1.198  -1.558   0.850  0.00  0.00     0.298 HD
ENDROOT
TORSDOF 0
ENDMDL
