MODEL 1
REMARK minimizedAffinity -3.56948113
REMARK minimizedRMSD -1
REMARK  0 active torsions:
REMARK  status: ('A' for Active; 'I' for Inactive)
ROOT
ATOM      1  N1  IND d   1      -1.343   1.148   2.666  0.00  0.00    -0.196 N 
ATOM      2  C2  IND d   1      -2.054   2.165   2.094  0.00  0.00     0.054 A 
ATOM      3  C3  IND d   1      -1.733   2.286   0.786  0.00  0.00    -0.031 A 
ATOM      4  C4  IND d   1      -0.141   0.856  -0.646  0.00  0.00     0.051 A 
ATOM      5  C5  IND d   1       0.762  -0.166  -0.558  0.00  0.00    -0.031 A 
ATOM      6  C6  IND d   1       1.013  -0.817   0.633  0.00  0.00     0.015 A 
ATOM      7  C7  IND d   1       0.359  -0.476   1.783  0.00  0.00    -0.016 A 
ATOM      8  C8  IND d   1      -0.555   0.565   1.699  0.00  0.00    -0.047 A 
ATOM      9  C9  IND d   1      -0.782   1.258   0.502  0.00  0.00    -0.096 A 
ATOM     10  HN1 IND d   1      -1.382   0.911   3.492  0.00  0.00     0.298 HD
ENDROOT
TORSDOF 0
ENDMDL
