MODEL 1
REMARK minimizedAffinity -1.51510119
REMARK minimizedRMSD -1
REMARK  0 active torsions:
REMARK  status: ('A' for Active; 'I' for Inactive)
ROOT
ATOM      1  N1  IND d   1      -0.743  -0.389   2.172  0.00  0.00    -0.196 N 
ATOM      2  C2  IND d   1      -1.470   0.694   2.581  0.00  0.00     0.054 A 
ATOM      3  C3  IND d   1      -1.273   1.737   1.743  0.00  0.00    -0.031 A 
ATOM      4  C4  IND d   1       0.120   1.858  -0.418  0.00  0.00     0.051 A 
ATOM      5  C5  IND d   1       0.992   1.131  -1.180  0.00  0.00    -0.031 A 
ATOM      6  C6  IND d   1       1.334  -0.167  -0.858  0.00  0.00     0.015 A 
ATOM      7  C7  IND d   1       0.807  -0.792   0.236  0.00  0.00    -0.016 A 
ATOM      8  C8  IND d   1      -0.073  -0.055   1.015  0.00  0.00    -0.047 A 
ATOM      9  C9  IND d   1      -0.391   1.276   0.718  0.00  0.00    -0.096 A 
ATOM     10  HN1 IND d   1      -0.710  -1.150   2.570  0.00  0.00     0.298 HD
ENDROOT
TORSDOF 0
ENDMDL
