MODEL 1
REMARK minimizedAffinity -2.78375363
REMARK minimizedRMSD -1
REMARK  0 active torsions:
REMARK  status: ('A' for Active; 'I' for Inactive)
ROOT
ATOM      1  N1  IND d   1       0.283   0.008  -1.291  0.00  0.00    -0.196 N 
ATOM      2  C2  IND d   1       1.034  -1.132  -1.223  0.00  0.00     0.054 A 
ATOM      3  C3  IND d   1       0.993  -1.649   0.026  0.00  0.00    -0.031 A 
ATOM      4  C4  IND d   1      -0.327  -0.845   2.085  0.00  0.00     0.051 A 
ATOM      5  C5  IND d   1      -1.127   0.173   2.522  0.00  0.00    -0.031 A 
ATOM      6  C6  IND d   1      -1.509   1.208   1.692  0.00  0.00     0.015 A 
ATOM      7  C7  IND d   1      -1.111   1.257   0.386  0.00  0.00    -0.016 A 
ATOM      8  C8  IND d   1      -0.292   0.228  -0.059  0.00  0.00    -0.047 A 
ATOM      9  C9  IND d   1       0.132  -0.802   0.790  0.00  0.00    -0.096 A 
ATOM     10  HN1 IND d   1       0.185   0.503  -1.987  0.00  0.00     0.298 HD
ENDROOT
TORSDOF 0
ENDMDL
