MODEL 1
REMARK minimizedAffinity -3.112463
REMARK minimizedRMSD -1
REMARK  0 active torsions:
REMARK  status: ('A' for Active; 'I' for Inactive)
ROOT
ATOM      1  N1  IND d   1       1.298  -0.600   0.649  0.00  0.00    -0.196 N 
ATOM      2  C2  IND d   1       1.047  -0.699  -0.691  0.00  0.00     0.054 A 
ATOM      3  C3  IND d   1      -0.176  -0.199  -0.979  0.00  0.00    -0.031 A 
ATOM      4  C4  IND d   1      -1.890   0.926   0.578  0.00  0.00     0.051 A 
ATOM      5  C5  IND d   1      -2.125   1.214   1.893  0.00  0.00    -0.031 A 
ATOM      6  C6  IND d   1      -1.210   0.908   2.880  0.00  0.00     0.015 A 
ATOM      7  C7  IND d   1      -0.018   0.311   2.586  0.00  0.00    -0.016 A 
ATOM      8  C8  IND d   1       0.221   0.011   1.253  0.00  0.00    -0.047 A 
ATOM      9  C9  IND d   1      -0.721   0.280   0.252  0.00  0.00    -0.096 A 
ATOM     10  HN1 IND d   1       2.009  -0.873   1.047  0.00  0.00     0.298 HD
ENDROOT
TORSDOF 0
ENDMDL
