MODEL 1
REMARK minimizedAffinity -3.23307204
REMARK minimizedRMSD -1
REMARK  0 active torsions:
REMARK  status: ('A' for Active; 'I' for Inactive)
ROOT
ATOM      1  N1  IND d   1       0.883   0.124  -1.196  0.00  0.00    -0.196 N 
ATOM      2  C2  IND d   1       0.496   0.575   0.035  0.00  0.00     0.054 A 
ATOM      3  C3  IND d   1       0.168  -0.465   0.834  0.00  0.00    -0.031 A 
ATOM      4  C4  IND d   1       0.290  -2.993   0.363  0.00  0.00     0.051 A 
ATOM      5  C5  IND d   1       0.550  -3.891  -0.634  0.00  0.00    -0.031 A 
ATOM      6  C6  IND d   1       0.945  -3.489  -1.893  0.00  0.00     0.015 A 
ATOM      7  C7  IND d   1       1.107  -2.168  -2.201  0.00  0.00    -0.016 A 
ATOM      8  C8  IND d   1       0.837  -1.252  -1.194  0.00  0.00    -0.047 A 
ATOM      9  C9  IND d   1       0.394  -1.653   0.074  0.00  0.00    -0.096 A 
ATOM     10  HN1 IND d   1       1.117   0.618  -1.860  0.00  0.00     0.298 HD
ENDROOT
TORSDOF 0
ENDMDL
