MODEL 1
REMARK minimizedAffinity -4.05262852
REMARK minimizedRMSD -1
REMARK  0 active torsions:
REMARK  status: ('A' for Active; 'I' for Inactive)
ROOT
ATOM      1  N1  IND d   1       0.841  -0.272   0.181  0.00  0.00    -0.196 N 
ATOM      2  C2  IND d   1       0.828   0.314  -1.054  0.00  0.00     0.054 A 
ATOM      3  C3  IND d   1      -0.228   1.150  -1.166  0.00  0.00    -0.031 A 
ATOM      4  C4  IND d   1      -2.004   1.787   0.585  0.00  0.00     0.051 A 
ATOM      5  C5  IND d   1      -2.429   1.484   1.848  0.00  0.00    -0.031 A 
ATOM      6  C6  IND d   1      -1.770   0.563   2.637  0.00  0.00     0.015 A 
ATOM      7  C7  IND d   1      -0.651  -0.083   2.195  0.00  0.00    -0.016 A 
ATOM      8  C8  IND d   1      -0.221   0.217   0.910  0.00  0.00    -0.047 A 
ATOM      9  C9  IND d   1      -0.910   1.119   0.089  0.00  0.00    -0.096 A 
ATOM     10  HN1 IND d   1       1.416  -0.849   0.457  0.00  0.00     0.298 HD
ENDROOT
TORSDOF 0
ENDMDL
