MODEL 1
REMARK minimizedAffinity 11.5148983
REMARK minimizedRMSD -1
REMARK  0 active torsions:
REMARK  status: ('A' for Active; 'I' for Inactive)
ROOT
ATOM      1  C2' OXE d   1       2.537  -5.321   2.860  0.00  0.00     0.078 C 
ATOM      2  C1' OXE d   1       1.244  -4.374   0.556  0.00  0.00     0.078 C 
ATOM      3  C1  OXE d   1       1.325  -3.452   1.746  0.00  0.00    -0.078 A 
ATOM      4  C2  OXE d   1       1.919  -3.940   2.885  0.00  0.00    -0.078 A 
ATOM      5  C3  OXE d   1       2.068  -3.112   3.994  0.00  0.00     0.003 A 
ATOM      6  C4  OXE d   1       1.484  -1.840   4.012  0.00  0.00    -0.002 A 
ATOM      7  C5  OXE d   1       0.841  -1.337   2.876  0.00  0.00    -0.002 A 
ATOM      8  C6  OXE d   1       0.790  -2.113   1.723  0.00  0.00     0.003 A 
ENDROOT
TORSDOF 0
ENDMDL
