MODEL 1
REMARK minimizedAffinity 3.99256659
REMARK minimizedRMSD -1
REMARK  0 active torsions:
REMARK  status: ('A' for Active; 'I' for Inactive)
ROOT
ATOM      1  C2' OXE d   1       5.996  -2.211  -5.203  0.00  0.00     0.078 C 
ATOM      2  C1' OXE d   1       3.605  -1.931  -3.759  0.00  0.00     0.078 C 
ATOM      3  C1  OXE d   1       4.095  -0.742  -4.548  0.00  0.00    -0.078 A 
ATOM      4  C2  OXE d   1       5.290  -0.873  -5.213  0.00  0.00    -0.078 A 
ATOM      5  C3  OXE d   1       5.759   0.175  -6.000  0.00  0.00     0.003 A 
ATOM      6  C4  OXE d   1       5.105   1.413  -5.996  0.00  0.00    -0.002 A 
ATOM      7  C5  OXE d   1       3.907   1.580  -5.293  0.00  0.00    -0.002 A 
ATOM      8  C6  OXE d   1       3.367   0.503  -4.600  0.00  0.00     0.003 A 
ENDROOT
TORSDOF 0
ENDMDL
