MODEL 1
REMARK minimizedAffinity 7.11522484
REMARK minimizedRMSD -1
REMARK  0 active torsions:
REMARK  status: ('A' for Active; 'I' for Inactive)
ROOT
ATOM      1  C2' OXE d   1       3.769  -0.792  -2.141  0.00  0.00     0.078 C 
ATOM      2  C1' OXE d   1       2.995   1.418  -3.689  0.00  0.00     0.078 C 
ATOM      3  C1  OXE d   1       4.041   0.493  -4.258  0.00  0.00    -0.078 A 
ATOM      4  C2  OXE d   1       4.448  -0.560  -3.474  0.00  0.00    -0.078 A 
ATOM      5  C3  OXE d   1       5.370  -1.476  -3.973  0.00  0.00     0.003 A 
ATOM      6  C4  OXE d   1       6.000  -1.248  -5.203  0.00  0.00    -0.002 A 
ATOM      7  C5  OXE d   1       5.629  -0.160  -6.000  0.00  0.00    -0.002 A 
ATOM      8  C6  OXE d   1       4.623   0.694  -5.562  0.00  0.00     0.003 A 
ENDROOT
TORSDOF 0
ENDMDL
