MODEL 1
REMARK minimizedAffinity 15.4367018
REMARK minimizedRMSD -1
REMARK  0 active torsions:
REMARK  status: ('A' for Active; 'I' for Inactive)
ROOT
ATOM      1  C2' OXE d   1      -3.719   2.238  -2.009  0.00  0.00     0.078 C 
ATOM      2  C1' OXE d   1      -2.206   2.099   0.352  0.00  0.00     0.078 C 
ATOM      3  C1  OXE d   1      -3.542   2.797   0.412  0.00  0.00    -0.078 A 
ATOM      4  C2  OXE d   1      -4.254   2.901  -0.758  0.00  0.00    -0.078 A 
ATOM      5  C3  OXE d   1      -5.517   3.487  -0.747  0.00  0.00     0.003 A 
ATOM      6  C4  OXE d   1      -6.000   4.108   0.411  0.00  0.00    -0.002 A 
ATOM      7  C5  OXE d   1      -5.272   4.048   1.605  0.00  0.00    -0.002 A 
ATOM      8  C6  OXE d   1      -4.064   3.361   1.632  0.00  0.00     0.003 A 
ENDROOT
TORSDOF 0
ENDMDL
