MODEL 1
REMARK minimizedAffinity 15.8183937
REMARK minimizedRMSD -1
REMARK  0 active torsions:
REMARK  status: ('A' for Active; 'I' for Inactive)
ROOT
ATOM      1  C2' OXE d   1       1.899   1.057   1.810  0.00  0.00     0.078 C 
ATOM      2  C1' OXE d   1       1.639  -0.758  -0.316  0.00  0.00     0.078 C 
ATOM      3  C1  OXE d   1       1.418  -1.277   1.083  0.00  0.00    -0.078 A 
ATOM      4  C2  OXE d   1       1.592  -0.392   2.120  0.00  0.00    -0.078 A 
ATOM      5  C3  OXE d   1       1.347  -0.805   3.427  0.00  0.00     0.003 A 
ATOM      6  C4  OXE d   1       1.074  -2.150   3.706  0.00  0.00    -0.002 A 
ATOM      7  C5  OXE d   1       0.931  -3.075   2.667  0.00  0.00    -0.002 A 
ATOM      8  C6  OXE d   1       1.057  -2.647   1.350  0.00  0.00     0.003 A 
ENDROOT
TORSDOF 0
ENDMDL
