MODEL 1
REMARK minimizedAffinity -0.268180907
REMARK minimizedRMSD -1
REMARK  0 active torsions:
REMARK  status: ('A' for Active; 'I' for Inactive)
ROOT
ATOM      1  C2' OXE d   1       3.689  -1.553  -3.734  0.00  0.00     0.078 C 
ATOM      2  C1' OXE d   1       6.000  -1.955  -5.276  0.00  0.00     0.078 C 
ATOM      3  C1  OXE d   1       5.391  -0.575  -5.268  0.00  0.00    -0.078 A 
ATOM      4  C2  OXE d   1       4.233  -0.399  -4.549  0.00  0.00    -0.078 A 
ATOM      5  C3  OXE d   1       3.660   0.866  -4.464  0.00  0.00     0.003 A 
ATOM      6  C4  OXE d   1       4.165   1.926  -5.228  0.00  0.00    -0.002 A 
ATOM      7  C5  OXE d   1       5.319   1.757  -6.000  0.00  0.00    -0.002 A 
ATOM      8  C6  OXE d   1       5.968   0.527  -5.997  0.00  0.00     0.003 A 
ENDROOT
TORSDOF 0
ENDMDL
