MODEL 1
REMARK minimizedAffinity 6.03719282
REMARK minimizedRMSD -1
REMARK  0 active torsions:
REMARK  status: ('A' for Active; 'I' for Inactive)
ROOT
ATOM      1  C2' OXE d   1       3.509  -0.890  -2.318  0.00  0.00     0.078 C 
ATOM      2  C1' OXE d   1       3.044   1.193  -4.141  0.00  0.00     0.078 C 
ATOM      3  C1  OXE d   1       4.077   0.157  -4.506  0.00  0.00    -0.078 A 
ATOM      4  C2  OXE d   1       4.332  -0.833  -3.587  0.00  0.00    -0.078 A 
ATOM      5  C3  OXE d   1       5.236  -1.845  -3.897  0.00  0.00     0.003 A 
ATOM      6  C4  OXE d   1       5.999  -1.779  -5.069  0.00  0.00    -0.002 A 
ATOM      7  C5  OXE d   1       5.784  -0.758  -6.000  0.00  0.00    -0.002 A 
ATOM      8  C6  OXE d   1       4.799   0.192  -5.754  0.00  0.00     0.003 A 
ENDROOT
TORSDOF 0
ENDMDL
