MODEL 1
REMARK minimizedAffinity 6.48711634
REMARK minimizedRMSD -1
REMARK  0 active torsions:
REMARK  status: ('A' for Active; 'I' for Inactive)
ROOT
ATOM      1  C2' OXE d   1      -3.423   2.536   0.357  0.00  0.00     0.078 C 
ATOM      2  C1' OXE d   1      -5.903   3.740  -0.172  0.00  0.00     0.078 C 
ATOM      3  C1  OXE d   1      -5.204   3.040  -1.310  0.00  0.00    -0.078 A 
ATOM      4  C2  OXE d   1      -3.970   2.494  -1.054  0.00  0.00    -0.078 A 
ATOM      5  C3  OXE d   1      -3.306   1.789  -2.055  0.00  0.00     0.003 A 
ATOM      6  C4  OXE d   1      -3.814   1.763  -3.359  0.00  0.00    -0.002 A 
ATOM      7  C5  OXE d   1      -5.051   2.347  -3.651  0.00  0.00    -0.002 A 
ATOM      8  C6  OXE d   1      -5.777   2.951  -2.631  0.00  0.00     0.003 A 
ENDROOT
TORSDOF 0
ENDMDL
