MODEL 1
REMARK minimizedAffinity 16.4501438
REMARK minimizedRMSD -1
REMARK  0 active torsions:
REMARK  status: ('A' for Active; 'I' for Inactive)
ROOT
ATOM      1  C2' OXE d   1      -3.097   1.902  -0.203  0.00  0.00     0.078 C 
ATOM      2  C1' OXE d   1      -2.390   0.996  -2.764  0.00  0.00     0.078 C 
ATOM      3  C1  OXE d   1      -3.656   1.805  -2.629  0.00  0.00    -0.078 A 
ATOM      4  C2  OXE d   1      -4.018   2.205  -1.365  0.00  0.00    -0.078 A 
ATOM      5  C3  OXE d   1      -5.147   3.000  -1.191  0.00  0.00     0.003 A 
ATOM      6  C4  OXE d   1      -6.000   3.266  -2.269  0.00  0.00    -0.002 A 
ATOM      7  C5  OXE d   1      -5.670   2.835  -3.558  0.00  0.00    -0.002 A 
ATOM      8  C6  OXE d   1      -4.482   2.141  -3.762  0.00  0.00     0.003 A 
ENDROOT
TORSDOF 0
ENDMDL
