MODEL 1
REMARK minimizedAffinity -4.92417812
REMARK minimizedRMSD -1
REMARK  1 active torsions:
REMARK  status: ('A' for Active; 'I' for Inactive)
REMARK    1  A    between atoms: C1_2  and  C2_3 
ROOT
ATOM      1  C2  UNL d   1      -1.266  -0.669   1.102  0.00  0.00    -0.073 A 
ATOM      2  C3  UNL d   1      -0.895  -2.007   0.931  0.00  0.00    -0.002 A 
ATOM      3  C4  UNL d   1      -0.262  -2.419  -0.242  0.00  0.00     0.004 A 
ATOM      4  C5  UNL d   1       0.012  -1.497  -1.253  0.00  0.00    -0.004 A 
ATOM      5  C6  UNL d   1      -0.341  -0.153  -1.096  0.00  0.00    -0.075 A 
ATOM      6  C7  UNL d   1      -0.055   0.850  -2.175  0.00  0.00     0.076 C 
ATOM      7  C8  UNL d   1      -0.979   0.252   0.084  0.00  0.00     0.001 A 
ENDROOT
BRANCH   1   8
ATOM      8  C1  UNL d   1      -1.944  -0.218   2.370  0.00  0.00     0.053 C 
ATOM      9  C   UNL d   1      -3.094   0.738   2.093  0.00  0.00     0.018 C 
ENDBRANCH   1   8
TORSDOF 1
ENDMDL
