MODEL 1
REMARK minimizedAffinity -3.45054817
REMARK minimizedRMSD -1
REMARK  1 active torsions:
REMARK  status: ('A' for Active; 'I' for Inactive)
REMARK    1  A    between atoms: C1_2  and  C2_3 
ROOT
ATOM      1  C2  UNL d   1       0.292   0.783  -0.251  0.00  0.00    -0.073 A 
ATOM      2  C3  UNL d   1       0.439   0.838  -1.641  0.00  0.00    -0.002 A 
ATOM      3  C4  UNL d   1       0.518  -0.338  -2.389  0.00  0.00     0.004 A 
ATOM      4  C5  UNL d   1       0.444  -1.579  -1.755  0.00  0.00    -0.004 A 
ATOM      5  C6  UNL d   1       0.285  -1.654  -0.368  0.00  0.00    -0.075 A 
ATOM      6  C7  UNL d   1       0.207  -2.981   0.329  0.00  0.00     0.076 C 
ATOM      7  C8  UNL d   1       0.209  -0.469   0.376  0.00  0.00     0.001 A 
ENDROOT
BRANCH   1   8
ATOM      8  C1  UNL d   1       0.199   2.050   0.560  0.00  0.00     0.053 C 
ATOM      9  C   UNL d   1       1.499   2.838   0.535  0.00  0.00     0.018 C 
ENDBRANCH   1   8
TORSDOF 1
ENDMDL
