MODEL 1
REMARK minimizedAffinity -2.15861344
REMARK minimizedRMSD -1
REMARK  1 active torsions:
REMARK  status: ('A' for Active; 'I' for Inactive)
REMARK    1  A    between atoms: C1_2  and  C2_3 
ROOT
ATOM      1  C2  UNL d   1       0.056  -0.278  -0.090  0.00  0.00    -0.073 A 
ATOM      2  C3  UNL d   1       1.202  -1.063  -0.264  0.00  0.00    -0.002 A 
ATOM      3  C4  UNL d   1       1.172  -2.428   0.025  0.00  0.00     0.004 A 
ATOM      4  C5  UNL d   1      -0.004  -3.023   0.482  0.00  0.00    -0.004 A 
ATOM      5  C6  UNL d   1      -1.162  -2.258   0.650  0.00  0.00    -0.075 A 
ATOM      6  C7  UNL d   1      -2.435  -2.882   1.143  0.00  0.00     0.076 C 
ATOM      7  C8  UNL d   1      -1.123  -0.887   0.361  0.00  0.00     0.001 A 
ENDROOT
BRANCH   1   8
ATOM      8  C1  UNL d   1       0.082   1.195  -0.406  0.00  0.00     0.053 C 
ATOM      9  C   UNL d   1       1.056   1.952   0.484  0.00  0.00     0.018 C 
ENDBRANCH   1   8
TORSDOF 1
ENDMDL
