MODEL 1
REMARK minimizedAffinity -3.70770407
REMARK minimizedRMSD -1
REMARK  1 active torsions:
REMARK  status: ('A' for Active; 'I' for Inactive)
REMARK    1  A    between atoms: C1_2  and  C2_3 
ROOT
ATOM      1  C2  UNL d   1      -0.015  -0.141   0.123  0.00  0.00    -0.073 A 
ATOM      2  C3  UNL d   1      -0.696  -0.096   1.345  0.00  0.00    -0.002 A 
ATOM      3  C4  UNL d   1      -1.068  -1.277   1.989  0.00  0.00     0.004 A 
ATOM      4  C5  UNL d   1      -0.757  -2.513   1.423  0.00  0.00    -0.004 A 
ATOM      5  C6  UNL d   1      -0.066  -2.579   0.209  0.00  0.00    -0.075 A 
ATOM      6  C7  UNL d   1       0.274  -3.901  -0.414  0.00  0.00     0.076 C 
ATOM      7  C8  UNL d   1       0.302  -1.389  -0.434  0.00  0.00     0.001 A 
ENDROOT
BRANCH   1   8
ATOM      8  C1  UNL d   1       0.395   1.131  -0.573  0.00  0.00     0.053 C 
ATOM      9  C   UNL d   1       1.169   2.061   0.348  0.00  0.00     0.018 C 
ENDBRANCH   1   8
TORSDOF 1
ENDMDL
