MODEL 1
REMARK minimizedAffinity -1.87486517
REMARK minimizedRMSD -1
REMARK  1 active torsions:
REMARK  status: ('A' for Active; 'I' for Inactive)
REMARK    1  A    between atoms: C1_2  and  C2_3 
ROOT
ATOM      1  C2  UNL d   1       0.413   0.789  -0.047  0.00  0.00    -0.073 A 
ATOM      2  C3  UNL d   1       0.740   0.822  -1.408  0.00  0.00    -0.002 A 
ATOM      3  C4  UNL d   1       0.600  -0.322  -2.194  0.00  0.00     0.004 A 
ATOM      4  C5  UNL d   1       0.127  -1.507  -1.631  0.00  0.00    -0.004 A 
ATOM      5  C6  UNL d   1      -0.215  -1.557  -0.276  0.00  0.00    -0.075 A 
ATOM      6  C7  UNL d   1      -0.723  -2.825   0.345  0.00  0.00     0.076 C 
ATOM      7  C8  UNL d   1      -0.070  -0.405   0.507  0.00  0.00     0.001 A 
ENDROOT
BRANCH   1   8
ATOM      8  C1  UNL d   1       0.556   2.024   0.804  0.00  0.00     0.053 C 
ATOM      9  C   UNL d   1       1.926   2.666   0.652  0.00  0.00     0.018 C 
ENDBRANCH   1   8
TORSDOF 1
ENDMDL
