MODEL 1
REMARK minimizedAffinity -5.23016834
REMARK minimizedRMSD -1
REMARK  1 active torsions:
REMARK  status: ('A' for Active; 'I' for Inactive)
REMARK    1  A    between atoms: C1_2  and  C2_3 
ROOT
ATOM      1  C2  UNL d   1      -0.308  -0.032  -0.242  0.00  0.00    -0.073 A 
ATOM      2  C3  UNL d   1      -1.049   0.399   0.865  0.00  0.00    -0.002 A 
ATOM      3  C4  UNL d   1      -1.340  -0.485   1.905  0.00  0.00     0.004 A 
ATOM      4  C5  UNL d   1      -0.888  -1.804   1.853  0.00  0.00    -0.004 A 
ATOM      5  C6  UNL d   1      -0.136  -2.249   0.761  0.00  0.00    -0.075 A 
ATOM      6  C7  UNL d   1       0.355  -3.665   0.689  0.00  0.00     0.076 C 
ATOM      7  C8  UNL d   1       0.149  -1.356  -0.281  0.00  0.00     0.001 A 
ENDROOT
BRANCH   1   8
ATOM      8  C1  UNL d   1       0.014   0.921  -1.364  0.00  0.00     0.053 C 
ATOM      9  C   UNL d   1       0.246   0.194  -2.680  0.00  0.00     0.018 C 
ENDBRANCH   1   8
TORSDOF 1
ENDMDL
