MODEL 1
REMARK minimizedAffinity -5.59968424
REMARK minimizedRMSD -1
REMARK  1 active torsions:
REMARK  status: ('A' for Active; 'I' for Inactive)
REMARK    1  A    between atoms: C1_2  and  C2_3 
ROOT
ATOM      1  C2  UNL d   1      -0.473  -0.964   0.594  0.00  0.00    -0.073 A 
ATOM      2  C3  UNL d   1      -0.404  -1.995   1.538  0.00  0.00    -0.002 A 
ATOM      3  C4  UNL d   1       0.030  -3.267   1.162  0.00  0.00     0.004 A 
ATOM      4  C5  UNL d   1       0.406  -3.519  -0.157  0.00  0.00    -0.004 A 
ATOM      5  C6  UNL d   1       0.356  -2.499  -1.112  0.00  0.00    -0.075 A 
ATOM      6  C7  UNL d   1       0.756  -2.755  -2.536  0.00  0.00     0.076 C 
ATOM      7  C8  UNL d   1      -0.083  -1.225  -0.728  0.00  0.00     0.001 A 
ENDROOT
BRANCH   1   8
ATOM      8  C1  UNL d   1      -0.935   0.413   0.996  0.00  0.00     0.053 C 
ATOM      9  C   UNL d   1       0.026   1.495   0.530  0.00  0.00     0.018 C 
ENDBRANCH   1   8
TORSDOF 1
ENDMDL
