MODEL 1
REMARK minimizedAffinity -3.84132266
REMARK minimizedRMSD -1
REMARK  1 active torsions:
REMARK  status: ('A' for Active; 'I' for Inactive)
REMARK    1  A    between atoms: C1_2  and  C2_3 
ROOT
ATOM      1  C2  UNL d   1      -0.252  -0.899  -1.196  0.00  0.00    -0.073 A 
ATOM      2  C3  UNL d   1      -0.964  -1.650  -0.254  0.00  0.00    -0.002 A 
ATOM      3  C4  UNL d   1      -1.301  -1.095   0.981  0.00  0.00     0.004 A 
ATOM      4  C5  UNL d   1      -0.937   0.217   1.284  0.00  0.00    -0.004 A 
ATOM      5  C6  UNL d   1      -0.236   0.988   0.351  0.00  0.00    -0.075 A 
ATOM      6  C7  UNL d   1       0.165   2.400   0.662  0.00  0.00     0.076 C 
ATOM      7  C8  UNL d   1       0.102   0.422  -0.886  0.00  0.00     0.001 A 
ENDROOT
BRANCH   1   8
ATOM      8  C1  UNL d   1       0.109  -1.492  -2.534  0.00  0.00     0.053 C 
ATOM      9  C   UNL d   1      -0.363  -2.931  -2.665  0.00  0.00     0.018 C 
ENDBRANCH   1   8
TORSDOF 1
ENDMDL
