MODEL 1
REMARK minimizedAffinity -4.13455963
REMARK minimizedRMSD -1
REMARK  1 active torsions:
REMARK  status: ('A' for Active; 'I' for Inactive)
REMARK    1  A    between atoms: C1_2  and  C2_3 
ROOT
ATOM      1  C2  UNL d   1       0.261   0.813  -0.282  0.00  0.00    -0.073 A 
ATOM      2  C3  UNL d   1       0.025   0.828  -1.662  0.00  0.00    -0.002 A 
ATOM      3  C4  UNL d   1      -0.125  -0.368  -2.365  0.00  0.00     0.004 A 
ATOM      4  C5  UNL d   1      -0.048  -1.589  -1.696  0.00  0.00    -0.004 A 
ATOM      5  C6  UNL d   1       0.176  -1.625  -0.316  0.00  0.00    -0.075 A 
ATOM      6  C7  UNL d   1       0.264  -2.931   0.418  0.00  0.00     0.076 C 
ATOM      7  C8  UNL d   1       0.328  -0.420   0.383  0.00  0.00     0.001 A 
ENDROOT
BRANCH   1   8
ATOM      8  C1  UNL d   1       0.417   2.102   0.482  0.00  0.00     0.053 C 
ATOM      9  C   UNL d   1       1.751   2.774   0.199  0.00  0.00     0.018 C 
ENDBRANCH   1   8
TORSDOF 1
ENDMDL
