MODEL 1
REMARK minimizedAffinity -4.05573082
REMARK minimizedRMSD -1
REMARK  0 active torsions:
REMARK  status: ('A' for Active; 'I' for Inactive)
ROOT
ATOM      1  C   UNL d   1      -1.681  -1.959   2.093  0.00  0.00     0.077 C 
ATOM      2  C1  UNL d   1      -0.406  -1.524   1.434  0.00  0.00    -0.074 A 
ATOM      3  C2  UNL d   1       0.774  -2.256   1.597  0.00  0.00    -0.005 A 
ATOM      4  C3  UNL d   1       1.950  -1.845   0.970  0.00  0.00     0.006 A 
ATOM      5  C4  UNL d   1       1.957  -0.698   0.175  0.00  0.00    -0.005 A 
ATOM      6  C5  UNL d   1       0.787   0.046  -0.001  0.00  0.00    -0.074 A 
ATOM      7  C6  UNL d   1       0.776   1.275  -0.861  0.00  0.00     0.077 C 
ATOM      8  C7  UNL d   1      -0.392  -0.378   0.627  0.00  0.00    -0.001 A 
ENDROOT
TORSDOF 0
ENDMDL
