MODEL 1
REMARK minimizedAffinity -5.07840633
REMARK minimizedRMSD -1
REMARK  0 active torsions:
REMARK  status: ('A' for Active; 'I' for Inactive)
ROOT
ATOM      1  C   UNL d   1      -3.331  -0.061   1.631  0.00  0.00     0.077 C 
ATOM      2  C1  UNL d   1      -2.067  -0.868   1.658  0.00  0.00    -0.074 A 
ATOM      3  C2  UNL d   1      -1.860  -1.847   2.635  0.00  0.00    -0.005 A 
ATOM      4  C3  UNL d   1      -0.684  -2.597   2.641  0.00  0.00     0.006 A 
ATOM      5  C4  UNL d   1       0.296  -2.375   1.672  0.00  0.00    -0.005 A 
ATOM      6  C5  UNL d   1       0.106  -1.400   0.687  0.00  0.00    -0.074 A 
ATOM      7  C6  UNL d   1       1.145  -1.156  -0.367  0.00  0.00     0.077 C 
ATOM      8  C7  UNL d   1      -1.082  -0.656   0.683  0.00  0.00    -0.001 A 
ENDROOT
TORSDOF 0
ENDMDL
