MODEL 1
REMARK minimizedAffinity -5.35149002
REMARK minimizedRMSD -1
REMARK  0 active torsions:
REMARK  status: ('A' for Active; 'I' for Inactive)
ROOT
ATOM      1  C   UNL d   1       0.824   1.979  -0.042  0.00  0.00     0.077 C 
ATOM      2  C1  UNL d   1       0.447   0.581   0.350  0.00  0.00    -0.074 A 
ATOM      3  C2  UNL d   1      -0.891   0.230   0.560  0.00  0.00    -0.005 A 
ATOM      4  C3  UNL d   1      -1.227  -1.076   0.915  0.00  0.00     0.006 A 
ATOM      5  C4  UNL d   1      -0.231  -2.043   1.063  0.00  0.00    -0.005 A 
ATOM      6  C5  UNL d   1       1.111  -1.710   0.856  0.00  0.00    -0.074 A 
ATOM      7  C6  UNL d   1       2.193  -2.739   1.001  0.00  0.00     0.077 C 
ATOM      8  C7  UNL d   1       1.441  -0.397   0.493  0.00  0.00    -0.001 A 
ENDROOT
TORSDOF 0
ENDMDL
