MODEL 1
REMARK minimizedAffinity -4.21901226
REMARK minimizedRMSD -1
REMARK  0 active torsions:
REMARK  status: ('A' for Active; 'I' for Inactive)
ROOT
ATOM      1  C   UNL d   1       1.352  -1.752   0.006  0.00  0.00     0.077 C 
ATOM      2  C1  UNL d   1       0.060  -1.378   0.669  0.00  0.00    -0.074 A 
ATOM      3  C2  UNL d   1      -0.721  -2.340   1.317  0.00  0.00    -0.005 A 
ATOM      4  C3  UNL d   1      -1.915  -1.975   1.938  0.00  0.00     0.006 A 
ATOM      5  C4  UNL d   1      -2.340  -0.646   1.917  0.00  0.00    -0.005 A 
ATOM      6  C5  UNL d   1      -1.572   0.331   1.275  0.00  0.00    -0.074 A 
ATOM      7  C6  UNL d   1      -2.009   1.765   1.251  0.00  0.00     0.077 C 
ATOM      8  C7  UNL d   1      -0.370  -0.043   0.659  0.00  0.00    -0.001 A 
ENDROOT
TORSDOF 0
ENDMDL
