MODEL 1
REMARK minimizedAffinity -2.07578397
REMARK minimizedRMSD -1
REMARK  0 active torsions:
REMARK  status: ('A' for Active; 'I' for Inactive)
ROOT
ATOM      1  C   UNL d   1       1.148  -2.837   3.021  0.00  0.00     0.077 C 
ATOM      2  C1  UNL d   1       0.411  -2.104   1.941  0.00  0.00    -0.074 A 
ATOM      3  C2  UNL d   1      -0.953  -2.325   1.723  0.00  0.00    -0.005 A 
ATOM      4  C3  UNL d   1      -1.627  -1.628   0.720  0.00  0.00     0.006 A 
ATOM      5  C4  UNL d   1      -0.946  -0.705  -0.074  0.00  0.00    -0.005 A 
ATOM      6  C5  UNL d   1       0.418  -0.470   0.129  0.00  0.00    -0.074 A 
ATOM      7  C6  UNL d   1       1.163   0.525  -0.709  0.00  0.00     0.077 C 
ATOM      8  C7  UNL d   1       1.087  -1.169   1.144  0.00  0.00    -0.001 A 
ENDROOT
TORSDOF 0
ENDMDL
