MODEL 1
REMARK minimizedAffinity -3.32814193
REMARK minimizedRMSD -1
REMARK  0 active torsions:
REMARK  status: ('A' for Active; 'I' for Inactive)
ROOT
ATOM      1  C   UNL d   1      -2.212  -2.566   1.101  0.00  0.00     0.077 C 
ATOM      2  C1  UNL d   1      -1.895  -1.153   0.710  0.00  0.00    -0.074 A 
ATOM      3  C2  UNL d   1      -2.763  -0.106   1.033  0.00  0.00    -0.005 A 
ATOM      4  C3  UNL d   1      -2.451   1.205   0.671  0.00  0.00     0.006 A 
ATOM      5  C4  UNL d   1      -1.268   1.480  -0.017  0.00  0.00    -0.005 A 
ATOM      6  C5  UNL d   1      -0.387   0.446  -0.348  0.00  0.00    -0.074 A 
ATOM      7  C6  UNL d   1       0.892   0.726  -1.079  0.00  0.00     0.077 C 
ATOM      8  C7  UNL d   1      -0.706  -0.867   0.025  0.00  0.00    -0.001 A 
ENDROOT
TORSDOF 0
ENDMDL
