MODEL 1
REMARK minimizedAffinity 2.15497947
REMARK minimizedRMSD -1
REMARK  0 active torsions:
REMARK  status: ('A' for Active; 'I' for Inactive)
ROOT
ATOM      1  C   UNL d   1      -0.014   0.301  -3.103  0.00  0.00     0.077 C 
ATOM      2  C1  UNL d   1      -0.172   0.429  -1.617  0.00  0.00    -0.074 A 
ATOM      3  C2  UNL d   1       0.156   1.620  -0.959  0.00  0.00    -0.005 A 
ATOM      4  C3  UNL d   1      -0.005   1.727   0.422  0.00  0.00     0.006 A 
ATOM      5  C4  UNL d   1      -0.495   0.648   1.159  0.00  0.00    -0.005 A 
ATOM      6  C5  UNL d   1      -0.828  -0.550   0.518  0.00  0.00    -0.074 A 
ATOM      7  C6  UNL d   1      -1.364  -1.717   1.294  0.00  0.00     0.077 C 
ATOM      8  C7  UNL d   1      -0.670  -0.648  -0.871  0.00  0.00    -0.001 A 
ENDROOT
TORSDOF 0
ENDMDL
