MODEL 1
REMARK minimizedAffinity -2.0922029
REMARK minimizedRMSD -1
REMARK  0 active torsions:
REMARK  status: ('A' for Active; 'I' for Inactive)
ROOT
ATOM      1  C   UNL d   1      -1.937  -0.384   2.815  0.00  0.00     0.077 C 
ATOM      2  C1  UNL d   1      -0.936  -0.957   1.856  0.00  0.00    -0.074 A 
ATOM      3  C2  UNL d   1      -0.207  -2.106   2.179  0.00  0.00    -0.005 A 
ATOM      4  C3  UNL d   1       0.713  -2.633   1.273  0.00  0.00     0.006 A 
ATOM      5  C4  UNL d   1       0.913  -2.017   0.036  0.00  0.00    -0.005 A 
ATOM      6  C5  UNL d   1       0.193  -0.868  -0.305  0.00  0.00    -0.074 A 
ATOM      7  C6  UNL d   1       0.388  -0.200  -1.633  0.00  0.00     0.077 C 
ATOM      8  C7  UNL d   1      -0.735  -0.349   0.609  0.00  0.00    -0.001 A 
ENDROOT
TORSDOF 0
ENDMDL
