MODEL 1
REMARK minimizedAffinity -4.30044794
REMARK minimizedRMSD -1
REMARK  0 active torsions:
REMARK  status: ('A' for Active; 'I' for Inactive)
ROOT
ATOM      1  C   UNL d   1       1.788   1.329  -1.814  0.00  0.00     0.077 C 
ATOM      2  C1  UNL d   1       0.876   0.709  -0.797  0.00  0.00    -0.074 A 
ATOM      3  C2  UNL d   1      -0.098   1.471  -0.144  0.00  0.00    -0.005 A 
ATOM      4  C3  UNL d   1      -0.945   0.878   0.791  0.00  0.00     0.006 A 
ATOM      5  C4  UNL d   1      -0.827  -0.481   1.084  0.00  0.00    -0.005 A 
ATOM      6  C5  UNL d   1       0.140  -1.260   0.440  0.00  0.00    -0.074 A 
ATOM      7  C6  UNL d   1       0.274  -2.724   0.735  0.00  0.00     0.077 C 
ATOM      8  C7  UNL d   1       0.983  -0.658  -0.504  0.00  0.00    -0.001 A 
ENDROOT
TORSDOF 0
ENDMDL
