MODEL 1
REMARK minimizedAffinity -6.1593461
REMARK minimizedRMSD -1
REMARK  0 active torsions:
REMARK  status: ('A' for Active; 'I' for Inactive)
ROOT
ATOM      1  C   UNL d   1       0.969   1.022  -1.291  0.00  0.00     0.077 C 
ATOM      2  C1  UNL d   1       0.224   0.115  -0.357  0.00  0.00    -0.074 A 
ATOM      3  C2  UNL d   1       0.685  -1.179  -0.091  0.00  0.00    -0.005 A 
ATOM      4  C3  UNL d   1      -0.013  -2.007   0.787  0.00  0.00     0.006 A 
ATOM      5  C4  UNL d   1      -1.178  -1.552   1.407  0.00  0.00    -0.005 A 
ATOM      6  C5  UNL d   1      -1.654  -0.262   1.153  0.00  0.00    -0.074 A 
ATOM      7  C6  UNL d   1      -2.898   0.246   1.818  0.00  0.00     0.077 C 
ATOM      8  C7  UNL d   1      -0.943   0.567   0.275  0.00  0.00    -0.001 A 
ENDROOT
TORSDOF 0
ENDMDL
