MODEL 1
REMARK minimizedAffinity -3.41173911
REMARK minimizedRMSD -1
REMARK  0 active torsions:
REMARK  status: ('A' for Active; 'I' for Inactive)
ROOT
ATOM      1  C   UNL d   1       0.479  -3.279   1.582  0.00  0.00     0.077 C 
ATOM      2  C1  UNL d   1      -0.326  -2.138   1.033  0.00  0.00    -0.074 A 
ATOM      3  C2  UNL d   1      -1.721  -2.133   1.125  0.00  0.00    -0.005 A 
ATOM      4  C3  UNL d   1      -2.456  -1.061   0.618  0.00  0.00     0.006 A 
ATOM      5  C4  UNL d   1      -1.803   0.015   0.016  0.00  0.00    -0.005 A 
ATOM      6  C5  UNL d   1      -0.408   0.028  -0.084  0.00  0.00    -0.074 A 
ATOM      7  C6  UNL d   1       0.309   1.182  -0.719  0.00  0.00     0.077 C 
ATOM      8  C7  UNL d   1       0.323  -1.049   0.434  0.00  0.00    -0.001 A 
ENDROOT
TORSDOF 0
ENDMDL
