MODEL 1
REMARK minimizedAffinity -4.80545473
REMARK minimizedRMSD -1
REMARK  0 active torsions:
REMARK  status: ('A' for Active; 'I' for Inactive)
ROOT
ATOM      1  C   UNL d   1      -2.580  -0.297   2.558  0.00  0.00     0.077 C 
ATOM      2  C1  UNL d   1      -1.435  -0.711   1.681  0.00  0.00    -0.074 A 
ATOM      3  C2  UNL d   1      -0.932  -2.015   1.725  0.00  0.00    -0.005 A 
ATOM      4  C3  UNL d   1       0.127  -2.389   0.897  0.00  0.00     0.006 A 
ATOM      5  C4  UNL d   1       0.691  -1.463   0.018  0.00  0.00    -0.005 A 
ATOM      6  C5  UNL d   1       0.200  -0.155  -0.041  0.00  0.00    -0.074 A 
ATOM      7  C6  UNL d   1       0.789   0.849  -0.987  0.00  0.00     0.077 C 
ATOM      8  C7  UNL d   1      -0.868   0.210   0.790  0.00  0.00    -0.001 A 
ENDROOT
TORSDOF 0
ENDMDL
