MODEL 1
REMARK minimizedAffinity -4.91088247
REMARK minimizedRMSD -1
REMARK  0 active torsions:
REMARK  status: ('A' for Active; 'I' for Inactive)
ROOT
ATOM      1  C   UNL d   1       2.829  -1.495   0.293  0.00  0.00     0.077 C 
ATOM      2  C1  UNL d   1       1.374  -1.130   0.283  0.00  0.00    -0.074 A 
ATOM      3  C2  UNL d   1       0.961   0.170  -0.025  0.00  0.00    -0.005 A 
ATOM      4  C3  UNL d   1      -0.396   0.492  -0.040  0.00  0.00     0.006 A 
ATOM      5  C4  UNL d   1      -1.352  -0.480   0.253  0.00  0.00    -0.005 A 
ATOM      6  C5  UNL d   1      -0.958  -1.786   0.563  0.00  0.00    -0.074 A 
ATOM      7  C6  UNL d   1      -1.974  -2.846   0.871  0.00  0.00     0.077 C 
ATOM      8  C7  UNL d   1       0.407  -2.104   0.569  0.00  0.00    -0.001 A 
ENDROOT
TORSDOF 0
ENDMDL
