MODEL 1
REMARK minimizedAffinity -4.11648035
REMARK minimizedRMSD -1
REMARK  0 active torsions:
REMARK  status: ('A' for Active; 'I' for Inactive)
ROOT
ATOM      1  C   UNL d   1       1.076  -3.231   0.886  0.00  0.00     0.077 C 
ATOM      2  C1  UNL d   1       0.052  -2.135   0.851  0.00  0.00    -0.074 A 
ATOM      3  C2  UNL d   1      -1.302  -2.410   1.068  0.00  0.00    -0.005 A 
ATOM      4  C3  UNL d   1      -2.241  -1.379   1.042  0.00  0.00     0.006 A 
ATOM      5  C4  UNL d   1      -1.836  -0.065   0.800  0.00  0.00    -0.005 A 
ATOM      6  C5  UNL d   1      -0.486   0.228   0.583  0.00  0.00    -0.074 A 
ATOM      7  C6  UNL d   1      -0.033   1.636   0.331  0.00  0.00     0.077 C 
ATOM      8  C7  UNL d   1       0.452  -0.812   0.617  0.00  0.00    -0.001 A 
ENDROOT
TORSDOF 0
ENDMDL
