MODEL 1
REMARK minimizedAffinity -0.841939449
REMARK minimizedRMSD -1
REMARK  3 active torsions:
REMARK  status: ('A' for Active; 'I' for Inactive)
REMARK    1  A    between atoms: C3'_2  and  C2'_3 
REMARK    2  A    between atoms: C2'_3  and  C1'_4 
REMARK    3  A    between atoms: C1'_4  and  C1_5 
ROOT
ATOM      1  C1  N4B d   1       0.762   1.754  -1.198  0.00  0.00    -0.075 A 
ATOM      2  C2  N4B d   1       2.062   1.765  -1.749  0.00  0.00     0.002 A 
ATOM      3  C3  N4B d   1       2.259   2.204  -3.035  0.00  0.00     0.002 A 
ATOM      4  C4  N4B d   1       1.173   2.616  -3.793  0.00  0.00    -0.004 A 
ATOM      5  C5  N4B d   1      -0.076   2.626  -3.246  0.00  0.00     0.002 A 
ATOM      6  C6  N4B d   1      -0.288   2.191  -1.953  0.00  0.00     0.002 A 
ENDROOT
BRANCH   1   7
ATOM      7  C1' N4B d   1       0.485   1.202   0.174  0.00  0.00     0.057 C 
BRANCH   7   8
ATOM      8  C2' N4B d   1       0.020  -0.245   0.047  0.00  0.00     0.009 C 
BRANCH   8   9
ATOM      9  C3' N4B d   1       0.862  -1.188   0.889  0.00  0.00     0.004 C 
ATOM     10  C4' N4B d   1       0.050  -2.268   1.540  0.00  0.00     0.003 C 
ENDBRANCH   8   9
ENDBRANCH   7   8
ENDBRANCH   1   7
TORSDOF 3
ENDMDL
