MODEL 1
REMARK minimizedAffinity -5.64406633
REMARK minimizedRMSD -1
REMARK  3 active torsions:
REMARK  status: ('A' for Active; 'I' for Inactive)
REMARK    1  A    between atoms: C3'_2  and  C2'_3 
REMARK    2  A    between atoms: C2'_3  and  C1'_4 
REMARK    3  A    between atoms: C1'_4  and  C1_5 
ROOT
ATOM      1  C1  N4B d   1      -0.413  -0.294   0.385  0.00  0.00    -0.075 A 
ATOM      2  C2  N4B d   1      -1.761  -0.630   0.130  0.00  0.00     0.002 A 
ATOM      3  C3  N4B d   1      -2.269  -1.822   0.585  0.00  0.00     0.002 A 
ATOM      4  C4  N4B d   1      -1.448  -2.698   1.278  0.00  0.00    -0.004 A 
ATOM      5  C5  N4B d   1      -0.154  -2.354   1.543  0.00  0.00     0.002 A 
ATOM      6  C6  N4B d   1       0.369  -1.158   1.095  0.00  0.00     0.002 A 
ENDROOT
BRANCH   1   7
ATOM      7  C1' N4B d   1       0.211   0.959  -0.166  0.00  0.00     0.057 C 
BRANCH   7   8
ATOM      8  C2' N4B d   1      -0.106   1.063  -1.655  0.00  0.00     0.009 C 
BRANCH   8   9
ATOM      9  C3' N4B d   1       1.124   1.410  -2.475  0.00  0.00     0.004 C 
ATOM     10  C4' N4B d   1       0.787   1.867  -3.863  0.00  0.00     0.003 C 
ENDBRANCH   8   9
ENDBRANCH   7   8
ENDBRANCH   1   7
TORSDOF 3
ENDMDL
