MODEL 1
REMARK minimizedAffinity -1.60363126
REMARK minimizedRMSD -1
REMARK  3 active torsions:
REMARK  status: ('A' for Active; 'I' for Inactive)
REMARK    1  A    between atoms: C3'_2  and  C2'_3 
REMARK    2  A    between atoms: C2'_3  and  C1'_4 
REMARK    3  A    between atoms: C1'_4  and  C1_5 
ROOT
ATOM      1  C1  N4B d   1       0.158  -0.587   0.343  0.00  0.00    -0.075 A 
ATOM      2  C2  N4B d   1      -1.015  -0.632  -0.441  0.00  0.00     0.002 A 
ATOM      3  C3  N4B d   1      -2.072  -1.417  -0.050  0.00  0.00     0.002 A 
ATOM      4  C4  N4B d   1      -1.971  -2.178   1.105  0.00  0.00    -0.004 A 
ATOM      5  C5  N4B d   1      -0.843  -2.110   1.869  0.00  0.00     0.002 A 
ATOM      6  C6  N4B d   1       0.225  -1.321   1.491  0.00  0.00     0.002 A 
ENDROOT
BRANCH   1   7
ATOM      7  C1' N4B d   1       1.372   0.191  -0.088  0.00  0.00     0.057 C 
BRANCH   7   8
ATOM      8  C2' N4B d   1       1.331   0.385  -1.601  0.00  0.00     0.009 C 
BRANCH   8   9
ATOM      9  C3' N4B d   1       2.231   1.522  -2.053  0.00  0.00     0.004 C 
ATOM     10  C4' N4B d   1       2.022   1.891  -3.491  0.00  0.00     0.003 C 
ENDBRANCH   8   9
ENDBRANCH   7   8
ENDBRANCH   1   7
TORSDOF 3
ENDMDL
