MODEL 1
REMARK minimizedAffinity -3.14526749
REMARK minimizedRMSD -1
REMARK  3 active torsions:
REMARK  status: ('A' for Active; 'I' for Inactive)
REMARK    1  A    between atoms: C3'_2  and  C2'_3 
REMARK    2  A    between atoms: C2'_3  and  C1'_4 
REMARK    3  A    between atoms: C1'_4  and  C1_5 
ROOT
ATOM      1  C1  N4B d   1       0.149  -0.489  -0.662  0.00  0.00    -0.075 A 
ATOM      2  C2  N4B d   1      -0.342  -0.206   0.631  0.00  0.00     0.002 A 
ATOM      3  C3  N4B d   1      -0.187  -1.125   1.640  0.00  0.00     0.002 A 
ATOM      4  C4  N4B d   1       0.434  -2.336   1.376  0.00  0.00    -0.004 A 
ATOM      5  C5  N4B d   1       0.928  -2.591   0.130  0.00  0.00     0.002 A 
ATOM      6  C6  N4B d   1       0.784  -1.675  -0.893  0.00  0.00     0.002 A 
ENDROOT
BRANCH   1   7
ATOM      7  C1' N4B d   1      -0.072   0.448  -1.818  0.00  0.00     0.057 C 
BRANCH   7   8
ATOM      8  C2' N4B d   1       0.784   1.695  -1.623  0.00  0.00     0.009 C 
BRANCH   8   9
ATOM      9  C3' N4B d   1       0.766   2.595  -2.846  0.00  0.00     0.004 C 
ATOM     10  C4' N4B d   1       1.780   2.195  -3.876  0.00  0.00     0.003 C 
ENDBRANCH   8   9
ENDBRANCH   7   8
ENDBRANCH   1   7
TORSDOF 3
ENDMDL
