MODEL 1
REMARK minimizedAffinity -3.91581416
REMARK minimizedRMSD -1
REMARK  3 active torsions:
REMARK  status: ('A' for Active; 'I' for Inactive)
REMARK    1  A    between atoms: C3'_2  and  C2'_3 
REMARK    2  A    between atoms: C2'_3  and  C1'_4 
REMARK    3  A    between atoms: C1'_4  and  C1_5 
ROOT
ATOM      1  C1  N4B d   1       0.862   0.338  -0.137  0.00  0.00    -0.075 A 
ATOM      2  C2  N4B d   1      -0.114  -0.534  -0.667  0.00  0.00     0.002 A 
ATOM      3  C3  N4B d   1      -0.043  -1.881  -0.409  0.00  0.00     0.002 A 
ATOM      4  C4  N4B d   1       1.000  -2.379   0.357  0.00  0.00    -0.004 A 
ATOM      5  C5  N4B d   1       1.924  -1.527   0.886  0.00  0.00     0.002 A 
ATOM      6  C6  N4B d   1       1.864  -0.170   0.638  0.00  0.00     0.002 A 
ENDROOT
BRANCH   1   7
ATOM      7  C1' N4B d   1       0.876   1.807  -0.463  0.00  0.00     0.057 C 
BRANCH   7   8
ATOM      8  C2' N4B d   1       1.936   2.074  -1.527  0.00  0.00     0.009 C 
BRANCH   8   9
ATOM      9  C3' N4B d   1       1.324   2.269  -2.904  0.00  0.00     0.004 C 
ATOM     10  C4' N4B d   1      -0.151   2.535  -2.851  0.00  0.00     0.003 C 
ENDBRANCH   8   9
ENDBRANCH   7   8
ENDBRANCH   1   7
TORSDOF 3
ENDMDL
