MODEL 1
REMARK minimizedAffinity -2.71679497
REMARK minimizedRMSD -1
REMARK  3 active torsions:
REMARK  status: ('A' for Active; 'I' for Inactive)
REMARK    1  A    between atoms: C3'_2  and  C2'_3 
REMARK    2  A    between atoms: C2'_3  and  C1'_4 
REMARK    3  A    between atoms: C1'_4  and  C1_5 
ROOT
ATOM      1  C1  N4B d   1       0.747   0.046  -0.389  0.00  0.00    -0.075 A 
ATOM      2  C2  N4B d   1       0.715  -0.994  -1.344  0.00  0.00     0.002 A 
ATOM      3  C3  N4B d   1       0.667  -2.303  -0.932  0.00  0.00     0.002 A 
ATOM      4  C4  N4B d   1       0.670  -2.596   0.424  0.00  0.00    -0.004 A 
ATOM      5  C5  N4B d   1       0.675  -1.585   1.339  0.00  0.00     0.002 A 
ATOM      6  C6  N4B d   1       0.719  -0.264   0.939  0.00  0.00     0.002 A 
ENDROOT
BRANCH   1   7
ATOM      7  C1' N4B d   1       0.886   1.489  -0.791  0.00  0.00     0.057 C 
BRANCH   7   8
ATOM      8  C2' N4B d   1       2.154   1.657  -1.623  0.00  0.00     0.009 C 
BRANCH   8   9
ATOM      9  C3' N4B d   1       1.867   1.601  -3.114  0.00  0.00     0.004 C 
ATOM     10  C4' N4B d   1       0.565   2.249  -3.479  0.00  0.00     0.003 C 
ENDBRANCH   8   9
ENDBRANCH   7   8
ENDBRANCH   1   7
TORSDOF 3
ENDMDL
