MODEL 1
REMARK minimizedAffinity -0.759659529
REMARK minimizedRMSD -1
REMARK  0 active torsions:
REMARK  status: ('A' for Active; 'I' for Inactive)
ROOT
ATOM      1  C1  BNZ d   1       0.609  -0.549   1.070  0.00  0.00     0.000 A 
ATOM      2  C2  BNZ d   1       1.240  -1.715   0.728  0.00  0.00     0.000 A 
ATOM      3  C3  BNZ d   1       2.174  -1.739  -0.270  0.00  0.00     0.000 A 
ATOM      4  C4  BNZ d   1       2.446  -0.606  -0.950  0.00  0.00     0.000 A 
ATOM      5  C5  BNZ d   1       1.812   0.575  -0.623  0.00  0.00     0.000 A 
ATOM      6  C6  BNZ d   1       0.901   0.603   0.408  0.00  0.00     0.000 A 
ENDROOT
TORSDOF 0
ENDMDL
