MODEL 1
REMARK minimizedAffinity -5.11297846
REMARK minimizedRMSD -1
REMARK  0 active torsions:
REMARK  status: ('A' for Active; 'I' for Inactive)
ROOT
ATOM      1  C1  BNZ d   1       1.220   1.239  -0.256  0.00  0.00     0.000 A 
ATOM      2  C2  BNZ d   1       2.205   0.775  -1.087  0.00  0.00     0.000 A 
ATOM      3  C3  BNZ d   1       2.601  -0.532  -1.041  0.00  0.00     0.000 A 
ATOM      4  C4  BNZ d   1       2.042  -1.363  -0.138  0.00  0.00     0.000 A 
ATOM      5  C5  BNZ d   1       1.055  -0.908   0.714  0.00  0.00     0.000 A 
ATOM      6  C6  BNZ d   1       0.631   0.399   0.638  0.00  0.00     0.000 A 
ENDROOT
TORSDOF 0
ENDMDL
