MODEL 1
REMARK minimizedAffinity -1.55013061
REMARK minimizedRMSD -1
REMARK  0 active torsions:
REMARK  status: ('A' for Active; 'I' for Inactive)
ROOT
ATOM      1  C1  BNZ d   1      -2.348   4.493  -3.455  0.00  0.00     0.000 A 
ATOM      2  C2  BNZ d   1      -2.424   3.253  -4.031  0.00  0.00     0.000 A 
ATOM      3  C3  BNZ d   1      -1.295   2.518  -4.262  0.00  0.00     0.000 A 
ATOM      4  C4  BNZ d   1      -0.090   3.040  -3.955  0.00  0.00     0.000 A 
ATOM      5  C5  BNZ d   1       0.004   4.293  -3.383  0.00  0.00     0.000 A 
ATOM      6  C6  BNZ d   1      -1.137   5.014  -3.116  0.00  0.00     0.000 A 
ENDROOT
TORSDOF 0
ENDMDL
