MODEL 1
REMARK minimizedAffinity -0.960491598
REMARK minimizedRMSD -1
REMARK  0 active torsions:
REMARK  status: ('A' for Active; 'I' for Inactive)
ROOT
ATOM      1  C1  BNZ d   1       2.349  -1.875   0.375  0.00  0.00     0.000 A 
ATOM      2  C2  BNZ d   1       0.991  -1.882   0.551  0.00  0.00     0.000 A 
ATOM      3  C3  BNZ d   1       0.253  -0.750   0.343  0.00  0.00     0.000 A 
ATOM      4  C4  BNZ d   1       0.877   0.395   0.000  0.00  0.00     0.000 A 
ATOM      5  C5  BNZ d   1       2.247   0.420  -0.171  0.00  0.00     0.000 A 
ATOM      6  C6  BNZ d   1       2.982  -0.731   0.000  0.00  0.00     0.000 A 
ENDROOT
TORSDOF 0
ENDMDL
