MODEL 1
REMARK minimizedAffinity -4.18966866
REMARK minimizedRMSD -1
REMARK  0 active torsions:
REMARK  status: ('A' for Active; 'I' for Inactive)
ROOT
ATOM      1  C1  BNZ d   1       2.947  -1.589  -0.289  0.00  0.00     0.000 A 
ATOM      2  C2  BNZ d   1       2.014  -1.581   0.712  0.00  0.00     0.000 A 
ATOM      3  C3  BNZ d   1       1.125  -0.549   0.832  0.00  0.00     0.000 A 
ATOM      4  C4  BNZ d   1       1.197   0.490  -0.023  0.00  0.00     0.000 A 
ATOM      5  C5  BNZ d   1       2.138   0.501  -1.033  0.00  0.00     0.000 A 
ATOM      6  C6  BNZ d   1       3.006  -0.557  -1.175  0.00  0.00     0.000 A 
ENDROOT
TORSDOF 0
ENDMDL
