MODEL 1
REMARK minimizedAffinity -5.8090024
REMARK minimizedRMSD -1
REMARK  0 active torsions:
REMARK  status: ('A' for Active; 'I' for Inactive)
ROOT
ATOM      1  C1  BNZ d   1       2.660   0.458  -0.935  0.00  0.00     0.000 A 
ATOM      2  C2  BNZ d   1       1.588   0.861  -0.185  0.00  0.00     0.000 A 
ATOM      3  C3  BNZ d   1       0.750  -0.054   0.387  0.00  0.00     0.000 A 
ATOM      4  C4  BNZ d   1       0.962  -1.370   0.177  0.00  0.00     0.000 A 
ATOM      5  C5  BNZ d   1       2.033  -1.792  -0.585  0.00  0.00     0.000 A 
ATOM      6  C6  BNZ d   1       2.897  -0.868  -1.128  0.00  0.00     0.000 A 
ENDROOT
TORSDOF 0
ENDMDL
