MODEL 1
REMARK minimizedAffinity -2.96678472
REMARK minimizedRMSD -1
REMARK  0 active torsions:
REMARK  status: ('A' for Active; 'I' for Inactive)
ROOT
ATOM      1  C1  BNZ d   1       2.544  -0.094  -1.472  0.00  0.00     0.000 A 
ATOM      2  C2  BNZ d   1       1.869  -1.086  -0.812  0.00  0.00     0.000 A 
ATOM      3  C3  BNZ d   1       1.223  -0.831   0.365  0.00  0.00     0.000 A 
ATOM      4  C4  BNZ d   1       1.286   0.405   0.901  0.00  0.00     0.000 A 
ATOM      5  C5  BNZ d   1       1.970   1.414   0.253  0.00  0.00     0.000 A 
ATOM      6  C6  BNZ d   1       2.587   1.163  -0.952  0.00  0.00     0.000 A 
ENDROOT
TORSDOF 0
ENDMDL
