MODEL 1
REMARK minimizedAffinity -5.93407393
REMARK minimizedRMSD -1
REMARK  0 active torsions:
REMARK  status: ('A' for Active; 'I' for Inactive)
ROOT
ATOM      1  C1  BNZ d   1       2.949  -1.800  -0.729  0.00  0.00     0.000 A 
ATOM      2  C2  BNZ d   1       1.815  -1.604   0.013  0.00  0.00     0.000 A 
ATOM      3  C3  BNZ d   1       1.155  -0.408  -0.019  0.00  0.00     0.000 A 
ATOM      4  C4  BNZ d   1       1.651   0.603  -0.761  0.00  0.00     0.000 A 
ATOM      5  C5  BNZ d   1       2.798   0.425  -1.508  0.00  0.00     0.000 A 
ATOM      6  C6  BNZ d   1       3.438  -0.793  -1.504  0.00  0.00     0.000 A 
ENDROOT
TORSDOF 0
ENDMDL
