MODEL 1
REMARK minimizedAffinity -2.12604523
REMARK minimizedRMSD -1
REMARK  0 active torsions:
REMARK  status: ('A' for Active; 'I' for Inactive)
ROOT
ATOM      1  C1  BNZ d   1       0.871   0.204   1.179  0.00  0.00     0.000 A 
ATOM      2  C2  BNZ d   1       0.984  -1.096   0.763  0.00  0.00     0.000 A 
ATOM      3  C3  BNZ d   1       1.673  -1.409  -0.375  0.00  0.00     0.000 A 
ATOM      4  C4  BNZ d   1       2.215  -0.421  -1.116  0.00  0.00     0.000 A 
ATOM      5  C5  BNZ d   1       2.102   0.895  -0.714  0.00  0.00     0.000 A 
ATOM      6  C6  BNZ d   1       1.441   1.204   0.453  0.00  0.00     0.000 A 
ENDROOT
TORSDOF 0
ENDMDL
