MODEL 1
REMARK minimizedAffinity -5.71718693
REMARK minimizedRMSD -1
REMARK  0 active torsions:
REMARK  status: ('A' for Active; 'I' for Inactive)
ROOT
ATOM      1  C1  BNZ d   1       1.180   0.776  -0.263  0.00  0.00     0.000 A 
ATOM      2  C2  BNZ d   1       2.311   0.787  -1.035  0.00  0.00     0.000 A 
ATOM      3  C3  BNZ d   1       3.005  -0.366  -1.276  0.00  0.00     0.000 A 
ATOM      4  C4  BNZ d   1       2.591  -1.519  -0.712  0.00  0.00     0.000 A 
ATOM      5  C5  BNZ d   1       1.458  -1.544   0.077  0.00  0.00     0.000 A 
ATOM      6  C6  BNZ d   1       0.740  -0.389   0.285  0.00  0.00     0.000 A 
ENDROOT
TORSDOF 0
ENDMDL
