MODEL 1
REMARK minimizedAffinity 3.86418962
REMARK minimizedRMSD -1
REMARK  0 active torsions:
REMARK  status: ('A' for Active; 'I' for Inactive)
ROOT
ATOM      1  C1  BNZ d   1       0.109   2.946  -3.692  0.00  0.00     0.000 A 
ATOM      2  C2  BNZ d   1       0.441   4.062  -2.971  0.00  0.00     0.000 A 
ATOM      3  C3  BNZ d   1      -0.528   4.868  -2.443  0.00  0.00     0.000 A 
ATOM      4  C4  BNZ d   1      -1.826   4.580  -2.670  0.00  0.00     0.000 A 
ATOM      5  C5  BNZ d   1      -2.177   3.463  -3.403  0.00  0.00     0.000 A 
ATOM      6  C6  BNZ d   1      -1.199   2.633  -3.899  0.00  0.00     0.000 A 
ENDROOT
TORSDOF 0
ENDMDL
