MODEL 1
REMARK minimizedAffinity -0.860836685
REMARK minimizedRMSD -1
REMARK  0 active torsions:
REMARK  status: ('A' for Active; 'I' for Inactive)
ROOT
ATOM      1  C1  BNZ d   1       1.104   0.270   0.345  0.00  0.00     0.000 A 
ATOM      2  C2  BNZ d   1       1.502  -1.027   0.160  0.00  0.00     0.000 A 
ATOM      3  C3  BNZ d   1       2.640  -1.317  -0.539  0.00  0.00     0.000 A 
ATOM      4  C4  BNZ d   1       3.356  -0.314  -1.085  0.00  0.00     0.000 A 
ATOM      5  C5  BNZ d   1       2.963   0.999  -0.915  0.00  0.00     0.000 A 
ATOM      6  C6  BNZ d   1       1.838   1.289  -0.178  0.00  0.00     0.000 A 
ENDROOT
TORSDOF 0
ENDMDL
