MODEL 1
REMARK minimizedAffinity 2.20622802
REMARK minimizedRMSD -1
REMARK  0 active torsions:
REMARK  status: ('A' for Active; 'I' for Inactive)
ROOT
ATOM      1  C1  BNZ d   1       0.853  -0.248   0.894  0.00  0.00     0.000 A 
ATOM      2  C2  BNZ d   1       1.003  -1.597   0.715  0.00  0.00     0.000 A 
ATOM      3  C3  BNZ d   1       2.148  -2.108   0.170  0.00  0.00     0.000 A 
ATOM      4  C4  BNZ d   1       3.123  -1.267  -0.232  0.00  0.00     0.000 A 
ATOM      5  C5  BNZ d   1       2.982   0.096  -0.068  0.00  0.00     0.000 A 
ATOM      6  C6  BNZ d   1       1.845   0.604   0.517  0.00  0.00     0.000 A 
ENDROOT
TORSDOF 0
ENDMDL
