MODEL 1
REMARK minimizedAffinity -5.07447195
REMARK minimizedRMSD -1
REMARK  0 active torsions:
REMARK  status: ('A' for Active; 'I' for Inactive)
ROOT
ATOM      1  C1  BNZ d   1       1.819  -1.487  -0.329  0.00  0.00     0.000 A 
ATOM      2  C2  BNZ d   1       0.751  -1.840   0.452  0.00  0.00     0.000 A 
ATOM      3  C3  BNZ d   1       0.055  -0.896   1.154  0.00  0.00     0.000 A 
ATOM      4  C4  BNZ d   1       0.451   0.392   1.104  0.00  0.00     0.000 A 
ATOM      5  C5  BNZ d   1       1.531   0.763   0.328  0.00  0.00     0.000 A 
ATOM      6  C6  BNZ d   1       2.205  -0.185  -0.407  0.00  0.00     0.000 A 
ENDROOT
TORSDOF 0
ENDMDL
