MODEL 1
REMARK minimizedAffinity -3.60732722
REMARK minimizedRMSD -1
REMARK  0 active torsions:
REMARK  status: ('A' for Active; 'I' for Inactive)
ROOT
ATOM      1  C1  BNZ d   1       1.061  -1.181   0.301  0.00  0.00     0.000 A 
ATOM      2  C2  BNZ d   1       0.807   0.123   0.637  0.00  0.00     0.000 A 
ATOM      3  C3  BNZ d   1       1.599   1.133   0.167  0.00  0.00     0.000 A 
ATOM      4  C4  BNZ d   1       2.665   0.836  -0.604  0.00  0.00     0.000 A 
ATOM      5  C5  BNZ d   1       2.939  -0.474  -0.943  0.00  0.00     0.000 A 
ATOM      6  C6  BNZ d   1       2.117  -1.485  -0.500  0.00  0.00     0.000 A 
ENDROOT
TORSDOF 0
ENDMDL
