MODEL 1
REMARK minimizedAffinity -2.40242124
REMARK minimizedRMSD -1
REMARK  0 active torsions:
REMARK  status: ('A' for Active; 'I' for Inactive)
ROOT
ATOM      1  C1  BNZ d   1       2.524   0.753  -0.755  0.00  0.00     0.000 A 
ATOM      2  C2  BNZ d   1       1.555   1.114   0.144  0.00  0.00     0.000 A 
ATOM      3  C3  BNZ d   1       0.769   0.169   0.742  0.00  0.00     0.000 A 
ATOM      4  C4  BNZ d   1       0.925  -1.129   0.411  0.00  0.00     0.000 A 
ATOM      5  C5  BNZ d   1       1.890  -1.508  -0.500  0.00  0.00     0.000 A 
ATOM      6  C6  BNZ d   1       2.706  -0.558  -1.071  0.00  0.00     0.000 A 
ENDROOT
TORSDOF 0
ENDMDL
