MODEL 1
REMARK minimizedAffinity 1.0097158
REMARK minimizedRMSD -1
REMARK  0 active torsions:
REMARK  status: ('A' for Active; 'I' for Inactive)
ROOT
ATOM      1  C2' OXE d   1       1.167  -0.327  -1.324  0.00  0.00     0.078 C 
ATOM      2  C1' OXE d   1      -0.386   1.976  -0.918  0.00  0.00     0.078 C 
ATOM      3  C1  OXE d   1       0.035   1.188   0.298  0.00  0.00    -0.078 A 
ATOM      4  C2  OXE d   1       0.755   0.037   0.086  0.00  0.00    -0.078 A 
ATOM      5  C3  OXE d   1       1.215  -0.698   1.175  0.00  0.00     0.003 A 
ATOM      6  C4  OXE d   1       0.821  -0.361   2.476  0.00  0.00    -0.002 A 
ATOM      7  C5  OXE d   1       0.054   0.786   2.710  0.00  0.00    -0.002 A 
ATOM      8  C6  OXE d   1      -0.311   1.593   1.638  0.00  0.00     0.003 A 
ENDROOT
TORSDOF 0
ENDMDL
