MODEL 1
REMARK minimizedAffinity 7.12778711
REMARK minimizedRMSD -1
REMARK  0 active torsions:
REMARK  status: ('A' for Active; 'I' for Inactive)
ROOT
ATOM      1  C2' OXE d   1      -0.043   1.965   1.938  0.00  0.00     0.078 C 
ATOM      2  C1' OXE d   1       0.156   0.491  -0.443  0.00  0.00     0.078 C 
ATOM      3  C1  OXE d   1      -0.145   1.965  -0.551  0.00  0.00    -0.078 A 
ATOM      4  C2  OXE d   1      -0.286   2.669   0.620  0.00  0.00    -0.078 A 
ATOM      5  C3  OXE d   1      -0.509   4.042   0.577  0.00  0.00     0.003 A 
ATOM      6  C4  OXE d   1      -0.743   4.684  -0.646  0.00  0.00    -0.002 A 
ATOM      7  C5  OXE d   1      -0.643   3.977  -1.849  0.00  0.00    -0.002 A 
ATOM      8  C6  OXE d   1      -0.303   2.629  -1.821  0.00  0.00     0.003 A 
ENDROOT
TORSDOF 0
ENDMDL
