MODEL 1
REMARK minimizedAffinity 9.13109589
REMARK minimizedRMSD -1
REMARK  0 active torsions:
REMARK  status: ('A' for Active; 'I' for Inactive)
ROOT
ATOM      1  C2' OXE d   1      -2.563   3.312   1.653  0.00  0.00     0.078 C 
ATOM      2  C1' OXE d   1       0.049   2.557   2.349  0.00  0.00     0.078 C 
ATOM      3  C1  OXE d   1      -0.399   2.314   0.929  0.00  0.00    -0.078 A 
ATOM      4  C2  OXE d   1      -1.694   2.643   0.610  0.00  0.00    -0.078 A 
ATOM      5  C3  OXE d   1      -2.141   2.491  -0.700  0.00  0.00     0.003 A 
ATOM      6  C4  OXE d   1      -1.334   1.862  -1.656  0.00  0.00    -0.002 A 
ATOM      7  C5  OXE d   1      -0.025   1.482  -1.341  0.00  0.00    -0.002 A 
ATOM      8  C6  OXE d   1       0.471   1.739  -0.067  0.00  0.00     0.003 A 
ENDROOT
TORSDOF 0
ENDMDL
