MODEL 1
REMARK minimizedAffinity 7.76304674
REMARK minimizedRMSD -1
REMARK  0 active torsions:
REMARK  status: ('A' for Active; 'I' for Inactive)
ROOT
ATOM      1  C2' OXE d   1      -1.620  -1.385  -1.885  0.00  0.00     0.078 C 
ATOM      2  C1' OXE d   1       0.016   0.805  -2.526  0.00  0.00     0.078 C 
ATOM      3  C1  OXE d   1       0.683  -0.442  -2.003  0.00  0.00    -0.078 A 
ATOM      4  C2  OXE d   1      -0.129  -1.492  -1.647  0.00  0.00    -0.078 A 
ATOM      5  C3  OXE d   1       0.439  -2.686  -1.210  0.00  0.00     0.003 A 
ATOM      6  C4  OXE d   1       1.818  -2.773  -0.984  0.00  0.00    -0.002 A 
ATOM      7  C5  OXE d   1       2.659  -1.702  -1.302  0.00  0.00    -0.002 A 
ATOM      8  C6  OXE d   1       2.113  -0.547  -1.851  0.00  0.00     0.003 A 
ENDROOT
TORSDOF 0
ENDMDL
