MODEL 1
REMARK minimizedAffinity 3.05648255
REMARK minimizedRMSD -1
REMARK  0 active torsions:
REMARK  status: ('A' for Active; 'I' for Inactive)
ROOT
ATOM      1  C2' OXE d   1       2.338  -0.355  -0.551  0.00  0.00     0.078 C 
ATOM      2  C1' OXE d   1       0.479   1.375  -1.746  0.00  0.00     0.078 C 
ATOM      3  C1  OXE d   1       0.545   1.347  -0.240  0.00  0.00    -0.078 A 
ATOM      4  C2  OXE d   1       1.425   0.463   0.337  0.00  0.00    -0.078 A 
ATOM      5  C3  OXE d   1       1.566   0.436   1.722  0.00  0.00     0.003 A 
ATOM      6  C4  OXE d   1       0.711   1.188   2.536  0.00  0.00    -0.002 A 
ATOM      7  C5  OXE d   1      -0.220   2.065   1.969  0.00  0.00    -0.002 A 
ATOM      8  C6  OXE d   1      -0.286   2.188   0.586  0.00  0.00     0.003 A 
ENDROOT
TORSDOF 0
ENDMDL
