MODEL 1
REMARK minimizedAffinity 3.28514242
REMARK minimizedRMSD -1
REMARK  0 active torsions:
REMARK  status: ('A' for Active; 'I' for Inactive)
ROOT
ATOM      1  C2' OXE d   1      -2.139   3.446   1.200  0.00  0.00     0.078 C 
ATOM      2  C1' OXE d   1       0.167   2.015   1.919  0.00  0.00     0.078 C 
ATOM      3  C1  OXE d   1      -0.281   1.951   0.480  0.00  0.00    -0.078 A 
ATOM      4  C2  OXE d   1      -1.437   2.616   0.147  0.00  0.00    -0.078 A 
ATOM      5  C3  OXE d   1      -1.864   2.634  -1.177  0.00  0.00     0.003 A 
ATOM      6  C4  OXE d   1      -1.215   1.856  -2.143  0.00  0.00    -0.002 A 
ATOM      7  C5  OXE d   1      -0.059   1.139  -1.816  0.00  0.00    -0.002 A 
ATOM      8  C6  OXE d   1       0.444   1.210  -0.522  0.00  0.00     0.003 A 
ENDROOT
TORSDOF 0
ENDMDL
