MODEL 1
REMARK minimizedAffinity 4.10150003
REMARK minimizedRMSD -1
REMARK  0 active torsions:
REMARK  status: ('A' for Active; 'I' for Inactive)
ROOT
ATOM      1  C2' OXE d   1       0.501   2.262   2.264  0.00  0.00     0.078 C 
ATOM      2  C1' OXE d   1      -2.107   3.264   1.986  0.00  0.00     0.078 C 
ATOM      3  C1  OXE d   1      -1.427   2.719   0.755  0.00  0.00    -0.078 A 
ATOM      4  C2  OXE d   1      -0.134   2.274   0.890  0.00  0.00    -0.078 A 
ATOM      5  C3  OXE d   1       0.520   1.712  -0.202  0.00  0.00     0.003 A 
ATOM      6  C4  OXE d   1      -0.071   1.736  -1.471  0.00  0.00    -0.002 A 
ATOM      7  C5  OXE d   1      -1.372   2.221  -1.639  0.00  0.00    -0.002 A 
ATOM      8  C6  OXE d   1      -2.079   2.676  -0.531  0.00  0.00     0.003 A 
ENDROOT
TORSDOF 0
ENDMDL
