MODEL 1
REMARK minimizedAffinity -4.28093386
REMARK minimizedRMSD -1
REMARK  0 active torsions:
REMARK  status: ('A' for Active; 'I' for Inactive)
ROOT
ATOM      1  C2' OXE d   1       0.072  -0.431   0.183  0.00  0.00     0.078 C 
ATOM      2  C1' OXE d   1      -0.266   1.227  -2.057  0.00  0.00     0.078 C 
ATOM      3  C1  OXE d   1      -0.093   1.888  -0.712  0.00  0.00    -0.078 A 
ATOM      4  C2  OXE d   1       0.025   1.069   0.385  0.00  0.00    -0.078 A 
ATOM      5  C3  OXE d   1       0.242   1.626   1.642  0.00  0.00     0.003 A 
ATOM      6  C4  OXE d   1       0.187   3.014   1.820  0.00  0.00    -0.002 A 
ATOM      7  C5  OXE d   1       0.029   3.866   0.722  0.00  0.00    -0.002 A 
ATOM      8  C6  OXE d   1      -0.070   3.321  -0.554  0.00  0.00     0.003 A 
ENDROOT
TORSDOF 0
ENDMDL
