MODEL 1
REMARK minimizedAffinity -1.79760909
REMARK minimizedRMSD -1
REMARK  0 active torsions:
REMARK  status: ('A' for Active; 'I' for Inactive)
ROOT
ATOM      1  C2' OXE d   1       0.375   0.177   1.120  0.00  0.00     0.078 C 
ATOM      2  C1' OXE d   1       0.250   0.807  -1.613  0.00  0.00     0.078 C 
ATOM      3  C1  OXE d   1       0.340   1.949  -0.631  0.00  0.00    -0.078 A 
ATOM      4  C2  OXE d   1       0.353   1.633   0.706  0.00  0.00    -0.078 A 
ATOM      5  C3  OXE d   1       0.490   2.645   1.652  0.00  0.00     0.003 A 
ATOM      6  C4  OXE d   1       0.459   3.989   1.262  0.00  0.00    -0.002 A 
ATOM      7  C5  OXE d   1       0.406   4.334  -0.093  0.00  0.00    -0.002 A 
ATOM      8  C6  OXE d   1       0.389   3.327  -1.052  0.00  0.00     0.003 A 
ENDROOT
TORSDOF 0
ENDMDL
