MODEL 1
REMARK minimizedAffinity -1.91420853
REMARK minimizedRMSD -1
REMARK  0 active torsions:
REMARK  status: ('A' for Active; 'I' for Inactive)
ROOT
ATOM      1  C   UNL d   1      -0.805   0.518  -0.254  0.00  0.00     0.077 C 
ATOM      2  C1  UNL d   1      -2.228   0.547   0.218  0.00  0.00    -0.074 A 
ATOM      3  C2  UNL d   1      -2.577   1.188   1.411  0.00  0.00    -0.005 A 
ATOM      4  C3  UNL d   1      -3.907   1.216   1.831  0.00  0.00     0.006 A 
ATOM      5  C4  UNL d   1      -4.899   0.604   1.065  0.00  0.00    -0.005 A 
ATOM      6  C5  UNL d   1      -4.570  -0.041  -0.132  0.00  0.00    -0.074 A 
ATOM      7  C6  UNL d   1      -5.625  -0.695  -0.973  0.00  0.00     0.077 C 
ATOM      8  C7  UNL d   1      -3.232  -0.058  -0.551  0.00  0.00    -0.001 A 
ENDROOT
TORSDOF 0
ENDMDL
