MODEL 1
REMARK minimizedAffinity -3.81472611
REMARK minimizedRMSD -1
REMARK  0 active torsions:
REMARK  status: ('A' for Active; 'I' for Inactive)
ROOT
ATOM      1  C   UNL d   1      -0.507   1.805  -0.378  0.00  0.00     0.077 C 
ATOM      2  C1  UNL d   1      -0.038   0.387  -0.239  0.00  0.00    -0.074 A 
ATOM      3  C2  UNL d   1      -0.852  -0.681  -0.631  0.00  0.00    -0.005 A 
ATOM      4  C3  UNL d   1      -0.398  -1.994  -0.505  0.00  0.00     0.006 A 
ATOM      5  C4  UNL d   1       0.872  -2.252   0.012  0.00  0.00    -0.005 A 
ATOM      6  C5  UNL d   1       1.700  -1.197   0.408  0.00  0.00    -0.074 A 
ATOM      7  C6  UNL d   1       3.072  -1.456   0.957  0.00  0.00     0.077 C 
ATOM      8  C7  UNL d   1       1.240   0.120   0.272  0.00  0.00    -0.001 A 
ENDROOT
TORSDOF 0
ENDMDL
