MODEL 1
REMARK minimizedAffinity -4.96841812
REMARK minimizedRMSD -1
REMARK  0 active torsions:
REMARK  status: ('A' for Active; 'I' for Inactive)
ROOT
ATOM      1  C   UNL d   1      -2.959   0.785   2.278  0.00  0.00     0.077 C 
ATOM      2  C1  UNL d   1      -2.161   0.682   1.012  0.00  0.00    -0.074 A 
ATOM      3  C2  UNL d   1      -2.580   1.325  -0.157  0.00  0.00    -0.005 A 
ATOM      4  C3  UNL d   1      -1.822   1.228  -1.324  0.00  0.00     0.006 A 
ATOM      5  C4  UNL d   1      -0.639   0.487  -1.333  0.00  0.00    -0.005 A 
ATOM      6  C5  UNL d   1      -0.203  -0.162  -0.174  0.00  0.00    -0.074 A 
ATOM      7  C6  UNL d   1       1.071  -0.953  -0.165  0.00  0.00     0.077 C 
ATOM      8  C7  UNL d   1      -0.967  -0.053   0.997  0.00  0.00    -0.001 A 
ENDROOT
TORSDOF 0
ENDMDL
