MODEL 1
REMARK minimizedAffinity -3.79308629
REMARK minimizedRMSD -1
REMARK  0 active torsions:
REMARK  status: ('A' for Active; 'I' for Inactive)
ROOT
ATOM      1  C   UNL d   1       2.284  -1.909   0.196  0.00  0.00     0.077 C 
ATOM      2  C1  UNL d   1       1.183  -0.929  -0.084  0.00  0.00    -0.074 A 
ATOM      3  C2  UNL d   1      -0.135  -1.360  -0.261  0.00  0.00    -0.005 A 
ATOM      4  C3  UNL d   1      -1.149  -0.435  -0.512  0.00  0.00     0.006 A 
ATOM      5  C4  UNL d   1      -0.856   0.927  -0.589  0.00  0.00    -0.005 A 
ATOM      6  C5  UNL d   1       0.457   1.376  -0.414  0.00  0.00    -0.074 A 
ATOM      7  C6  UNL d   1       0.788   2.837  -0.483  0.00  0.00     0.077 C 
ATOM      8  C7  UNL d   1       1.469   0.442  -0.155  0.00  0.00    -0.001 A 
ENDROOT
TORSDOF 0
ENDMDL
