MODEL 1
REMARK minimizedAffinity -4.84982347
REMARK minimizedRMSD -1
REMARK  0 active torsions:
REMARK  status: ('A' for Active; 'I' for Inactive)
ROOT
ATOM      1  C   UNL d   1       3.612   1.052   0.074  0.00  0.00     0.077 C 
ATOM      2  C1  UNL d   1       2.388   0.255  -0.266  0.00  0.00    -0.074 A 
ATOM      3  C2  UNL d   1       2.484  -1.096  -0.615  0.00  0.00    -0.005 A 
ATOM      4  C3  UNL d   1       1.335  -1.827  -0.919  0.00  0.00     0.006 A 
ATOM      5  C4  UNL d   1       0.082  -1.215  -0.877  0.00  0.00    -0.005 A 
ATOM      6  C5  UNL d   1      -0.034   0.134  -0.528  0.00  0.00    -0.074 A 
ATOM      7  C6  UNL d   1      -1.374   0.804  -0.468  0.00  0.00     0.077 C 
ATOM      8  C7  UNL d   1       1.124   0.860  -0.218  0.00  0.00    -0.001 A 
ENDROOT
TORSDOF 0
ENDMDL
