MODEL 1
REMARK minimizedAffinity -4.27656603
REMARK minimizedRMSD -1
REMARK  0 active torsions:
REMARK  status: ('A' for Active; 'I' for Inactive)
ROOT
ATOM      1  C   UNL d   1       1.596  -1.132   0.389  0.00  0.00     0.077 C 
ATOM      2  C1  UNL d   1       0.727   0.046   0.060  0.00  0.00    -0.074 A 
ATOM      3  C2  UNL d   1       1.283   1.310  -0.163  0.00  0.00    -0.005 A 
ATOM      4  C3  UNL d   1       0.463   2.393  -0.478  0.00  0.00     0.006 A 
ATOM      5  C4  UNL d   1      -0.918   2.224  -0.573  0.00  0.00    -0.005 A 
ATOM      6  C5  UNL d   1      -1.492   0.968  -0.355  0.00  0.00    -0.074 A 
ATOM      7  C6  UNL d   1      -2.975   0.767  -0.463  0.00  0.00     0.077 C 
ATOM      8  C7  UNL d   1      -0.661  -0.118  -0.046  0.00  0.00    -0.001 A 
ENDROOT
TORSDOF 0
ENDMDL
