MODEL 1
REMARK minimizedAffinity -2.07496381
REMARK minimizedRMSD -1
REMARK  0 active torsions:
REMARK  status: ('A' for Active; 'I' for Inactive)
ROOT
ATOM      1  C   UNL d   1       2.808  -1.428   1.520  0.00  0.00     0.077 C 
ATOM      2  C1  UNL d   1       1.716  -1.101   0.544  0.00  0.00    -0.074 A 
ATOM      3  C2  UNL d   1       1.717  -1.645  -0.744  0.00  0.00    -0.005 A 
ATOM      4  C3  UNL d   1       0.691  -1.339  -1.637  0.00  0.00     0.006 A 
ATOM      5  C4  UNL d   1      -0.346  -0.488  -1.252  0.00  0.00    -0.005 A 
ATOM      6  C5  UNL d   1      -0.365   0.064   0.033  0.00  0.00    -0.074 A 
ATOM      7  C6  UNL d   1      -1.476   0.973   0.467  0.00  0.00     0.077 C 
ATOM      8  C7  UNL d   1       0.667  -0.253   0.927  0.00  0.00    -0.001 A 
ENDROOT
TORSDOF 0
ENDMDL
