MODEL 1
REMARK minimizedAffinity 9.1054821
REMARK minimizedRMSD -1
REMARK  0 active torsions:
REMARK  status: ('A' for Active; 'I' for Inactive)
ROOT
ATOM      1  C   UNL d   1      -2.644   0.822   2.207  0.00  0.00    -0.002 A 
ATOM      2  C1  UNL d   1      -3.070   1.138   3.490  0.00  0.00     0.010 A 
ATOM      3  C2  UNL d   1      -4.103   0.418   4.093  0.00  0.00     0.041 A 
ATOM      4  C3  UNL d   1      -4.706  -0.637   3.380  0.00  0.00    -0.075 A 
ATOM      5  S   UNL d   1      -5.987  -1.656   3.918  0.00  0.00     0.015 SA
ATOM      6  C4  UNL d   1      -6.000  -2.537   2.459  0.00  0.00     0.022 A 
ATOM      7  C5  UNL d   1      -5.056  -2.077   1.571  0.00  0.00     0.026 A 
ATOM      8  C6  UNL d   1      -4.294  -0.975   2.088  0.00  0.00    -0.082 A 
ATOM      9  C7  UNL d   1      -3.245  -0.225   1.503  0.00  0.00     0.045 A 
ENDROOT
TORSDOF 0
ENDMDL
