MODEL 1
REMARK minimizedAffinity 17.2859879
REMARK minimizedRMSD -1
REMARK  0 active torsions:
REMARK  status: ('A' for Active; 'I' for Inactive)
ROOT
ATOM      1  C   UNL d   1      -1.890   3.256  -4.642  0.00  0.00    -0.002 A 
ATOM      2  C1  UNL d   1      -2.683   2.984  -5.748  0.00  0.00     0.010 A 
ATOM      3  C2  UNL d   1      -3.128   1.685  -5.999  0.00  0.00     0.041 A 
ATOM      4  C3  UNL d   1      -2.761   0.654  -5.111  0.00  0.00    -0.075 A 
ATOM      5  S   UNL d   1      -3.191  -1.012  -5.218  0.00  0.00     0.015 SA
ATOM      6  C4  UNL d   1      -2.333  -1.401  -3.798  0.00  0.00     0.022 A 
ATOM      7  C5  UNL d   1      -1.727  -0.298  -3.243  0.00  0.00     0.026 A 
ATOM      8  C6  UNL d   1      -1.964   0.904  -3.991  0.00  0.00    -0.082 A 
ATOM      9  C7  UNL d   1      -1.528   2.232  -3.763  0.00  0.00     0.045 A 
ENDROOT
TORSDOF 0
ENDMDL
