MODEL 1
REMARK minimizedAffinity 4.78449869
REMARK minimizedRMSD -1
REMARK  0 active torsions:
REMARK  status: ('A' for Active; 'I' for Inactive)
ROOT
ATOM      1  C   UNL d   1      -5.693  -4.007  -5.984  0.00  0.00    -0.002 A 
ATOM      2  C1  UNL d   1      -5.192  -5.301  -5.998  0.00  0.00     0.010 A 
ATOM      3  C2  UNL d   1      -4.969  -5.990  -4.804  0.00  0.00     0.041 A 
ATOM      4  C3  UNL d   1      -5.262  -5.351  -3.584  0.00  0.00    -0.075 A 
ATOM      5  S   UNL d   1      -5.069  -6.000  -1.998  0.00  0.00     0.015 SA
ATOM      6  C4  UNL d   1      -5.648  -4.574  -1.264  0.00  0.00     0.022 A 
ATOM      7  C5  UNL d   1      -5.984  -3.617  -2.191  0.00  0.00     0.026 A 
ATOM      8  C6  UNL d   1      -5.768  -4.048  -3.543  0.00  0.00    -0.082 A 
ATOM      9  C7  UNL d   1      -5.982  -3.376  -4.771  0.00  0.00     0.045 A 
ENDROOT
TORSDOF 0
ENDMDL
