MODEL 1
REMARK minimizedAffinity 7.57507563
REMARK minimizedRMSD -1
REMARK  0 active torsions:
REMARK  status: ('A' for Active; 'I' for Inactive)
ROOT
ATOM      1  C   UNL d   1      -5.352  -5.995  -3.330  0.00  0.00    -0.002 A 
ATOM      2  C1  UNL d   1      -4.213  -5.469  -2.737  0.00  0.00     0.010 A 
ATOM      3  C2  UNL d   1      -3.688  -4.248  -3.166  0.00  0.00     0.041 A 
ATOM      4  C3  UNL d   1      -4.334  -3.558  -4.211  0.00  0.00    -0.075 A 
ATOM      5  S   UNL d   1      -3.871  -2.048  -4.901  0.00  0.00     0.015 SA
ATOM      6  C4  UNL d   1      -5.174  -2.065  -6.000  0.00  0.00     0.022 A 
ATOM      7  C5  UNL d   1      -5.953  -3.189  -5.858  0.00  0.00     0.026 A 
ATOM      8  C6  UNL d   1      -5.482  -4.068  -4.824  0.00  0.00    -0.082 A 
ATOM      9  C7  UNL d   1      -5.989  -5.308  -4.367  0.00  0.00     0.045 A 
ENDROOT
TORSDOF 0
ENDMDL
