MODEL 1
REMARK minimizedAffinity 17.7371197
REMARK minimizedRMSD -1
REMARK  0 active torsions:
REMARK  status: ('A' for Active; 'I' for Inactive)
ROOT
ATOM      1  C   UNL d   1      -5.890  -4.298  -5.983  0.00  0.00    -0.002 A 
ATOM      2  C1  UNL d   1      -5.675  -2.986  -5.586  0.00  0.00     0.010 A 
ATOM      3  C2  UNL d   1      -5.250  -2.697  -4.288  0.00  0.00     0.041 A 
ATOM      4  C3  UNL d   1      -5.042  -3.760  -3.387  0.00  0.00    -0.075 A 
ATOM      5  S   UNL d   1      -4.522  -3.645  -1.747  0.00  0.00     0.015 SA
ATOM      6  C4  UNL d   1      -4.573  -5.335  -1.534  0.00  0.00     0.022 A 
ATOM      7  C5  UNL d   1      -4.975  -5.987  -2.676  0.00  0.00     0.026 A 
ATOM      8  C6  UNL d   1      -5.251  -5.089  -3.763  0.00  0.00    -0.082 A 
ATOM      9  C7  UNL d   1      -5.683  -5.350  -5.086  0.00  0.00     0.045 A 
ENDROOT
TORSDOF 0
ENDMDL
