MODEL 1
REMARK minimizedAffinity 15.2410927
REMARK minimizedRMSD -1
REMARK  0 active torsions:
REMARK  status: ('A' for Active; 'I' for Inactive)
ROOT
ATOM      1  C   UNL d   1      -5.951  -0.051   3.016  0.00  0.00    -0.002 A 
ATOM      2  C1  UNL d   1      -5.957  -0.856   1.885  0.00  0.00     0.010 A 
ATOM      3  C2  UNL d   1      -5.971  -2.247   2.004  0.00  0.00     0.041 A 
ATOM      4  C3  UNL d   1      -5.980  -2.822   3.290  0.00  0.00    -0.075 A 
ATOM      5  S   UNL d   1      -5.998  -4.501   3.679  0.00  0.00     0.015 SA
ATOM      6  C4  UNL d   1      -5.999  -4.190   5.355  0.00  0.00     0.022 A 
ATOM      7  C5  UNL d   1      -5.986  -2.843   5.629  0.00  0.00     0.026 A 
ATOM      8  C6  UNL d   1      -5.975  -2.032   4.444  0.00  0.00    -0.082 A 
ATOM      9  C7  UNL d   1      -5.961  -0.625   4.290  0.00  0.00     0.045 A 
ENDROOT
TORSDOF 0
ENDMDL
