MODEL 1
REMARK minimizedAffinity 16.6474419
REMARK minimizedRMSD -1
REMARK  0 active torsions:
REMARK  status: ('A' for Active; 'I' for Inactive)
ROOT
ATOM      1  C   UNL d   1      -1.504  -0.027   2.661  0.00  0.00    -0.002 A 
ATOM      2  C1  UNL d   1      -2.096   0.975   1.906  0.00  0.00     0.010 A 
ATOM      3  C2  UNL d   1      -3.485   1.098   1.852  0.00  0.00     0.041 A 
ATOM      4  C3  UNL d   1      -4.278   0.188   2.578  0.00  0.00    -0.075 A 
ATOM      5  S   UNL d   1      -6.000   0.146   2.662  0.00  0.00     0.015 SA
ATOM      6  C4  UNL d   1      -5.991  -1.203   3.704  0.00  0.00     0.022 A 
ATOM      7  C5  UNL d   1      -4.714  -1.625   3.990  0.00  0.00     0.026 A 
ATOM      8  C6  UNL d   1      -3.706  -0.830   3.347  0.00  0.00    -0.082 A 
ATOM      9  C7  UNL d   1      -2.294  -0.928   3.381  0.00  0.00     0.045 A 
ENDROOT
TORSDOF 0
ENDMDL
