MODEL 1
REMARK minimizedAffinity 10.0539589
REMARK minimizedRMSD -1
REMARK  0 active torsions:
REMARK  status: ('A' for Active; 'I' for Inactive)
ROOT
ATOM      1  C   UNL d   1       2.665  -1.062  -1.752  0.00  0.00    -0.002 A 
ATOM      2  C1  UNL d   1       2.993  -2.063  -0.850  0.00  0.00     0.010 A 
ATOM      3  C2  UNL d   1       2.451  -3.343  -0.981  0.00  0.00     0.041 A 
ATOM      4  C3  UNL d   1       1.565  -3.602  -2.046  0.00  0.00    -0.075 A 
ATOM      5  S   UNL d   1       0.780  -5.094  -2.405  0.00  0.00     0.015 SA
ATOM      6  C4  UNL d   1      -0.009  -4.437  -3.766  0.00  0.00     0.022 A 
ATOM      7  C5  UNL d   1       0.307  -3.113  -3.956  0.00  0.00     0.026 A 
ATOM      8  C6  UNL d   1       1.220  -2.610  -2.968  0.00  0.00    -0.082 A 
ATOM      9  C7  UNL d   1       1.787  -1.322  -2.807  0.00  0.00     0.045 A 
ENDROOT
TORSDOF 0
ENDMDL
