MODEL 1
REMARK minimizedAffinity 6.77076483
REMARK minimizedRMSD -1
REMARK  0 active torsions:
REMARK  status: ('A' for Active; 'I' for Inactive)
ROOT
ATOM      1  C   UNL d   1      -3.111  -4.867  -2.180  0.00  0.00    -0.002 A 
ATOM      2  C1  UNL d   1      -3.938  -5.968  -2.358  0.00  0.00     0.010 A 
ATOM      3  C2  UNL d   1      -4.863  -6.000  -3.403  0.00  0.00     0.041 A 
ATOM      4  C3  UNL d   1      -4.943  -4.897  -4.276  0.00  0.00    -0.075 A 
ATOM      5  S   UNL d   1      -6.000  -4.716  -5.626  0.00  0.00     0.015 SA
ATOM      6  C4  UNL d   1      -5.379  -3.173  -6.000  0.00  0.00     0.022 A 
ATOM      7  C5  UNL d   1      -4.389  -2.791  -5.126  0.00  0.00     0.026 A 
ATOM      8  C6  UNL d   1      -4.121  -3.778  -4.119  0.00  0.00    -0.082 A 
ATOM      9  C7  UNL d   1      -3.194  -3.775  -3.049  0.00  0.00     0.045 A 
ENDROOT
TORSDOF 0
ENDMDL
