MODEL 1
REMARK minimizedAffinity 14.1073198
REMARK minimizedRMSD -1
REMARK  0 active torsions:
REMARK  status: ('A' for Active; 'I' for Inactive)
ROOT
ATOM      1  C   UNL d   1      -1.294   0.011   2.623  0.00  0.00    -0.002 A 
ATOM      2  C1  UNL d   1      -1.361  -0.906   3.662  0.00  0.00     0.010 A 
ATOM      3  C2  UNL d   1      -2.586  -1.455   4.047  0.00  0.00     0.041 A 
ATOM      4  C3  UNL d   1      -3.754  -1.064   3.362  0.00  0.00    -0.075 A 
ATOM      5  S   UNL d   1      -5.363  -1.605   3.659  0.00  0.00     0.015 SA
ATOM      6  C4  UNL d   1      -6.000  -0.632   2.413  0.00  0.00     0.022 A 
ATOM      7  C5  UNL d   1      -5.022   0.095   1.776  0.00  0.00     0.026 A 
ATOM      8  C6  UNL d   1      -3.711  -0.143   2.312  0.00  0.00    -0.082 A 
ATOM      9  C7  UNL d   1      -2.455   0.397   1.946  0.00  0.00     0.045 A 
ENDROOT
TORSDOF 0
ENDMDL
