MODEL 1
REMARK minimizedAffinity 11.9132576
REMARK minimizedRMSD -1
REMARK  0 active torsions:
REMARK  status: ('A' for Active; 'I' for Inactive)
ROOT
ATOM      1  C   UNL d   1      -3.001   4.480   4.392  0.00  0.00    -0.002 A 
ATOM      2  C1  UNL d   1      -2.916   3.629   5.485  0.00  0.00     0.010 A 
ATOM      3  C2  UNL d   1      -2.675   2.266   5.307  0.00  0.00     0.041 A 
ATOM      4  C3  UNL d   1      -2.516   1.767   3.999  0.00  0.00    -0.075 A 
ATOM      5  S   UNL d   1      -2.212   0.133   3.540  0.00  0.00     0.015 SA
ATOM      6  C4  UNL d   1      -2.186   0.526   1.882  0.00  0.00     0.022 A 
ATOM      7  C5  UNL d   1      -2.403   1.866   1.666  0.00  0.00     0.026 A 
ATOM      8  C6  UNL d   1      -2.596   2.603   2.883  0.00  0.00    -0.082 A 
ATOM      9  C7  UNL d   1      -2.843   3.981   3.096  0.00  0.00     0.045 A 
ENDROOT
TORSDOF 0
ENDMDL
