MODEL 1
REMARK minimizedAffinity -3.62362337
REMARK minimizedRMSD -1
REMARK  1 active torsions:
REMARK  status: ('A' for Active; 'I' for Inactive)
REMARK    1  A    between atoms: C3_4  and  O_7 
ROOT
ATOM      1  C   UNL d   1       0.369  -1.042  -0.135  0.00  0.00    -0.033 A 
ATOM      2  C1  UNL d   1      -0.179   0.056  -0.802  0.00  0.00     0.039 A 
ATOM      3  C2  UNL d   1      -0.956   0.982  -0.104  0.00  0.00    -0.080 A 
ATOM      4  C3  UNL d   1      -1.177   0.799   1.259  0.00  0.00     0.150 A 
ATOM      5  C4  UNL d   1      -0.631  -0.290   1.930  0.00  0.00    -0.007 A 
ATOM      6  C5  UNL d   1       0.144  -1.214   1.231  0.00  0.00     0.039 A 
ENDROOT
BRANCH   4   7
ATOM      7  O   UNL d   1      -1.933   1.674   1.981  0.00  0.00    -0.526 OA
ATOM      8  H5  UNL d   1      -2.268   2.360   1.381  0.00  0.00     0.418 HD
ENDBRANCH   4   7
TORSDOF 1
ENDMDL
