MODEL 1
REMARK minimizedAffinity -3.21035504
REMARK minimizedRMSD -1
REMARK  1 active torsions:
REMARK  status: ('A' for Active; 'I' for Inactive)
REMARK    1  A    between atoms: C3_4  and  O_7 
ROOT
ATOM      1  C   UNL d   1       0.963  -0.795  -0.139  0.00  0.00    -0.033 A 
ATOM      2  C1  UNL d   1       0.234   0.223  -0.756  0.00  0.00     0.039 A 
ATOM      3  C2  UNL d   1      -0.764   0.897  -0.049  0.00  0.00    -0.080 A 
ATOM      4  C3  UNL d   1      -1.021   0.545   1.273  0.00  0.00     0.150 A 
ATOM      5  C4  UNL d   1      -0.296  -0.465   1.896  0.00  0.00    -0.007 A 
ATOM      6  C5  UNL d   1       0.699  -1.138   1.188  0.00  0.00     0.039 A 
ENDROOT
BRANCH   4   7
ATOM      7  O   UNL d   1      -1.988   1.172   2.002  0.00  0.00    -0.526 OA
ATOM      8  H5  UNL d   1      -2.426   1.827   1.433  0.00  0.00     0.418 HD
ENDBRANCH   4   7
TORSDOF 1
ENDMDL
