MODEL 1
REMARK minimizedAffinity -3.443645
REMARK minimizedRMSD -1
REMARK  1 active torsions:
REMARK  status: ('A' for Active; 'I' for Inactive)
REMARK    1  A    between atoms: C3_4  and  O_7 
ROOT
ATOM      1  C   UNL d   1      -1.163   3.371   0.326  0.00  0.00    -0.033 A 
ATOM      2  C1  UNL d   1      -0.828   2.371  -0.589  0.00  0.00     0.039 A 
ATOM      3  C2  UNL d   1      -0.697   1.048  -0.162  0.00  0.00    -0.080 A 
ATOM      4  C3  UNL d   1      -0.904   0.739   1.179  0.00  0.00     0.150 A 
ATOM      5  C4  UNL d   1      -1.242   1.730   2.095  0.00  0.00    -0.007 A 
ATOM      6  C5  UNL d   1      -1.372   3.051   1.667  0.00  0.00     0.039 A 
ENDROOT
BRANCH   4   7
ATOM      7  O   UNL d   1      -0.783  -0.537   1.644  0.00  0.00    -0.526 OA
ATOM      8  H5  UNL d   1      -0.517  -1.109   0.905  0.00  0.00     0.418 HD
ENDBRANCH   4   7
TORSDOF 1
ENDMDL
