MODEL 1
REMARK minimizedAffinity -1.94213259
REMARK minimizedRMSD -1
REMARK  1 active torsions:
REMARK  status: ('A' for Active; 'I' for Inactive)
REMARK    1  A    between atoms: C3_4  and  O_7 
ROOT
ATOM      1  C   UNL d   1       1.140  -3.003  -2.503  0.00  0.00    -0.033 A 
ATOM      2  C1  UNL d   1       1.349  -1.623  -2.562  0.00  0.00     0.039 A 
ATOM      3  C2  UNL d   1       1.230  -0.847  -1.408  0.00  0.00    -0.080 A 
ATOM      4  C3  UNL d   1       0.904  -1.462  -0.202  0.00  0.00     0.150 A 
ATOM      5  C4  UNL d   1       0.699  -2.836  -0.135  0.00  0.00    -0.007 A 
ATOM      6  C5  UNL d   1       0.817  -3.609  -1.289  0.00  0.00     0.039 A 
ENDROOT
BRANCH   4   7
ATOM      7  O   UNL d   1       0.773  -0.745   0.950  0.00  0.00    -0.526 OA
ATOM      8  H5  UNL d   1       0.915   0.195   0.746  0.00  0.00     0.418 HD
ENDBRANCH   4   7
TORSDOF 1
ENDMDL
