MODEL 1
REMARK minimizedAffinity -2.49092245
REMARK minimizedRMSD -1
REMARK  1 active torsions:
REMARK  status: ('A' for Active; 'I' for Inactive)
REMARK    1  A    between atoms: C3_4  and  O_7 
ROOT
ATOM      1  C   UNL d   1       1.139  -0.345  -0.682  0.00  0.00    -0.033 A 
ATOM      2  C1  UNL d   1       0.671   0.905  -1.092  0.00  0.00     0.039 A 
ATOM      3  C2  UNL d   1      -0.316   1.560  -0.353  0.00  0.00    -0.080 A 
ATOM      4  C3  UNL d   1      -0.825   0.956   0.794  0.00  0.00     0.150 A 
ATOM      5  C4  UNL d   1      -0.360  -0.288   1.211  0.00  0.00    -0.007 A 
ATOM      6  C5  UNL d   1       0.625  -0.941   0.470  0.00  0.00     0.039 A 
ENDROOT
BRANCH   4   7
ATOM      7  O   UNL d   1      -1.792   1.554   1.545  0.00  0.00    -0.526 OA
ATOM      8  H5  UNL d   1      -2.036   2.394   1.121  0.00  0.00     0.418 HD
ENDBRANCH   4   7
TORSDOF 1
ENDMDL
