MODEL 1
REMARK minimizedAffinity -5.27267313
REMARK minimizedRMSD -1
REMARK  1 active torsions:
REMARK  status: ('A' for Active; 'I' for Inactive)
REMARK    1  A    between atoms: C3_4  and  O_7 
ROOT
ATOM      1  C   UNL d   1      -1.944   1.878   1.540  0.00  0.00    -0.033 A 
ATOM      2  C1  UNL d   1      -1.694   0.621   2.095  0.00  0.00     0.039 A 
ATOM      3  C2  UNL d   1      -0.872  -0.288   1.426  0.00  0.00    -0.080 A 
ATOM      4  C3  UNL d   1      -0.306   0.071   0.206  0.00  0.00     0.150 A 
ATOM      5  C4  UNL d   1      -0.547   1.323  -0.351  0.00  0.00    -0.007 A 
ATOM      6  C5  UNL d   1      -1.369   2.229   0.318  0.00  0.00     0.039 A 
ENDROOT
BRANCH   4   7
ATOM      7  O   UNL d   1       0.499  -0.785  -0.485  0.00  0.00    -0.526 OA
ATOM      8  H5  UNL d   1       0.553  -1.621   0.006  0.00  0.00     0.418 HD
ENDBRANCH   4   7
TORSDOF 1
ENDMDL
