MODEL 1
REMARK minimizedAffinity -1.7739749
REMARK minimizedRMSD -1
REMARK  1 active torsions:
REMARK  status: ('A' for Active; 'I' for Inactive)
REMARK    1  A    between atoms: C3_4  and  O_7 
ROOT
ATOM      1  C   UNL d   1      -0.809  -0.525   1.462  0.00  0.00    -0.033 A 
ATOM      2  C1  UNL d   1      -0.134  -0.877   0.292  0.00  0.00     0.039 A 
ATOM      3  C2  UNL d   1       0.266   0.111  -0.610  0.00  0.00    -0.080 A 
ATOM      4  C3  UNL d   1      -0.014   1.446  -0.330  0.00  0.00     0.150 A 
ATOM      5  C4  UNL d   1      -0.683   1.804   0.836  0.00  0.00    -0.007 A 
ATOM      6  C5  UNL d   1      -1.082   0.816   1.735  0.00  0.00     0.039 A 
ENDROOT
BRANCH   4   7
ATOM      7  O   UNL d   1       0.352   2.445  -1.182  0.00  0.00    -0.526 OA
ATOM      8  H5  UNL d   1       0.779   2.046  -1.959  0.00  0.00     0.418 HD
ENDBRANCH   4   7
TORSDOF 1
ENDMDL
