MODEL 1
REMARK minimizedAffinity 0.192646414
REMARK minimizedRMSD -1
REMARK  1 active torsions:
REMARK  status: ('A' for Active; 'I' for Inactive)
REMARK    1  A    between atoms: C3_4  and  O_7 
ROOT
ATOM      1  C   UNL d   1      -0.553  -3.968  -2.726  0.00  0.00    -0.033 A 
ATOM      2  C1  UNL d   1      -0.450  -2.811  -3.500  0.00  0.00     0.039 A 
ATOM      3  C2  UNL d   1       0.308  -1.729  -3.045  0.00  0.00    -0.080 A 
ATOM      4  C3  UNL d   1       0.957  -1.818  -1.817  0.00  0.00     0.150 A 
ATOM      5  C4  UNL d   1       0.862  -2.970  -1.042  0.00  0.00    -0.007 A 
ATOM      6  C5  UNL d   1       0.104  -4.048  -1.498  0.00  0.00     0.039 A 
ENDROOT
BRANCH   4   7
ATOM      7  O   UNL d   1       1.703  -0.787  -1.329  0.00  0.00    -0.526 OA
ATOM      8  H5  UNL d   1       1.655  -0.048  -1.957  0.00  0.00     0.418 HD
ENDBRANCH   4   7
TORSDOF 1
ENDMDL
