MODEL 1
REMARK minimizedAffinity -5.00855923
REMARK minimizedRMSD -1
REMARK  1 active torsions:
REMARK  status: ('A' for Active; 'I' for Inactive)
REMARK    1  A    between atoms: C3_4  and  O_7 
ROOT
ATOM      1  C   UNL d   1       0.502  -0.920   0.152  0.00  0.00    -0.033 A 
ATOM      2  C1  UNL d   1       0.062   0.249  -0.473  0.00  0.00     0.039 A 
ATOM      3  C2  UNL d   1      -0.717   1.168   0.231  0.00  0.00    -0.080 A 
ATOM      4  C3  UNL d   1      -1.049   0.909   1.558  0.00  0.00     0.150 A 
ATOM      5  C4  UNL d   1      -0.611  -0.251   2.188  0.00  0.00    -0.007 A 
ATOM      6  C5  UNL d   1       0.167  -1.169   1.483  0.00  0.00     0.039 A 
ENDROOT
BRANCH   4   7
ATOM      7  O   UNL d   1      -1.812   1.775   2.284  0.00  0.00    -0.526 OA
ATOM      8  H5  UNL d   1      -2.065   2.517   1.711  0.00  0.00     0.418 HD
ENDBRANCH   4   7
TORSDOF 1
ENDMDL
