MODEL 1
REMARK minimizedAffinity -4.86037111
REMARK minimizedRMSD -1
REMARK  1 active torsions:
REMARK  status: ('A' for Active; 'I' for Inactive)
REMARK    1  A    between atoms: C3_4  and  O_7 
ROOT
ATOM      1  C   UNL d   1      -1.656   2.277   1.464  0.00  0.00    -0.033 A 
ATOM      2  C1  UNL d   1      -1.188   2.626   0.196  0.00  0.00     0.039 A 
ATOM      3  C2  UNL d   1      -0.506   1.688  -0.582  0.00  0.00    -0.080 A 
ATOM      4  C3  UNL d   1      -0.298   0.406  -0.080  0.00  0.00     0.150 A 
ATOM      5  C4  UNL d   1      -0.765   0.051   1.181  0.00  0.00    -0.007 A 
ATOM      6  C5  UNL d   1      -1.445   0.989   1.956  0.00  0.00     0.039 A 
ENDROOT
BRANCH   4   7
ATOM      7  O   UNL d   1       0.367  -0.541  -0.799  0.00  0.00    -0.526 OA
ATOM      8  H5  UNL d   1       0.655  -0.145  -1.638  0.00  0.00     0.418 HD
ENDBRANCH   4   7
TORSDOF 1
ENDMDL
