MODEL 1
REMARK minimizedAffinity -5.06413794
REMARK minimizedRMSD -1
REMARK  1 active torsions:
REMARK  status: ('A' for Active; 'I' for Inactive)
REMARK    1  A    between atoms: C3_4  and  O_7 
ROOT
ATOM      1  C   UNL d   1      -1.284   2.106   1.807  0.00  0.00    -0.033 A 
ATOM      2  C1  UNL d   1      -0.852   0.917   2.398  0.00  0.00     0.039 A 
ATOM      3  C2  UNL d   1      -0.281  -0.087   1.614  0.00  0.00    -0.080 A 
ATOM      4  C3  UNL d   1      -0.146   0.111   0.242  0.00  0.00     0.150 A 
ATOM      5  C4  UNL d   1      -0.570   1.294  -0.353  0.00  0.00    -0.007 A 
ATOM      6  C5  UNL d   1      -1.142   2.295   0.432  0.00  0.00     0.039 A 
ENDROOT
BRANCH   4   7
ATOM      7  O   UNL d   1       0.401  -0.842  -0.565  0.00  0.00    -0.526 OA
ATOM      8  H5  UNL d   1       0.622  -1.617  -0.021  0.00  0.00     0.418 HD
ENDBRANCH   4   7
TORSDOF 1
ENDMDL
