MODEL 1
REMARK minimizedAffinity -5.11455536
REMARK minimizedRMSD -1
REMARK  1 active torsions:
REMARK  status: ('A' for Active; 'I' for Inactive)
REMARK    1  A    between atoms: C3_4  and  O_7 
ROOT
ATOM      1  C   UNL d   1       0.043   2.978  -1.041  0.00  0.00    -0.033 A 
ATOM      2  C1  UNL d   1       0.046   1.605  -0.791  0.00  0.00     0.039 A 
ATOM      3  C2  UNL d   1      -0.845   1.060   0.135  0.00  0.00    -0.080 A 
ATOM      4  C3  UNL d   1      -1.734   1.898   0.803  0.00  0.00     0.150 A 
ATOM      5  C4  UNL d   1      -1.744   3.267   0.557  0.00  0.00    -0.007 A 
ATOM      6  C5  UNL d   1      -0.853   3.809  -0.368  0.00  0.00     0.039 A 
ENDROOT
BRANCH   4   7
ATOM      7  O   UNL d   1      -2.619   1.413   1.719  0.00  0.00    -0.526 OA
ATOM      8  H5  UNL d   1      -2.477   0.456   1.807  0.00  0.00     0.418 HD
ENDBRANCH   4   7
TORSDOF 1
ENDMDL
