MODEL 1
REMARK minimizedAffinity -4.50162554
REMARK minimizedRMSD -1
REMARK  1 active torsions:
REMARK  status: ('A' for Active; 'I' for Inactive)
REMARK    1  A    between atoms: C3_4  and  O_7 
ROOT
ATOM      1  C   UNL d   1      -1.851   1.666   1.558  0.00  0.00    -0.033 A 
ATOM      2  C1  UNL d   1      -1.151   0.698   0.835  0.00  0.00     0.039 A 
ATOM      3  C2  UNL d   1      -0.313   1.078  -0.214  0.00  0.00    -0.080 A 
ATOM      4  C3  UNL d   1      -0.182   2.428  -0.529  0.00  0.00     0.150 A 
ATOM      5  C4  UNL d   1      -0.873   3.398   0.189  0.00  0.00    -0.007 A 
ATOM      6  C5  UNL d   1      -1.711   3.016   1.236  0.00  0.00     0.039 A 
ENDROOT
BRANCH   4   7
ATOM      7  O   UNL d   1       0.621   2.847  -1.548  0.00  0.00    -0.526 OA
ATOM      8  H5  UNL d   1       1.012   2.066  -1.973  0.00  0.00     0.418 HD
ENDBRANCH   4   7
TORSDOF 1
ENDMDL
