MODEL 1
REMARK minimizedAffinity -4.32358503
REMARK minimizedRMSD -1
REMARK  1 active torsions:
REMARK  status: ('A' for Active; 'I' for Inactive)
REMARK    1  A    between atoms: C3_4  and  O_7 
ROOT
ATOM      1  C   UNL d   1       0.480  -0.278  -0.025  0.00  0.00    -0.033 A 
ATOM      2  C1  UNL d   1      -0.060  -0.519   1.240  0.00  0.00     0.039 A 
ATOM      3  C2  UNL d   1      -1.140   0.239   1.696  0.00  0.00    -0.080 A 
ATOM      4  C3  UNL d   1      -1.670   1.233   0.878  0.00  0.00     0.150 A 
ATOM      5  C4  UNL d   1      -1.140   1.476  -0.385  0.00  0.00    -0.007 A 
ATOM      6  C5  UNL d   1      -0.061   0.719  -0.838  0.00  0.00     0.039 A 
ENDROOT
BRANCH   4   7
ATOM      7  O   UNL d   1      -2.721   2.003   1.281  0.00  0.00    -0.526 OA
ATOM      8  H5  UNL d   1      -2.964   1.741   2.185  0.00  0.00     0.418 HD
ENDBRANCH   4   7
TORSDOF 1
ENDMDL
