MODEL 1
REMARK minimizedAffinity -4.57792902
REMARK minimizedRMSD -1
REMARK  1 active torsions:
REMARK  status: ('A' for Active; 'I' for Inactive)
REMARK    1  A    between atoms: C3_4  and  O_7 
ROOT
ATOM      1  C   UNL d   1       0.475  -0.369   0.025  0.00  0.00    -0.033 A 
ATOM      2  C1  UNL d   1       0.009   0.698  -0.747  0.00  0.00     0.039 A 
ATOM      3  C2  UNL d   1      -1.004   1.524  -0.258  0.00  0.00    -0.080 A 
ATOM      4  C3  UNL d   1      -1.542   1.275   1.002  0.00  0.00     0.150 A 
ATOM      5  C4  UNL d   1      -1.079   0.217   1.777  0.00  0.00    -0.007 A 
ATOM      6  C5  UNL d   1      -0.068  -0.608   1.287  0.00  0.00     0.039 A 
ENDROOT
BRANCH   4   7
ATOM      7  O   UNL d   1      -2.535   2.052   1.519  0.00  0.00    -0.526 OA
ATOM      8  H5  UNL d   1      -2.773   2.726   0.861  0.00  0.00     0.418 HD
ENDBRANCH   4   7
TORSDOF 1
ENDMDL
