MODEL 1
REMARK minimizedAffinity -3.58655977
REMARK minimizedRMSD -1
REMARK  1 active torsions:
REMARK  status: ('A' for Active; 'I' for Inactive)
REMARK    1  A    between atoms: C3_4  and  O_7 
ROOT
ATOM      1  C   UNL d   1       0.291  -0.763   0.352  0.00  0.00    -0.033 A 
ATOM      2  C1  UNL d   1      -0.002   0.157  -0.657  0.00  0.00     0.039 A 
ATOM      3  C2  UNL d   1      -0.890   1.206  -0.411  0.00  0.00    -0.080 A 
ATOM      4  C3  UNL d   1      -1.477   1.324   0.845  0.00  0.00     0.150 A 
ATOM      5  C4  UNL d   1      -1.186   0.414   1.856  0.00  0.00    -0.007 A 
ATOM      6  C5  UNL d   1      -0.300  -0.633   1.609  0.00  0.00     0.039 A 
ENDROOT
BRANCH   4   7
ATOM      7  O   UNL d   1      -2.353   2.328   1.131  0.00  0.00    -0.526 OA
ATOM      8  H5  UNL d   1      -2.480   2.863   0.329  0.00  0.00     0.418 HD
ENDBRANCH   4   7
TORSDOF 1
ENDMDL
