MODEL 1
REMARK minimizedAffinity -4.03998089
REMARK minimizedRMSD -1
REMARK  1 active torsions:
REMARK  status: ('A' for Active; 'I' for Inactive)
REMARK    1  A    between atoms: C3_4  and  O_7 
ROOT
ATOM      1  C   UNL d   1       0.621  -0.282   0.349  0.00  0.00    -0.033 A 
ATOM      2  C1  UNL d   1       0.345  -0.157   1.712  0.00  0.00     0.039 A 
ATOM      3  C2  UNL d   1      -0.637   0.734   2.148  0.00  0.00    -0.080 A 
ATOM      4  C3  UNL d   1      -1.335   1.493   1.213  0.00  0.00     0.150 A 
ATOM      5  C4  UNL d   1      -1.068   1.371  -0.147  0.00  0.00    -0.007 A 
ATOM      6  C5  UNL d   1      -0.086   0.481  -0.581  0.00  0.00     0.039 A 
ENDROOT
BRANCH   4   7
ATOM      7  O   UNL d   1      -2.299   2.380   1.591  0.00  0.00    -0.526 OA
ATOM      8  H5  UNL d   1      -2.354   2.379   2.561  0.00  0.00     0.418 HD
ENDBRANCH   4   7
TORSDOF 1
ENDMDL
