MODEL 1
REMARK minimizedAffinity -4.1711936
REMARK minimizedRMSD -1
REMARK  0 active torsions:
REMARK  status: ('A' for Active; 'I' for Inactive)
ROOT
ATOM      1  C1  BNZ d   1      -0.688  -0.940   0.375  0.00  0.00     0.000 A 
ATOM      2  C2  BNZ d   1       0.583  -0.694  -0.071  0.00  0.00     0.000 A 
ATOM      3  C3  BNZ d   1       1.063   0.584  -0.149  0.00  0.00     0.000 A 
ATOM      4  C4  BNZ d   1       0.258   1.615   0.181  0.00  0.00     0.000 A 
ATOM      5  C5  BNZ d   1      -1.029   1.384   0.624  0.00  0.00     0.000 A 
ATOM      6  C6  BNZ d   1      -1.495   0.094   0.738  0.00  0.00     0.000 A 
ENDROOT
TORSDOF 0
ENDMDL
