MODEL 1
REMARK minimizedAffinity -1.93641222
REMARK minimizedRMSD -1
REMARK  0 active torsions:
REMARK  status: ('A' for Active; 'I' for Inactive)
ROOT
ATOM      1  C1  BNZ d   1       2.063   1.162   0.049  0.00  0.00     0.000 A 
ATOM      2  C2  BNZ d   1       1.045   2.077   0.064  0.00  0.00     0.000 A 
ATOM      3  C3  BNZ d   1      -0.260   1.673   0.032  0.00  0.00     0.000 A 
ATOM      4  C4  BNZ d   1      -0.545   0.358  -0.056  0.00  0.00     0.000 A 
ATOM      5  C5  BNZ d   1       0.471  -0.577  -0.081  0.00  0.00     0.000 A 
ATOM      6  C6  BNZ d   1       1.783  -0.168  -0.009  0.00  0.00     0.000 A 
ENDROOT
TORSDOF 0
ENDMDL
