MODEL 1
REMARK minimizedAffinity -2.26802611
REMARK minimizedRMSD -1
REMARK  0 active torsions:
REMARK  status: ('A' for Active; 'I' for Inactive)
ROOT
ATOM      1  C1  BNZ d   1       2.237  -0.554   0.684  0.00  0.00     0.000 A 
ATOM      2  C2  BNZ d   1       1.218  -1.465   0.774  0.00  0.00     0.000 A 
ATOM      3  C3  BNZ d   1      -0.075  -1.094   0.532  0.00  0.00     0.000 A 
ATOM      4  C4  BNZ d   1      -0.352   0.193   0.240  0.00  0.00     0.000 A 
ATOM      5  C5  BNZ d   1       0.663   1.125   0.155  0.00  0.00     0.000 A 
ATOM      6  C6  BNZ d   1       1.968   0.740   0.360  0.00  0.00     0.000 A 
ENDROOT
TORSDOF 0
ENDMDL
