MODEL 1
REMARK minimizedAffinity -4.47290421
REMARK minimizedRMSD -1
REMARK  0 active torsions:
REMARK  status: ('A' for Active; 'I' for Inactive)
ROOT
ATOM      1  C1  BNZ d   1      -1.112   2.265   0.530  0.00  0.00     0.000 A 
ATOM      2  C2  BNZ d   1      -1.605   1.000   0.710  0.00  0.00     0.000 A 
ATOM      3  C3  BNZ d   1      -0.827  -0.096   0.463  0.00  0.00     0.000 A 
ATOM      4  C4  BNZ d   1       0.427   0.072  -0.003  0.00  0.00     0.000 A 
ATOM      5  C5  BNZ d   1       0.936   1.341  -0.199  0.00  0.00     0.000 A 
ATOM      6  C6  BNZ d   1       0.163   2.443   0.088  0.00  0.00     0.000 A 
ENDROOT
TORSDOF 0
ENDMDL
