MODEL 1
REMARK minimizedAffinity -4.83486748
REMARK minimizedRMSD -1
REMARK  0 active torsions:
REMARK  status: ('A' for Active; 'I' for Inactive)
ROOT
ATOM      1  C1  BNZ d   1       1.149   1.935  -0.745  0.00  0.00     0.000 A 
ATOM      2  C2  BNZ d   1       0.937   0.622  -0.416  0.00  0.00     0.000 A 
ATOM      3  C3  BNZ d   1      -0.235   0.227   0.165  0.00  0.00     0.000 A 
ATOM      4  C4  BNZ d   1      -1.177   1.149   0.452  0.00  0.00     0.000 A 
ATOM      5  C5  BNZ d   1      -0.974   2.477   0.135  0.00  0.00     0.000 A 
ATOM      6  C6  BNZ d   1       0.191   2.866  -0.485  0.00  0.00     0.000 A 
ENDROOT
TORSDOF 0
ENDMDL
