MODEL 1
REMARK minimizedAffinity -4.26397848
REMARK minimizedRMSD -1
REMARK  0 active torsions:
REMARK  status: ('A' for Active; 'I' for Inactive)
ROOT
ATOM      1  C1  BNZ d   1      -1.420   0.946   0.567  0.00  0.00     0.000 A 
ATOM      2  C2  BNZ d   1      -1.183   2.295   0.552  0.00  0.00     0.000 A 
ATOM      3  C3  BNZ d   1      -0.023   2.796   0.029  0.00  0.00     0.000 A 
ATOM      4  C4  BNZ d   1       0.913   1.948  -0.441  0.00  0.00     0.000 A 
ATOM      5  C5  BNZ d   1       0.693   0.585  -0.425  0.00  0.00     0.000 A 
ATOM      6  C6  BNZ d   1      -0.492   0.086   0.067  0.00  0.00     0.000 A 
ENDROOT
TORSDOF 0
ENDMDL
