MODEL 1
REMARK minimizedAffinity -4.90421009
REMARK minimizedRMSD -1
REMARK  0 active torsions:
REMARK  status: ('A' for Active; 'I' for Inactive)
ROOT
ATOM      1  C1  BNZ d   1       0.442   2.541  -0.051  0.00  0.00     0.000 A 
ATOM      2  C2  BNZ d   1       1.296   1.486  -0.231  0.00  0.00     0.000 A 
ATOM      3  C3  BNZ d   1       0.884   0.204   0.000  0.00  0.00     0.000 A 
ATOM      4  C4  BNZ d   1      -0.368  -0.019   0.450  0.00  0.00     0.000 A 
ATOM      5  C5  BNZ d   1      -1.238   1.035   0.646  0.00  0.00     0.000 A 
ATOM      6  C6  BNZ d   1      -0.832   2.321   0.374  0.00  0.00     0.000 A 
ENDROOT
TORSDOF 0
ENDMDL
