MODEL 1
REMARK minimizedAffinity -3.61796618
REMARK minimizedRMSD -1
REMARK  0 active torsions:
REMARK  status: ('A' for Active; 'I' for Inactive)
ROOT
ATOM      1  C1  BNZ d   1       0.936   1.142  -0.689  0.00  0.00     0.000 A 
ATOM      2  C2  BNZ d   1       0.713  -0.116  -0.198  0.00  0.00     0.000 A 
ATOM      3  C3  BNZ d   1      -0.428  -0.405   0.497  0.00  0.00     0.000 A 
ATOM      4  C4  BNZ d   1      -1.325   0.574   0.734  0.00  0.00     0.000 A 
ATOM      5  C5  BNZ d   1      -1.110   1.851   0.253  0.00  0.00     0.000 A 
ATOM      6  C6  BNZ d   1       0.021   2.128  -0.479  0.00  0.00     0.000 A 
ENDROOT
TORSDOF 0
ENDMDL
