MODEL 1
REMARK minimizedAffinity -3.21976376
REMARK minimizedRMSD -1
REMARK  0 active torsions:
REMARK  status: ('A' for Active; 'I' for Inactive)
ROOT
ATOM      1  C1  BNZ d   1       1.306   1.048  -0.941  0.00  0.00     0.000 A 
ATOM      2  C2  BNZ d   1       1.423   2.382  -0.651  0.00  0.00     0.000 A 
ATOM      3  C3  BNZ d   1       0.701   2.944   0.364  0.00  0.00     0.000 A 
ATOM      4  C4  BNZ d   1      -0.166   2.182   1.062  0.00  0.00     0.000 A 
ATOM      5  C5  BNZ d   1      -0.302   0.838   0.776  0.00  0.00     0.000 A 
ATOM      6  C6  BNZ d   1       0.455   0.267  -0.221  0.00  0.00     0.000 A 
ENDROOT
TORSDOF 0
ENDMDL
