MODEL 1
REMARK minimizedAffinity -5.16239643
REMARK minimizedRMSD -1
REMARK  0 active torsions:
REMARK  status: ('A' for Active; 'I' for Inactive)
ROOT
ATOM      1  C1  BNZ d   1      -0.106   0.092   0.368  0.00  0.00     0.000 A 
ATOM      2  C2  BNZ d   1       0.884   0.929  -0.074  0.00  0.00     0.000 A 
ATOM      3  C3  BNZ d   1       0.630   2.251  -0.309  0.00  0.00     0.000 A 
ATOM      4  C4  BNZ d   1      -0.622   2.726  -0.141  0.00  0.00     0.000 A 
ATOM      5  C5  BNZ d   1      -1.632   1.892   0.295  0.00  0.00     0.000 A 
ATOM      6  C6  BNZ d   1      -1.364   0.571   0.568  0.00  0.00     0.000 A 
ENDROOT
TORSDOF 0
ENDMDL
