MODEL 1
REMARK minimizedAffinity -4.2213769
REMARK minimizedRMSD -1
REMARK  0 active torsions:
REMARK  status: ('A' for Active; 'I' for Inactive)
ROOT
ATOM      1  C1  BNZ d   1       0.742   0.231   0.339  0.00  0.00     0.000 A 
ATOM      2  C2  BNZ d   1       1.175   1.518   0.515  0.00  0.00     0.000 A 
ATOM      3  C3  BNZ d   1       0.285   2.531   0.742  0.00  0.00     0.000 A 
ATOM      4  C4  BNZ d   1      -1.037   2.263   0.753  0.00  0.00     0.000 A 
ATOM      5  C5  BNZ d   1      -1.489   0.972   0.568  0.00  0.00     0.000 A 
ATOM      6  C6  BNZ d   1      -0.589  -0.051   0.379  0.00  0.00     0.000 A 
ENDROOT
TORSDOF 0
ENDMDL
