MODEL 1
REMARK minimizedAffinity -3.54070067
REMARK minimizedRMSD -1
REMARK  0 active torsions:
REMARK  status: ('A' for Active; 'I' for Inactive)
ROOT
ATOM      1  C1  BNZ d   1       1.634   1.908   1.244  0.00  0.00     0.000 A 
ATOM      2  C2  BNZ d   1       0.483   2.649   1.198  0.00  0.00     0.000 A 
ATOM      3  C3  BNZ d   1      -0.681   2.104   0.732  0.00  0.00     0.000 A 
ATOM      4  C4  BNZ d   1      -0.684   0.834   0.277  0.00  0.00     0.000 A 
ATOM      5  C5  BNZ d   1       0.471   0.078   0.309  0.00  0.00     0.000 A 
ATOM      6  C6  BNZ d   1       1.631   0.617   0.814  0.00  0.00     0.000 A 
ENDROOT
TORSDOF 0
ENDMDL
