MODEL 1
REMARK minimizedAffinity -2.50189519
REMARK minimizedRMSD -1
REMARK  1 active torsions:
REMARK  status: ('A' for Active; 'I' for Inactive)
REMARK    1  A    between atoms: C3_4  and  O_7 
ROOT
ATOM      1  C   UNL d   1      -0.545   0.103   1.098  0.00  0.00    -0.033 A 
ATOM      2  C1  UNL d   1      -0.506  -1.119   0.423  0.00  0.00     0.039 A 
ATOM      3  C2  UNL d   1      -0.165  -1.160  -0.930  0.00  0.00    -0.080 A 
ATOM      4  C3  UNL d   1       0.134   0.025  -1.596  0.00  0.00     0.150 A 
ATOM      5  C4  UNL d   1       0.100   1.246  -0.929  0.00  0.00    -0.007 A 
ATOM      6  C5  UNL d   1      -0.241   1.285   0.422  0.00  0.00     0.039 A 
ENDROOT
BRANCH   4   7
ATOM      7  O   UNL d   1       0.468   0.036  -2.918  0.00  0.00    -0.526 OA
ATOM      8  H5  UNL d   1       0.422  -0.875  -3.254  0.00  0.00     0.418 HD
ENDBRANCH   4   7
TORSDOF 1
ENDMDL
