MODEL 1
REMARK minimizedAffinity -3.16939163
REMARK minimizedRMSD -1
REMARK  1 active torsions:
REMARK  status: ('A' for Active; 'I' for Inactive)
REMARK    1  A    between atoms: C3_4  and  O_7 
ROOT
ATOM      1  C   UNL d   1       2.229   2.930  -0.304  0.00  0.00    -0.033 A 
ATOM      2  C1  UNL d   1       1.109   2.609  -1.073  0.00  0.00     0.039 A 
ATOM      3  C2  UNL d   1       0.350   1.478  -0.767  0.00  0.00    -0.080 A 
ATOM      4  C3  UNL d   1       0.721   0.678   0.310  0.00  0.00     0.150 A 
ATOM      5  C4  UNL d   1       1.833   0.993   1.083  0.00  0.00    -0.007 A 
ATOM      6  C5  UNL d   1       2.591   2.122   0.775  0.00  0.00     0.039 A 
ENDROOT
BRANCH   4   7
ATOM      7  O   UNL d   1       0.013  -0.439   0.645  0.00  0.00    -0.526 OA
ATOM      8  H5  UNL d   1      -0.711  -0.547   0.006  0.00  0.00     0.418 HD
ENDBRANCH   4   7
TORSDOF 1
ENDMDL
