MODEL 1
REMARK minimizedAffinity -5.24385071
REMARK minimizedRMSD -1
REMARK  1 active torsions:
REMARK  status: ('A' for Active; 'I' for Inactive)
REMARK    1  A    between atoms: C3_4  and  O_7 
ROOT
ATOM      1  C   UNL d   1      -0.655   0.658   0.368  0.00  0.00    -0.033 A 
ATOM      2  C1  UNL d   1       0.491   0.226  -0.303  0.00  0.00     0.039 A 
ATOM      3  C2  UNL d   1       0.838  -1.127  -0.296  0.00  0.00    -0.080 A 
ATOM      4  C3  UNL d   1       0.032  -2.036   0.383  0.00  0.00     0.150 A 
ATOM      5  C4  UNL d   1      -1.113  -1.613   1.050  0.00  0.00    -0.007 A 
ATOM      6  C5  UNL d   1      -1.458  -0.262   1.043  0.00  0.00     0.039 A 
ENDROOT
BRANCH   4   7
ATOM      7  O   UNL d   1       0.332  -3.365   0.422  0.00  0.00    -0.526 OA
ATOM      8  H5  UNL d   1       1.166  -3.506  -0.057  0.00  0.00     0.418 HD
ENDBRANCH   4   7
TORSDOF 1
ENDMDL
