MODEL 1
REMARK minimizedAffinity -3.25703216
REMARK minimizedRMSD -1
REMARK  1 active torsions:
REMARK  status: ('A' for Active; 'I' for Inactive)
REMARK    1  A    between atoms: C3_4  and  O_7 
ROOT
ATOM      1  C   UNL d   1       0.149   1.591  -1.388  0.00  0.00    -0.033 A 
ATOM      2  C1  UNL d   1      -0.054   1.360  -0.026  0.00  0.00     0.039 A 
ATOM      3  C2  UNL d   1       0.147   0.085   0.505  0.00  0.00    -0.080 A 
ATOM      4  C3  UNL d   1       0.552  -0.949  -0.335  0.00  0.00     0.150 A 
ATOM      5  C4  UNL d   1       0.760  -0.725  -1.692  0.00  0.00    -0.007 A 
ATOM      6  C5  UNL d   1       0.558   0.549  -2.221  0.00  0.00     0.039 A 
ENDROOT
BRANCH   4   7
ATOM      7  O   UNL d   1       0.756  -2.212   0.136  0.00  0.00    -0.526 OA
ATOM      8  H5  UNL d   1       0.546  -2.224   1.085  0.00  0.00     0.418 HD
ENDBRANCH   4   7
TORSDOF 1
ENDMDL
