MODEL 1
REMARK minimizedAffinity -4.12450123
REMARK minimizedRMSD -1
REMARK  1 active torsions:
REMARK  status: ('A' for Active; 'I' for Inactive)
REMARK    1  A    between atoms: C3_4  and  O_7 
ROOT
ATOM      1  C   UNL d   1      -0.665   0.693   0.156  0.00  0.00    -0.033 A 
ATOM      2  C1  UNL d   1       0.317   0.075  -0.621  0.00  0.00     0.039 A 
ATOM      3  C2  UNL d   1       0.646  -1.263  -0.398  0.00  0.00    -0.080 A 
ATOM      4  C3  UNL d   1      -0.014  -1.972   0.603  0.00  0.00     0.150 A 
ATOM      5  C4  UNL d   1      -0.996  -1.363   1.378  0.00  0.00    -0.007 A 
ATOM      6  C5  UNL d   1      -1.322  -0.027   1.154  0.00  0.00     0.039 A 
ENDROOT
BRANCH   4   7
ATOM      7  O   UNL d   1       0.277  -3.278   0.861  0.00  0.00    -0.526 OA
ATOM      8  H5  UNL d   1       0.994  -3.557   0.267  0.00  0.00     0.418 HD
ENDBRANCH   4   7
TORSDOF 1
ENDMDL
