MODEL 1
REMARK minimizedAffinity -5.61969709
REMARK minimizedRMSD -1
REMARK  1 active torsions:
REMARK  status: ('A' for Active; 'I' for Inactive)
REMARK    1  A    between atoms: C3_4  and  O_7 
ROOT
ATOM      1  C   UNL d   1       0.226  -3.234  -0.440  0.00  0.00    -0.033 A 
ATOM      2  C1  UNL d   1      -0.152  -2.572   0.730  0.00  0.00     0.039 A 
ATOM      3  C2  UNL d   1      -0.165  -1.177   0.772  0.00  0.00    -0.080 A 
ATOM      4  C3  UNL d   1       0.200  -0.456  -0.361  0.00  0.00     0.150 A 
ATOM      5  C4  UNL d   1       0.574  -1.108  -1.531  0.00  0.00    -0.007 A 
ATOM      6  C5  UNL d   1       0.588  -2.501  -1.571  0.00  0.00     0.039 A 
ENDROOT
BRANCH   4   7
ATOM      7  O   UNL d   1       0.207   0.908  -0.366  0.00  0.00    -0.526 OA
ATOM      8  H5  UNL d   1      -0.046   1.220   0.518  0.00  0.00     0.418 HD
ENDBRANCH   4   7
TORSDOF 1
ENDMDL
