MODEL 1
REMARK minimizedAffinity -4.52534056
REMARK minimizedRMSD -1
REMARK  1 active torsions:
REMARK  status: ('A' for Active; 'I' for Inactive)
REMARK    1  A    between atoms: C3_4  and  O_7 
ROOT
ATOM      1  C   UNL d   1      -0.248  -2.752   0.055  0.00  0.00    -0.033 A 
ATOM      2  C1  UNL d   1      -0.924  -2.002   1.019  0.00  0.00     0.039 A 
ATOM      3  C2  UNL d   1      -0.761  -0.616   1.068  0.00  0.00    -0.080 A 
ATOM      4  C3  UNL d   1       0.078   0.006   0.148  0.00  0.00     0.150 A 
ATOM      5  C4  UNL d   1       0.751  -0.735  -0.817  0.00  0.00    -0.007 A 
ATOM      6  C5  UNL d   1       0.589  -2.119  -0.864  0.00  0.00     0.039 A 
ENDROOT
BRANCH   4   7
ATOM      7  O   UNL d   1       0.272   1.356   0.160  0.00  0.00    -0.526 OA
ATOM      8  H5  UNL d   1      -0.234   1.733   0.899  0.00  0.00     0.418 HD
ENDBRANCH   4   7
TORSDOF 1
ENDMDL
