MODEL 1
REMARK minimizedAffinity -5.41749287
REMARK minimizedRMSD -1
REMARK  1 active torsions:
REMARK  status: ('A' for Active; 'I' for Inactive)
REMARK    1  A    between atoms: C3_4  and  O_7 
ROOT
ATOM      1  C   UNL d   1      -0.085   0.673  -0.486  0.00  0.00    -0.033 A 
ATOM      2  C1  UNL d   1      -0.849   0.311   0.625  0.00  0.00     0.039 A 
ATOM      3  C2  UNL d   1      -0.835  -1.007   1.085  0.00  0.00    -0.080 A 
ATOM      4  C3  UNL d   1      -0.052  -1.952   0.427  0.00  0.00     0.150 A 
ATOM      5  C4  UNL d   1       0.715  -1.597  -0.678  0.00  0.00    -0.007 A 
ATOM      6  C5  UNL d   1       0.698  -0.281  -1.137  0.00  0.00     0.039 A 
ENDROOT
BRANCH   4   7
ATOM      7  O   UNL d   1      -0.009  -3.251   0.837  0.00  0.00    -0.526 OA
ATOM      8  H5  UNL d   1      -0.611  -3.355   1.593  0.00  0.00     0.418 HD
ENDBRANCH   4   7
TORSDOF 1
ENDMDL
