MODEL 1
REMARK minimizedAffinity -3.26967859
REMARK minimizedRMSD -1
REMARK  1 active torsions:
REMARK  status: ('A' for Active; 'I' for Inactive)
REMARK    1  A    between atoms: C3_4  and  O_7 
ROOT
ATOM      1  C   UNL d   1      -0.009   0.756  -0.030  0.00  0.00    -0.033 A 
ATOM      2  C1  UNL d   1       0.710  -0.083  -0.884  0.00  0.00     0.039 A 
ATOM      3  C2  UNL d   1       0.721  -1.462  -0.664  0.00  0.00    -0.080 A 
ATOM      4  C3  UNL d   1       0.011  -1.988   0.412  0.00  0.00     0.150 A 
ATOM      5  C4  UNL d   1      -0.710  -1.158   1.264  0.00  0.00    -0.007 A 
ATOM      6  C5  UNL d   1      -0.720   0.219   1.043  0.00  0.00     0.039 A 
ENDROOT
BRANCH   4   7
ATOM      7  O   UNL d   1      -0.004  -3.326   0.670  0.00  0.00    -0.526 OA
ATOM      8  H5  UNL d   1       0.560  -3.772   0.016  0.00  0.00     0.418 HD
ENDBRANCH   4   7
TORSDOF 1
ENDMDL
