MODEL 1
REMARK minimizedAffinity -3.41235685
REMARK minimizedRMSD -1
REMARK  1 active torsions:
REMARK  status: ('A' for Active; 'I' for Inactive)
REMARK    1  A    between atoms: C3_4  and  O_7 
ROOT
ATOM      1  C   UNL d   1       0.026   0.961  -1.099  0.00  0.00    -0.033 A 
ATOM      2  C1  UNL d   1      -0.422   0.753   0.207  0.00  0.00     0.039 A 
ATOM      3  C2  UNL d   1      -0.519  -0.544   0.716  0.00  0.00    -0.080 A 
ATOM      4  C3  UNL d   1      -0.165  -1.622  -0.090  0.00  0.00     0.150 A 
ATOM      5  C4  UNL d   1       0.286  -1.422  -1.391  0.00  0.00    -0.007 A 
ATOM      6  C5  UNL d   1       0.381  -0.127  -1.897  0.00  0.00     0.039 A 
ENDROOT
BRANCH   4   7
ATOM      7  O   UNL d   1      -0.247  -2.906   0.361  0.00  0.00    -0.526 OA
ATOM      8  H5  UNL d   1      -0.601  -2.892   1.266  0.00  0.00     0.418 HD
ENDBRANCH   4   7
TORSDOF 1
ENDMDL
