MODEL 1
REMARK minimizedAffinity -4.89138842
REMARK minimizedRMSD -1
REMARK  1 active torsions:
REMARK  status: ('A' for Active; 'I' for Inactive)
REMARK    1  A    between atoms: C3_4  and  O_7 
ROOT
ATOM      1  C   UNL d   1       1.369   3.277   0.128  0.00  0.00    -0.033 A 
ATOM      2  C1  UNL d   1       2.200   4.090   0.902  0.00  0.00     0.039 A 
ATOM      3  C2  UNL d   1       1.819   4.451   2.195  0.00  0.00    -0.080 A 
ATOM      4  C3  UNL d   1       0.607   3.992   2.704  0.00  0.00     0.150 A 
ATOM      5  C4  UNL d   1      -0.224   3.179   1.940  0.00  0.00    -0.007 A 
ATOM      6  C5  UNL d   1       0.157   2.820   0.648  0.00  0.00     0.039 A 
ENDROOT
BRANCH   4   7
ATOM      7  O   UNL d   1       0.191   4.321   3.959  0.00  0.00    -0.526 OA
ATOM      8  H5  UNL d   1       0.852   4.911   4.358  0.00  0.00     0.418 HD
ENDBRANCH   4   7
TORSDOF 1
ENDMDL
