MODEL 1
REMARK minimizedAffinity -4.03270435
REMARK minimizedRMSD -1
REMARK  1 active torsions:
REMARK  status: ('A' for Active; 'I' for Inactive)
REMARK    1  A    between atoms: C3_4  and  O_7 
ROOT
ATOM      1  C   UNL d   1      -0.837   0.092   0.598  0.00  0.00    -0.033 A 
ATOM      2  C1  UNL d   1      -1.690  -0.868   1.147  0.00  0.00     0.039 A 
ATOM      3  C2  UNL d   1      -1.377  -2.224   1.040  0.00  0.00    -0.080 A 
ATOM      4  C3  UNL d   1      -0.210  -2.607   0.384  0.00  0.00     0.150 A 
ATOM      5  C4  UNL d   1       0.645  -1.656  -0.162  0.00  0.00    -0.007 A 
ATOM      6  C5  UNL d   1       0.331  -0.301  -0.055  0.00  0.00     0.039 A 
ENDROOT
BRANCH   4   7
ATOM      7  O   UNL d   1       0.134  -3.919   0.250  0.00  0.00    -0.526 OA
ATOM      8  H5  UNL d   1      -0.565  -4.463   0.650  0.00  0.00     0.418 HD
ENDBRANCH   4   7
TORSDOF 1
ENDMDL
