MODEL 1
REMARK minimizedAffinity -4.11846113
REMARK minimizedRMSD -1
REMARK  1 active torsions:
REMARK  status: ('A' for Active; 'I' for Inactive)
REMARK    1  A    between atoms: C3_4  and  O_7 
ROOT
ATOM      1  C   UNL d   1      -0.434  -3.171   0.086  0.00  0.00    -0.033 A 
ATOM      2  C1  UNL d   1       0.002  -2.682  -1.147  0.00  0.00     0.039 A 
ATOM      3  C2  UNL d   1       0.276  -1.322  -1.303  0.00  0.00    -0.080 A 
ATOM      4  C3  UNL d   1       0.111  -0.463  -0.220  0.00  0.00     0.150 A 
ATOM      5  C4  UNL d   1      -0.319  -0.944   1.012  0.00  0.00    -0.007 A 
ATOM      6  C5  UNL d   1      -0.593  -2.303   1.166  0.00  0.00     0.039 A 
ENDROOT
BRANCH   4   7
ATOM      7  O   UNL d   1       0.361   0.873  -0.325  0.00  0.00    -0.526 OA
ATOM      8  H5  UNL d   1       0.623   1.066  -1.241  0.00  0.00     0.418 HD
ENDBRANCH   4   7
TORSDOF 1
ENDMDL
