MODEL 1
REMARK minimizedAffinity -3.78610444
REMARK minimizedRMSD -1
REMARK  1 active torsions:
REMARK  status: ('A' for Active; 'I' for Inactive)
REMARK    1  A    between atoms: C3_4  and  O_7 
ROOT
ATOM      1  C   UNL d   1       1.096   1.717  -0.703  0.00  0.00    -0.033 A 
ATOM      2  C1  UNL d   1       1.204   1.585   0.683  0.00  0.00     0.039 A 
ATOM      3  C2  UNL d   1       0.654   0.474   1.324  0.00  0.00    -0.080 A 
ATOM      4  C3  UNL d   1      -0.000  -0.497   0.570  0.00  0.00     0.150 A 
ATOM      5  C4  UNL d   1      -0.108  -0.374  -0.811  0.00  0.00    -0.007 A 
ATOM      6  C5  UNL d   1       0.441   0.737  -1.450  0.00  0.00     0.039 A 
ENDROOT
BRANCH   4   7
ATOM      7  O   UNL d   1      -0.557  -1.597   1.153  0.00  0.00    -0.526 OA
ATOM      8  H5  UNL d   1      -0.430  -1.533   2.114  0.00  0.00     0.418 HD
ENDBRANCH   4   7
TORSDOF 1
ENDMDL
