MODEL 1
REMARK minimizedAffinity -5.23943901
REMARK minimizedRMSD -1
REMARK  1 active torsions:
REMARK  status: ('A' for Active; 'I' for Inactive)
REMARK    1  A    between atoms: C3_4  and  O_7 
ROOT
ATOM      1  C   UNL d   1       0.338  -0.318  -1.723  0.00  0.00    -0.033 A 
ATOM      2  C1  UNL d   1       0.115  -0.276  -0.345  0.00  0.00     0.039 A 
ATOM      3  C2  UNL d   1       0.067  -1.460   0.393  0.00  0.00    -0.080 A 
ATOM      4  C3  UNL d   1       0.245  -2.678  -0.257  0.00  0.00     0.150 A 
ATOM      5  C4  UNL d   1       0.472  -2.728  -1.629  0.00  0.00    -0.007 A 
ATOM      6  C5  UNL d   1       0.518  -1.544  -2.364  0.00  0.00     0.039 A 
ENDROOT
BRANCH   4   7
ATOM      7  O   UNL d   1       0.202  -3.860   0.420  0.00  0.00    -0.526 OA
ATOM      8  H5  UNL d   1       0.009  -3.673   1.354  0.00  0.00     0.418 HD
ENDBRANCH   4   7
TORSDOF 1
ENDMDL
