MODEL 1
REMARK minimizedAffinity -3.06065869
REMARK minimizedRMSD -1
REMARK  1 active torsions:
REMARK  status: ('A' for Active; 'I' for Inactive)
REMARK    1  A    between atoms: C3_4  and  O_7 
ROOT
ATOM      1  C   UNL d   1       0.089   0.617   0.789  0.00  0.00    -0.033 A 
ATOM      2  C1  UNL d   1      -1.151   0.011   0.579  0.00  0.00     0.039 A 
ATOM      3  C2  UNL d   1      -1.259  -1.381   0.581  0.00  0.00    -0.080 A 
ATOM      4  C3  UNL d   1      -0.122  -2.154   0.795  0.00  0.00     0.150 A 
ATOM      5  C4  UNL d   1       1.116  -1.557   1.009  0.00  0.00    -0.007 A 
ATOM      6  C5  UNL d   1       1.222  -0.167   1.006  0.00  0.00     0.039 A 
ENDROOT
BRANCH   4   7
ATOM      7  O   UNL d   1      -0.177  -3.516   0.801  0.00  0.00    -0.526 OA
ATOM      8  H5  UNL d   1      -1.090  -3.788   0.612  0.00  0.00     0.418 HD
ENDBRANCH   4   7
TORSDOF 1
ENDMDL
