MODEL 1
REMARK minimizedAffinity -3.66970038
REMARK minimizedRMSD -1
REMARK  1 active torsions:
REMARK  status: ('A' for Active; 'I' for Inactive)
REMARK    1  A    between atoms: C3_4  and  O_7 
ROOT
ATOM      1  C   UNL d   1       0.366  -2.311   0.508  0.00  0.00    -0.033 A 
ATOM      2  C1  UNL d   1      -0.786  -1.750   1.062  0.00  0.00     0.039 A 
ATOM      3  C2  UNL d   1      -1.160  -0.446   0.729  0.00  0.00    -0.080 A 
ATOM      4  C3  UNL d   1      -0.375   0.284  -0.159  0.00  0.00     0.150 A 
ATOM      5  C4  UNL d   1       0.772  -0.270  -0.718  0.00  0.00    -0.007 A 
ATOM      6  C5  UNL d   1       1.144  -1.572  -0.383  0.00  0.00     0.039 A 
ENDROOT
BRANCH   4   7
ATOM      7  O   UNL d   1      -0.696   1.561  -0.510  0.00  0.00    -0.526 OA
ATOM      8  H5  UNL d   1      -1.497   1.822  -0.024  0.00  0.00     0.418 HD
ENDBRANCH   4   7
TORSDOF 1
ENDMDL
