MODEL 1
REMARK minimizedAffinity -3.01646543
REMARK minimizedRMSD -1
REMARK  1 active torsions:
REMARK  status: ('A' for Active; 'I' for Inactive)
REMARK    1  A    between atoms: C3_4  and  O_7 
ROOT
ATOM      1  C   UNL d   1      -1.178   4.917   1.979  0.00  0.00    -0.033 A 
ATOM      2  C1  UNL d   1      -0.239   5.934   2.165  0.00  0.00     0.039 A 
ATOM      3  C2  UNL d   1       1.067   5.775   1.699  0.00  0.00    -0.080 A 
ATOM      4  C3  UNL d   1       1.421   4.596   1.048  0.00  0.00     0.150 A 
ATOM      5  C4  UNL d   1       0.490   3.581   0.855  0.00  0.00    -0.007 A 
ATOM      6  C5  UNL d   1      -0.814   3.741   1.323  0.00  0.00     0.039 A 
ENDROOT
BRANCH   4   7
ATOM      7  O   UNL d   1       2.685   4.393   0.579  0.00  0.00    -0.526 OA
ATOM      8  H5  UNL d   1       3.226   5.166   0.809  0.00  0.00     0.418 HD
ENDBRANCH   4   7
TORSDOF 1
ENDMDL
