MODEL 1
REMARK minimizedAffinity 8.41138744
REMARK minimizedRMSD -1
REMARK  0 active torsions:
REMARK  status: ('A' for Active; 'I' for Inactive)
ROOT
ATOM      1  C1  DEN d   1      -3.093   4.140   2.374  0.00  0.00     0.130 A 
ATOM      2  C2  DEN d   1      -4.430   4.132   1.786  0.00  0.00    -0.031 A 
ATOM      3  C3  DEN d   1      -5.354   4.770   2.745  0.00  0.00     0.027 A 
ATOM      4  C4  DEN d   1      -4.847   5.770   5.068  0.00  0.00     0.027 A 
ATOM      5  C5  DEN d   1      -3.859   5.999   6.000  0.00  0.00    -0.003 A 
ATOM      6  C6  DEN d   1      -2.564   5.597   5.805  0.00  0.00     0.001 A 
ATOM      7  C7  DEN d   1      -2.212   4.985   4.631  0.00  0.00     0.017 A 
ATOM      8  C8  DEN d   1      -3.204   4.744   3.690  0.00  0.00    -0.094 A 
ATOM      9  C9  DEN d   1      -4.505   5.169   3.900  0.00  0.00    -0.072 A 
ENDROOT
TORSDOF 0
ENDMDL
