MODEL 1
REMARK minimizedAffinity 15.3318653
REMARK minimizedRMSD -1
REMARK  0 active torsions:
REMARK  status: ('A' for Active; 'I' for Inactive)
ROOT
ATOM      1  C1  DEN d   1       2.717   0.841  -4.218  0.00  0.00     0.130 A 
ATOM      2  C2  DEN d   1       1.490   1.391  -4.787  0.00  0.00    -0.031 A 
ATOM      3  C3  DEN d   1       0.396   1.162  -3.821  0.00  0.00     0.027 A 
ATOM      4  C4  DEN d   1       0.485   0.020  -1.510  0.00  0.00     0.027 A 
ATOM      5  C5  DEN d   1       1.304  -0.617  -0.603  0.00  0.00    -0.003 A 
ATOM      6  C6  DEN d   1       2.632  -0.840  -0.850  0.00  0.00     0.001 A 
ATOM      7  C7  DEN d   1       3.193  -0.384  -2.014  0.00  0.00     0.017 A 
ATOM      8  C8  DEN d   1       2.372   0.252  -2.936  0.00  0.00    -0.094 A 
ATOM      9  C9  DEN d   1       1.034   0.480  -2.663  0.00  0.00    -0.072 A 
ENDROOT
TORSDOF 0
ENDMDL
