MODEL 1
REMARK minimizedAffinity 1.21554899
REMARK minimizedRMSD -1
REMARK  0 active torsions:
REMARK  status: ('A' for Active; 'I' for Inactive)
ROOT
ATOM      1  C1  DEN d   1       4.141  -5.996   1.888  0.00  0.00     0.130 A 
ATOM      2  C2  DEN d   1       2.691  -5.821   1.866  0.00  0.00    -0.031 A 
ATOM      3  C3  DEN d   1       2.240  -5.579   3.251  0.00  0.00     0.027 A 
ATOM      4  C4  DEN d   1       3.638  -5.454   5.415  0.00  0.00     0.027 A 
ATOM      5  C5  DEN d   1       4.909  -5.551   5.937  0.00  0.00    -0.003 A 
ATOM      6  C6  DEN d   1       5.999  -5.834   5.158  0.00  0.00     0.001 A 
ATOM      7  C7  DEN d   1       5.846  -5.986   3.805  0.00  0.00     0.017 A 
ATOM      8  C8  DEN d   1       4.566  -5.898   3.272  0.00  0.00    -0.094 A 
ATOM      9  C9  DEN d   1       3.479  -5.598   4.075  0.00  0.00    -0.072 A 
ENDROOT
TORSDOF 0
ENDMDL
