MODEL 1
REMARK minimizedAffinity 10.40061
REMARK minimizedRMSD -1
REMARK  0 active torsions:
REMARK  status: ('A' for Active; 'I' for Inactive)
ROOT
ATOM      1  C1  DEN d   1      -3.098   3.252   2.941  0.00  0.00     0.130 A 
ATOM      2  C2  DEN d   1      -4.415   3.646   2.450  0.00  0.00    -0.031 A 
ATOM      3  C3  DEN d   1      -4.882   4.789   3.260  0.00  0.00     0.027 A 
ATOM      4  C4  DEN d   1      -3.697   5.984   5.214  0.00  0.00     0.027 A 
ATOM      5  C5  DEN d   1      -2.565   6.000   6.000  0.00  0.00    -0.003 A 
ATOM      6  C6  DEN d   1      -1.556   5.087   5.845  0.00  0.00     0.001 A 
ATOM      7  C7  DEN d   1      -1.637   4.147   4.852  0.00  0.00     0.017 A 
ATOM      8  C8  DEN d   1      -2.778   4.120   4.060  0.00  0.00    -0.094 A 
ATOM      9  C9  DEN d   1      -3.782   5.059   4.224  0.00  0.00    -0.072 A 
ENDROOT
TORSDOF 0
ENDMDL
