MODEL 1
REMARK minimizedAffinity 12.5840845
REMARK minimizedRMSD -1
REMARK  0 active torsions:
REMARK  status: ('A' for Active; 'I' for Inactive)
ROOT
ATOM      1  C1  DEN d   1       5.982  -4.845   6.000  0.00  0.00     0.130 A 
ATOM      2  C2  DEN d   1       5.026  -5.904   5.690  0.00  0.00    -0.031 A 
ATOM      3  C3  DEN d   1       3.920  -5.307   4.915  0.00  0.00     0.027 A 
ATOM      4  C4  DEN d   1       3.600  -2.861   4.163  0.00  0.00     0.027 A 
ATOM      5  C5  DEN d   1       4.143  -1.595   4.199  0.00  0.00    -0.003 A 
ATOM      6  C6  DEN d   1       5.310  -1.320   4.862  0.00  0.00     0.001 A 
ATOM      7  C7  DEN d   1       5.996  -2.333   5.477  0.00  0.00     0.017 A 
ATOM      8  C8  DEN d   1       5.451  -3.610   5.451  0.00  0.00    -0.094 A 
ATOM      9  C9  DEN d   1       4.277  -3.871   4.766  0.00  0.00    -0.072 A 
ENDROOT
TORSDOF 0
ENDMDL
