MODEL 1
REMARK minimizedAffinity 13.1045351
REMARK minimizedRMSD -1
REMARK  0 active torsions:
REMARK  status: ('A' for Active; 'I' for Inactive)
ROOT
ATOM      1  C1  DEN d   1      -1.883   2.887   3.539  0.00  0.00     0.130 A 
ATOM      2  C2  DEN d   1      -2.753   2.149   2.626  0.00  0.00    -0.031 A 
ATOM      3  C3  DEN d   1      -4.046   2.859   2.554  0.00  0.00     0.027 A 
ATOM      4  C4  DEN d   1      -4.780   5.020   3.756  0.00  0.00     0.027 A 
ATOM      5  C5  DEN d   1      -4.389   6.000   4.641  0.00  0.00    -0.003 A 
ATOM      6  C6  DEN d   1      -3.159   5.992   5.243  0.00  0.00     0.001 A 
ATOM      7  C7  DEN d   1      -2.257   5.009   4.931  0.00  0.00     0.017 A 
ATOM      8  C8  DEN d   1      -2.646   4.013   4.045  0.00  0.00    -0.094 A 
ATOM      9  C9  DEN d   1      -3.891   4.045   3.438  0.00  0.00    -0.072 A 
ENDROOT
TORSDOF 0
ENDMDL
