MODEL 1
REMARK minimizedAffinity 13.1290741
REMARK minimizedRMSD -1
REMARK  0 active torsions:
REMARK  status: ('A' for Active; 'I' for Inactive)
ROOT
ATOM      1  C1  DEN d   1      -2.185   1.403   3.264  0.00  0.00     0.130 A 
ATOM      2  C2  DEN d   1      -2.794   0.315   2.503  0.00  0.00    -0.031 A 
ATOM      3  C3  DEN d   1      -3.940   0.868   1.754  0.00  0.00     0.027 A 
ATOM      4  C4  DEN d   1      -4.824   3.290   1.695  0.00  0.00     0.027 A 
ATOM      5  C5  DEN d   1      -4.641   4.564   2.186  0.00  0.00    -0.003 A 
ATOM      6  C6  DEN d   1      -3.657   4.864   3.090  0.00  0.00     0.001 A 
ATOM      7  C7  DEN d   1      -2.788   3.886   3.497  0.00  0.00     0.017 A 
ATOM      8  C8  DEN d   1      -2.970   2.598   3.011  0.00  0.00    -0.094 A 
ATOM      9  C9  DEN d   1      -3.964   2.317   2.089  0.00  0.00    -0.072 A 
ENDROOT
TORSDOF 0
ENDMDL
