MODEL 1
REMARK minimizedAffinity 16.6973705
REMARK minimizedRMSD -1
REMARK  0 active torsions:
REMARK  status: ('A' for Active; 'I' for Inactive)
ROOT
ATOM      1  C1  DEN d   1      -4.288  -2.766   1.036  0.00  0.00     0.130 A 
ATOM      2  C2  DEN d   1      -3.711  -2.733  -0.306  0.00  0.00    -0.031 A 
ATOM      3  C3  DEN d   1      -2.905  -1.501  -0.426  0.00  0.00     0.027 A 
ATOM      4  C4  DEN d   1      -2.493   0.345   1.327  0.00  0.00     0.027 A 
ATOM      5  C5  DEN d   1      -2.782   0.762   2.608  0.00  0.00    -0.003 A 
ATOM      6  C6  DEN d   1      -3.613   0.056   3.435  0.00  0.00     0.001 A 
ATOM      7  C7  DEN d   1      -4.150  -1.130   3.008  0.00  0.00     0.017 A 
ATOM      8  C8  DEN d   1      -3.869  -1.553   1.715  0.00  0.00    -0.094 A 
ATOM      9  C9  DEN d   1      -3.016  -0.831   0.898  0.00  0.00    -0.072 A 
ENDROOT
TORSDOF 0
ENDMDL
