MODEL 1
REMARK minimizedAffinity 13.5568924
REMARK minimizedRMSD -1
REMARK  0 active torsions:
REMARK  status: ('A' for Active; 'I' for Inactive)
ROOT
ATOM      1  C1  DEN d   1      -2.068   1.294   2.399  0.00  0.00     0.130 A 
ATOM      2  C2  DEN d   1      -2.933   0.909   3.511  0.00  0.00    -0.031 A 
ATOM      3  C3  DEN d   1      -3.579  -0.373   3.164  0.00  0.00     0.027 A 
ATOM      4  C4  DEN d   1      -3.322  -1.793   1.026  0.00  0.00     0.027 A 
ATOM      5  C5  DEN d   1      -2.708  -1.868  -0.205  0.00  0.00    -0.003 A 
ATOM      6  C6  DEN d   1      -1.871  -0.886  -0.664  0.00  0.00     0.001 A 
ATOM      7  C7  DEN d   1      -1.589   0.193   0.132  0.00  0.00     0.017 A 
ATOM      8  C8  DEN d   1      -2.210   0.279   1.371  0.00  0.00    -0.094 A 
ATOM      9  C9  DEN d   1      -3.044  -0.730   1.822  0.00  0.00    -0.072 A 
ENDROOT
TORSDOF 0
ENDMDL
