MODEL 1
REMARK minimizedAffinity -0.306134015
REMARK minimizedRMSD -1
REMARK  0 active torsions:
REMARK  status: ('A' for Active; 'I' for Inactive)
ROOT
ATOM      1  C1  DEN d   1      -4.560   5.999   5.065  0.00  0.00     0.130 A 
ATOM      2  C2  DEN d   1      -3.207   5.989   5.615  0.00  0.00    -0.031 A 
ATOM      3  C3  DEN d   1      -2.281   5.584   4.539  0.00  0.00     0.027 A 
ATOM      4  C4  DEN d   1      -2.806   4.979   2.087  0.00  0.00     0.027 A 
ATOM      5  C5  DEN d   1      -3.812   4.832   1.158  0.00  0.00    -0.003 A 
ATOM      6  C6  DEN d   1      -5.131   5.029   1.472  0.00  0.00     0.001 A 
ATOM      7  C7  DEN d   1      -5.475   5.429   2.737  0.00  0.00     0.017 A 
ATOM      8  C8  DEN d   1      -4.466   5.571   3.681  0.00  0.00    -0.094 A 
ATOM      9  C9  DEN d   1      -3.138   5.379   3.340  0.00  0.00    -0.072 A 
ENDROOT
TORSDOF 0
ENDMDL
