MODEL 1
REMARK minimizedAffinity -3.417629
REMARK minimizedRMSD -1
REMARK  0 active torsions:
REMARK  status: ('A' for Active; 'I' for Inactive)
ROOT
ATOM      1  C1  DEN d   1       4.024  -1.331   3.780  0.00  0.00     0.130 A 
ATOM      2  C2  DEN d   1       5.047  -0.347   4.121  0.00  0.00    -0.031 A 
ATOM      3  C3  DEN d   1       6.000  -0.983   5.053  0.00  0.00     0.027 A 
ATOM      4  C4  DEN d   1       5.993  -3.385   5.992  0.00  0.00     0.027 A 
ATOM      5  C5  DEN d   1       5.318  -4.585   5.999  0.00  0.00    -0.003 A 
ATOM      6  C6  DEN d   1       4.155  -4.773   5.300  0.00  0.00     0.001 A 
ATOM      7  C7  DEN d   1       3.656  -3.758   4.528  0.00  0.00     0.017 A 
ATOM      8  C8  DEN d   1       4.327  -2.542   4.521  0.00  0.00    -0.094 A 
ATOM      9  C9  DEN d   1       5.508  -2.376   5.225  0.00  0.00    -0.072 A 
ENDROOT
TORSDOF 0
ENDMDL
