MODEL 1
REMARK minimizedAffinity 14.5234776
REMARK minimizedRMSD -1
REMARK  0 active torsions:
REMARK  status: ('A' for Active; 'I' for Inactive)
ROOT
ATOM      1  C1  DEN d   1       0.252   0.249  -5.270  0.00  0.00     0.130 A 
ATOM      2  C2  DEN d   1       0.465   1.496  -5.999  0.00  0.00    -0.031 A 
ATOM      3  C3  DEN d   1       1.147   2.443  -5.094  0.00  0.00     0.027 A 
ATOM      4  C4  DEN d   1       1.894   2.099  -2.649  0.00  0.00     0.027 A 
ATOM      5  C5  DEN d   1       1.920   1.210  -1.598  0.00  0.00    -0.003 A 
ATOM      6  C6  DEN d   1       1.366  -0.040  -1.685  0.00  0.00     0.001 A 
ATOM      7  C7  DEN d   1       0.802  -0.452  -2.864  0.00  0.00     0.017 A 
ATOM      8  C8  DEN d   1       0.766   0.442  -3.926  0.00  0.00    -0.094 A 
ATOM      9  C9  DEN d   1       1.342   1.697  -3.822  0.00  0.00    -0.072 A 
ENDROOT
TORSDOF 0
ENDMDL
