MODEL 1
REMARK minimizedAffinity 11.4932289
REMARK minimizedRMSD -1
REMARK  0 active torsions:
REMARK  status: ('A' for Active; 'I' for Inactive)
ROOT
ATOM      1  C1  DEN d   1       1.705  -2.081  -2.215  0.00  0.00     0.130 A 
ATOM      2  C2  DEN d   1       2.196  -1.553  -0.945  0.00  0.00    -0.031 A 
ATOM      3  C3  DEN d   1       2.363  -0.093  -1.091  0.00  0.00     0.027 A 
ATOM      4  C4  DEN d   1       1.905   1.394  -3.148  0.00  0.00     0.027 A 
ATOM      5  C5  DEN d   1       1.489   1.397  -4.461  0.00  0.00    -0.003 A 
ATOM      6  C6  DEN d   1       1.151   0.246  -5.122  0.00  0.00     0.001 A 
ATOM      7  C7  DEN d   1       1.180  -0.952  -4.458  0.00  0.00     0.017 A 
ATOM      8  C8  DEN d   1       1.605  -0.963  -3.136  0.00  0.00    -0.094 A 
ATOM      9  C9  DEN d   1       1.931   0.212  -2.482  0.00  0.00    -0.072 A 
ENDROOT
TORSDOF 0
ENDMDL
