MODEL 1
REMARK minimizedAffinity 7.56194925
REMARK minimizedRMSD -1
REMARK  0 active torsions:
REMARK  status: ('A' for Active; 'I' for Inactive)
ROOT
ATOM      1  C1  DEN d   1       2.041  -2.792  -2.399  0.00  0.00     0.130 A 
ATOM      2  C2  DEN d   1       1.447  -3.326  -3.621  0.00  0.00    -0.031 A 
ATOM      3  C3  DEN d   1       0.973  -2.187  -4.433  0.00  0.00     0.027 A 
ATOM      4  C4  DEN d   1       1.103   0.337  -3.921  0.00  0.00     0.027 A 
ATOM      5  C5  DEN d   1       1.510   1.276  -2.999  0.00  0.00    -0.003 A 
ATOM      6  C6  DEN d   1       2.087   0.926  -1.807  0.00  0.00     0.001 A 
ATOM      7  C7  DEN d   1       2.314  -0.395  -1.524  0.00  0.00     0.017 A 
ATOM      8  C8  DEN d   1       1.900  -1.348  -2.446  0.00  0.00    -0.094 A 
ATOM      9  C9  DEN d   1       1.330  -0.973  -3.651  0.00  0.00    -0.072 A 
ENDROOT
TORSDOF 0
ENDMDL
