MODEL 1
REMARK minimizedAffinity 5.18596077
REMARK minimizedRMSD -1
REMARK  0 active torsions:
REMARK  status: ('A' for Active; 'I' for Inactive)
ROOT
ATOM      1  C1  DEN d   1       1.345   1.388  -1.546  0.00  0.00     0.130 A 
ATOM      2  C2  DEN d   1       1.347   0.914  -2.928  0.00  0.00    -0.031 A 
ATOM      3  C3  DEN d   1       2.089   1.895  -3.745  0.00  0.00     0.027 A 
ATOM      4  C4  DEN d   1       3.234   4.086  -3.010  0.00  0.00     0.027 A 
ATOM      5  C5  DEN d   1       3.490   4.914  -1.939  0.00  0.00    -0.003 A 
ATOM      6  C6  DEN d   1       3.025   4.644  -0.679  0.00  0.00     0.001 A 
ATOM      7  C7  DEN d   1       2.316   3.495  -0.450  0.00  0.00     0.017 A 
ATOM      8  C8  DEN d   1       2.047   2.659  -1.525  0.00  0.00    -0.094 A 
ATOM      9  C9  DEN d   1       2.537   2.943  -2.789  0.00  0.00    -0.072 A 
ENDROOT
TORSDOF 0
ENDMDL
