MODEL 1
REMARK minimizedAffinity 16.5688972
REMARK minimizedRMSD -1
REMARK  0 active torsions:
REMARK  status: ('A' for Active; 'I' for Inactive)
ROOT
ATOM      1  C   UNL d   1       4.773   0.657  -0.283  0.00  0.00     0.124 A 
ATOM      2  C1  UNL d   1       3.637   0.384  -1.032  0.00  0.00     0.062 A 
ATOM      3  C2  UNL d   1       2.375   0.499  -0.456  0.00  0.00     0.162 A 
ATOM      4  C3  UNL d   1       2.241   0.889   0.876  0.00  0.00    -0.034 A 
ATOM      5  C4  UNL d   1       3.389   1.161   1.624  0.00  0.00     0.162 A 
ATOM      6  C5  UNL d   1       4.648   1.045   1.044  0.00  0.00     0.062 A 
ATOM      7  F   UNL d   1       5.745   1.309   1.769  0.00  0.00    -0.097 F 
ATOM      8  F1  UNL d   1       3.297   1.538   2.907  0.00  0.00    -0.096 F 
ATOM      9  I   UNL d   1       0.356   1.061   1.741  0.00  0.00    -0.060 I 
ATOM     10  F2  UNL d   1       1.294   0.229  -1.204  0.00  0.00    -0.096 F 
ATOM     11  F3  UNL d   1       3.755   0.008  -2.313  0.00  0.00    -0.097 F 
ATOM     12  F4  UNL d   1       5.986   0.545  -0.839  0.00  0.00    -0.092 F 
ENDROOT
TORSDOF 0
ENDMDL
