MODEL 1
REMARK minimizedAffinity 9.80056763
REMARK minimizedRMSD -1
REMARK  0 active torsions:
REMARK  status: ('A' for Active; 'I' for Inactive)
ROOT
ATOM      1  C   UNL d   1      -3.502   1.741  -4.553  0.00  0.00     0.124 A 
ATOM      2  C1  UNL d   1      -2.789   0.822  -3.795  0.00  0.00     0.062 A 
ATOM      3  C2  UNL d   1      -3.154   0.568  -2.477  0.00  0.00     0.162 A 
ATOM      4  C3  UNL d   1      -4.239   1.234  -1.906  0.00  0.00    -0.034 A 
ATOM      5  C4  UNL d   1      -4.951   2.157  -2.673  0.00  0.00     0.162 A 
ATOM      6  C5  UNL d   1      -4.582   2.408  -3.991  0.00  0.00     0.062 A 
ATOM      7  F   UNL d   1      -5.272   3.296  -4.721  0.00  0.00    -0.097 F 
ATOM      8  F1  UNL d   1      -5.999   2.815  -2.156  0.00  0.00    -0.096 F 
ATOM      9  I   UNL d   1      -4.788   0.857   0.066  0.00  0.00    -0.060 I 
ATOM     10  F2  UNL d   1      -2.447  -0.325  -1.768  0.00  0.00    -0.096 F 
ATOM     11  F3  UNL d   1      -1.745   0.177  -4.335  0.00  0.00    -0.097 F 
ATOM     12  F4  UNL d   1      -3.148   1.984  -5.821  0.00  0.00    -0.092 F 
ENDROOT
TORSDOF 0
ENDMDL
