MODEL 1
REMARK minimizedAffinity 34.7862701
REMARK minimizedRMSD -1
REMARK  0 active torsions:
REMARK  status: ('A' for Active; 'I' for Inactive)
ROOT
ATOM      1  C   UNL d   1       0.977   0.488   1.098  0.00  0.00     0.124 A 
ATOM      2  C1  UNL d   1       1.803   0.842   2.155  0.00  0.00     0.062 A 
ATOM      3  C2  UNL d   1       3.144   1.138   1.927  0.00  0.00     0.162 A 
ATOM      4  C3  UNL d   1       3.667   1.082   0.635  0.00  0.00    -0.034 A 
ATOM      5  C4  UNL d   1       2.831   0.723  -0.423  0.00  0.00     0.162 A 
ATOM      6  C5  UNL d   1       1.491   0.428  -0.190  0.00  0.00     0.062 A 
ATOM      7  F   UNL d   1       0.695   0.085  -1.213  0.00  0.00    -0.097 F 
ATOM      8  F1  UNL d   1       3.301   0.658  -1.677  0.00  0.00    -0.096 F 
ATOM      9  I   UNL d   1       5.672   1.523   0.290  0.00  0.00    -0.060 I 
ATOM     10  F2  UNL d   1       3.919   1.478   2.968  0.00  0.00    -0.096 F 
ATOM     11  F3  UNL d   1       1.309   0.900   3.400  0.00  0.00    -0.097 F 
ATOM     12  F4  UNL d   1      -0.312   0.202   1.320  0.00  0.00    -0.092 F 
ENDROOT
TORSDOF 0
ENDMDL
