MODEL 1
REMARK minimizedAffinity 21.7636356
REMARK minimizedRMSD -1
REMARK  0 active torsions:
REMARK  status: ('A' for Active; 'I' for Inactive)
ROOT
ATOM      1  C   UNL d   1      -2.494   0.221  -1.711  0.00  0.00     0.124 A 
ATOM      2  C1  UNL d   1      -1.178   0.622  -1.889  0.00  0.00     0.062 A 
ATOM      3  C2  UNL d   1      -0.555   1.424  -0.937  0.00  0.00     0.162 A 
ATOM      4  C3  UNL d   1      -1.249   1.829   0.204  0.00  0.00    -0.034 A 
ATOM      5  C4  UNL d   1      -2.573   1.422   0.375  0.00  0.00     0.162 A 
ATOM      6  C5  UNL d   1      -3.191   0.621  -0.580  0.00  0.00     0.062 A 
ATOM      7  F   UNL d   1      -4.463   0.235  -0.406  0.00  0.00    -0.097 F 
ATOM      8  F1  UNL d   1      -3.269   1.794   1.460  0.00  0.00    -0.096 F 
ATOM      9  I   UNL d   1      -0.321   3.028   1.630  0.00  0.00    -0.060 I 
ATOM     10  F2  UNL d   1       0.718   1.796  -1.135  0.00  0.00    -0.096 F 
ATOM     11  F3  UNL d   1      -0.503   0.237  -2.982  0.00  0.00    -0.097 F 
ATOM     12  F4  UNL d   1      -3.091  -0.550  -2.630  0.00  0.00    -0.092 F 
ENDROOT
TORSDOF 0
ENDMDL
