MODEL 1
REMARK minimizedAffinity 25.0983315
REMARK minimizedRMSD -1
REMARK  0 active torsions:
REMARK  status: ('A' for Active; 'I' for Inactive)
ROOT
ATOM      1  C   UNL d   1       4.865   0.469  -1.088  0.00  0.00     0.124 A 
ATOM      2  C1  UNL d   1       3.689  -0.098  -1.559  0.00  0.00     0.062 A 
ATOM      3  C2  UNL d   1       2.508   0.036  -0.833  0.00  0.00     0.162 A 
ATOM      4  C3  UNL d   1       2.498   0.742   0.370  0.00  0.00    -0.034 A 
ATOM      5  C4  UNL d   1       3.685   1.309   0.837  0.00  0.00     0.162 A 
ATOM      6  C5  UNL d   1       4.863   1.171   0.108  0.00  0.00     0.062 A 
ATOM      7  F   UNL d   1       5.998   1.720   0.564  0.00  0.00    -0.097 F 
ATOM      8  F1  UNL d   1       3.711   1.994   1.989  0.00  0.00    -0.096 F 
ATOM      9  I   UNL d   1       0.735   0.945   1.457  0.00  0.00    -0.060 I 
ATOM     10  F2  UNL d   1       1.386  -0.522  -1.312  0.00  0.00    -0.096 F 
ATOM     11  F3  UNL d   1       3.689  -0.779  -2.714  0.00  0.00    -0.097 F 
ATOM     12  F4  UNL d   1       6.000   0.337  -1.788  0.00  0.00    -0.092 F 
ENDROOT
TORSDOF 0
ENDMDL
