MODEL 1
REMARK minimizedAffinity 28.9987164
REMARK minimizedRMSD -1
REMARK  0 active torsions:
REMARK  status: ('A' for Active; 'I' for Inactive)
ROOT
ATOM      1  C   UNL d   1      -2.926   1.073  -5.194  0.00  0.00     0.124 A 
ATOM      2  C1  UNL d   1      -1.865   0.617  -4.424  0.00  0.00     0.062 A 
ATOM      3  C2  UNL d   1      -2.030  -0.485  -3.589  0.00  0.00     0.162 A 
ATOM      4  C3  UNL d   1      -3.260  -1.138  -3.520  0.00  0.00    -0.034 A 
ATOM      5  C4  UNL d   1      -4.323  -0.672  -4.296  0.00  0.00     0.162 A 
ATOM      6  C5  UNL d   1      -4.153   0.429  -5.130  0.00  0.00     0.062 A 
ATOM      7  F   UNL d   1      -5.179   0.869  -5.873  0.00  0.00    -0.097 F 
ATOM      8  F1  UNL d   1      -5.519  -1.277  -4.254  0.00  0.00    -0.096 F 
ATOM      9  I   UNL d   1      -3.510  -2.785  -2.272  0.00  0.00    -0.060 I 
ATOM     10  F2  UNL d   1      -0.988  -0.904  -2.856  0.00  0.00    -0.096 F 
ATOM     11  F3  UNL d   1      -0.679   1.238  -4.484  0.00  0.00    -0.097 F 
ATOM     12  F4  UNL d   1      -2.765   2.134  -5.996  0.00  0.00    -0.092 F 
ENDROOT
TORSDOF 0
ENDMDL
