MODEL 1
REMARK minimizedAffinity 27.390583
REMARK minimizedRMSD -1
REMARK  0 active torsions:
REMARK  status: ('A' for Active; 'I' for Inactive)
ROOT
ATOM      1  C   UNL d   1       4.919   0.516  -2.105  0.00  0.00     0.124 A 
ATOM      2  C1  UNL d   1       4.661  -0.403  -3.113  0.00  0.00     0.062 A 
ATOM      3  C2  UNL d   1       3.799  -1.471  -2.883  0.00  0.00     0.162 A 
ATOM      4  C3  UNL d   1       3.186  -1.625  -1.639  0.00  0.00    -0.034 A 
ATOM      5  C4  UNL d   1       3.451  -0.698  -0.630  0.00  0.00     0.162 A 
ATOM      6  C5  UNL d   1       4.314   0.368  -0.865  0.00  0.00     0.062 A 
ATOM      7  F   UNL d   1       4.562   1.255   0.110  0.00  0.00    -0.097 F 
ATOM      8  F1  UNL d   1       2.879  -0.816   0.577  0.00  0.00    -0.096 F 
ATOM      9  I   UNL d   1       1.896  -3.221  -1.291  0.00  0.00    -0.060 I 
ATOM     10  F2  UNL d   1       3.568  -2.344  -3.875  0.00  0.00    -0.096 F 
ATOM     11  F3  UNL d   1       5.245  -0.263  -4.312  0.00  0.00    -0.097 F 
ATOM     12  F4  UNL d   1       5.750   1.542  -2.329  0.00  0.00    -0.092 F 
ENDROOT
TORSDOF 0
ENDMDL
