MODEL 1
REMARK minimizedAffinity 24.855072
REMARK minimizedRMSD -1
REMARK  0 active torsions:
REMARK  status: ('A' for Active; 'I' for Inactive)
ROOT
ATOM      1  C   UNL d   1       2.964  -1.793  -1.175  0.00  0.00     0.124 A 
ATOM      2  C1  UNL d   1       3.796  -1.446  -2.230  0.00  0.00     0.062 A 
ATOM      3  C2  UNL d   1       4.664  -0.364  -2.111  0.00  0.00     0.162 A 
ATOM      4  C3  UNL d   1       4.703   0.379  -0.931  0.00  0.00    -0.034 A 
ATOM      5  C4  UNL d   1       3.862   0.025   0.125  0.00  0.00     0.162 A 
ATOM      6  C5  UNL d   1       2.997  -1.057   0.001  0.00  0.00     0.062 A 
ATOM      7  F   UNL d   1       2.193  -1.391   1.021  0.00  0.00    -0.097 F 
ATOM      8  F1  UNL d   1       3.875   0.718   1.274  0.00  0.00    -0.096 F 
ATOM      9  I   UNL d   1       5.999   1.998  -0.749  0.00  0.00    -0.060 I 
ATOM     10  F2  UNL d   1       5.457  -0.052  -3.146  0.00  0.00    -0.096 F 
ATOM     11  F3  UNL d   1       3.765  -2.155  -3.368  0.00  0.00    -0.097 F 
ATOM     12  F4  UNL d   1       2.130  -2.834  -1.293  0.00  0.00    -0.092 F 
ENDROOT
TORSDOF 0
ENDMDL
