MODEL 1
REMARK minimizedAffinity 20.3746662
REMARK minimizedRMSD -1
REMARK  0 active torsions:
REMARK  status: ('A' for Active; 'I' for Inactive)
ROOT
ATOM      1  C   UNL d   1      -2.625   0.522  -4.688  0.00  0.00     0.124 A 
ATOM      2  C1  UNL d   1      -2.359  -0.164  -3.510  0.00  0.00     0.062 A 
ATOM      3  C2  UNL d   1      -3.320  -0.232  -2.507  0.00  0.00     0.162 A 
ATOM      4  C3  UNL d   1      -4.559   0.387  -2.676  0.00  0.00    -0.034 A 
ATOM      5  C4  UNL d   1      -4.820   1.076  -3.862  0.00  0.00     0.162 A 
ATOM      6  C5  UNL d   1      -3.855   1.140  -4.862  0.00  0.00     0.062 A 
ATOM      7  F   UNL d   1      -4.115   1.803  -5.999  0.00  0.00    -0.097 F 
ATOM      8  F1  UNL d   1      -6.000   1.682  -4.058  0.00  0.00    -0.096 F 
ATOM      9  I   UNL d   1      -6.000   0.288  -1.177  0.00  0.00    -0.060 I 
ATOM     10  F2  UNL d   1      -3.035  -0.901  -1.380  0.00  0.00    -0.096 F 
ATOM     11  F3  UNL d   1      -1.171  -0.762  -3.339  0.00  0.00    -0.097 F 
ATOM     12  F4  UNL d   1      -1.698   0.586  -5.651  0.00  0.00    -0.092 F 
ENDROOT
TORSDOF 0
ENDMDL
