MODEL 1
REMARK minimizedAffinity 18.065918
REMARK minimizedRMSD -1
REMARK  0 active torsions:
REMARK  status: ('A' for Active; 'I' for Inactive)
ROOT
ATOM      1  C   UNL d   1       0.656  -1.941   3.252  0.00  0.00     0.124 A 
ATOM      2  C1  UNL d   1      -0.545  -2.581   3.523  0.00  0.00     0.062 A 
ATOM      3  C2  UNL d   1      -0.564  -3.735   4.301  0.00  0.00     0.162 A 
ATOM      4  C3  UNL d   1       0.624  -4.256   4.814  0.00  0.00    -0.034 A 
ATOM      5  C4  UNL d   1       1.828  -3.607   4.537  0.00  0.00     0.162 A 
ATOM      6  C5  UNL d   1       1.841  -2.454   3.758  0.00  0.00     0.062 A 
ATOM      7  F   UNL d   1       3.003  -1.837   3.497  0.00  0.00    -0.097 F 
ATOM      8  F1  UNL d   1       2.988  -4.081   5.015  0.00  0.00    -0.096 F 
ATOM      9  I   UNL d   1       0.601  -5.981   5.978  0.00  0.00    -0.060 I 
ATOM     10  F2  UNL d   1      -1.739  -4.333   4.547  0.00  0.00    -0.096 F 
ATOM     11  F3  UNL d   1      -1.692  -2.087   3.033  0.00  0.00    -0.097 F 
ATOM     12  F4  UNL d   1       0.671  -0.831   2.502  0.00  0.00    -0.092 F 
ENDROOT
TORSDOF 0
ENDMDL
