MODEL 1
REMARK minimizedAffinity -4.78074837
REMARK minimizedRMSD -1
REMARK  3 active torsions:
REMARK  status: ('A' for Active; 'I' for Inactive)
REMARK    1  A    between atoms: C3'_2  and  C2'_3 
REMARK    2  A    between atoms: C2'_3  and  C1'_4 
REMARK    3  A    between atoms: C1'_4  and  C1_5 
ROOT
ATOM      1  C1  N4B d   1       0.382   0.358  -0.007  0.00  0.00    -0.075 A 
ATOM      2  C2  N4B d   1      -0.867   0.870   0.408  0.00  0.00     0.002 A 
ATOM      3  C3  N4B d   1      -1.041   2.224   0.553  0.00  0.00     0.002 A 
ATOM      4  C4  N4B d   1       0.021   3.082   0.309  0.00  0.00    -0.004 A 
ATOM      5  C5  N4B d   1       1.218   2.582  -0.115  0.00  0.00     0.002 A 
ATOM      6  C6  N4B d   1       1.405   1.223  -0.270  0.00  0.00     0.002 A 
ENDROOT
BRANCH   1   7
ATOM      7  C1' N4B d   1       0.645  -1.120  -0.097  0.00  0.00     0.057 C 
BRANCH   7   8
ATOM      8  C2' N4B d   1      -0.596  -1.817  -0.647  0.00  0.00     0.009 C 
BRANCH   8   9
ATOM      9  C3' N4B d   1      -0.294  -3.229  -1.117  0.00  0.00     0.004 C 
ATOM     10  C4' N4B d   1       0.088  -3.289  -2.566  0.00  0.00     0.003 C 
ENDBRANCH   8   9
ENDBRANCH   7   8
ENDBRANCH   1   7
TORSDOF 3
ENDMDL
