MODEL 1
REMARK minimizedAffinity -6.01218176
REMARK minimizedRMSD -1
REMARK  3 active torsions:
REMARK  status: ('A' for Active; 'I' for Inactive)
REMARK    1  A    between atoms: C3'_2  and  C2'_3 
REMARK    2  A    between atoms: C2'_3  and  C1'_4 
REMARK    3  A    between atoms: C1'_4  and  C1_5 
ROOT
ATOM      1  C1  N4B d   1       0.170   0.293   0.311  0.00  0.00    -0.075 A 
ATOM      2  C2  N4B d   1      -0.736   1.046   1.089  0.00  0.00     0.002 A 
ATOM      3  C3  N4B d   1      -0.819   2.406   0.922  0.00  0.00     0.002 A 
ATOM      4  C4  N4B d   1       0.005   3.036   0.001  0.00  0.00    -0.004 A 
ATOM      5  C5  N4B d   1       0.860   2.298  -0.765  0.00  0.00     0.002 A 
ATOM      6  C6  N4B d   1       0.950   0.929  -0.611  0.00  0.00     0.002 A 
ENDROOT
BRANCH   1   7
ATOM      7  C1' N4B d   1       0.358  -1.185   0.518  0.00  0.00     0.057 C 
BRANCH   7   8
ATOM      8  C2' N4B d   1       0.455  -1.873  -0.841  0.00  0.00     0.009 C 
BRANCH   8   9
ATOM      9  C3' N4B d   1      -0.008  -3.319  -0.781  0.00  0.00     0.004 C 
ATOM     10  C4' N4B d   1      -0.718  -3.754  -2.028  0.00  0.00     0.003 C 
ENDBRANCH   8   9
ENDBRANCH   7   8
ENDBRANCH   1   7
TORSDOF 3
ENDMDL
