MODEL 1
REMARK minimizedAffinity -4.29163885
REMARK minimizedRMSD -1
REMARK  3 active torsions:
REMARK  status: ('A' for Active; 'I' for Inactive)
REMARK    1  A    between atoms: C3'_2  and  C2'_3 
REMARK    2  A    between atoms: C2'_3  and  C1'_4 
REMARK    3  A    between atoms: C1'_4  and  C1_5 
ROOT
ATOM      1  C1  N4B d   1       0.444   0.114   0.327  0.00  0.00    -0.075 A 
ATOM      2  C2  N4B d   1       1.679   0.798   0.372  0.00  0.00     0.002 A 
ATOM      3  C3  N4B d   1       1.703   2.169   0.435  0.00  0.00     0.002 A 
ATOM      4  C4  N4B d   1       0.511   2.877   0.435  0.00  0.00    -0.004 A 
ATOM      5  C5  N4B d   1      -0.679   2.208   0.416  0.00  0.00     0.002 A 
ATOM      6  C6  N4B d   1      -0.718   0.830   0.357  0.00  0.00     0.002 A 
ENDROOT
BRANCH   1   7
ATOM      7  C1' N4B d   1       0.368  -1.380   0.171  0.00  0.00     0.057 C 
BRANCH   7   8
ATOM      8  C2' N4B d   1      -0.584  -1.716  -0.973  0.00  0.00     0.009 C 
BRANCH   8   9
ATOM      9  C3' N4B d   1      -0.395  -3.140  -1.469  0.00  0.00     0.004 C 
ATOM     10  C4' N4B d   1      -0.015  -3.204  -2.918  0.00  0.00     0.003 C 
ENDBRANCH   8   9
ENDBRANCH   7   8
ENDBRANCH   1   7
TORSDOF 3
ENDMDL
