MODEL 1
REMARK minimizedAffinity -4.5229907
REMARK minimizedRMSD -1
REMARK  3 active torsions:
REMARK  status: ('A' for Active; 'I' for Inactive)
REMARK    1  A    between atoms: C3'_2  and  C2'_3 
REMARK    2  A    between atoms: C2'_3  and  C1'_4 
REMARK    3  A    between atoms: C1'_4  and  C1_5 
ROOT
ATOM      1  C1  N4B d   1      -0.278   0.459   0.271  0.00  0.00    -0.075 A 
ATOM      2  C2  N4B d   1      -0.803   1.546   1.005  0.00  0.00     0.002 A 
ATOM      3  C3  N4B d   1      -0.317   2.814   0.797  0.00  0.00     0.002 A 
ATOM      4  C4  N4B d   1       0.702   3.015  -0.122  0.00  0.00    -0.004 A 
ATOM      5  C5  N4B d   1       1.186   1.964  -0.845  0.00  0.00     0.002 A 
ATOM      6  C6  N4B d   1       0.704   0.686  -0.649  0.00  0.00     0.002 A 
ENDROOT
BRANCH   1   7
ATOM      7  C1' N4B d   1      -0.718  -0.957   0.525  0.00  0.00     0.057 C 
BRANCH   7   8
ATOM      8  C2' N4B d   1       0.022  -1.889  -0.429  0.00  0.00     0.009 C 
BRANCH   8   9
ATOM      9  C3' N4B d   1      -0.751  -3.172  -0.683  0.00  0.00     0.004 C 
ATOM     10  C4' N4B d   1      -0.398  -3.813  -1.992  0.00  0.00     0.003 C 
ENDBRANCH   8   9
ENDBRANCH   7   8
ENDBRANCH   1   7
TORSDOF 3
ENDMDL
