MODEL 1
REMARK minimizedAffinity -0.285231858
REMARK minimizedRMSD -1
REMARK  3 active torsions:
REMARK  status: ('A' for Active; 'I' for Inactive)
REMARK    1  A    between atoms: C3'_2  and  C2'_3 
REMARK    2  A    between atoms: C2'_3  and  C1'_4 
REMARK    3  A    between atoms: C1'_4  and  C1_5 
ROOT
ATOM      1  C1  N4B d   1      -0.369  -1.239  -1.519  0.00  0.00    -0.075 A 
ATOM      2  C2  N4B d   1      -1.565  -1.920  -1.203  0.00  0.00     0.002 A 
ATOM      3  C3  N4B d   1      -1.837  -3.135  -1.782  0.00  0.00     0.002 A 
ATOM      4  C4  N4B d   1      -0.940  -3.679  -2.689  0.00  0.00    -0.004 A 
ATOM      5  C5  N4B d   1       0.225  -3.027  -2.970  0.00  0.00     0.002 A 
ATOM      6  C6  N4B d   1       0.513  -1.807  -2.393  0.00  0.00     0.002 A 
ENDROOT
BRANCH   1   7
ATOM      7  C1' N4B d   1      -0.068   0.132  -0.978  0.00  0.00     0.057 C 
BRANCH   7   8
ATOM      8  C2' N4B d   1      -0.142   0.096   0.546  0.00  0.00     0.009 C 
BRANCH   8   9
ATOM      9  C3' N4B d   1      -0.997   1.222   1.100  0.00  0.00     0.004 C 
ATOM     10  C4' N4B d   1      -0.444   2.580   0.787  0.00  0.00     0.003 C 
ENDBRANCH   8   9
ENDBRANCH   7   8
ENDBRANCH   1   7
TORSDOF 3
ENDMDL
