MODEL 1
REMARK minimizedAffinity 4.58799982
REMARK minimizedRMSD -1
REMARK  3 active torsions:
REMARK  status: ('A' for Active; 'I' for Inactive)
REMARK    1  A    between atoms: C3'_2  and  C2'_3 
REMARK    2  A    between atoms: C2'_3  and  C1'_4 
REMARK    3  A    between atoms: C1'_4  and  C1_5 
ROOT
ATOM      1  C1  N4B d   1       0.973   1.354  -1.259  0.00  0.00    -0.075 A 
ATOM      2  C2  N4B d   1       2.357   1.279  -0.988  0.00  0.00     0.002 A 
ATOM      3  C3  N4B d   1       2.857   0.231  -0.255  0.00  0.00     0.002 A 
ATOM      4  C4  N4B d   1       1.994  -0.740   0.231  0.00  0.00    -0.004 A 
ATOM      5  C5  N4B d   1       0.662  -0.673  -0.056  0.00  0.00     0.002 A 
ATOM      6  C6  N4B d   1       0.146   0.372  -0.795  0.00  0.00     0.002 A 
ENDROOT
BRANCH   1   7
ATOM      7  C1' N4B d   1       0.368   2.526  -1.982  0.00  0.00     0.057 C 
BRANCH   7   8
ATOM      8  C2' N4B d   1      -0.139   2.065  -3.345  0.00  0.00     0.009 C 
BRANCH   8   9
ATOM      9  C3' N4B d   1      -1.469   2.707  -3.703  0.00  0.00     0.004 C 
ATOM     10  C4' N4B d   1      -1.806   2.571  -5.158  0.00  0.00     0.003 C 
ENDBRANCH   8   9
ENDBRANCH   7   8
ENDBRANCH   1   7
TORSDOF 3
ENDMDL
