MODEL 1
REMARK minimizedAffinity -3.37657428
REMARK minimizedRMSD -1
REMARK  3 active torsions:
REMARK  status: ('A' for Active; 'I' for Inactive)
REMARK    1  A    between atoms: C3'_2  and  C2'_3 
REMARK    2  A    between atoms: C2'_3  and  C1'_4 
REMARK    3  A    between atoms: C1'_4  and  C1_5 
ROOT
ATOM      1  C1  N4B d   1      -0.303   0.357   0.440  0.00  0.00    -0.075 A 
ATOM      2  C2  N4B d   1       0.745   0.578  -0.481  0.00  0.00     0.002 A 
ATOM      3  C3  N4B d   1       1.069   1.858  -0.858  0.00  0.00     0.002 A 
ATOM      4  C4  N4B d   1       0.349   2.927  -0.345  0.00  0.00    -0.004 A 
ATOM      5  C5  N4B d   1      -0.644   2.707   0.563  0.00  0.00     0.002 A 
ATOM      6  C6  N4B d   1      -0.978   1.426   0.955  0.00  0.00     0.002 A 
ENDROOT
BRANCH   1   7
ATOM      7  C1' N4B d   1      -0.750  -1.029   0.818  0.00  0.00     0.057 C 
BRANCH   7   8
ATOM      8  C2' N4B d   1      -0.357  -2.001  -0.291  0.00  0.00     0.009 C 
BRANCH   8   9
ATOM      9  C3' N4B d   1      -1.240  -3.237  -0.302  0.00  0.00     0.004 C 
ATOM     10  C4' N4B d   1      -1.564  -3.707  -1.688  0.00  0.00     0.003 C 
ENDBRANCH   8   9
ENDBRANCH   7   8
ENDBRANCH   1   7
TORSDOF 3
ENDMDL
