MODEL 1
REMARK minimizedAffinity -3.74583364
REMARK minimizedRMSD -1
REMARK  3 active torsions:
REMARK  status: ('A' for Active; 'I' for Inactive)
REMARK    1  A    between atoms: C3'_2  and  C2'_3 
REMARK    2  A    between atoms: C2'_3  and  C1'_4 
REMARK    3  A    between atoms: C1'_4  and  C1_5 
ROOT
ATOM      1  C1  N4B d   1       0.403   0.057   0.559  0.00  0.00    -0.075 A 
ATOM      2  C2  N4B d   1      -0.476   1.155   0.682  0.00  0.00     0.002 A 
ATOM      3  C3  N4B d   1       0.027   2.422   0.844  0.00  0.00     0.002 A 
ATOM      4  C4  N4B d   1       1.399   2.613   0.905  0.00  0.00    -0.004 A 
ATOM      5  C5  N4B d   1       2.242   1.550   0.760  0.00  0.00     0.002 A 
ATOM      6  C6  N4B d   1       1.750   0.271   0.593  0.00  0.00     0.002 A 
ENDROOT
BRANCH   1   7
ATOM      7  C1' N4B d   1      -0.101  -1.358   0.466  0.00  0.00     0.057 C 
BRANCH   7   8
ATOM      8  C2' N4B d   1      -0.180  -1.766  -1.002  0.00  0.00     0.009 C 
BRANCH   8   9
ATOM      9  C3' N4B d   1      -0.733  -3.170  -1.173  0.00  0.00     0.004 C 
ATOM     10  C4' N4B d   1      -0.292  -3.816  -2.452  0.00  0.00     0.003 C 
ENDBRANCH   8   9
ENDBRANCH   7   8
ENDBRANCH   1   7
TORSDOF 3
ENDMDL
