MODEL 1
REMARK minimizedAffinity 2.18159413
REMARK minimizedRMSD -1
REMARK  0 active torsions:
REMARK  status: ('A' for Active; 'I' for Inactive)
ROOT
ATOM      1  C   UNL d   1       1.892   1.481  -0.759  0.00  0.00     0.124 A 
ATOM      2  C1  UNL d   1       0.751   1.346  -1.537  0.00  0.00     0.062 A 
ATOM      3  C2  UNL d   1      -0.011   0.183  -1.467  0.00  0.00     0.162 A 
ATOM      4  C3  UNL d   1       0.365  -0.854  -0.612  0.00  0.00    -0.034 A 
ATOM      5  C4  UNL d   1       1.514  -0.711   0.167  0.00  0.00     0.162 A 
ATOM      6  C5  UNL d   1       2.272   0.453   0.092  0.00  0.00     0.062 A 
ATOM      7  F   UNL d   1       3.374   0.582   0.846  0.00  0.00    -0.097 F 
ATOM      8  F1  UNL d   1       1.904  -1.688   0.999  0.00  0.00    -0.096 F 
ATOM      9  I   UNL d   1      -0.772  -2.594  -0.503  0.00  0.00    -0.060 I 
ATOM     10  F2  UNL d   1      -1.109   0.079  -2.230  0.00  0.00    -0.096 F 
ATOM     11  F3  UNL d   1       0.382   2.337  -2.361  0.00  0.00    -0.097 F 
ATOM     12  F4  UNL d   1       2.624   2.600  -0.830  0.00  0.00    -0.092 F 
ENDROOT
TORSDOF 0
ENDMDL
