MODEL 1
REMARK minimizedAffinity 5.83688259
REMARK minimizedRMSD -1
REMARK  0 active torsions:
REMARK  status: ('A' for Active; 'I' for Inactive)
ROOT
ATOM      1  C   UNL d   1      -1.691  -3.960  -1.710  0.00  0.00     0.124 A 
ATOM      2  C1  UNL d   1      -0.718  -3.553  -2.612  0.00  0.00     0.062 A 
ATOM      3  C2  UNL d   1       0.346  -2.763  -2.186  0.00  0.00     0.162 A 
ATOM      4  C3  UNL d   1       0.444  -2.376  -0.849  0.00  0.00    -0.034 A 
ATOM      5  C4  UNL d   1      -0.539  -2.789   0.053  0.00  0.00     0.162 A 
ATOM      6  C5  UNL d   1      -1.600  -3.578  -0.379  0.00  0.00     0.062 A 
ATOM      7  F   UNL d   1      -2.539  -3.971   0.495  0.00  0.00    -0.097 F 
ATOM      8  F1  UNL d   1      -0.475  -2.435   1.345  0.00  0.00    -0.096 F 
ATOM      9  I   UNL d   1       2.033  -1.196  -0.208  0.00  0.00    -0.060 I 
ATOM     10  F2  UNL d   1       1.271  -2.384  -3.080  0.00  0.00    -0.096 F 
ATOM     11  F3  UNL d   1      -0.804  -3.919  -3.899  0.00  0.00    -0.097 F 
ATOM     12  F4  UNL d   1      -2.714  -4.719  -2.123  0.00  0.00    -0.092 F 
ENDROOT
TORSDOF 0
ENDMDL
