MODEL 1
REMARK minimizedAffinity 0.932613432
REMARK minimizedRMSD -1
REMARK  0 active torsions:
REMARK  status: ('A' for Active; 'I' for Inactive)
ROOT
ATOM      1  C   UNL d   1      -1.110   2.334   0.781  0.00  0.00     0.124 A 
ATOM      2  C1  UNL d   1      -1.631   1.048   0.797  0.00  0.00     0.062 A 
ATOM      3  C2  UNL d   1      -0.816  -0.041   0.498  0.00  0.00     0.162 A 
ATOM      4  C3  UNL d   1       0.529   0.153   0.180  0.00  0.00    -0.034 A 
ATOM      5  C4  UNL d   1       1.044   1.450   0.165  0.00  0.00     0.162 A 
ATOM      6  C5  UNL d   1       0.226   2.534   0.465  0.00  0.00     0.062 A 
ATOM      7  F   UNL d   1       0.730   3.777   0.449  0.00  0.00    -0.097 F 
ATOM      8  F1  UNL d   1       2.332   1.672  -0.136  0.00  0.00    -0.096 F 
ATOM      9  I   UNL d   1       1.750  -1.471  -0.268  0.00  0.00    -0.060 I 
ATOM     10  F2  UNL d   1      -1.345  -1.273   0.521  0.00  0.00    -0.096 F 
ATOM     11  F3  UNL d   1      -2.922   0.852   1.101  0.00  0.00    -0.097 F 
ATOM     12  F4  UNL d   1      -1.897   3.380   1.069  0.00  0.00    -0.092 F 
ENDROOT
TORSDOF 0
ENDMDL
