MODEL 1
REMARK minimizedAffinity 3.9600575
REMARK minimizedRMSD -1
REMARK  0 active torsions:
REMARK  status: ('A' for Active; 'I' for Inactive)
ROOT
ATOM      1  C   UNL d   1      -0.949  -3.709  -2.345  0.00  0.00     0.124 A 
ATOM      2  C1  UNL d   1      -0.938  -2.449  -2.926  0.00  0.00     0.062 A 
ATOM      3  C2  UNL d   1      -0.683  -1.322  -2.151  0.00  0.00     0.162 A 
ATOM      4  C3  UNL d   1      -0.437  -1.450  -0.784  0.00  0.00    -0.034 A 
ATOM      5  C4  UNL d   1      -0.450  -2.720  -0.205  0.00  0.00     0.162 A 
ATOM      6  C5  UNL d   1      -0.705  -3.844  -0.985  0.00  0.00     0.062 A 
ATOM      7  F   UNL d   1      -0.715  -5.060  -0.421  0.00  0.00    -0.097 F 
ATOM      8  F1  UNL d   1      -0.217  -2.879   1.106  0.00  0.00    -0.096 F 
ATOM      9  I   UNL d   1      -0.056   0.233   0.380  0.00  0.00    -0.060 I 
ATOM     10  F2  UNL d   1      -0.679  -0.117  -2.739  0.00  0.00    -0.096 F 
ATOM     11  F3  UNL d   1      -1.174  -2.316  -4.240  0.00  0.00    -0.097 F 
ATOM     12  F4  UNL d   1      -1.195  -4.792  -3.093  0.00  0.00    -0.092 F 
ENDROOT
TORSDOF 0
ENDMDL
