MODEL 1
REMARK minimizedAffinity -2.20594645
REMARK minimizedRMSD -1
REMARK  0 active torsions:
REMARK  status: ('A' for Active; 'I' for Inactive)
ROOT
ATOM      1  C   UNL d   1       1.233  -0.039   0.345  0.00  0.00     0.124 A 
ATOM      2  C1  UNL d   1       0.027   0.518  -0.059  0.00  0.00     0.062 A 
ATOM      3  C2  UNL d   1      -1.034  -0.303  -0.429  0.00  0.00     0.162 A 
ATOM      4  C3  UNL d   1      -0.895  -1.690  -0.397  0.00  0.00    -0.034 A 
ATOM      5  C4  UNL d   1       0.321  -2.243   0.009  0.00  0.00     0.162 A 
ATOM      6  C5  UNL d   1       1.379  -1.419   0.378  0.00  0.00     0.062 A 
ATOM      7  F   UNL d   1       2.543  -1.959   0.768  0.00  0.00    -0.097 F 
ATOM      8  F1  UNL d   1       0.489  -3.573   0.052  0.00  0.00    -0.096 F 
ATOM      9  I   UNL d   1      -2.480  -2.921  -0.950  0.00  0.00    -0.060 I 
ATOM     10  F2  UNL d   1      -2.188   0.263  -0.815  0.00  0.00    -0.096 F 
ATOM     11  F3  UNL d   1      -0.116   1.851  -0.093  0.00  0.00    -0.097 F 
ATOM     12  F4  UNL d   1       2.253   0.753   0.699  0.00  0.00    -0.092 F 
ENDROOT
TORSDOF 0
ENDMDL
