MODEL 1
REMARK minimizedAffinity -2.1322794
REMARK minimizedRMSD -1
REMARK  0 active torsions:
REMARK  status: ('A' for Active; 'I' for Inactive)
ROOT
ATOM      1  C   UNL d   1       0.399   1.344  -1.070  0.00  0.00     0.124 A 
ATOM      2  C1  UNL d   1      -0.453   0.518  -0.348  0.00  0.00     0.062 A 
ATOM      3  C2  UNL d   1      -0.958   0.935   0.880  0.00  0.00     0.162 A 
ATOM      4  C3  UNL d   1      -0.613   2.185   1.395  0.00  0.00    -0.034 A 
ATOM      5  C4  UNL d   1       0.244   3.009   0.664  0.00  0.00     0.162 A 
ATOM      6  C5  UNL d   1       0.746   2.588  -0.563  0.00  0.00     0.062 A 
ATOM      7  F   UNL d   1       1.569   3.387  -1.259  0.00  0.00    -0.097 F 
ATOM      8  F1  UNL d   1       0.596   4.217   1.129  0.00  0.00    -0.096 F 
ATOM      9  I   UNL d   1      -1.366   2.812   3.231  0.00  0.00    -0.060 I 
ATOM     10  F2  UNL d   1      -1.778   0.117   1.555  0.00  0.00    -0.096 F 
ATOM     11  F3  UNL d   1      -0.789  -0.685  -0.835  0.00  0.00    -0.097 F 
ATOM     12  F4  UNL d   1       0.884   0.939  -2.250  0.00  0.00    -0.092 F 
ENDROOT
TORSDOF 0
ENDMDL
