MODEL 1
REMARK minimizedAffinity -3.10034537
REMARK minimizedRMSD -1
REMARK  0 active torsions:
REMARK  status: ('A' for Active; 'I' for Inactive)
ROOT
ATOM      1  C   UNL d   1       0.846   2.135   0.091  0.00  0.00     0.124 A 
ATOM      2  C1  UNL d   1      -0.495   1.800  -0.036  0.00  0.00     0.062 A 
ATOM      3  C2  UNL d   1      -0.876   0.466  -0.150  0.00  0.00     0.162 A 
ATOM      4  C3  UNL d   1       0.086  -0.544  -0.136  0.00  0.00    -0.034 A 
ATOM      5  C4  UNL d   1       1.433  -0.199  -0.009  0.00  0.00     0.162 A 
ATOM      6  C5  UNL d   1       1.808   1.135   0.105  0.00  0.00     0.062 A 
ATOM      7  F   UNL d   1       3.105   1.457   0.228  0.00  0.00    -0.097 F 
ATOM      8  F1  UNL d   1       2.384  -1.145   0.008  0.00  0.00    -0.096 F 
ATOM      9  I   UNL d   1      -0.478  -2.540  -0.306  0.00  0.00    -0.060 I 
ATOM     10  F2  UNL d   1      -2.179   0.171  -0.272  0.00  0.00    -0.096 F 
ATOM     11  F3  UNL d   1      -1.427   2.764  -0.051  0.00  0.00    -0.097 F 
ATOM     12  F4  UNL d   1       1.209   3.419   0.199  0.00  0.00    -0.092 F 
ENDROOT
TORSDOF 0
ENDMDL
