MODEL 1
REMARK minimizedAffinity -2.39591432
REMARK minimizedRMSD -1
REMARK  0 active torsions:
REMARK  status: ('A' for Active; 'I' for Inactive)
ROOT
ATOM      1  C   UNL d   1      -1.881  -3.321  -1.409  0.00  0.00     0.124 A 
ATOM      2  C1  UNL d   1      -1.713  -2.940  -0.085  0.00  0.00     0.062 A 
ATOM      3  C2  UNL d   1      -0.717  -2.032   0.260  0.00  0.00     0.162 A 
ATOM      4  C3  UNL d   1       0.119  -1.497  -0.720  0.00  0.00    -0.034 A 
ATOM      5  C4  UNL d   1      -0.055  -1.886  -2.049  0.00  0.00     0.162 A 
ATOM      6  C5  UNL d   1      -1.053  -2.794  -2.390  0.00  0.00     0.062 A 
ATOM      7  F   UNL d   1      -1.213  -3.161  -3.669  0.00  0.00    -0.097 F 
ATOM      8  F1  UNL d   1       0.731  -1.391  -3.017  0.00  0.00    -0.096 F 
ATOM      9  I   UNL d   1       1.610  -0.138  -0.207  0.00  0.00    -0.060 I 
ATOM     10  F2  UNL d   1      -0.577  -1.681   1.548  0.00  0.00    -0.096 F 
ATOM     11  F3  UNL d   1      -2.512  -3.449   0.864  0.00  0.00    -0.097 F 
ATOM     12  F4  UNL d   1      -2.840  -4.196  -1.739  0.00  0.00    -0.092 F 
ENDROOT
TORSDOF 0
ENDMDL
