MODEL 1
REMARK minimizedAffinity 2.60313416
REMARK minimizedRMSD -1
REMARK  0 active torsions:
REMARK  status: ('A' for Active; 'I' for Inactive)
ROOT
ATOM      1  C   UNL d   1       0.031   2.578   0.852  0.00  0.00     0.124 A 
ATOM      2  C1  UNL d   1       1.079   1.832   0.331  0.00  0.00     0.062 A 
ATOM      3  C2  UNL d   1       0.928   0.465   0.121  0.00  0.00     0.162 A 
ATOM      4  C3  UNL d   1      -0.277  -0.166   0.431  0.00  0.00    -0.034 A 
ATOM      5  C4  UNL d   1      -1.327   0.591   0.956  0.00  0.00     0.162 A 
ATOM      6  C5  UNL d   1      -1.171   1.957   1.164  0.00  0.00     0.062 A 
ATOM      7  F   UNL d   1      -2.184   2.676   1.667  0.00  0.00    -0.097 F 
ATOM      8  F1  UNL d   1      -2.498   0.016   1.265  0.00  0.00    -0.096 F 
ATOM      9  I   UNL d   1      -0.507  -2.211   0.118  0.00  0.00    -0.060 I 
ATOM     10  F2  UNL d   1       1.957  -0.232  -0.384  0.00  0.00    -0.096 F 
ATOM     11  F3  UNL d   1       2.241   2.430   0.030  0.00  0.00    -0.097 F 
ATOM     12  F4  UNL d   1       0.179   3.894   1.055  0.00  0.00    -0.092 F 
ENDROOT
TORSDOF 0
ENDMDL
