MODEL 1
REMARK minimizedAffinity 5.39417458
REMARK minimizedRMSD -1
REMARK  0 active torsions:
REMARK  status: ('A' for Active; 'I' for Inactive)
ROOT
ATOM      1  C   UNL d   1       0.213   2.052   0.570  0.00  0.00     0.124 A 
ATOM      2  C1  UNL d   1      -1.159   1.918   0.405  0.00  0.00     0.062 A 
ATOM      3  C2  UNL d   1      -1.704   0.686   0.055  0.00  0.00     0.162 A 
ATOM      4  C3  UNL d   1      -0.878  -0.422  -0.133  0.00  0.00    -0.034 A 
ATOM      5  C4  UNL d   1       0.501  -0.279   0.033  0.00  0.00     0.162 A 
ATOM      6  C5  UNL d   1       1.041   0.954   0.384  0.00  0.00     0.062 A 
ATOM      7  F   UNL d   1       2.366   1.082   0.542  0.00  0.00    -0.097 F 
ATOM      8  F1  UNL d   1       1.324  -1.323  -0.140  0.00  0.00    -0.096 F 
ATOM      9  I   UNL d   1      -1.690  -2.265  -0.658  0.00  0.00    -0.060 I 
ATOM     10  F2  UNL d   1      -3.033   0.585  -0.098  0.00  0.00    -0.096 F 
ATOM     11  F3  UNL d   1      -1.961   2.977   0.584  0.00  0.00    -0.097 F 
ATOM     12  F4  UNL d   1       0.735   3.238   0.907  0.00  0.00    -0.092 F 
ENDROOT
TORSDOF 0
ENDMDL
