MODEL 1
REMARK minimizedAffinity 0.184318647
REMARK minimizedRMSD -1
REMARK  0 active torsions:
REMARK  status: ('A' for Active; 'I' for Inactive)
ROOT
ATOM      1  C   UNL d   1      -0.333  -4.056  -1.559  0.00  0.00     0.124 A 
ATOM      2  C1  UNL d   1       0.536  -2.999  -1.792  0.00  0.00     0.062 A 
ATOM      3  C2  UNL d   1       0.304  -1.759  -1.204  0.00  0.00     0.162 A 
ATOM      4  C3  UNL d   1      -0.801  -1.569  -0.375  0.00  0.00    -0.034 A 
ATOM      5  C4  UNL d   1      -1.672  -2.636  -0.146  0.00  0.00     0.162 A 
ATOM      6  C5  UNL d   1      -1.436  -3.874  -0.736  0.00  0.00     0.062 A 
ATOM      7  F   UNL d   1      -2.277  -4.893  -0.509  0.00  0.00    -0.097 F 
ATOM      8  F1  UNL d   1      -2.744  -2.488   0.645  0.00  0.00    -0.096 F 
ATOM      9  I   UNL d   1      -1.151   0.284   0.506  0.00  0.00    -0.060 I 
ATOM     10  F2  UNL d   1       1.161  -0.756  -1.447  0.00  0.00    -0.096 F 
ATOM     11  F3  UNL d   1       1.602  -3.173  -2.587  0.00  0.00    -0.097 F 
ATOM     12  F4  UNL d   1      -0.109  -5.248  -2.127  0.00  0.00    -0.092 F 
ENDROOT
TORSDOF 0
ENDMDL
