MODEL 1
REMARK minimizedAffinity -2.09126925
REMARK minimizedRMSD -1
REMARK  0 active torsions:
REMARK  status: ('A' for Active; 'I' for Inactive)
ROOT
ATOM      1  C   UNL d   1      -1.039   0.818   0.138  0.00  0.00     0.124 A 
ATOM      2  C1  UNL d   1       0.263   0.358  -0.010  0.00  0.00     0.062 A 
ATOM      3  C2  UNL d   1       1.294   0.924   0.733  0.00  0.00     0.162 A 
ATOM      4  C3  UNL d   1       1.028   1.956   1.634  0.00  0.00    -0.034 A 
ATOM      5  C4  UNL d   1      -0.283   2.413   1.777  0.00  0.00     0.162 A 
ATOM      6  C5  UNL d   1      -1.310   1.845   1.031  0.00  0.00     0.062 A 
ATOM      7  F   UNL d   1      -2.567   2.290   1.176  0.00  0.00    -0.097 F 
ATOM      8  F1  UNL d   1      -0.573   3.404   2.634  0.00  0.00    -0.096 F 
ATOM      9  I   UNL d   1       2.568   2.804   2.748  0.00  0.00    -0.060 I 
ATOM     10  F2  UNL d   1       2.542   0.460   0.570  0.00  0.00    -0.096 F 
ATOM     11  F3  UNL d   1       0.528  -0.633  -0.873  0.00  0.00    -0.097 F 
ATOM     12  F4  UNL d   1      -2.029   0.272  -0.580  0.00  0.00    -0.092 F 
ENDROOT
TORSDOF 0
ENDMDL
