MODEL 1
REMARK minimizedAffinity -2.35329151
REMARK minimizedRMSD -1
REMARK  0 active torsions:
REMARK  status: ('A' for Active; 'I' for Inactive)
ROOT
ATOM      1  C   UNL d   1       0.989   2.332   0.965  0.00  0.00     0.124 A 
ATOM      2  C1  UNL d   1      -0.265   2.110   0.413  0.00  0.00     0.062 A 
ATOM      3  C2  UNL d   1      -0.668   0.817   0.091  0.00  0.00     0.162 A 
ATOM      4  C3  UNL d   1       0.183  -0.264   0.321  0.00  0.00    -0.034 A 
ATOM      5  C4  UNL d   1       1.443  -0.032   0.876  0.00  0.00     0.162 A 
ATOM      6  C5  UNL d   1       1.841   1.262   1.196  0.00  0.00     0.062 A 
ATOM      7  F   UNL d   1       3.053   1.475   1.729  0.00  0.00    -0.097 F 
ATOM      8  F1  UNL d   1       2.286  -1.048   1.111  0.00  0.00    -0.096 F 
ATOM      9  I   UNL d   1      -0.417  -2.198  -0.159  0.00  0.00    -0.060 I 
ATOM     10  F2  UNL d   1      -1.885   0.631  -0.441  0.00  0.00    -0.096 F 
ATOM     11  F3  UNL d   1      -1.090   3.142   0.188  0.00  0.00    -0.097 F 
ATOM     12  F4  UNL d   1       1.375   3.577   1.273  0.00  0.00    -0.092 F 
ENDROOT
TORSDOF 0
ENDMDL
