MODEL 1
REMARK minimizedAffinity -5.11116314
REMARK minimizedRMSD -1
REMARK  0 active torsions:
REMARK  status: ('A' for Active; 'I' for Inactive)
ROOT
ATOM      1  C   UNL d   1       0.868   1.950   0.119  0.00  0.00     0.124 A 
ATOM      2  C1  UNL d   1       1.590   0.779   0.301  0.00  0.00     0.062 A 
ATOM      3  C2  UNL d   1       1.047  -0.445  -0.078  0.00  0.00     0.162 A 
ATOM      4  C3  UNL d   1      -0.226  -0.505  -0.644  0.00  0.00    -0.034 A 
ATOM      5  C4  UNL d   1      -0.948   0.677  -0.823  0.00  0.00     0.162 A 
ATOM      6  C5  UNL d   1      -0.400   1.898  -0.443  0.00  0.00     0.062 A 
ATOM      7  F   UNL d   1      -1.100   3.028  -0.620  0.00  0.00    -0.097 F 
ATOM      8  F1  UNL d   1      -2.175   0.655  -1.364  0.00  0.00    -0.096 F 
ATOM      9  I   UNL d   1      -1.042  -2.333  -1.212  0.00  0.00    -0.060 I 
ATOM     10  F2  UNL d   1       1.768  -1.560   0.110  0.00  0.00    -0.096 F 
ATOM     11  F3  UNL d   1       2.815   0.827   0.844  0.00  0.00    -0.097 F 
ATOM     12  F4  UNL d   1       1.392   3.127   0.485  0.00  0.00    -0.092 F 
ENDROOT
TORSDOF 0
ENDMDL
