MODEL 1
REMARK minimizedAffinity -2.1097703
REMARK minimizedRMSD -1
REMARK  0 active torsions:
REMARK  status: ('A' for Active; 'I' for Inactive)
ROOT
ATOM      1  C   UNL d   1      -1.474   3.846  -4.693  0.00  0.00    -0.002 A 
ATOM      2  C1  UNL d   1      -1.482   5.222  -4.511  0.00  0.00     0.010 A 
ATOM      3  C2  UNL d   1      -2.636   5.965  -4.768  0.00  0.00     0.041 A 
ATOM      4  C3  UNL d   1      -3.793   5.296  -5.213  0.00  0.00    -0.075 A 
ATOM      5  S   UNL d   1      -5.321   6.000  -5.589  0.00  0.00     0.015 SA
ATOM      6  C4  UNL d   1      -5.999   4.491  -6.000  0.00  0.00     0.022 A 
ATOM      7  C5  UNL d   1      -5.095   3.464  -5.859  0.00  0.00     0.026 A 
ATOM      8  C6  UNL d   1      -3.809   3.911  -5.403  0.00  0.00    -0.082 A 
ATOM      9  C7  UNL d   1      -2.623   3.186  -5.135  0.00  0.00     0.045 A 
ENDROOT
TORSDOF 0
ENDMDL
