MODEL 1
REMARK minimizedAffinity 4.11944389
REMARK minimizedRMSD -1
REMARK  0 active torsions:
REMARK  status: ('A' for Active; 'I' for Inactive)
ROOT
ATOM      1  C   UNL d   1      -5.901   4.502  -5.994  0.00  0.00    -0.002 A 
ATOM      2  C1  UNL d   1      -5.345   5.774  -5.994  0.00  0.00     0.010 A 
ATOM      3  C2  UNL d   1      -3.959   5.943  -5.994  0.00  0.00     0.041 A 
ATOM      4  C3  UNL d   1      -3.133   4.802  -5.996  0.00  0.00    -0.075 A 
ATOM      5  S   UNL d   1      -1.409   4.766  -5.998  0.00  0.00     0.015 SA
ATOM      6  C4  UNL d   1      -1.370   3.062  -5.999  0.00  0.00     0.022 A 
ATOM      7  C5  UNL d   1      -2.632   2.517  -5.998  0.00  0.00     0.026 A 
ATOM      8  C6  UNL d   1      -3.669   3.511  -5.997  0.00  0.00    -0.082 A 
ATOM      9  C7  UNL d   1      -5.078   3.373  -5.996  0.00  0.00     0.045 A 
ENDROOT
TORSDOF 0
ENDMDL
