MODEL 1
REMARK minimizedAffinity 5.13117027
REMARK minimizedRMSD -1
REMARK  0 active torsions:
REMARK  status: ('A' for Active; 'I' for Inactive)
ROOT
ATOM      1  C   UNL d   1      -5.184   5.998  -5.850  0.00  0.00    -0.002 A 
ATOM      2  C1  UNL d   1      -5.886   4.801  -5.823  0.00  0.00     0.010 A 
ATOM      3  C2  UNL d   1      -5.209   3.580  -5.850  0.00  0.00     0.041 A 
ATOM      4  C3  UNL d   1      -3.802   3.582  -5.905  0.00  0.00    -0.075 A 
ATOM      5  S   UNL d   1      -2.761   2.208  -5.946  0.00  0.00     0.015 SA
ATOM      6  C4  UNL d   1      -1.360   3.178  -5.999  0.00  0.00     0.022 A 
ATOM      7  C5  UNL d   1      -1.661   4.519  -5.987  0.00  0.00     0.026 A 
ATOM      8  C6  UNL d   1      -3.073   4.775  -5.932  0.00  0.00    -0.082 A 
ATOM      9  C7  UNL d   1      -3.788   5.996  -5.904  0.00  0.00     0.045 A 
ENDROOT
TORSDOF 0
ENDMDL
