MODEL 1
REMARK minimizedAffinity 4.61577415
REMARK minimizedRMSD -1
REMARK  0 active torsions:
REMARK  status: ('A' for Active; 'I' for Inactive)
ROOT
ATOM      1  C   UNL d   1       0.742   2.866   1.529  0.00  0.00    -0.002 A 
ATOM      2  C1  UNL d   1       1.360   1.738   1.008  0.00  0.00     0.010 A 
ATOM      3  C2  UNL d   1       0.608   0.614   0.660  0.00  0.00     0.041 A 
ATOM      4  C3  UNL d   1      -0.788   0.643   0.845  0.00  0.00    -0.075 A 
ATOM      5  S   UNL d   1      -1.910  -0.616   0.489  0.00  0.00     0.015 SA
ATOM      6  C4  UNL d   1      -3.236   0.313   1.020  0.00  0.00     0.022 A 
ATOM      7  C5  UNL d   1      -2.850   1.557   1.461  0.00  0.00     0.026 A 
ATOM      8  C6  UNL d   1      -1.433   1.767   1.367  0.00  0.00    -0.082 A 
ATOM      9  C7  UNL d   1      -0.643   2.891   1.711  0.00  0.00     0.045 A 
ENDROOT
TORSDOF 0
ENDMDL
