MODEL 1
REMARK minimizedAffinity 1.50608468
REMARK minimizedRMSD -1
REMARK  0 active torsions:
REMARK  status: ('A' for Active; 'I' for Inactive)
ROOT
ATOM      1  C   UNL d   1      -1.220   3.847  -5.917  0.00  0.00    -0.002 A 
ATOM      2  C1  UNL d   1      -1.215   5.234  -5.904  0.00  0.00     0.010 A 
ATOM      3  C2  UNL d   1      -2.415   5.948  -5.922  0.00  0.00     0.041 A 
ATOM      4  C3  UNL d   1      -3.631   5.237  -5.950  0.00  0.00    -0.075 A 
ATOM      5  S   UNL d   1      -5.222   5.900  -5.973  0.00  0.00     0.015 SA
ATOM      6  C4  UNL d   1      -5.945   4.357  -6.000  0.00  0.00     0.022 A 
ATOM      7  C5  UNL d   1      -5.010   3.349  -5.991  0.00  0.00     0.026 A 
ATOM      8  C6  UNL d   1      -3.661   3.840  -5.962  0.00  0.00    -0.082 A 
ATOM      9  C7  UNL d   1      -2.428   3.145  -5.945  0.00  0.00     0.045 A 
ENDROOT
TORSDOF 0
ENDMDL
