MODEL 1
REMARK minimizedAffinity 2.069489
REMARK minimizedRMSD -1
REMARK  0 active torsions:
REMARK  status: ('A' for Active; 'I' for Inactive)
ROOT
ATOM      1  C   UNL d   1       3.442   2.993   2.118  0.00  0.00    -0.002 A 
ATOM      2  C1  UNL d   1       2.478   3.629   2.888  0.00  0.00     0.010 A 
ATOM      3  C2  UNL d   1       1.120   3.412   2.647  0.00  0.00     0.041 A 
ATOM      4  C3  UNL d   1       0.743   2.536   1.610  0.00  0.00    -0.075 A 
ATOM      5  S   UNL d   1      -0.860   2.118   1.134  0.00  0.00     0.015 SA
ATOM      6  C4  UNL d   1      -0.304   1.085  -0.102  0.00  0.00     0.022 A 
ATOM      7  C5  UNL d   1       1.069   1.049  -0.164  0.00  0.00     0.026 A 
ATOM      8  C6  UNL d   1       1.695   1.884   0.822  0.00  0.00    -0.082 A 
ATOM      9  C7  UNL d   1       3.064   2.125   1.090  0.00  0.00     0.045 A 
ENDROOT
TORSDOF 0
ENDMDL
