MODEL 1
REMARK minimizedAffinity 6.08619404
REMARK minimizedRMSD -1
REMARK  0 active torsions:
REMARK  status: ('A' for Active; 'I' for Inactive)
ROOT
ATOM      1  C   UNL d   1      -1.957   2.305   1.338  0.00  0.00    -0.002 A 
ATOM      2  C1  UNL d   1      -1.899   1.054   0.741  0.00  0.00     0.010 A 
ATOM      3  C2  UNL d   1      -0.673   0.501   0.367  0.00  0.00     0.041 A 
ATOM      4  C3  UNL d   1       0.507   1.233   0.609  0.00  0.00    -0.075 A 
ATOM      5  S   UNL d   1       2.121   0.755   0.237  0.00  0.00     0.015 SA
ATOM      6  C4  UNL d   1       2.772   2.200   0.863  0.00  0.00     0.022 A 
ATOM      7  C5  UNL d   1       1.796   3.038   1.348  0.00  0.00     0.026 A 
ATOM      8  C6  UNL d   1       0.474   2.494   1.210  0.00  0.00    -0.082 A 
ATOM      9  C7  UNL d   1      -0.785   3.028   1.576  0.00  0.00     0.045 A 
ENDROOT
TORSDOF 0
ENDMDL
