MODEL 1
REMARK minimizedAffinity 9.34889793
REMARK minimizedRMSD -1
REMARK  0 active torsions:
REMARK  status: ('A' for Active; 'I' for Inactive)
ROOT
ATOM      1  C   UNL d   1       1.461   3.605   2.728  0.00  0.00    -0.002 A 
ATOM      2  C1  UNL d   1       2.525   2.852   2.253  0.00  0.00     0.010 A 
ATOM      3  C2  UNL d   1       2.302   1.765   1.405  0.00  0.00     0.041 A 
ATOM      4  C3  UNL d   1       0.980   1.446   1.039  0.00  0.00    -0.075 A 
ATOM      5  S   UNL d   1       0.468   0.159   0.012  0.00  0.00     0.015 SA
ATOM      6  C4  UNL d   1      -1.175   0.580   0.179  0.00  0.00     0.022 A 
ATOM      7  C5  UNL d   1      -1.347   1.672   0.996  0.00  0.00     0.026 A 
ATOM      8  C6  UNL d   1      -0.108   2.190   1.504  0.00  0.00    -0.082 A 
ATOM      9  C7  UNL d   1       0.150   3.286   2.363  0.00  0.00     0.045 A 
ENDROOT
TORSDOF 0
ENDMDL
