MODEL 1
REMARK minimizedAffinity 6.42150974
REMARK minimizedRMSD -1
REMARK  0 active torsions:
REMARK  status: ('A' for Active; 'I' for Inactive)
ROOT
ATOM      1  C   UNL d   1       1.418   3.201   2.340  0.00  0.00    -0.002 A 
ATOM      2  C1  UNL d   1       1.945   2.094   1.689  0.00  0.00     0.010 A 
ATOM      3  C2  UNL d   1       1.108   1.192   1.030  0.00  0.00     0.041 A 
ATOM      4  C3  UNL d   1      -0.282   1.424   1.036  0.00  0.00    -0.075 A 
ATOM      5  S   UNL d   1      -1.500   0.454   0.295  0.00  0.00     0.015 SA
ATOM      6  C4  UNL d   1      -2.749   1.487   0.824  0.00  0.00     0.022 A 
ATOM      7  C5  UNL d   1      -2.266   2.549   1.550  0.00  0.00     0.026 A 
ATOM      8  C6  UNL d   1      -0.836   2.531   1.684  0.00  0.00    -0.082 A 
ATOM      9  C7  UNL d   1       0.039   3.427   2.343  0.00  0.00     0.045 A 
ENDROOT
TORSDOF 0
ENDMDL
