MODEL 1
REMARK minimizedAffinity 8.82060719
REMARK minimizedRMSD -1
REMARK  0 active torsions:
REMARK  status: ('A' for Active; 'I' for Inactive)
ROOT
ATOM      1  C   UNL d   1       4.054   2.996  -3.276  0.00  0.00    -0.002 A 
ATOM      2  C1  UNL d   1       4.034   1.969  -2.344  0.00  0.00     0.010 A 
ATOM      3  C2  UNL d   1       3.371   0.771  -2.621  0.00  0.00     0.041 A 
ATOM      4  C3  UNL d   1       2.724   0.622  -3.863  0.00  0.00    -0.075 A 
ATOM      5  S   UNL d   1       1.851  -0.756  -4.422  0.00  0.00     0.015 SA
ATOM      6  C4  UNL d   1       1.485  -0.013  -5.911  0.00  0.00     0.022 A 
ATOM      7  C5  UNL d   1       2.008   1.255  -5.997  0.00  0.00     0.026 A 
ATOM      8  C6  UNL d   1       2.731   1.642  -4.819  0.00  0.00    -0.082 A 
ATOM      9  C7  UNL d   1       3.411   2.844  -4.508  0.00  0.00     0.045 A 
ENDROOT
TORSDOF 0
ENDMDL
