MODEL 1
REMARK minimizedAffinity 12.0618649
REMARK minimizedRMSD -1
REMARK  0 active torsions:
REMARK  status: ('A' for Active; 'I' for Inactive)
ROOT
ATOM      1  C   UNL d   1      -0.781   3.298   1.486  0.00  0.00    -0.002 A 
ATOM      2  C1  UNL d   1       0.581   3.060   1.362  0.00  0.00     0.010 A 
ATOM      3  C2  UNL d   1       1.056   1.776   1.089  0.00  0.00     0.041 A 
ATOM      4  C3  UNL d   1       0.130   0.724   0.940  0.00  0.00    -0.075 A 
ATOM      5  S   UNL d   1       0.481  -0.929   0.603  0.00  0.00     0.015 SA
ATOM      6  C4  UNL d   1      -1.168  -1.359   0.615  0.00  0.00     0.022 A 
ATOM      7  C5  UNL d   1      -1.981  -0.280   0.869  0.00  0.00     0.026 A 
ATOM      8  C6  UNL d   1      -1.246   0.939   1.060  0.00  0.00    -0.082 A 
ATOM      9  C7  UNL d   1      -1.696   2.252   1.338  0.00  0.00     0.045 A 
ENDROOT
TORSDOF 0
ENDMDL
