MODEL 1
REMARK minimizedAffinity 2.90750718
REMARK minimizedRMSD -1
REMARK  0 active torsions:
REMARK  status: ('A' for Active; 'I' for Inactive)
ROOT
ATOM      1  C   UNL d   1      -1.195   3.860  -5.964  0.00  0.00    -0.002 A 
ATOM      2  C1  UNL d   1      -1.176   5.248  -5.965  0.00  0.00     0.010 A 
ATOM      3  C2  UNL d   1      -2.369   5.974  -5.976  0.00  0.00     0.041 A 
ATOM      4  C3  UNL d   1      -3.592   5.276  -5.984  0.00  0.00    -0.075 A 
ATOM      5  S   UNL d   1      -5.177   5.955  -5.996  0.00  0.00     0.015 SA
ATOM      6  C4  UNL d   1      -5.916   4.420  -5.999  0.00  0.00     0.022 A 
ATOM      7  C5  UNL d   1      -4.992   3.402  -5.991  0.00  0.00     0.026 A 
ATOM      8  C6  UNL d   1      -3.637   3.879  -5.981  0.00  0.00    -0.082 A 
ATOM      9  C7  UNL d   1      -2.411   3.171  -5.971  0.00  0.00     0.045 A 
ENDROOT
TORSDOF 0
ENDMDL
