MODEL 1
REMARK minimizedAffinity -4.686481
REMARK minimizedRMSD -1
REMARK  0 active torsions:
REMARK  status: ('A' for Active; 'I' for Inactive)
ROOT
ATOM      1  C   UNL d   1       0.061   0.890  -0.810  0.00  0.00     0.078 C 
ATOM      2  C1  UNL d   1       0.111  -0.461  -0.161  0.00  0.00    -0.077 A 
ATOM      3  C2  UNL d   1      -0.879  -0.864   0.743  0.00  0.00    -0.001 A 
ATOM      4  C3  UNL d   1      -0.814  -2.121   1.346  0.00  0.00     0.003 A 
ATOM      5  C4  UNL d   1       0.239  -2.984   1.053  0.00  0.00    -0.005 A 
ATOM      6  C5  UNL d   1       1.230  -2.591   0.156  0.00  0.00     0.003 A 
ATOM      7  C6  UNL d   1       1.168  -1.335  -0.448  0.00  0.00    -0.001 A 
ENDROOT
TORSDOF 0
ENDMDL
