MODEL 1
REMARK minimizedAffinity -5.19753742
REMARK minimizedRMSD -1
REMARK  0 active torsions:
REMARK  status: ('A' for Active; 'I' for Inactive)
ROOT
ATOM      1  C   UNL d   1       0.184  -3.050   0.635  0.00  0.00     0.078 C 
ATOM      2  C1  UNL d   1       0.122  -1.597   0.270  0.00  0.00    -0.077 A 
ATOM      3  C2  UNL d   1      -0.526  -0.672   1.099  0.00  0.00    -0.001 A 
ATOM      4  C3  UNL d   1      -0.585   0.676   0.741  0.00  0.00     0.003 A 
ATOM      5  C4  UNL d   1       0.002   1.111  -0.445  0.00  0.00    -0.005 A 
ATOM      6  C5  UNL d   1       0.647   0.198  -1.277  0.00  0.00     0.003 A 
ATOM      7  C6  UNL d   1       0.707  -1.150  -0.921  0.00  0.00    -0.001 A 
ENDROOT
TORSDOF 0
ENDMDL
