MODEL 1
REMARK minimizedAffinity -5.95321703
REMARK minimizedRMSD -1
REMARK  0 active torsions:
REMARK  status: ('A' for Active; 'I' for Inactive)
ROOT
ATOM      1  C   UNL d   1      -0.388   0.762  -0.169  0.00  0.00     0.078 C 
ATOM      2  C1  UNL d   1      -0.010  -0.619  -0.613  0.00  0.00    -0.077 A 
ATOM      3  C2  UNL d   1       0.418  -0.863  -1.924  0.00  0.00    -0.001 A 
ATOM      4  C3  UNL d   1       0.757  -2.156  -2.327  0.00  0.00     0.003 A 
ATOM      5  C4  UNL d   1       0.672  -3.215  -1.425  0.00  0.00    -0.005 A 
ATOM      6  C5  UNL d   1       0.245  -2.982  -0.119  0.00  0.00     0.003 A 
ATOM      7  C6  UNL d   1      -0.095  -1.690   0.285  0.00  0.00    -0.001 A 
ENDROOT
TORSDOF 0
ENDMDL
