MODEL 1
REMARK minimizedAffinity -4.12754107
REMARK minimizedRMSD -1
REMARK  0 active torsions:
REMARK  status: ('A' for Active; 'I' for Inactive)
ROOT
ATOM      1  C   UNL d   1       0.417  -2.928   0.358  0.00  0.00     0.078 C 
ATOM      2  C1  UNL d   1       0.345  -1.575  -0.285  0.00  0.00    -0.077 A 
ATOM      3  C2  UNL d   1      -0.171  -0.473   0.408  0.00  0.00    -0.001 A 
ATOM      4  C3  UNL d   1      -0.240   0.778  -0.207  0.00  0.00     0.003 A 
ATOM      5  C4  UNL d   1       0.203   0.939  -1.518  0.00  0.00    -0.005 A 
ATOM      6  C5  UNL d   1       0.716  -0.152  -2.217  0.00  0.00     0.003 A 
ATOM      7  C6  UNL d   1       0.786  -1.404  -1.604  0.00  0.00    -0.001 A 
ENDROOT
TORSDOF 0
ENDMDL
