MODEL 1
REMARK minimizedAffinity -4.64096689
REMARK minimizedRMSD -1
REMARK  0 active torsions:
REMARK  status: ('A' for Active; 'I' for Inactive)
ROOT
ATOM      1  C   UNL d   1       0.213   1.708   0.028  0.00  0.00     0.078 C 
ATOM      2  C1  UNL d   1      -0.179   0.261   0.001  0.00  0.00    -0.077 A 
ATOM      3  C2  UNL d   1       0.144  -0.553  -1.092  0.00  0.00    -0.001 A 
ATOM      4  C3  UNL d   1      -0.236  -1.896  -1.107  0.00  0.00     0.003 A 
ATOM      5  C4  UNL d   1      -0.941  -2.437  -0.034  0.00  0.00    -0.005 A 
ATOM      6  C5  UNL d   1      -1.268  -1.634   1.057  0.00  0.00     0.003 A 
ATOM      7  C6  UNL d   1      -0.890  -0.290   1.074  0.00  0.00    -0.001 A 
ENDROOT
TORSDOF 0
ENDMDL
