MODEL 1
REMARK minimizedAffinity -4.64198875
REMARK minimizedRMSD -1
REMARK  0 active torsions:
REMARK  status: ('A' for Active; 'I' for Inactive)
ROOT
ATOM      1  C   UNL d   1      -1.785   0.111   0.389  0.00  0.00     0.078 C 
ATOM      2  C1  UNL d   1      -0.670  -0.891   0.442  0.00  0.00    -0.077 A 
ATOM      3  C2  UNL d   1      -0.912  -2.252   0.214  0.00  0.00    -0.001 A 
ATOM      4  C3  UNL d   1       0.133  -3.174   0.277  0.00  0.00     0.003 A 
ATOM      5  C4  UNL d   1       1.427  -2.747   0.569  0.00  0.00    -0.005 A 
ATOM      6  C5  UNL d   1       1.677  -1.396   0.799  0.00  0.00     0.003 A 
ATOM      7  C6  UNL d   1       0.633  -0.472   0.737  0.00  0.00    -0.001 A 
ENDROOT
TORSDOF 0
ENDMDL
