MODEL 1
REMARK minimizedAffinity -4.04967165
REMARK minimizedRMSD -1
REMARK  0 active torsions:
REMARK  status: ('A' for Active; 'I' for Inactive)
ROOT
ATOM      1  C   UNL d   1       0.926  -0.593  -1.898  0.00  0.00     0.078 C 
ATOM      2  C1  UNL d   1       0.332  -1.088  -0.613  0.00  0.00    -0.077 A 
ATOM      3  C2  UNL d   1       0.480  -2.423  -0.216  0.00  0.00    -0.001 A 
ATOM      4  C3  UNL d   1      -0.087  -2.872   0.978  0.00  0.00     0.003 A 
ATOM      5  C4  UNL d   1      -0.807  -1.993   1.784  0.00  0.00    -0.005 A 
ATOM      6  C5  UNL d   1      -0.963  -0.663   1.396  0.00  0.00     0.003 A 
ATOM      7  C6  UNL d   1      -0.396  -0.213   0.203  0.00  0.00    -0.001 A 
ENDROOT
TORSDOF 0
ENDMDL
