MODEL 1
REMARK minimizedAffinity -4.5764308
REMARK minimizedRMSD -1
REMARK  0 active torsions:
REMARK  status: ('A' for Active; 'I' for Inactive)
ROOT
ATOM      1  C   UNL d   1       0.020   1.206   0.216  0.00  0.00     0.078 C 
ATOM      2  C1  UNL d   1      -0.090  -0.286   0.114  0.00  0.00    -0.077 A 
ATOM      3  C2  UNL d   1      -0.630  -1.042   1.161  0.00  0.00    -0.001 A 
ATOM      4  C3  UNL d   1      -0.718  -2.432   1.056  0.00  0.00     0.003 A 
ATOM      5  C4  UNL d   1      -0.266  -3.076  -0.093  0.00  0.00    -0.005 A 
ATOM      6  C5  UNL d   1       0.275  -2.332  -1.140  0.00  0.00     0.003 A 
ATOM      7  C6  UNL d   1       0.363  -0.943  -1.037  0.00  0.00    -0.001 A 
ENDROOT
TORSDOF 0
ENDMDL
