MODEL 1
REMARK minimizedAffinity -4.20767307
REMARK minimizedRMSD -1
REMARK  0 active torsions:
REMARK  status: ('A' for Active; 'I' for Inactive)
ROOT
ATOM      1  C   UNL d   1       0.361   0.867   0.368  0.00  0.00     0.078 C 
ATOM      2  C1  UNL d   1       0.275  -0.629   0.331  0.00  0.00    -0.077 A 
ATOM      3  C2  UNL d   1      -0.963  -1.282   0.359  0.00  0.00    -0.001 A 
ATOM      4  C3  UNL d   1      -1.028  -2.676   0.333  0.00  0.00     0.003 A 
ATOM      5  C4  UNL d   1       0.143  -3.429   0.281  0.00  0.00    -0.005 A 
ATOM      6  C5  UNL d   1       1.380  -2.789   0.255  0.00  0.00     0.003 A 
ATOM      7  C6  UNL d   1       1.447  -1.395   0.281  0.00  0.00    -0.001 A 
ENDROOT
TORSDOF 0
ENDMDL
