MODEL 1
REMARK minimizedAffinity -3.6836822
REMARK minimizedRMSD -1
REMARK  0 active torsions:
REMARK  status: ('A' for Active; 'I' for Inactive)
ROOT
ATOM      1  C   UNL d   1       0.200  -3.126   0.665  0.00  0.00     0.078 C 
ATOM      2  C1  UNL d   1      -0.061  -1.673   0.401  0.00  0.00    -0.077 A 
ATOM      3  C2  UNL d   1      -0.966  -0.949   1.187  0.00  0.00    -0.001 A 
ATOM      4  C3  UNL d   1      -1.207   0.400   0.924  0.00  0.00     0.003 A 
ATOM      5  C4  UNL d   1      -0.547   1.037  -0.125  0.00  0.00    -0.005 A 
ATOM      6  C5  UNL d   1       0.353   0.325  -0.914  0.00  0.00     0.003 A 
ATOM      7  C6  UNL d   1       0.595  -1.025  -0.653  0.00  0.00    -0.001 A 
ENDROOT
TORSDOF 0
ENDMDL
