MODEL 1
REMARK minimizedAffinity -4.2209754
REMARK minimizedRMSD -1
REMARK  0 active torsions:
REMARK  status: ('A' for Active; 'I' for Inactive)
ROOT
ATOM      1  C   UNL d   1       0.389  -2.670   0.642  0.00  0.00     0.078 C 
ATOM      2  C1  UNL d   1       0.318  -1.383  -0.124  0.00  0.00    -0.077 A 
ATOM      3  C2  UNL d   1      -0.263  -0.240   0.439  0.00  0.00    -0.001 A 
ATOM      4  C3  UNL d   1      -0.331   0.949  -0.289  0.00  0.00     0.003 A 
ATOM      5  C4  UNL d   1       0.180   1.006  -1.585  0.00  0.00    -0.005 A 
ATOM      6  C5  UNL d   1       0.758  -0.127  -2.154  0.00  0.00     0.003 A 
ATOM      7  C6  UNL d   1       0.826  -1.317  -1.427  0.00  0.00    -0.001 A 
ENDROOT
TORSDOF 0
ENDMDL
