MODEL 1
REMARK minimizedAffinity -3.04387856
REMARK minimizedRMSD -1
REMARK  0 active torsions:
REMARK  status: ('A' for Active; 'I' for Inactive)
ROOT
ATOM      1  C   UNL d   1       0.492   1.394  -0.155  0.00  0.00     0.078 C 
ATOM      2  C1  UNL d   1       0.254  -0.062   0.113  0.00  0.00    -0.077 A 
ATOM      3  C2  UNL d   1      -0.809  -0.482   0.922  0.00  0.00    -0.001 A 
ATOM      4  C3  UNL d   1      -1.013  -1.840   1.171  0.00  0.00     0.003 A 
ATOM      5  C4  UNL d   1      -0.158  -2.789   0.615  0.00  0.00    -0.005 A 
ATOM      6  C5  UNL d   1       0.904  -2.381  -0.191  0.00  0.00     0.003 A 
ATOM      7  C6  UNL d   1       1.109  -1.023  -0.440  0.00  0.00    -0.001 A 
ENDROOT
TORSDOF 0
ENDMDL
