MODEL 1
REMARK minimizedAffinity -4.5318079
REMARK minimizedRMSD -1
REMARK  0 active torsions:
REMARK  status: ('A' for Active; 'I' for Inactive)
ROOT
ATOM      1  C   UNL d   1      -0.197   1.930  -0.106  0.00  0.00     0.078 C 
ATOM      2  C1  UNL d   1      -0.400   0.541   0.421  0.00  0.00    -0.077 A 
ATOM      3  C2  UNL d   1      -1.216   0.304   1.534  0.00  0.00    -0.001 A 
ATOM      4  C3  UNL d   1      -1.388  -0.994   2.019  0.00  0.00     0.003 A 
ATOM      5  C4  UNL d   1      -0.747  -2.064   1.398  0.00  0.00    -0.005 A 
ATOM      6  C5  UNL d   1       0.069  -1.837   0.291  0.00  0.00     0.003 A 
ATOM      7  C6  UNL d   1       0.242  -0.541  -0.195  0.00  0.00    -0.001 A 
ENDROOT
TORSDOF 0
ENDMDL
