MODEL 1
REMARK minimizedAffinity 4.0683341
REMARK minimizedRMSD -1
REMARK  1 active torsions:
REMARK  status: ('A' for Active; 'I' for Inactive)
REMARK    1  A    between atoms: N_2  and  C1_3 
ROOT
ATOM      1  C1  UNL d   1       1.810   0.835   2.517  0.00  0.00     0.143 A 
ATOM      2  C2  UNL d   1       0.712   0.942   3.376  0.00  0.00    -0.057 A 
ATOM      3  C3  UNL d   1      -0.354   0.037   3.307  0.00  0.00     0.033 A 
ATOM      4  C4  UNL d   1      -0.354  -0.977   2.355  0.00  0.00    -0.042 A 
ATOM      5  C5  UNL d   1       0.716  -1.086   1.473  0.00  0.00     0.033 A 
ATOM      6  C6  UNL d   1       1.781  -0.184   1.552  0.00  0.00    -0.057 A 
ENDROOT
BRANCH   1   7
ATOM      7  N   UNL d   1       2.854   1.762   2.470  0.00  0.00    -0.732 N 
ATOM      8  C   UNL d   1       3.641   1.927   1.267  0.00  0.00     0.284 C 
ATOM      9  H3  UNL d   1       2.619   2.636   2.935  0.00  0.00     0.395 HD
ENDBRANCH   1   7
TORSDOF 1
ENDMDL
