MODEL 1
REMARK minimizedAffinity 13.3753624
REMARK minimizedRMSD -1
REMARK  1 active torsions:
REMARK  status: ('A' for Active; 'I' for Inactive)
REMARK    1  A    between atoms: N_2  and  C1_3 
ROOT
ATOM      1  C1  UNL d   1      -4.735   2.449  -4.861  0.00  0.00     0.143 A 
ATOM      2  C2  UNL d   1      -5.721   3.182  -5.531  0.00  0.00    -0.057 A 
ATOM      3  C3  UNL d   1      -5.594   4.563  -5.724  0.00  0.00     0.033 A 
ATOM      4  C4  UNL d   1      -4.489   5.242  -5.222  0.00  0.00    -0.042 A 
ATOM      5  C5  UNL d   1      -3.509   4.538  -4.531  0.00  0.00     0.033 A 
ATOM      6  C6  UNL d   1      -3.638   3.158  -4.347  0.00  0.00    -0.057 A 
ENDROOT
BRANCH   1   7
ATOM      7  N   UNL d   1      -4.851   1.091  -4.552  0.00  0.00    -0.732 N 
ATOM      8  C   UNL d   1      -4.415   0.589  -3.267  0.00  0.00     0.284 C 
ATOM      9  H3  UNL d   1      -5.727   0.692  -4.879  0.00  0.00     0.395 HD
ENDBRANCH   1   7
TORSDOF 1
ENDMDL
