MODEL 1
REMARK minimizedAffinity 6.3343153
REMARK minimizedRMSD -1
REMARK  1 active torsions:
REMARK  status: ('A' for Active; 'I' for Inactive)
REMARK    1  A    between atoms: N_2  and  C1_3 
ROOT
ATOM      1  C1  UNL d   1       3.237  -4.568  -0.431  0.00  0.00     0.143 A 
ATOM      2  C2  UNL d   1       4.161  -3.533  -0.247  0.00  0.00    -0.057 A 
ATOM      3  C3  UNL d   1       5.520  -3.715  -0.529  0.00  0.00     0.033 A 
ATOM      4  C4  UNL d   1       5.986  -4.948  -0.973  0.00  0.00    -0.042 A 
ATOM      5  C5  UNL d   1       5.090  -5.998  -1.138  0.00  0.00     0.033 A 
ATOM      6  C6  UNL d   1       3.732  -5.808  -0.862  0.00  0.00    -0.057 A 
ENDROOT
BRANCH   1   7
ATOM      7  N   UNL d   1       1.889  -4.479  -0.075  0.00  0.00    -0.732 N 
ATOM      8  C   UNL d   1       1.433  -3.452   0.837  0.00  0.00     0.284 C 
ATOM      9  H3  UNL d   1       1.268  -4.639  -0.865  0.00  0.00     0.395 HD
ENDBRANCH   1   7
TORSDOF 1
ENDMDL
