MODEL 1
REMARK minimizedAffinity 0.230181813
REMARK minimizedRMSD -1
REMARK  1 active torsions:
REMARK  status: ('A' for Active; 'I' for Inactive)
REMARK    1  A    between atoms: N_2  and  C1_3 
ROOT
ATOM      1  C1  UNL d   1       2.815   5.191   4.538  0.00  0.00     0.143 A 
ATOM      2  C2  UNL d   1       3.233   5.828   5.712  0.00  0.00    -0.057 A 
ATOM      3  C3  UNL d   1       4.592   6.000   6.000  0.00  0.00     0.033 A 
ATOM      4  C4  UNL d   1       5.561   5.511   5.130  0.00  0.00    -0.042 A 
ATOM      5  C5  UNL d   1       5.169   4.853   3.969  0.00  0.00     0.033 A 
ATOM      6  C6  UNL d   1       3.810   4.690   3.684  0.00  0.00    -0.057 A 
ENDROOT
BRANCH   1   7
ATOM      7  N   UNL d   1       1.480   4.902   4.243  0.00  0.00    -0.732 N 
ATOM      8  C   UNL d   1       1.138   3.763   3.419  0.00  0.00     0.284 C 
ATOM      9  H3  UNL d   1       0.868   5.035   5.045  0.00  0.00     0.395 HD
ENDBRANCH   1   7
TORSDOF 1
ENDMDL
