MODEL 1
REMARK minimizedAffinity -3.78918815
REMARK minimizedRMSD -1
REMARK  1 active torsions:
REMARK  status: ('A' for Active; 'I' for Inactive)
REMARK    1  A    between atoms: N_2  and  C1_3 
ROOT
ATOM      1  C1  UNL d   1       2.119   5.264   4.205  0.00  0.00     0.143 A 
ATOM      2  C2  UNL d   1       1.247   4.483   3.439  0.00  0.00    -0.057 A 
ATOM      3  C3  UNL d   1      -0.130   4.474   3.691  0.00  0.00     0.033 A 
ATOM      4  C4  UNL d   1      -0.658   5.226   4.736  0.00  0.00    -0.042 A 
ATOM      5  C5  UNL d   1       0.194   5.989   5.526  0.00  0.00     0.033 A 
ATOM      6  C6  UNL d   1       1.567   6.000   5.266  0.00  0.00    -0.057 A 
ENDROOT
BRANCH   1   7
ATOM      7  N   UNL d   1       3.509   5.239   4.068  0.00  0.00    -0.732 N 
ATOM      8  C   UNL d   1       4.357   4.936   5.201  0.00  0.00     0.284 C 
ATOM      9  H3  UNL d   1       3.806   4.803   3.198  0.00  0.00     0.395 HD
ENDBRANCH   1   7
TORSDOF 1
ENDMDL
