MODEL 1
REMARK minimizedAffinity 6.41089725
REMARK minimizedRMSD -1
REMARK  1 active torsions:
REMARK  status: ('A' for Active; 'I' for Inactive)
REMARK    1  A    between atoms: N_2  and  C1_3 
ROOT
ATOM      1  C1  UNL d   1       3.625   4.985   3.898  0.00  0.00     0.143 A 
ATOM      2  C2  UNL d   1       4.662   5.590   3.179  0.00  0.00    -0.057 A 
ATOM      3  C3  UNL d   1       5.843   5.998   3.812  0.00  0.00     0.033 A 
ATOM      4  C4  UNL d   1       5.996   5.833   5.185  0.00  0.00    -0.042 A 
ATOM      5  C5  UNL d   1       4.968   5.256   5.923  0.00  0.00     0.033 A 
ATOM      6  C6  UNL d   1       3.794   4.845   5.284  0.00  0.00    -0.057 A 
ENDROOT
BRANCH   1   7
ATOM      7  N   UNL d   1       2.388   4.648   3.343  0.00  0.00    -0.732 N 
ATOM      8  C   UNL d   1       1.497   3.736   4.028  0.00  0.00     0.284 C 
ATOM      9  H3  UNL d   1       1.921   5.447   2.921  0.00  0.00     0.395 HD
ENDBRANCH   1   7
TORSDOF 1
ENDMDL
