MODEL 1
REMARK minimizedAffinity 0.340690523
REMARK minimizedRMSD -1
REMARK  1 active torsions:
REMARK  status: ('A' for Active; 'I' for Inactive)
REMARK    1  A    between atoms: N_2  and  C1_3 
ROOT
ATOM      1  C1  UNL d   1       3.224   5.684   4.454  0.00  0.00     0.143 A 
ATOM      2  C2  UNL d   1       3.738   5.549   5.748  0.00  0.00    -0.057 A 
ATOM      3  C3  UNL d   1       5.110   5.663   6.000  0.00  0.00     0.033 A 
ATOM      4  C4  UNL d   1       5.999   5.886   4.954  0.00  0.00    -0.042 A 
ATOM      5  C5  UNL d   1       5.514   6.000   3.656  0.00  0.00     0.033 A 
ATOM      6  C6  UNL d   1       4.141   5.892   3.412  0.00  0.00    -0.057 A 
ENDROOT
BRANCH   1   7
ATOM      7  N   UNL d   1       1.881   5.484   4.125  0.00  0.00    -0.732 N 
ATOM      8  C   UNL d   1       1.407   4.175   3.729  0.00  0.00     0.284 C 
ATOM      9  H3  UNL d   1       1.250   5.984   4.747  0.00  0.00     0.395 HD
ENDBRANCH   1   7
TORSDOF 1
ENDMDL
