MODEL 1
REMARK minimizedAffinity 2.54323626
REMARK minimizedRMSD -1
REMARK  1 active torsions:
REMARK  status: ('A' for Active; 'I' for Inactive)
REMARK    1  A    between atoms: N_2  and  C1_3 
ROOT
ATOM      1  C1  UNL d   1       3.240   5.564   4.384  0.00  0.00     0.143 A 
ATOM      2  C2  UNL d   1       4.211   5.564   3.376  0.00  0.00    -0.057 A 
ATOM      3  C3  UNL d   1       5.566   5.751   3.673  0.00  0.00     0.033 A 
ATOM      4  C4  UNL d   1       5.973   5.970   4.985  0.00  0.00    -0.042 A 
ATOM      5  C5  UNL d   1       5.023   5.999   6.000  0.00  0.00     0.033 A 
ATOM      6  C6  UNL d   1       3.672   5.805   5.698  0.00  0.00    -0.057 A 
ENDROOT
BRANCH   1   7
ATOM      7  N   UNL d   1       1.867   5.482   4.141  0.00  0.00    -0.732 N 
ATOM      8  C   UNL d   1       1.294   4.297   3.540  0.00  0.00     0.284 C 
ATOM      9  H3  UNL d   1       1.314   5.871   4.902  0.00  0.00     0.395 HD
ENDBRANCH   1   7
TORSDOF 1
ENDMDL
