MODEL 1
REMARK minimizedAffinity 7.20111179
REMARK minimizedRMSD -1
REMARK  1 active torsions:
REMARK  status: ('A' for Active; 'I' for Inactive)
REMARK    1  A    between atoms: N_2  and  C1_3 
ROOT
ATOM      1  C1  UNL d   1       3.447   4.536   4.638  0.00  0.00     0.143 A 
ATOM      2  C2  UNL d   1       3.813   5.149   5.841  0.00  0.00    -0.057 A 
ATOM      3  C3  UNL d   1       5.071   5.743   6.000  0.00  0.00     0.033 A 
ATOM      4  C4  UNL d   1       5.999   5.709   4.964  0.00  0.00    -0.042 A 
ATOM      5  C5  UNL d   1       5.666   5.083   3.768  0.00  0.00     0.033 A 
ATOM      6  C6  UNL d   1       4.406   4.498   3.613  0.00  0.00    -0.057 A 
ENDROOT
BRANCH   1   7
ATOM      7  N   UNL d   1       2.249   3.843   4.451  0.00  0.00    -0.732 N 
ATOM      8  C   UNL d   1       1.518   3.956   3.208  0.00  0.00     0.284 C 
ATOM      9  H3  UNL d   1       2.284   2.899   4.829  0.00  0.00     0.395 HD
ENDBRANCH   1   7
TORSDOF 1
ENDMDL
