MODEL 1
REMARK minimizedAffinity -2.45877528
REMARK minimizedRMSD -1
REMARK  1 active torsions:
REMARK  status: ('A' for Active; 'I' for Inactive)
REMARK    1  A    between atoms: N_2  and  C1_3 
ROOT
ATOM      1  C1  UNL d   1       3.821   5.233   5.122  0.00  0.00     0.143 A 
ATOM      2  C2  UNL d   1       2.970   5.997   5.929  0.00  0.00    -0.057 A 
ATOM      3  C3  UNL d   1       1.585   5.999   5.726  0.00  0.00     0.033 A 
ATOM      4  C4  UNL d   1       1.027   5.256   4.691  0.00  0.00    -0.042 A 
ATOM      5  C5  UNL d   1       1.855   4.509   3.861  0.00  0.00     0.033 A 
ATOM      6  C6  UNL d   1       3.237   4.506   4.073  0.00  0.00    -0.057 A 
ENDROOT
BRANCH   1   7
ATOM      7  N   UNL d   1       5.214   5.266   5.211  0.00  0.00    -0.732 N 
ATOM      8  C   UNL d   1       6.000   5.967   4.219  0.00  0.00     0.284 C 
ATOM      9  H3  UNL d   1       5.540   5.396   6.167  0.00  0.00     0.395 HD
ENDBRANCH   1   7
TORSDOF 1
ENDMDL
