MODEL 1
REMARK minimizedAffinity 5.78552008
REMARK minimizedRMSD -1
REMARK  1 active torsions:
REMARK  status: ('A' for Active; 'I' for Inactive)
REMARK    1  A    between atoms: N_2  and  C1_3 
ROOT
ATOM      1  C1  UNL d   1      -2.142   4.895  -5.366  0.00  0.00     0.143 A 
ATOM      2  C2  UNL d   1      -2.720   5.511  -4.251  0.00  0.00    -0.057 A 
ATOM      3  C3  UNL d   1      -3.949   5.078  -3.738  0.00  0.00     0.033 A 
ATOM      4  C4  UNL d   1      -4.637   4.037  -4.352  0.00  0.00    -0.042 A 
ATOM      5  C5  UNL d   1      -4.093   3.426  -5.477  0.00  0.00     0.033 A 
ATOM      6  C6  UNL d   1      -2.863   3.859  -5.980  0.00  0.00    -0.057 A 
ENDROOT
BRANCH   1   7
ATOM      7  N   UNL d   1      -0.971   5.344  -5.982  0.00  0.00    -0.732 N 
ATOM      8  C   UNL d   1       0.218   4.518  -5.996  0.00  0.00     0.284 C 
ATOM      9  H3  UNL d   1      -1.153   5.824  -6.860  0.00  0.00     0.395 HD
ENDBRANCH   1   7
TORSDOF 1
ENDMDL
