MODEL 1
REMARK minimizedAffinity -1.03102076
REMARK minimizedRMSD -1
REMARK  1 active torsions:
REMARK  status: ('A' for Active; 'I' for Inactive)
REMARK    1  A    between atoms: C1_2  and  C2_3 
ROOT
ATOM      1  C2  UNL d   1      -0.405  -0.414   1.107  0.00  0.00    -0.077 A 
ATOM      2  C3  UNL d   1      -1.379  -0.833   0.189  0.00  0.00     0.002 A 
ATOM      3  C4  UNL d   1      -1.472  -0.230  -1.067  0.00  0.00     0.002 A 
ATOM      4  C5  UNL d   1      -0.591   0.791  -1.418  0.00  0.00    -0.004 A 
ATOM      5  C6  UNL d   1       0.379   1.216  -0.511  0.00  0.00     0.002 A 
ATOM      6  C7  UNL d   1       0.473   0.615   0.745  0.00  0.00     0.002 A 
ENDROOT
BRANCH   1   7
ATOM      7  C1  UNL d   1      -0.272  -1.097   2.443  0.00  0.00     0.055 C 
ATOM      8  C   UNL d   1       0.557  -2.368   2.336  0.00  0.00     0.019 C 
ENDBRANCH   1   7
TORSDOF 1
ENDMDL
