MODEL 1
REMARK minimizedAffinity -3.88598275
REMARK minimizedRMSD -1
REMARK  1 active torsions:
REMARK  status: ('A' for Active; 'I' for Inactive)
REMARK    1  A    between atoms: C1_2  and  C2_3 
ROOT
ATOM      1  C2  UNL d   1      -0.327   0.686  -1.083  0.00  0.00    -0.077 A 
ATOM      2  C3  UNL d   1      -1.487   0.561  -1.861  0.00  0.00     0.002 A 
ATOM      3  C4  UNL d   1      -1.899   1.607  -2.689  0.00  0.00     0.002 A 
ATOM      4  C5  UNL d   1      -1.155   2.783  -2.750  0.00  0.00    -0.004 A 
ATOM      5  C6  UNL d   1      -0.001   2.918  -1.979  0.00  0.00     0.002 A 
ATOM      6  C7  UNL d   1       0.412   1.874  -1.150  0.00  0.00     0.002 A 
ENDROOT
BRANCH   1   7
ATOM      7  C1  UNL d   1       0.145  -0.460  -0.227  0.00  0.00     0.055 C 
ATOM      8  C   UNL d   1       0.178  -0.074   1.245  0.00  0.00     0.019 C 
ENDBRANCH   1   7
TORSDOF 1
ENDMDL
