MODEL 1
REMARK minimizedAffinity -4.50370216
REMARK minimizedRMSD -1
REMARK  1 active torsions:
REMARK  status: ('A' for Active; 'I' for Inactive)
REMARK    1  A    between atoms: C1_2  and  C2_3 
ROOT
ATOM      1  C2  UNL d   1      -0.107   1.085  -1.513  0.00  0.00    -0.077 A 
ATOM      2  C3  UNL d   1       0.909   2.007  -1.229  0.00  0.00     0.002 A 
ATOM      3  C4  UNL d   1       0.832   3.315  -1.713  0.00  0.00     0.002 A 
ATOM      4  C5  UNL d   1      -0.261   3.712  -2.480  0.00  0.00    -0.004 A 
ATOM      5  C6  UNL d   1      -1.276   2.802  -2.770  0.00  0.00     0.002 A 
ATOM      6  C7  UNL d   1      -1.200   1.494  -2.288  0.00  0.00     0.002 A 
ENDROOT
BRANCH   1   7
ATOM      7  C1  UNL d   1      -0.050  -0.311  -0.951  0.00  0.00     0.055 C 
ATOM      8  C   UNL d   1       1.327  -0.929  -1.142  0.00  0.00     0.019 C 
ENDBRANCH   1   7
TORSDOF 1
ENDMDL
