MODEL 1
REMARK minimizedAffinity -4.70784092
REMARK minimizedRMSD -1
REMARK  1 active torsions:
REMARK  status: ('A' for Active; 'I' for Inactive)
REMARK    1  A    between atoms: C1_2  and  C2_3 
ROOT
ATOM      1  C2  UNL d   1       0.178  -0.488  -0.464  0.00  0.00    -0.077 A 
ATOM      2  C3  UNL d   1       1.246  -1.302  -0.062  0.00  0.00     0.002 A 
ATOM      3  C4  UNL d   1       1.362  -1.709   1.269  0.00  0.00     0.002 A 
ATOM      4  C5  UNL d   1       0.411  -1.311   2.206  0.00  0.00    -0.004 A 
ATOM      5  C6  UNL d   1      -0.654  -0.500   1.816  0.00  0.00     0.002 A 
ATOM      6  C7  UNL d   1      -0.771  -0.091   0.487  0.00  0.00     0.002 A 
ENDROOT
BRANCH   1   7
ATOM      7  C1  UNL d   1       0.024  -0.089  -1.908  0.00  0.00     0.055 C 
ATOM      8  C   UNL d   1      -0.779   1.197  -2.045  0.00  0.00     0.019 C 
ENDBRANCH   1   7
TORSDOF 1
ENDMDL
