MODEL 1
REMARK minimizedAffinity -3.61817122
REMARK minimizedRMSD -1
REMARK  1 active torsions:
REMARK  status: ('A' for Active; 'I' for Inactive)
REMARK    1  A    between atoms: C1_2  and  C2_3 
ROOT
ATOM      1  C2  UNL d   1      -0.495   1.389  -1.388  0.00  0.00    -0.077 A 
ATOM      2  C3  UNL d   1      -0.504   0.041  -1.771  0.00  0.00     0.002 A 
ATOM      3  C4  UNL d   1      -0.503  -0.968  -0.805  0.00  0.00     0.002 A 
ATOM      4  C5  UNL d   1      -0.497  -0.638   0.549  0.00  0.00    -0.004 A 
ATOM      5  C6  UNL d   1      -0.486   0.700   0.940  0.00  0.00     0.002 A 
ATOM      6  C7  UNL d   1      -0.486   1.709  -0.024  0.00  0.00     0.002 A 
ENDROOT
BRANCH   1   7
ATOM      7  C1  UNL d   1      -0.546   2.479  -2.427  0.00  0.00     0.055 C 
ATOM      8  C   UNL d   1      -1.966   2.988  -2.625  0.00  0.00     0.019 C 
ENDBRANCH   1   7
TORSDOF 1
ENDMDL
