MODEL 1
REMARK minimizedAffinity 15.646492
REMARK minimizedRMSD -1
REMARK  1 active torsions:
REMARK  status: ('A' for Active; 'I' for Inactive)
REMARK    1  A    between atoms: C1_2  and  C2_3 
ROOT
ATOM      1  C2  UNL d   1       4.054  -4.598  -2.428  0.00  0.00    -0.076 A 
ATOM      2  C3  UNL d   1       3.466  -3.508  -1.763  0.00  0.00     0.004 A 
ATOM      3  C4  UNL d   1       3.406  -2.250  -2.362  0.00  0.00    -0.003 A 
ATOM      4  C5  UNL d   1       3.933  -2.063  -3.635  0.00  0.00     0.000 A 
ATOM      5  C6  UNL d   1       4.504  -3.138  -4.316  0.00  0.00     0.000 A 
ATOM      6  C7  UNL d   1       4.558  -4.415  -3.733  0.00  0.00    -0.073 A 
ATOM      7  C8  UNL d   1       5.191  -5.537  -4.510  0.00  0.00     0.078 C 
ENDROOT
BRANCH   1   8
ATOM      8  C1  UNL d   1       4.115  -5.932  -1.718  0.00  0.00     0.053 C 
ATOM      9  C   UNL d   1       5.239  -5.997  -0.696  0.00  0.00     0.018 C 
ENDBRANCH   1   8
TORSDOF 1
ENDMDL
