MODEL 1
REMARK minimizedAffinity 1.9732554
REMARK minimizedRMSD -1
REMARK  1 active torsions:
REMARK  status: ('A' for Active; 'I' for Inactive)
REMARK    1  A    between atoms: C1_2  and  C2_3 
ROOT
ATOM      1  C2  UNL d   1       4.133  -3.185  -1.861  0.00  0.00    -0.076 A 
ATOM      2  C3  UNL d   1       3.419  -2.740  -2.988  0.00  0.00     0.004 A 
ATOM      3  C4  UNL d   1       3.167  -3.594  -4.060  0.00  0.00    -0.003 A 
ATOM      4  C5  UNL d   1       3.624  -4.907  -4.024  0.00  0.00     0.000 A 
ATOM      5  C6  UNL d   1       4.318  -5.370  -2.906  0.00  0.00     0.000 A 
ATOM      6  C7  UNL d   1       4.567  -4.527  -1.810  0.00  0.00    -0.073 A 
ATOM      7  C8  UNL d   1       5.326  -5.078  -0.633  0.00  0.00     0.078 C 
ENDROOT
BRANCH   1   8
ATOM      8  C1  UNL d   1       4.400  -2.207  -0.740  0.00  0.00     0.053 C 
ATOM      9  C   UNL d   1       3.121  -1.619  -0.163  0.00  0.00     0.018 C 
ENDBRANCH   1   8
TORSDOF 1
ENDMDL
