MODEL 1
REMARK minimizedAffinity 6.23070145
REMARK minimizedRMSD -1
REMARK  1 active torsions:
REMARK  status: ('A' for Active; 'I' for Inactive)
REMARK    1  A    between atoms: C1_2  and  C2_3 
ROOT
ATOM      1  C2  UNL d   1      -0.837   1.896  -0.308  0.00  0.00    -0.076 A 
ATOM      2  C3  UNL d   1      -0.616   2.416  -1.595  0.00  0.00     0.004 A 
ATOM      3  C4  UNL d   1      -0.104   3.701  -1.771  0.00  0.00    -0.003 A 
ATOM      4  C5  UNL d   1       0.195   4.486  -0.662  0.00  0.00     0.000 A 
ATOM      5  C6  UNL d   1      -0.002   3.979   0.622  0.00  0.00     0.000 A 
ATOM      6  C7  UNL d   1      -0.501   2.680   0.817  0.00  0.00    -0.073 A 
ATOM      7  C8  UNL d   1      -0.699   2.186   2.224  0.00  0.00     0.078 C 
ENDROOT
BRANCH   1   8
ATOM      8  C1  UNL d   1      -1.419   0.506  -0.179  0.00  0.00     0.053 C 
ATOM      9  C   UNL d   1      -2.669   0.317  -1.025  0.00  0.00     0.018 C 
ENDBRANCH   1   8
TORSDOF 1
ENDMDL
