MODEL 1
REMARK minimizedAffinity 4.29144573
REMARK minimizedRMSD -1
REMARK  1 active torsions:
REMARK  status: ('A' for Active; 'I' for Inactive)
REMARK    1  A    between atoms: C1_2  and  C2_3 
ROOT
ATOM      1  C2  UNL d   1      -1.350   2.917  -1.839  0.00  0.00    -0.076 A 
ATOM      2  C3  UNL d   1      -0.863   1.772  -1.185  0.00  0.00     0.004 A 
ATOM      3  C4  UNL d   1      -1.637   0.617  -1.090  0.00  0.00    -0.003 A 
ATOM      4  C5  UNL d   1      -2.910   0.587  -1.649  0.00  0.00     0.000 A 
ATOM      5  C6  UNL d   1      -3.402   1.708  -2.316  0.00  0.00     0.000 A 
ATOM      6  C7  UNL d   1      -2.628   2.876  -2.435  0.00  0.00    -0.073 A 
ATOM      7  C8  UNL d   1      -3.211   4.057  -3.161  0.00  0.00     0.078 C 
ENDROOT
BRANCH   1   8
ATOM      8  C1  UNL d   1      -0.476   4.150  -1.887  0.00  0.00     0.053 C 
ATOM      9  C   UNL d   1      -1.121   5.348  -1.208  0.00  0.00     0.018 C 
ENDBRANCH   1   8
TORSDOF 1
ENDMDL
