MODEL 1
REMARK minimizedAffinity 2.59609723
REMARK minimizedRMSD -1
REMARK  1 active torsions:
REMARK  status: ('A' for Active; 'I' for Inactive)
REMARK    1  A    between atoms: C1_2  and  C2_3 
ROOT
ATOM      1  C2  UNL d   1       3.927  -2.315   0.236  0.00  0.00    -0.076 A 
ATOM      2  C3  UNL d   1       3.447  -3.264   1.155  0.00  0.00     0.004 A 
ATOM      3  C4  UNL d   1       3.879  -4.588   1.111  0.00  0.00    -0.003 A 
ATOM      4  C5  UNL d   1       4.800  -4.985   0.148  0.00  0.00     0.000 A 
ATOM      5  C6  UNL d   1       5.301  -4.053  -0.761  0.00  0.00     0.000 A 
ATOM      6  C7  UNL d   1       4.888  -2.710  -0.720  0.00  0.00    -0.073 A 
ATOM      7  C8  UNL d   1       5.456  -1.749  -1.727  0.00  0.00     0.078 C 
ENDROOT
BRANCH   1   8
ATOM      8  C1  UNL d   1       3.402  -0.900   0.315  0.00  0.00     0.053 C 
ATOM      9  C   UNL d   1       3.402  -0.357   1.736  0.00  0.00     0.018 C 
ENDBRANCH   1   8
TORSDOF 1
ENDMDL
