MODEL 1
REMARK minimizedAffinity -0.709991872
REMARK minimizedRMSD -1
REMARK  1 active torsions:
REMARK  status: ('A' for Active; 'I' for Inactive)
REMARK    1  A    between atoms: C1_2  and  C2_3 
ROOT
ATOM      1  C2  UNL d   1       4.512  -3.857  -1.044  0.00  0.00    -0.076 A 
ATOM      2  C3  UNL d   1       4.521  -4.735  -2.142  0.00  0.00     0.004 A 
ATOM      3  C4  UNL d   1       4.194  -4.288  -3.421  0.00  0.00    -0.003 A 
ATOM      4  C5  UNL d   1       3.852  -2.956  -3.623  0.00  0.00     0.000 A 
ATOM      5  C6  UNL d   1       3.855  -2.067  -2.548  0.00  0.00     0.000 A 
ATOM      6  C7  UNL d   1       4.199  -2.498  -1.255  0.00  0.00    -0.073 A 
ATOM      7  C8  UNL d   1       4.179  -1.498  -0.132  0.00  0.00     0.078 C 
ENDROOT
BRANCH   1   8
ATOM      8  C1  UNL d   1       4.850  -4.405   0.324  0.00  0.00     0.053 C 
ATOM      9  C   UNL d   1       5.678  -5.679   0.254  0.00  0.00     0.018 C 
ENDBRANCH   1   8
TORSDOF 1
ENDMDL
