MODEL 1
REMARK minimizedAffinity -2.03039312
REMARK minimizedRMSD -1
REMARK  1 active torsions:
REMARK  status: ('A' for Active; 'I' for Inactive)
REMARK    1  A    between atoms: C1_2  and  C2_3 
ROOT
ATOM      1  C2  UNL d   1      -1.666   5.011  -0.265  0.00  0.00    -0.076 A 
ATOM      2  C3  UNL d   1      -2.054   5.001   1.086  0.00  0.00     0.004 A 
ATOM      3  C4  UNL d   1      -3.299   5.490   1.479  0.00  0.00    -0.003 A 
ATOM      4  C5  UNL d   1      -4.176   5.998   0.527  0.00  0.00     0.000 A 
ATOM      5  C6  UNL d   1      -3.815   5.999  -0.820  0.00  0.00     0.000 A 
ATOM      6  C7  UNL d   1      -2.570   5.495  -1.235  0.00  0.00    -0.073 A 
ATOM      7  C8  UNL d   1      -2.230   5.527  -2.699  0.00  0.00     0.078 C 
ENDROOT
BRANCH   1   8
ATOM      8  C1  UNL d   1      -0.293   4.492  -0.628  0.00  0.00     0.053 C 
ATOM      9  C   UNL d   1      -0.268   2.981  -0.800  0.00  0.00     0.018 C 
ENDBRANCH   1   8
TORSDOF 1
ENDMDL
