MODEL 1
REMARK minimizedAffinity 0.14480494
REMARK minimizedRMSD -1
REMARK  1 active torsions:
REMARK  status: ('A' for Active; 'I' for Inactive)
REMARK    1  A    between atoms: C1_2  and  C2_3 
ROOT
ATOM      1  C2  UNL d   1       4.242  -3.301  -1.508  0.00  0.00    -0.076 A 
ATOM      2  C3  UNL d   1       3.400  -3.130  -2.620  0.00  0.00     0.004 A 
ATOM      3  C4  UNL d   1       3.312  -4.106  -3.611  0.00  0.00    -0.003 A 
ATOM      4  C5  UNL d   1       4.066  -5.270  -3.505  0.00  0.00     0.000 A 
ATOM      5  C6  UNL d   1       4.894  -5.464  -2.400  0.00  0.00     0.000 A 
ATOM      6  C7  UNL d   1       4.981  -4.497  -1.384  0.00  0.00    -0.073 A 
ATOM      7  C8  UNL d   1       5.894  -4.756  -0.217  0.00  0.00     0.078 C 
ENDROOT
BRANCH   1   8
ATOM      8  C1  UNL d   1       4.317  -2.196  -0.478  0.00  0.00     0.053 C 
ATOM      9  C   UNL d   1       3.071  -2.126   0.392  0.00  0.00     0.018 C 
ENDBRANCH   1   8
TORSDOF 1
ENDMDL
