MODEL 1
REMARK minimizedAffinity -4.70341396
REMARK minimizedRMSD -1
REMARK  1 active torsions:
REMARK  status: ('A' for Active; 'I' for Inactive)
REMARK    1  A    between atoms: C1_2  and  C2_3 
ROOT
ATOM      1  C2  UNL d   1       4.257  -2.921  -1.525  0.00  0.00    -0.076 A 
ATOM      2  C3  UNL d   1       3.558  -2.385  -2.621  0.00  0.00     0.004 A 
ATOM      3  C4  UNL d   1       3.206  -3.184  -3.708  0.00  0.00    -0.003 A 
ATOM      4  C5  UNL d   1       3.547  -4.532  -3.716  0.00  0.00     0.000 A 
ATOM      5  C6  UNL d   1       4.224  -5.085  -2.629  0.00  0.00     0.000 A 
ATOM      6  C7  UNL d   1       4.572  -4.297  -1.518  0.00  0.00    -0.073 A 
ATOM      7  C8  UNL d   1       5.307  -4.944  -0.377  0.00  0.00     0.078 C 
ENDROOT
BRANCH   1   8
ATOM      8  C1  UNL d   1       4.635  -2.001  -0.387  0.00  0.00     0.053 C 
ATOM      9  C   UNL d   1       3.456  -1.676   0.517  0.00  0.00     0.018 C 
ENDBRANCH   1   8
TORSDOF 1
ENDMDL
