MODEL 1
REMARK minimizedAffinity 0.910078645
REMARK minimizedRMSD -1
REMARK  2 active torsions:
REMARK  status: ('A' for Active; 'I' for Inactive)
REMARK    1  A    between atoms: C1_2  and  C2_3 
REMARK    2  A    between atoms: C2_3  and  C3_4 
ROOT
ATOM      1  C3  UNL d   1      -0.406  -0.348   2.570  0.00  0.00    -0.075 A 
ATOM      2  C4  UNL d   1       0.959  -0.484   2.860  0.00  0.00     0.002 A 
ATOM      3  C5  UNL d   1       1.829  -1.044   1.924  0.00  0.00     0.002 A 
ATOM      4  C6  UNL d   1       1.345  -1.484   0.694  0.00  0.00    -0.004 A 
ATOM      5  C7  UNL d   1      -0.012  -1.369   0.402  0.00  0.00     0.002 A 
ATOM      6  C8  UNL d   1      -0.884  -0.804   1.335  0.00  0.00     0.002 A 
ENDROOT
BRANCH   1   7
ATOM      7  C2  UNL d   1      -1.348   0.284   3.567  0.00  0.00     0.056 C 
BRANCH   7   8
ATOM      8  C1  UNL d   1      -2.506   1.058   2.928  0.00  0.00     0.007 C 
ATOM      9  C   UNL d   1      -3.561   1.499   3.933  0.00  0.00     0.009 C 
ENDBRANCH   7   8
ENDBRANCH   1   7
TORSDOF 2
ENDMDL
