MODEL 1
REMARK minimizedAffinity 5.2301569
REMARK minimizedRMSD -1
REMARK  2 active torsions:
REMARK  status: ('A' for Active; 'I' for Inactive)
REMARK    1  A    between atoms: C1_2  and  C2_3 
REMARK    2  A    between atoms: C2_3  and  C3_4 
ROOT
ATOM      1  C3  UNL d   1       2.486   0.036  -0.388  0.00  0.00    -0.075 A 
ATOM      2  C4  UNL d   1       1.980   0.370  -1.652  0.00  0.00     0.002 A 
ATOM      3  C5  UNL d   1       1.751   1.703  -1.993  0.00  0.00     0.002 A 
ATOM      4  C6  UNL d   1       2.014   2.716  -1.074  0.00  0.00    -0.004 A 
ATOM      5  C7  UNL d   1       2.501   2.394   0.191  0.00  0.00     0.002 A 
ATOM      6  C8  UNL d   1       2.736   1.062   0.534  0.00  0.00     0.002 A 
ENDROOT
BRANCH   1   7
ATOM      7  C2  UNL d   1       2.765  -1.403  -0.022  0.00  0.00     0.056 C 
BRANCH   7   8
ATOM      8  C1  UNL d   1       4.051  -1.965  -0.637  0.00  0.00     0.007 C 
ATOM      9  C   UNL d   1       5.310  -1.526   0.099  0.00  0.00     0.009 C 
ENDBRANCH   7   8
ENDBRANCH   1   7
TORSDOF 2
ENDMDL
