MODEL 1
REMARK minimizedAffinity 8.15684128
REMARK minimizedRMSD -1
REMARK  2 active torsions:
REMARK  status: ('A' for Active; 'I' for Inactive)
REMARK    1  A    between atoms: C1_2  and  C2_3 
REMARK    2  A    between atoms: C2_3  and  C3_4 
ROOT
ATOM      1  C3  UNL d   1       1.890  -0.461   0.257  0.00  0.00    -0.075 A 
ATOM      2  C4  UNL d   1       1.345  -0.375  -1.033  0.00  0.00     0.002 A 
ATOM      3  C5  UNL d   1       1.303   0.847  -1.704  0.00  0.00     0.002 A 
ATOM      4  C6  UNL d   1       1.795   1.998  -1.093  0.00  0.00    -0.004 A 
ATOM      5  C7  UNL d   1       2.323   1.928   0.194  0.00  0.00     0.002 A 
ATOM      6  C8  UNL d   1       2.371   0.706   0.867  0.00  0.00     0.002 A 
ENDROOT
BRANCH   1   7
ATOM      7  C2  UNL d   1       1.965  -1.786   0.977  0.00  0.00     0.056 C 
BRANCH   7   8
ATOM      8  C1  UNL d   1       2.058  -1.662   2.502  0.00  0.00     0.007 C 
ATOM      9  C   UNL d   1       0.709  -1.431   3.169  0.00  0.00     0.009 C 
ENDBRANCH   7   8
ENDBRANCH   1   7
TORSDOF 2
ENDMDL
