MODEL 1
REMARK minimizedAffinity 0.567468226
REMARK minimizedRMSD -1
REMARK  2 active torsions:
REMARK  status: ('A' for Active; 'I' for Inactive)
REMARK    1  A    between atoms: C1_2  and  C2_3 
REMARK    2  A    between atoms: C2_3  and  C3_4 
ROOT
ATOM      1  C3  UNL d   1       0.298  -0.961   1.265  0.00  0.00    -0.075 A 
ATOM      2  C4  UNL d   1      -0.852  -0.786   0.481  0.00  0.00     0.002 A 
ATOM      3  C5  UNL d   1      -0.756  -0.695  -0.908  0.00  0.00     0.002 A 
ATOM      4  C6  UNL d   1       0.489  -0.768  -1.529  0.00  0.00    -0.004 A 
ATOM      5  C7  UNL d   1       1.639  -0.926  -0.759  0.00  0.00     0.002 A 
ATOM      6  C8  UNL d   1       1.546  -1.022   0.631  0.00  0.00     0.002 A 
ENDROOT
BRANCH   1   7
ATOM      7  C2  UNL d   1       0.197  -1.090   2.766  0.00  0.00     0.056 C 
BRANCH   7   8
ATOM      8  C1  UNL d   1      -1.131  -1.678   3.254  0.00  0.00     0.007 C 
ATOM      9  C   UNL d   1      -1.235  -3.183   3.043  0.00  0.00     0.009 C 
ENDBRANCH   7   8
ENDBRANCH   1   7
TORSDOF 2
ENDMDL
