MODEL 1
REMARK minimizedAffinity 3.4339726
REMARK minimizedRMSD -1
REMARK  2 active torsions:
REMARK  status: ('A' for Active; 'I' for Inactive)
REMARK    1  A    between atoms: C1_2  and  C2_3 
REMARK    2  A    between atoms: C2_3  and  C3_4 
ROOT
ATOM      1  C3  UNL d   1       0.963  -1.578   2.205  0.00  0.00    -0.075 A 
ATOM      2  C4  UNL d   1       1.034  -1.220   0.851  0.00  0.00     0.002 A 
ATOM      3  C5  UNL d   1       2.216  -1.401   0.132  0.00  0.00     0.002 A 
ATOM      4  C6  UNL d   1       3.342  -1.931   0.758  0.00  0.00    -0.004 A 
ATOM      5  C7  UNL d   1       3.288  -2.275   2.107  0.00  0.00     0.002 A 
ATOM      6  C8  UNL d   1       2.106  -2.099   2.828  0.00  0.00     0.002 A 
ENDROOT
BRANCH   1   7
ATOM      7  C2  UNL d   1      -0.321  -1.413   2.982  0.00  0.00     0.056 C 
BRANCH   7   8
ATOM      8  C1  UNL d   1      -0.582   0.020   3.458  0.00  0.00     0.007 C 
ATOM      9  C   UNL d   1      -2.058   0.397   3.445  0.00  0.00     0.009 C 
ENDBRANCH   7   8
ENDBRANCH   1   7
TORSDOF 2
ENDMDL
