MODEL 1
REMARK minimizedAffinity 3.58915901
REMARK minimizedRMSD -1
REMARK  2 active torsions:
REMARK  status: ('A' for Active; 'I' for Inactive)
REMARK    1  A    between atoms: C1_2  and  C2_3 
REMARK    2  A    between atoms: C2_3  and  C3_4 
ROOT
ATOM      1  C3  UNL d   1       1.764  -0.291   0.598  0.00  0.00    -0.075 A 
ATOM      2  C4  UNL d   1       1.191  -0.769  -0.589  0.00  0.00     0.002 A 
ATOM      3  C5  UNL d   1       1.031   0.076  -1.688  0.00  0.00     0.002 A 
ATOM      4  C6  UNL d   1       1.431   1.408  -1.611  0.00  0.00    -0.004 A 
ATOM      5  C7  UNL d   1       1.987   1.898  -0.431  0.00  0.00     0.002 A 
ATOM      6  C8  UNL d   1       2.152   1.054   0.669  0.00  0.00     0.002 A 
ENDROOT
BRANCH   1   7
ATOM      7  C2  UNL d   1       1.968  -1.207   1.782  0.00  0.00     0.056 C 
BRANCH   7   8
ATOM      8  C1  UNL d   1       3.192  -2.120   1.660  0.00  0.00     0.007 C 
ATOM      9  C   UNL d   1       3.087  -3.115   0.512  0.00  0.00     0.009 C 
ENDBRANCH   7   8
ENDBRANCH   1   7
TORSDOF 2
ENDMDL
