MODEL 1
REMARK minimizedAffinity -3.01877737
REMARK minimizedRMSD -1
REMARK  0 active torsions:
REMARK  status: ('A' for Active; 'I' for Inactive)
ROOT
ATOM      1  C1  DEN d   1      -0.571  -0.581  -1.244  0.00  0.00     0.130 A 
ATOM      2  C2  DEN d   1       0.819  -0.996  -1.069  0.00  0.00    -0.031 A 
ATOM      3  C3  DEN d   1       1.304  -0.440   0.209  0.00  0.00     0.027 A 
ATOM      4  C4  DEN d   1       0.046   1.013   1.929  0.00  0.00     0.027 A 
ATOM      5  C5  DEN d   1      -1.151   1.634   2.213  0.00  0.00    -0.003 A 
ATOM      6  C6  DEN d   1      -2.218   1.589   1.355  0.00  0.00     0.001 A 
ATOM      7  C7  DEN d   1      -2.124   0.871   0.192  0.00  0.00     0.017 A 
ATOM      8  C8  DEN d   1      -0.919   0.248  -0.104  0.00  0.00    -0.094 A 
ATOM      9  C9  DEN d   1       0.144   0.295   0.782  0.00  0.00    -0.072 A 
ENDROOT
TORSDOF 0
ENDMDL
