MODEL 1
REMARK minimizedAffinity -6.46558857
REMARK minimizedRMSD -1
REMARK  0 active torsions:
REMARK  status: ('A' for Active; 'I' for Inactive)
ROOT
ATOM      1  C1  DEN d   1       0.589   0.505  -0.728  0.00  0.00     0.130 A 
ATOM      2  C2  DEN d   1       0.443  -0.686   0.105  0.00  0.00    -0.031 A 
ATOM      3  C3  DEN d   1      -0.616  -0.420   1.099  0.00  0.00     0.027 A 
ATOM      4  C4  DEN d   1      -2.041   1.706   1.423  0.00  0.00     0.027 A 
ATOM      5  C5  DEN d   1      -2.271   2.984   0.964  0.00  0.00    -0.003 A 
ATOM      6  C6  DEN d   1      -1.546   3.533  -0.061  0.00  0.00     0.001 A 
ATOM      7  C7  DEN d   1      -0.587   2.785  -0.691  0.00  0.00     0.017 A 
ATOM      8  C8  DEN d   1      -0.344   1.498  -0.228  0.00  0.00    -0.094 A 
ATOM      9  C9  DEN d   1      -1.095   0.957   0.801  0.00  0.00    -0.072 A 
ENDROOT
TORSDOF 0
ENDMDL
