MODEL 1
REMARK minimizedAffinity -6.32297182
REMARK minimizedRMSD -1
REMARK  0 active torsions:
REMARK  status: ('A' for Active; 'I' for Inactive)
ROOT
ATOM      1  C1  DEN d   1      -0.079  -0.479   1.084  0.00  0.00     0.130 A 
ATOM      2  C2  DEN d   1       0.788  -0.931  -0.000  0.00  0.00    -0.031 A 
ATOM      3  C3  DEN d   1       0.940   0.183  -0.958  0.00  0.00     0.027 A 
ATOM      4  C4  DEN d   1      -0.075   2.552  -0.865  0.00  0.00     0.027 A 
ATOM      5  C5  DEN d   1      -0.888   3.398  -0.143  0.00  0.00    -0.003 A 
ATOM      6  C6  DEN d   1      -1.510   3.003   1.012  0.00  0.00     0.001 A 
ATOM      7  C7  DEN d   1      -1.294   1.742   1.502  0.00  0.00     0.017 A 
ATOM      8  C8  DEN d   1      -0.481   0.882   0.776  0.00  0.00    -0.094 A 
ATOM      9  C9  DEN d   1       0.149   1.304  -0.382  0.00  0.00    -0.072 A 
ENDROOT
TORSDOF 0
ENDMDL
