MODEL 1
REMARK minimizedAffinity -6.74537802
REMARK minimizedRMSD -1
REMARK  0 active torsions:
REMARK  status: ('A' for Active; 'I' for Inactive)
ROOT
ATOM      1  C1  DEN d   1       0.824   0.182  -0.424  0.00  0.00     0.130 A 
ATOM      2  C2  DEN d   1       0.584  -0.879   0.549  0.00  0.00    -0.031 A 
ATOM      3  C3  DEN d   1      -0.432  -0.400   1.507  0.00  0.00     0.027 A 
ATOM      4  C4  DEN d   1      -1.654   1.871   1.574  0.00  0.00     0.027 A 
ATOM      5  C5  DEN d   1      -1.775   3.099   0.963  0.00  0.00    -0.003 A 
ATOM      6  C6  DEN d   1      -1.020   3.451  -0.125  0.00  0.00     0.001 A 
ATOM      7  C7  DEN d   1      -0.142   2.548  -0.662  0.00  0.00     0.017 A 
ATOM      8  C8  DEN d   1      -0.009   1.310  -0.046  0.00  0.00    -0.094 A 
ATOM      9  C9  DEN d   1      -0.790   0.968   1.045  0.00  0.00    -0.072 A 
ENDROOT
TORSDOF 0
ENDMDL
