MODEL 1
REMARK minimizedAffinity -4.5850091
REMARK minimizedRMSD -1
REMARK  0 active torsions:
REMARK  status: ('A' for Active; 'I' for Inactive)
ROOT
ATOM      1  C1  DEN d   1       0.664   1.882  -1.491  0.00  0.00     0.130 A 
ATOM      2  C2  DEN d   1       1.036   0.483  -1.678  0.00  0.00    -0.031 A 
ATOM      3  C3  DEN d   1       0.585  -0.272  -0.491  0.00  0.00     0.027 A 
ATOM      4  C4  DEN d   1      -0.650   0.587   1.604  0.00  0.00     0.027 A 
ATOM      5  C5  DEN d   1      -1.171   1.703   2.222  0.00  0.00    -0.003 A 
ATOM      6  C6  DEN d   1      -1.088   2.951   1.665  0.00  0.00     0.001 A 
ATOM      7  C7  DEN d   1      -0.509   3.108   0.434  0.00  0.00     0.017 A 
ATOM      8  C8  DEN d   1       0.026   1.989  -0.192  0.00  0.00    -0.094 A 
ATOM      9  C9  DEN d   1      -0.080   0.734   0.382  0.00  0.00    -0.072 A 
ENDROOT
TORSDOF 0
ENDMDL
