MODEL 1
REMARK minimizedAffinity -3.91636038
REMARK minimizedRMSD -1
REMARK  0 active torsions:
REMARK  status: ('A' for Active; 'I' for Inactive)
ROOT
ATOM      1  C1  DEN d   1      -0.666  -0.748   0.196  0.00  0.00     0.130 A 
ATOM      2  C2  DEN d   1      -0.241   0.562  -0.289  0.00  0.00    -0.031 A 
ATOM      3  C3  DEN d   1       0.245   0.400  -1.674  0.00  0.00     0.027 A 
ATOM      4  C4  DEN d   1       0.378  -1.740  -3.107  0.00  0.00     0.027 A 
ATOM      5  C5  DEN d   1       0.144  -3.098  -3.122  0.00  0.00    -0.003 A 
ATOM      6  C6  DEN d   1      -0.341  -3.767  -2.030  0.00  0.00     0.001 A 
ATOM      7  C7  DEN d   1      -0.649  -3.073  -0.890  0.00  0.00     0.017 A 
ATOM      8  C8  DEN d   1      -0.409  -1.705  -0.865  0.00  0.00    -0.094 A 
ATOM      9  C9  DEN d   1       0.070  -1.045  -1.984  0.00  0.00    -0.072 A 
ENDROOT
TORSDOF 0
ENDMDL
