MODEL 1
REMARK minimizedAffinity -4.32501745
REMARK minimizedRMSD -1
REMARK  0 active torsions:
REMARK  status: ('A' for Active; 'I' for Inactive)
ROOT
ATOM      1  C1  DEN d   1      -1.540   3.668   0.654  0.00  0.00     0.130 A 
ATOM      2  C2  DEN d   1      -0.870   4.168  -0.543  0.00  0.00    -0.031 A 
ATOM      3  C3  DEN d   1      -0.166   3.036  -1.179  0.00  0.00     0.027 A 
ATOM      4  C4  DEN d   1      -0.055   0.570  -0.434  0.00  0.00     0.027 A 
ATOM      5  C5  DEN d   1      -0.456  -0.331   0.528  0.00  0.00    -0.003 A 
ATOM      6  C6  DEN d   1      -1.212   0.041   1.608  0.00  0.00     0.001 A 
ATOM      7  C7  DEN d   1      -1.629   1.340   1.729  0.00  0.00     0.017 A 
ATOM      8  C8  DEN d   1      -1.222   2.256   0.768  0.00  0.00    -0.094 A 
ATOM      9  C9  DEN d   1      -0.469   1.858  -0.323  0.00  0.00    -0.072 A 
ENDROOT
TORSDOF 0
ENDMDL
