MODEL 1
REMARK minimizedAffinity -4.86477804
REMARK minimizedRMSD -1
REMARK  0 active torsions:
REMARK  status: ('A' for Active; 'I' for Inactive)
ROOT
ATOM      1  C1  DEN d   1       1.034  -0.142   1.288  0.00  0.00     0.130 A 
ATOM      2  C2  DEN d   1       1.621  -0.402  -0.023  0.00  0.00    -0.031 A 
ATOM      3  C3  DEN d   1       0.900   0.418  -1.017  0.00  0.00     0.027 A 
ATOM      4  C4  DEN d   1      -1.055   2.061  -0.654  0.00  0.00     0.027 A 
ATOM      5  C5  DEN d   1      -1.903   2.606   0.284  0.00  0.00    -0.003 A 
ATOM      6  C6  DEN d   1      -1.855   2.252   1.606  0.00  0.00     0.001 A 
ATOM      7  C7  DEN d   1      -0.908   1.359   2.035  0.00  0.00     0.017 A 
ATOM      8  C8  DEN d   1      -0.054   0.799   1.094  0.00  0.00    -0.094 A 
ATOM      9  C9  DEN d   1      -0.111   1.179  -0.236  0.00  0.00    -0.072 A 
ENDROOT
TORSDOF 0
ENDMDL
