MODEL 1
REMARK minimizedAffinity -6.38496923
REMARK minimizedRMSD -1
REMARK  0 active torsions:
REMARK  status: ('A' for Active; 'I' for Inactive)
ROOT
ATOM      1  C1  DEN d   1      -0.545  -0.148   1.580  0.00  0.00     0.130 A 
ATOM      2  C2  DEN d   1       0.347  -0.676   0.551  0.00  0.00    -0.031 A 
ATOM      3  C3  DEN d   1       0.470   0.341  -0.512  0.00  0.00     0.027 A 
ATOM      4  C4  DEN d   1      -0.625   2.672  -0.663  0.00  0.00     0.027 A 
ATOM      5  C5  DEN d   1      -1.473   3.557  -0.033  0.00  0.00    -0.003 A 
ATOM      6  C6  DEN d   1      -2.092   3.258   1.151  0.00  0.00     0.001 A 
ATOM      7  C7  DEN d   1      -1.837   2.061   1.767  0.00  0.00     0.017 A 
ATOM      8  C8  DEN d   1      -0.990   1.160   1.135  0.00  0.00    -0.094 A 
ATOM      9  C9  DEN d   1      -0.364   1.486  -0.056  0.00  0.00    -0.072 A 
ENDROOT
TORSDOF 0
ENDMDL
