MODEL 1
REMARK minimizedAffinity -4.82094717
REMARK minimizedRMSD -1
REMARK  0 active torsions:
REMARK  status: ('A' for Active; 'I' for Inactive)
ROOT
ATOM      1  C1  DEN d   1      -0.454   3.426   0.456  0.00  0.00     0.130 A 
ATOM      2  C2  DEN d   1       0.390   3.437  -0.735  0.00  0.00    -0.031 A 
ATOM      3  C3  DEN d   1       0.794   2.046  -1.022  0.00  0.00     0.027 A 
ATOM      4  C4  DEN d   1       0.194  -0.114   0.254  0.00  0.00     0.027 A 
ATOM      5  C5  DEN d   1      -0.487  -0.625   1.337  0.00  0.00    -0.003 A 
ATOM      6  C6  DEN d   1      -1.171   0.174   2.214  0.00  0.00     0.001 A 
ATOM      7  C7  DEN d   1      -1.227   1.526   1.998  0.00  0.00     0.017 A 
ATOM      8  C8  DEN d   1      -0.537   2.050   0.913  0.00  0.00    -0.094 A 
ATOM      9  C9  DEN d   1       0.139   1.224   0.031  0.00  0.00    -0.072 A 
ENDROOT
TORSDOF 0
ENDMDL
