MODEL 1
REMARK minimizedAffinity -5.98909283
REMARK minimizedRMSD -1
REMARK  0 active torsions:
REMARK  status: ('A' for Active; 'I' for Inactive)
ROOT
ATOM      1  C1  DEN d   1       0.500  -0.071  -1.315  0.00  0.00     0.130 A 
ATOM      2  C2  DEN d   1       0.463   0.153   0.128  0.00  0.00    -0.031 A 
ATOM      3  C3  DEN d   1       0.371  -1.162   0.792  0.00  0.00     0.027 A 
ATOM      4  C4  DEN d   1       0.286  -3.512  -0.268  0.00  0.00     0.027 A 
ATOM      5  C5  DEN d   1       0.278  -4.208  -1.456  0.00  0.00    -0.003 A 
ATOM      6  C6  DEN d   1       0.308  -3.577  -2.672  0.00  0.00     0.001 A 
ATOM      7  C7  DEN d   1       0.394  -2.211  -2.726  0.00  0.00     0.017 A 
ATOM      8  C8  DEN d   1       0.395  -1.502  -1.531  0.00  0.00    -0.094 A 
ATOM      9  C9  DEN d   1       0.376  -2.159  -0.313  0.00  0.00    -0.072 A 
ENDROOT
TORSDOF 0
ENDMDL
