MODEL 1
REMARK minimizedAffinity -4.99364376
REMARK minimizedRMSD -1
REMARK  0 active torsions:
REMARK  status: ('A' for Active; 'I' for Inactive)
ROOT
ATOM      1  C1  DEN d   1       0.760   1.688  -1.202  0.00  0.00     0.130 A 
ATOM      2  C2  DEN d   1       1.653   0.570  -0.911  0.00  0.00    -0.031 A 
ATOM      3  C3  DEN d   1       1.073  -0.199   0.208  0.00  0.00     0.027 A 
ATOM      4  C4  DEN d   1      -1.113   0.228   1.509  0.00  0.00     0.027 A 
ATOM      5  C5  DEN d   1      -2.201   1.063   1.632  0.00  0.00    -0.003 A 
ATOM      6  C6  DEN d   1      -2.360   2.176   0.849  0.00  0.00     0.001 A 
ATOM      7  C7  DEN d   1      -1.438   2.458  -0.124  0.00  0.00     0.017 A 
ATOM      8  C8  DEN d   1      -0.334   1.624  -0.250  0.00  0.00    -0.094 A 
ATOM      9  C9  DEN d   1      -0.198   0.498   0.544  0.00  0.00    -0.072 A 
ENDROOT
TORSDOF 0
ENDMDL
