MODEL 1
REMARK minimizedAffinity -4.72578859
REMARK minimizedRMSD -1
REMARK  0 active torsions:
REMARK  status: ('A' for Active; 'I' for Inactive)
ROOT
ATOM      1  C1  DEN d   1       0.556  -0.173  -0.834  0.00  0.00     0.130 A 
ATOM      2  C2  DEN d   1       0.585  -1.325   0.064  0.00  0.00    -0.031 A 
ATOM      3  C3  DEN d   1      -0.104  -0.947   1.314  0.00  0.00     0.027 A 
ATOM      4  C4  DEN d   1      -1.211   1.297   1.942  0.00  0.00     0.027 A 
ATOM      5  C5  DEN d   1      -1.478   2.577   1.509  0.00  0.00    -0.003 A 
ATOM      6  C6  DEN d   1      -1.060   3.037   0.289  0.00  0.00     0.001 A 
ATOM      7  C7  DEN d   1      -0.390   2.196  -0.560  0.00  0.00     0.017 A 
ATOM      8  C8  DEN d   1      -0.111   0.907  -0.128  0.00  0.00    -0.094 A 
ATOM      9  C9  DEN d   1      -0.552   0.456   1.104  0.00  0.00    -0.072 A 
ENDROOT
TORSDOF 0
ENDMDL
