MODEL 1
REMARK minimizedAffinity -5.53932476
REMARK minimizedRMSD -1
REMARK  0 active torsions:
REMARK  status: ('A' for Active; 'I' for Inactive)
ROOT
ATOM      1  C1  DEN d   1       0.669   0.233  -0.621  0.00  0.00     0.130 A 
ATOM      2  C2  DEN d   1       0.757  -0.742   0.463  0.00  0.00    -0.031 A 
ATOM      3  C3  DEN d   1      -0.171  -0.320   1.532  0.00  0.00     0.027 A 
ATOM      4  C4  DEN d   1      -1.731   1.733   1.610  0.00  0.00     0.027 A 
ATOM      5  C5  DEN d   1      -2.144   2.855   0.927  0.00  0.00    -0.003 A 
ATOM      6  C6  DEN d   1      -1.628   3.198  -0.295  0.00  0.00     0.001 A 
ATOM      7  C7  DEN d   1      -0.701   2.385  -0.892  0.00  0.00     0.017 A 
ATOM      8  C8  DEN d   1      -0.274   1.256  -0.206  0.00  0.00    -0.094 A 
ATOM      9  C9  DEN d   1      -0.817   0.920   1.023  0.00  0.00    -0.072 A 
ENDROOT
TORSDOF 0
ENDMDL
