MODEL 1
REMARK minimizedAffinity -3.81396937
REMARK minimizedRMSD -1
REMARK  0 active torsions:
REMARK  status: ('A' for Active; 'I' for Inactive)
ROOT
ATOM      1  C1  DEN d   1      -1.129   1.459   1.810  0.00  0.00     0.130 A 
ATOM      2  C2  DEN d   1      -1.518   2.792   1.358  0.00  0.00    -0.031 A 
ATOM      3  C3  DEN d   1      -1.080   2.944  -0.044  0.00  0.00     0.027 A 
ATOM      4  C4  DEN d   1       0.151   1.252  -1.552  0.00  0.00     0.027 A 
ATOM      5  C5  DEN d   1       0.703  -0.009  -1.607  0.00  0.00    -0.003 A 
ATOM      6  C6  DEN d   1       0.714  -0.849  -0.525  0.00  0.00     0.001 A 
ATOM      7  C7  DEN d   1       0.121  -0.455   0.645  0.00  0.00     0.017 A 
ATOM      8  C8  DEN d   1      -0.432   0.817   0.710  0.00  0.00    -0.094 A 
ATOM      9  C9  DEN d   1      -0.443   1.647  -0.398  0.00  0.00    -0.072 A 
ENDROOT
TORSDOF 0
ENDMDL
