MODEL 1
REMARK minimizedAffinity -2.30826187
REMARK minimizedRMSD -1
REMARK  0 active torsions:
REMARK  status: ('A' for Active; 'I' for Inactive)
ROOT
ATOM      1  C1  DEN d   1      -0.491   3.570   0.738  0.00  0.00     0.130 A 
ATOM      2  C2  DEN d   1       0.205   3.772  -0.530  0.00  0.00    -0.031 A 
ATOM      3  C3  DEN d   1       0.581   2.446  -1.060  0.00  0.00     0.027 A 
ATOM      4  C4  DEN d   1       0.151   0.113  -0.049  0.00  0.00     0.027 A 
ATOM      5  C5  DEN d   1      -0.393  -0.565   1.020  0.00  0.00    -0.003 A 
ATOM      6  C6  DEN d   1      -0.973   0.085   2.077  0.00  0.00     0.001 A 
ATOM      7  C7  DEN d   1      -1.063   1.452   2.067  0.00  0.00     0.017 A 
ATOM      8  C8  DEN d   1      -0.510   2.142   0.997  0.00  0.00    -0.094 A 
ATOM      9  C9  DEN d   1       0.061   1.467  -0.068  0.00  0.00    -0.072 A 
ENDROOT
TORSDOF 0
ENDMDL
