MODEL 1
REMARK minimizedAffinity 2.43442607
REMARK minimizedRMSD -1
REMARK  0 active torsions:
REMARK  status: ('A' for Active; 'I' for Inactive)
ROOT
ATOM      1  C4' PXY d   1       2.453   5.824   3.403  0.00  0.00     0.077 C 
ATOM      2  C1' PXY d   1      -0.882   1.662   1.175  0.00  0.00     0.077 C 
ATOM      3  C1  PXY d   1      -0.012   2.762   1.751  0.00  0.00    -0.082 A 
ATOM      4  C2  PXY d   1       1.100   2.447   2.394  0.00  0.00     0.003 A 
ATOM      5  C3  PXY d   1       1.882   3.428   2.949  0.00  0.00     0.003 A 
ATOM      6  C4  PXY d   1       1.549   4.747   2.797  0.00  0.00    -0.082 A 
ATOM      7  C5  PXY d   1       0.422   5.077   2.133  0.00  0.00     0.003 A 
ATOM      8  C6  PXY d   1      -0.380   4.065   1.613  0.00  0.00     0.003 A 
ENDROOT
TORSDOF 0
ENDMDL
