MODEL 1
REMARK minimizedAffinity 4.98840857
REMARK minimizedRMSD -1
REMARK  0 active torsions:
REMARK  status: ('A' for Active; 'I' for Inactive)
ROOT
ATOM      1  C4' PXY d   1      -3.181  -0.609  -1.682  0.00  0.00     0.077 C 
ATOM      2  C1' PXY d   1      -3.765   3.116   2.700  0.00  0.00     0.077 C 
ATOM      3  C1  PXY d   1      -3.623   2.134   1.553  0.00  0.00    -0.082 A 
ATOM      4  C2  PXY d   1      -2.418   1.815   1.110  0.00  0.00     0.003 A 
ATOM      5  C3  PXY d   1      -2.273   0.953   0.053  0.00  0.00     0.003 A 
ATOM      6  C4  PXY d   1      -3.371   0.371  -0.521  0.00  0.00    -0.082 A 
ATOM      7  C5  PXY d   1      -4.604   0.683  -0.067  0.00  0.00     0.003 A 
ATOM      8  C6  PXY d   1      -4.731   1.591   0.979  0.00  0.00     0.003 A 
ENDROOT
TORSDOF 0
ENDMDL
