MODEL 1
REMARK minimizedAffinity 7.04201078
REMARK minimizedRMSD -1
REMARK  0 active torsions:
REMARK  status: ('A' for Active; 'I' for Inactive)
ROOT
ATOM      1  C4' PXY d   1       2.358  -3.065  -1.315  0.00  0.00     0.077 C 
ATOM      2  C1' PXY d   1       1.622   2.612  -0.509  0.00  0.00     0.077 C 
ATOM      3  C1  PXY d   1       1.827   1.124  -0.717  0.00  0.00    -0.082 A 
ATOM      4  C2  PXY d   1       1.025   0.461  -1.533  0.00  0.00     0.003 A 
ATOM      5  C3  PXY d   1       1.176  -0.891  -1.708  0.00  0.00     0.003 A 
ATOM      6  C4  PXY d   1       2.194  -1.561  -1.082  0.00  0.00    -0.082 A 
ATOM      7  C5  PXY d   1       3.023  -0.889  -0.256  0.00  0.00     0.003 A 
ATOM      8  C6  PXY d   1       2.827   0.475  -0.060  0.00  0.00     0.003 A 
ENDROOT
TORSDOF 0
ENDMDL
