MODEL 1
REMARK minimizedAffinity 4.52109337
REMARK minimizedRMSD -1
REMARK  0 active torsions:
REMARK  status: ('A' for Active; 'I' for Inactive)
ROOT
ATOM      1  C4' PXY d   1       4.539   2.330  -1.310  0.00  0.00     0.077 C 
ATOM      2  C1' PXY d   1       1.992  -2.648   0.155  0.00  0.00     0.077 C 
ATOM      3  C1  PXY d   1       2.648  -1.337  -0.232  0.00  0.00    -0.082 A 
ATOM      4  C2  PXY d   1       3.915  -1.328  -0.614  0.00  0.00     0.003 A 
ATOM      5  C3  PXY d   1       4.533  -0.147  -0.937  0.00  0.00     0.003 A 
ATOM      6  C4  PXY d   1       3.833   1.029  -0.919  0.00  0.00    -0.082 A 
ATOM      7  C5  PXY d   1       2.537   1.026  -0.540  0.00  0.00     0.003 A 
ATOM      8  C6  PXY d   1       1.940  -0.177  -0.177  0.00  0.00     0.003 A 
ENDROOT
TORSDOF 0
ENDMDL
