MODEL 1
REMARK minimizedAffinity -4.34516811
REMARK minimizedRMSD -1
REMARK  0 active torsions:
REMARK  status: ('A' for Active; 'I' for Inactive)
ROOT
ATOM      1  C4' PXY d   1       4.760   3.052   5.999  0.00  0.00     0.077 C 
ATOM      2  C1' PXY d   1       0.362   5.997   3.675  0.00  0.00     0.077 C 
ATOM      3  C1  PXY d   1       1.520   5.236   4.291  0.00  0.00    -0.082 A 
ATOM      4  C2  PXY d   1       1.957   4.130   3.711  0.00  0.00     0.003 A 
ATOM      5  C3  PXY d   1       2.982   3.411   4.271  0.00  0.00     0.003 A 
ATOM      6  C4  PXY d   1       3.600   3.858   5.408  0.00  0.00    -0.082 A 
ATOM      7  C5  PXY d   1       3.167   4.991   6.000  0.00  0.00     0.003 A 
ATOM      8  C6  PXY d   1       2.098   5.684   5.438  0.00  0.00     0.003 A 
ENDROOT
TORSDOF 0
ENDMDL
