MODEL 1
REMARK minimizedAffinity 8.39976883
REMARK minimizedRMSD -1
REMARK  0 active torsions:
REMARK  status: ('A' for Active; 'I' for Inactive)
ROOT
ATOM      1  C4' PXY d   1       1.888   0.748   1.817  0.00  0.00     0.077 C 
ATOM      2  C1' PXY d   1       5.999   1.708  -2.132  0.00  0.00     0.077 C 
ATOM      3  C1  PXY d   1       4.912   1.459  -1.105  0.00  0.00    -0.082 A 
ATOM      4  C2  PXY d   1       5.185   1.594   0.182  0.00  0.00     0.003 A 
ATOM      5  C3  PXY d   1       4.222   1.341   1.126  0.00  0.00     0.003 A 
ATOM      6  C4  PXY d   1       2.952   0.999   0.745  0.00  0.00    -0.082 A 
ATOM      7  C5  PXY d   1       2.663   0.870  -0.567  0.00  0.00     0.003 A 
ATOM      8  C6  PXY d   1       3.665   1.090  -1.508  0.00  0.00     0.003 A 
ENDROOT
TORSDOF 0
ENDMDL
