MODEL 1
REMARK minimizedAffinity -4.91410875
REMARK minimizedRMSD -1
REMARK  0 active torsions:
REMARK  status: ('A' for Active; 'I' for Inactive)
ROOT
ATOM      1  C4' PXY d   1       4.089   2.260   5.995  0.00  0.00     0.077 C 
ATOM      2  C1' PXY d   1       0.081   6.000   4.162  0.00  0.00     0.077 C 
ATOM      3  C1  PXY d   1       1.139   5.021   4.632  0.00  0.00    -0.082 A 
ATOM      4  C2  PXY d   1       0.829   4.109   5.539  0.00  0.00     0.003 A 
ATOM      5  C3  PXY d   1       1.782   3.236   5.998  0.00  0.00     0.003 A 
ATOM      6  C4  PXY d   1       3.051   3.263   5.485  0.00  0.00    -0.082 A 
ATOM      7  C5  PXY d   1       3.372   4.183   4.551  0.00  0.00     0.003 A 
ATOM      8  C6  PXY d   1       2.401   5.087   4.128  0.00  0.00     0.003 A 
ENDROOT
TORSDOF 0
ENDMDL
