MODEL 1
REMARK minimizedAffinity 9.21871281
REMARK minimizedRMSD -1
REMARK  2 active torsions:
REMARK  status: ('A' for Active; 'I' for Inactive)
REMARK    1  A    between atoms: C2'_3  and  C1'_4 
REMARK    2  A    between atoms: C1'_4  and  C1_5 
ROOT
ATOM      1  C1  I4B d   1       3.340  -4.485   3.710  0.00  0.00    -0.075 A 
ATOM      2  C2  I4B d   1       3.687  -3.393   4.466  0.00  0.00     0.003 A 
ATOM      3  C3  I4B d   1       4.498  -3.551   5.616  0.00  0.00     0.002 A 
ATOM      4  C4  I4B d   1       4.893  -4.817   6.000  0.00  0.00    -0.004 A 
ATOM      5  C5  I4B d   1       4.559  -5.919   5.219  0.00  0.00     0.002 A 
ATOM      6  C6  I4B d   1       3.788  -5.752   4.060  0.00  0.00     0.003 A 
ENDROOT
BRANCH   1   7
ATOM      7  C1' I4B d   1       2.455  -4.285   2.520  0.00  0.00     0.060 C 
BRANCH   7   8
ATOM      8  C2' I4B d   1       2.116  -2.811   2.432  0.00  0.00    -0.013 C 
ATOM      9  C4' I4B d   1       2.245  -2.305   1.019  0.00  0.00     0.013 C 
ATOM     10  C3' I4B d   1       0.721  -2.625   2.949  0.00  0.00     0.013 C 
ENDBRANCH   7   8
ENDBRANCH   1   7
TORSDOF 2
ENDMDL
