MODEL 1
REMARK minimizedAffinity 8.8554163
REMARK minimizedRMSD -1
REMARK  2 active torsions:
REMARK  status: ('A' for Active; 'I' for Inactive)
REMARK    1  A    between atoms: C2'_3  and  C1'_4 
REMARK    2  A    between atoms: C1'_4  and  C1_5 
ROOT
ATOM      1  C1  I4B d   1      -0.433  -1.781   3.206  0.00  0.00    -0.075 A 
ATOM      2  C2  I4B d   1      -0.590  -0.660   3.983  0.00  0.00     0.003 A 
ATOM      3  C3  I4B d   1      -1.796   0.081   3.929  0.00  0.00     0.002 A 
ATOM      4  C4  I4B d   1      -2.791  -0.303   3.054  0.00  0.00    -0.004 A 
ATOM      5  C5  I4B d   1      -2.639  -1.453   2.285  0.00  0.00     0.002 A 
ATOM      6  C6  I4B d   1      -1.458  -2.204   2.370  0.00  0.00     0.003 A 
ENDROOT
BRANCH   1   7
ATOM      7  C1' I4B d   1       0.866  -2.521   3.263  0.00  0.00     0.060 C 
BRANCH   7   8
ATOM      8  C2' I4B d   1       1.313  -2.789   1.841  0.00  0.00    -0.013 C 
ATOM      9  C4' I4B d   1       2.109  -1.634   1.292  0.00  0.00     0.013 C 
ATOM     10  C3' I4B d   1       2.121  -4.052   1.840  0.00  0.00     0.013 C 
ENDBRANCH   7   8
ENDBRANCH   1   7
TORSDOF 2
ENDMDL
