MODEL 1
REMARK minimizedAffinity 11.6004887
REMARK minimizedRMSD -1
REMARK  2 active torsions:
REMARK  status: ('A' for Active; 'I' for Inactive)
REMARK    1  A    between atoms: C2'_3  and  C1'_4 
REMARK    2  A    between atoms: C1'_4  and  C1_5 
ROOT
ATOM      1  C1  I4B d   1       3.056  -3.062   2.940  0.00  0.00    -0.075 A 
ATOM      2  C2  I4B d   1       2.190  -2.071   3.330  0.00  0.00     0.003 A 
ATOM      3  C3  I4B d   1       1.096  -1.716   2.505  0.00  0.00     0.002 A 
ATOM      4  C4  I4B d   1       0.936  -2.337   1.283  0.00  0.00    -0.004 A 
ATOM      5  C5  I4B d   1       1.802  -3.356   0.900  0.00  0.00     0.002 A 
ATOM      6  C6  I4B d   1       2.862  -3.730   1.738  0.00  0.00     0.003 A 
ENDROOT
BRANCH   1   7
ATOM      7  C1' I4B d   1       4.220  -3.389   3.821  0.00  0.00     0.060 C 
BRANCH   7   8
ATOM      8  C2' I4B d   1       3.720  -3.460   5.249  0.00  0.00    -0.013 C 
ATOM      9  C4' I4B d   1       4.102  -4.764   5.897  0.00  0.00     0.013 C 
ATOM     10  C3' I4B d   1       4.293  -2.294   5.999  0.00  0.00     0.013 C 
ENDBRANCH   7   8
ENDBRANCH   1   7
TORSDOF 2
ENDMDL
