MODEL 1
REMARK minimizedAffinity 10.3252964
REMARK minimizedRMSD -1
REMARK  2 active torsions:
REMARK  status: ('A' for Active; 'I' for Inactive)
REMARK    1  A    between atoms: C2'_3  and  C1'_4 
REMARK    2  A    between atoms: C1'_4  and  C1_5 
ROOT
ATOM      1  C1  I4B d   1       1.001  -1.292   0.411  0.00  0.00    -0.075 A 
ATOM      2  C2  I4B d   1       0.132  -1.373  -0.649  0.00  0.00     0.003 A 
ATOM      3  C3  I4B d   1       0.257  -0.483  -1.742  0.00  0.00     0.002 A 
ATOM      4  C4  I4B d   1       1.226   0.499  -1.712  0.00  0.00    -0.004 A 
ATOM      5  C5  I4B d   1       2.120   0.566  -0.647  0.00  0.00     0.002 A 
ATOM      6  C6  I4B d   1       2.015  -0.343   0.416  0.00  0.00     0.003 A 
ENDROOT
BRANCH   1   7
ATOM      7  C1' I4B d   1       0.819  -2.226   1.565  0.00  0.00     0.060 C 
BRANCH   7   8
ATOM      8  C2' I4B d   1       2.080  -3.057   1.696  0.00  0.00    -0.013 C 
ATOM      9  C4' I4B d   1       2.623  -3.006   3.100  0.00  0.00     0.013 C 
ATOM     10  C3' I4B d   1       1.752  -4.463   1.293  0.00  0.00     0.013 C 
ENDBRANCH   7   8
ENDBRANCH   1   7
TORSDOF 2
ENDMDL
