MODEL 1
REMARK minimizedAffinity 13.6156988
REMARK minimizedRMSD -1
REMARK  2 active torsions:
REMARK  status: ('A' for Active; 'I' for Inactive)
REMARK    1  A    between atoms: C2'_3  and  C1'_4 
REMARK    2  A    between atoms: C1'_4  and  C1_5 
ROOT
ATOM      1  C1  I4B d   1      -4.175  -1.255  -3.695  0.00  0.00    -0.075 A 
ATOM      2  C2  I4B d   1      -4.140   0.117  -3.698  0.00  0.00     0.003 A 
ATOM      3  C3  I4B d   1      -3.771   0.818  -4.872  0.00  0.00     0.002 A 
ATOM      4  C4  I4B d   1      -3.399   0.111  -5.997  0.00  0.00    -0.004 A 
ATOM      5  C5  I4B d   1      -3.457  -1.279  -5.999  0.00  0.00     0.002 A 
ATOM      6  C6  I4B d   1      -3.859  -1.967  -4.845  0.00  0.00     0.003 A 
ENDROOT
BRANCH   1   7
ATOM      7  C1' I4B d   1      -4.537  -1.964  -2.429  0.00  0.00     0.060 C 
BRANCH   7   8
ATOM      8  C2' I4B d   1      -3.512  -1.592  -1.376  0.00  0.00    -0.013 C 
ATOM      9  C4' I4B d   1      -2.119  -1.950  -1.822  0.00  0.00     0.013 C 
ATOM     10  C3' I4B d   1      -3.634  -0.122  -1.110  0.00  0.00     0.013 C 
ENDBRANCH   7   8
ENDBRANCH   1   7
TORSDOF 2
ENDMDL
