MODEL 1
REMARK minimizedAffinity 12.5454769
REMARK minimizedRMSD -1
REMARK  2 active torsions:
REMARK  status: ('A' for Active; 'I' for Inactive)
REMARK    1  A    between atoms: C2'_3  and  C1'_4 
REMARK    2  A    between atoms: C1'_4  and  C1_5 
ROOT
ATOM      1  C1  I4B d   1       0.909  -0.793   0.412  0.00  0.00    -0.075 A 
ATOM      2  C2  I4B d   1       0.173  -0.770  -0.747  0.00  0.00     0.003 A 
ATOM      3  C3  I4B d   1       0.349   0.279  -1.682  0.00  0.00     0.002 A 
ATOM      4  C4  I4B d   1       1.229   1.303  -1.397  0.00  0.00    -0.004 A 
ATOM      5  C5  I4B d   1       1.990   1.266  -0.232  0.00  0.00     0.002 A 
ATOM      6  C6  I4B d   1       1.839   0.205   0.672  0.00  0.00     0.003 A 
ENDROOT
BRANCH   1   7
ATOM      7  C1' I4B d   1       0.674  -1.898   1.393  0.00  0.00     0.060 C 
BRANCH   7   8
ATOM      8  C2' I4B d   1       2.023  -2.454   1.801  0.00  0.00    -0.013 C 
ATOM      9  C4' I4B d   1       2.368  -2.066   3.214  0.00  0.00     0.013 C 
ATOM     10  C3' I4B d   1       1.974  -3.945   1.646  0.00  0.00     0.013 C 
ENDBRANCH   7   8
ENDBRANCH   1   7
TORSDOF 2
ENDMDL
