MODEL 1
REMARK minimizedAffinity 9.07283401
REMARK minimizedRMSD -1
REMARK  2 active torsions:
REMARK  status: ('A' for Active; 'I' for Inactive)
REMARK    1  A    between atoms: C2'_3  and  C1'_4 
REMARK    2  A    between atoms: C1'_4  and  C1_5 
ROOT
ATOM      1  C1  I4B d   1       1.930   4.249   3.941  0.00  0.00    -0.075 A 
ATOM      2  C2  I4B d   1       0.712   4.882   3.928  0.00  0.00     0.003 A 
ATOM      3  C3  I4B d   1       0.370   5.792   4.957  0.00  0.00     0.002 A 
ATOM      4  C4  I4B d   1       1.249   6.000   6.000  0.00  0.00    -0.004 A 
ATOM      5  C5  I4B d   1       2.493   5.375   6.000  0.00  0.00     0.002 A 
ATOM      6  C6  I4B d   1       2.841   4.504   4.957  0.00  0.00     0.003 A 
ENDROOT
BRANCH   1   7
ATOM      7  C1' I4B d   1       2.245   3.269   2.855  0.00  0.00     0.060 C 
BRANCH   7   8
ATOM      8  C2' I4B d   1       2.671   1.970   3.509  0.00  0.00    -0.013 C 
ATOM      9  C4' I4B d   1       1.485   1.221   4.056  0.00  0.00     0.013 C 
ATOM     10  C3' I4B d   1       3.401   1.154   2.484  0.00  0.00     0.013 C 
ENDBRANCH   7   8
ENDBRANCH   1   7
TORSDOF 2
ENDMDL
