MODEL 1
REMARK minimizedAffinity 14.7116079
REMARK minimizedRMSD -1
REMARK  2 active torsions:
REMARK  status: ('A' for Active; 'I' for Inactive)
REMARK    1  A    between atoms: C2'_3  and  C1'_4 
REMARK    2  A    between atoms: C1'_4  and  C1_5 
ROOT
ATOM      1  C1  I4B d   1       1.173  -1.378   0.955  0.00  0.00    -0.075 A 
ATOM      2  C2  I4B d   1       2.026  -0.311   1.091  0.00  0.00     0.003 A 
ATOM      3  C3  I4B d   1       1.989   0.754   0.158  0.00  0.00     0.002 A 
ATOM      4  C4  I4B d   1       1.125   0.688  -0.915  0.00  0.00    -0.004 A 
ATOM      5  C5  I4B d   1       0.245  -0.383  -1.038  0.00  0.00     0.002 A 
ATOM      6  C6  I4B d   1       0.260  -1.417  -0.090  0.00  0.00     0.003 A 
ENDROOT
BRANCH   1   7
ATOM      7  C1' I4B d   1       1.261  -2.501   1.939  0.00  0.00     0.060 C 
BRANCH   7   8
ATOM      8  C2' I4B d   1       2.673  -3.049   1.896  0.00  0.00    -0.013 C 
ATOM      9  C4' I4B d   1       3.271  -3.126   3.276  0.00  0.00     0.013 C 
ATOM     10  C3' I4B d   1       2.624  -4.402   1.251  0.00  0.00     0.013 C 
ENDBRANCH   7   8
ENDBRANCH   1   7
TORSDOF 2
ENDMDL
