MODEL 1
REMARK minimizedAffinity -3.34039354
REMARK minimizedRMSD -1
REMARK  0 active torsions:
REMARK  status: ('A' for Active; 'I' for Inactive)
ROOT
ATOM      1  O1  BZF d   1      -1.417  -0.056  -0.133  0.00  0.00    -0.204 OA
ATOM      2  C2  BZF d   1      -1.147   1.095  -0.848  0.00  0.00     0.174 A 
ATOM      3  C3  BZF d   1       0.183   1.302  -0.937  0.00  0.00    -0.012 A 
ATOM      4  C3A BZF d   1       0.784   0.164  -0.313  0.00  0.00    -0.107 A 
ATOM      5  C4  BZF d   1       2.078  -0.218  -0.101  0.00  0.00     0.055 A 
ATOM      6  C5  BZF d   1       2.325  -1.352   0.605  0.00  0.00    -0.016 A 
ATOM      7  C6  BZF d   1       1.304  -2.125   1.118  0.00  0.00     0.022 A 
ATOM      8  C7  BZF d   1       0.005  -1.790   0.930  0.00  0.00     0.029 A 
ATOM      9  C7A BZF d   1      -0.249  -0.662   0.189  0.00  0.00     0.058 A 
ENDROOT
TORSDOF 0
ENDMDL
