MODEL 1
REMARK minimizedAffinity -4.32551813
REMARK minimizedRMSD -1
REMARK  0 active torsions:
REMARK  status: ('A' for Active; 'I' for Inactive)
ROOT
ATOM      1  O1  BZF d   1      -1.614  -0.668  -0.151  0.00  0.00    -0.204 OA
ATOM      2  C2  BZF d   1      -1.544   0.597  -0.704  0.00  0.00     0.174 A 
ATOM      3  C3  BZF d   1      -0.284   1.074  -0.650  0.00  0.00    -0.012 A 
ATOM      4  C3A BZF d   1       0.499   0.006  -0.107  0.00  0.00    -0.107 A 
ATOM      5  C4  BZF d   1       1.828  -0.134   0.175  0.00  0.00     0.055 A 
ATOM      6  C5  BZF d   1       2.260  -1.278   0.768  0.00  0.00    -0.016 A 
ATOM      7  C6  BZF d   1       1.392  -2.298   1.096  0.00  0.00     0.022 A 
ATOM      8  C7  BZF d   1       0.066  -2.207   0.832  0.00  0.00     0.029 A 
ATOM      9  C7A BZF d   1      -0.369  -1.066   0.203  0.00  0.00     0.058 A 
ENDROOT
TORSDOF 0
ENDMDL
