MODEL 1
REMARK minimizedAffinity -4.87980986
REMARK minimizedRMSD -1
REMARK  0 active torsions:
REMARK  status: ('A' for Active; 'I' for Inactive)
ROOT
ATOM      1  O1  BZF d   1      -1.052  -0.414  -1.102  0.00  0.00    -0.204 OA
ATOM      2  C2  BZF d   1      -0.866   0.949  -0.971  0.00  0.00     0.174 A 
ATOM      3  C3  BZF d   1       0.191   1.212  -0.176  0.00  0.00    -0.012 A 
ATOM      4  C3A BZF d   1       0.754  -0.065   0.138  0.00  0.00    -0.107 A 
ATOM      5  C4  BZF d   1       1.832  -0.460   0.878  0.00  0.00     0.055 A 
ATOM      6  C5  BZF d   1       2.066  -1.788   1.047  0.00  0.00    -0.016 A 
ATOM      7  C6  BZF d   1       1.242  -2.747   0.495  0.00  0.00     0.022 A 
ATOM      8  C7  BZF d   1       0.164  -2.403  -0.251  0.00  0.00     0.029 A 
ATOM      9  C7A BZF d   1      -0.057  -1.062  -0.451  0.00  0.00     0.058 A 
ENDROOT
TORSDOF 0
ENDMDL
