MODEL 1
REMARK minimizedAffinity -1.83445799
REMARK minimizedRMSD -1
REMARK  0 active torsions:
REMARK  status: ('A' for Active; 'I' for Inactive)
ROOT
ATOM      1  O1  BZF d   1      -0.811   0.219  -0.852  0.00  0.00    -0.204 OA
ATOM      2  C2  BZF d   1       0.086   1.072  -1.466  0.00  0.00     0.174 A 
ATOM      3  C3  BZF d   1       1.352   0.764  -1.120  0.00  0.00    -0.012 A 
ATOM      4  C3A BZF d   1       1.246  -0.408  -0.306  0.00  0.00    -0.107 A 
ATOM      5  C4  BZF d   1       2.163  -1.199   0.325  0.00  0.00     0.055 A 
ATOM      6  C5  BZF d   1       1.726  -2.227   1.100  0.00  0.00    -0.016 A 
ATOM      7  C6  BZF d   1       0.382  -2.488   1.270  0.00  0.00     0.022 A 
ATOM      8  C7  BZF d   1      -0.564  -1.735   0.659  0.00  0.00     0.029 A 
ATOM      9  C7A BZF d   1      -0.126  -0.716  -0.151  0.00  0.00     0.058 A 
ENDROOT
TORSDOF 0
ENDMDL
