MODEL 1
REMARK minimizedAffinity -6.72202396
REMARK minimizedRMSD -1
REMARK  0 active torsions:
REMARK  status: ('A' for Active; 'I' for Inactive)
ROOT
ATOM      1  O1  BZF d   1      -0.709   0.498   1.015  0.00  0.00    -0.204 OA
ATOM      2  C2  BZF d   1      -0.013   1.083  -0.026  0.00  0.00     0.174 A 
ATOM      3  C3  BZF d   1       1.047   0.326  -0.377  0.00  0.00    -0.012 A 
ATOM      4  C3A BZF d   1       0.958  -0.847   0.438  0.00  0.00    -0.107 A 
ATOM      5  C4  BZF d   1       1.717  -1.978   0.540  0.00  0.00     0.055 A 
ATOM      6  C5  BZF d   1       1.401  -2.900   1.487  0.00  0.00    -0.016 A 
ATOM      7  C6  BZF d   1       0.340  -2.722   2.350  0.00  0.00     0.022 A 
ATOM      8  C7  BZF d   1      -0.445  -1.619   2.282  0.00  0.00     0.029 A 
ATOM      9  C7A BZF d   1      -0.149  -0.700   1.305  0.00  0.00     0.058 A 
ENDROOT
TORSDOF 0
ENDMDL
