MODEL 1
REMARK minimizedAffinity -5.34821892
REMARK minimizedRMSD -1
REMARK  0 active torsions:
REMARK  status: ('A' for Active; 'I' for Inactive)
ROOT
ATOM      1  O1  BZF d   1       2.521  -1.980   0.432  0.00  0.00    -0.204 OA
ATOM      2  C2  BZF d   1       1.748  -2.850   1.176  0.00  0.00     0.174 A 
ATOM      3  C3  BZF d   1       0.511  -2.348   1.367  0.00  0.00    -0.012 A 
ATOM      4  C3A BZF d   1       0.482  -1.126   0.622  0.00  0.00    -0.107 A 
ATOM      5  C4  BZF d   1      -0.479  -0.180   0.408  0.00  0.00     0.055 A 
ATOM      6  C5  BZF d   1      -0.164   0.931  -0.309  0.00  0.00    -0.016 A 
ATOM      7  C6  BZF d   1       1.101   1.130  -0.821  0.00  0.00     0.022 A 
ATOM      8  C7  BZF d   1       2.086   0.217  -0.639  0.00  0.00     0.029 A 
ATOM      9  C7A BZF d   1       1.762  -0.922   0.057  0.00  0.00     0.058 A 
ENDROOT
TORSDOF 0
ENDMDL
