MODEL 1
REMARK minimizedAffinity -4.45326853
REMARK minimizedRMSD -1
REMARK  0 active torsions:
REMARK  status: ('A' for Active; 'I' for Inactive)
ROOT
ATOM      1  O1  BZF d   1      -0.863  -0.051   0.594  0.00  0.00    -0.204 OA
ATOM      2  C2  BZF d   1      -1.190   1.133  -0.039  0.00  0.00     0.174 A 
ATOM      3  C3  BZF d   1      -0.168   1.564  -0.806  0.00  0.00    -0.012 A 
ATOM      4  C3A BZF d   1       0.828   0.541  -0.716  0.00  0.00    -0.107 A 
ATOM      5  C4  BZF d   1       2.066   0.384  -1.270  0.00  0.00     0.055 A 
ATOM      6  C5  BZF d   1       2.814  -0.695  -0.921  0.00  0.00    -0.016 A 
ATOM      7  C6  BZF d   1       2.358  -1.633  -0.019  0.00  0.00     0.022 A 
ATOM      8  C7  BZF d   1       1.135  -1.524   0.554  0.00  0.00     0.029 A 
ATOM      9  C7A BZF d   1       0.363  -0.451   0.178  0.00  0.00     0.058 A 
ENDROOT
TORSDOF 0
ENDMDL
