MODEL 1
REMARK minimizedAffinity -4.8682766
REMARK minimizedRMSD -1
REMARK  0 active torsions:
REMARK  status: ('A' for Active; 'I' for Inactive)
ROOT
ATOM      1  O1  BZF d   1       0.339   1.365  -0.361  0.00  0.00    -0.204 OA
ATOM      2  C2  BZF d   1      -0.972   1.577   0.020  0.00  0.00     0.174 A 
ATOM      3  C3  BZF d   1      -1.556   0.419   0.391  0.00  0.00    -0.012 A 
ATOM      4  C3A BZF d   1      -0.520  -0.565   0.319  0.00  0.00    -0.107 A 
ATOM      5  C4  BZF d   1      -0.477  -1.904   0.582  0.00  0.00     0.055 A 
ATOM      6  C5  BZF d   1       0.672  -2.588   0.340  0.00  0.00    -0.016 A 
ATOM      7  C6  BZF d   1       1.794  -1.967  -0.168  0.00  0.00     0.022 A 
ATOM      8  C7  BZF d   1       1.801  -0.639  -0.440  0.00  0.00     0.029 A 
ATOM      9  C7A BZF d   1       0.652   0.061  -0.166  0.00  0.00     0.058 A 
ENDROOT
TORSDOF 0
ENDMDL
