MODEL 1
REMARK minimizedAffinity -4.94150734
REMARK minimizedRMSD -1
REMARK  0 active torsions:
REMARK  status: ('A' for Active; 'I' for Inactive)
ROOT
ATOM      1  O1  BZF d   1       1.858  -3.105   1.096  0.00  0.00    -0.204 OA
ATOM      2  C2  BZF d   1       0.694  -3.292   1.817  0.00  0.00     0.174 A 
ATOM      3  C3  BZF d   1      -0.102  -2.207   1.729  0.00  0.00    -0.012 A 
ATOM      4  C3A BZF d   1       0.567  -1.321   0.828  0.00  0.00    -0.107 A 
ATOM      5  C4  BZF d   1       0.266  -0.086   0.328  0.00  0.00     0.055 A 
ATOM      6  C5  BZF d   1       1.167   0.540  -0.474  0.00  0.00    -0.016 A 
ATOM      7  C6  BZF d   1       2.379  -0.037  -0.793  0.00  0.00     0.022 A 
ATOM      8  C7  BZF d   1       2.720  -1.263  -0.326  0.00  0.00     0.029 A 
ATOM      9  C7A BZF d   1       1.798  -1.912   0.458  0.00  0.00     0.058 A 
ENDROOT
TORSDOF 0
ENDMDL
