MODEL 1
REMARK minimizedAffinity -2.6079092
REMARK minimizedRMSD -1
REMARK  0 active torsions:
REMARK  status: ('A' for Active; 'I' for Inactive)
ROOT
ATOM      1  O1  BZF d   1       2.381  -2.144   0.700  0.00  0.00    -0.204 OA
ATOM      2  C2  BZF d   1       1.596  -2.798   1.629  0.00  0.00     0.174 A 
ATOM      3  C3  BZF d   1       0.442  -2.131   1.834  0.00  0.00    -0.012 A 
ATOM      4  C3A BZF d   1       0.470  -1.038   0.911  0.00  0.00    -0.107 A 
ATOM      5  C4  BZF d   1      -0.403  -0.028   0.626  0.00  0.00     0.055 A 
ATOM      6  C5  BZF d   1      -0.044   0.920  -0.278  0.00  0.00    -0.016 A 
ATOM      7  C6  BZF d   1       1.181   0.892  -0.912  0.00  0.00     0.022 A 
ATOM      8  C7  BZF d   1       2.079  -0.094  -0.666  0.00  0.00     0.029 A 
ATOM      9  C7A BZF d   1       1.705  -1.071   0.224  0.00  0.00     0.058 A 
ENDROOT
TORSDOF 0
ENDMDL
