MODEL 1
REMARK minimizedAffinity -2.35646963
REMARK minimizedRMSD -1
REMARK  0 active torsions:
REMARK  status: ('A' for Active; 'I' for Inactive)
ROOT
ATOM      1  O1  BZF d   1      -1.053   0.062   0.796  0.00  0.00    -0.204 OA
ATOM      2  C2  BZF d   1      -1.199   1.150  -0.043  0.00  0.00     0.174 A 
ATOM      3  C3  BZF d   1      -0.113   1.296  -0.829  0.00  0.00    -0.012 A 
ATOM      4  C3A BZF d   1       0.727   0.179  -0.523  0.00  0.00    -0.107 A 
ATOM      5  C4  BZF d   1       1.940  -0.240  -0.989  0.00  0.00     0.055 A 
ATOM      6  C5  BZF d   1       2.522  -1.333  -0.429  0.00  0.00    -0.016 A 
ATOM      7  C6  BZF d   1       1.922  -2.027   0.601  0.00  0.00     0.022 A 
ATOM      8  C7  BZF d   1       0.716  -1.653   1.094  0.00  0.00     0.029 A 
ATOM      9  C7A BZF d   1       0.111  -0.568   0.508  0.00  0.00     0.058 A 
ENDROOT
TORSDOF 0
ENDMDL
