MODEL 1
REMARK minimizedAffinity -4.59395552
REMARK minimizedRMSD -1
REMARK  0 active torsions:
REMARK  status: ('A' for Active; 'I' for Inactive)
ROOT
ATOM      1  O1  BZF d   1       1.861  -2.875   1.057  0.00  0.00    -0.204 OA
ATOM      2  C2  BZF d   1       0.633  -3.503   1.130  0.00  0.00     0.174 A 
ATOM      3  C3  BZF d   1      -0.351  -2.681   0.711  0.00  0.00    -0.012 A 
ATOM      4  C3A BZF d   1       0.315  -1.495   0.266  0.00  0.00    -0.107 A 
ATOM      5  C4  BZF d   1      -0.123  -0.320  -0.274  0.00  0.00     0.055 A 
ATOM      6  C5  BZF d   1       0.778   0.666  -0.530  0.00  0.00    -0.016 A 
ATOM      7  C6  BZF d   1       2.120   0.512  -0.253  0.00  0.00     0.022 A 
ATOM      8  C7  BZF d   1       2.602  -0.638   0.279  0.00  0.00     0.029 A 
ATOM      9  C7A BZF d   1       1.699  -1.647   0.508  0.00  0.00     0.058 A 
ENDROOT
TORSDOF 0
ENDMDL
