MODEL 1
REMARK minimizedAffinity -1.24022639
REMARK minimizedRMSD -1
REMARK  0 active torsions:
REMARK  status: ('A' for Active; 'I' for Inactive)
ROOT
ATOM      1  O1  BZF d   1       1.107   0.751   0.132  0.00  0.00    -0.204 OA
ATOM      2  C2  BZF d   1       2.387   0.526  -0.335  0.00  0.00     0.174 A 
ATOM      3  C3  BZF d   1       2.630  -0.796  -0.446  0.00  0.00    -0.012 A 
ATOM      4  C3A BZF d   1       1.395  -1.435  -0.109  0.00  0.00    -0.107 A 
ATOM      5  C4  BZF d   1       0.999  -2.741  -0.051  0.00  0.00     0.055 A 
ATOM      6  C5  BZF d   1      -0.255  -3.032   0.384  0.00  0.00    -0.016 A 
ATOM      7  C6  BZF d   1      -1.136  -2.045   0.774  0.00  0.00     0.022 A 
ATOM      8  C7  BZF d   1      -0.790  -0.735   0.728  0.00  0.00     0.029 A 
ATOM      9  C7A BZF d   1       0.465  -0.436   0.258  0.00  0.00     0.058 A 
ENDROOT
TORSDOF 0
ENDMDL
