MODEL 1
REMARK minimizedAffinity -1.04133832
REMARK minimizedRMSD -1
REMARK  0 active torsions:
REMARK  status: ('A' for Active; 'I' for Inactive)
ROOT
ATOM      1  O1  BZF d   1      -2.383   1.191  -0.016  0.00  0.00    -0.204 OA
ATOM      2  C2  BZF d   1      -1.121   1.136   0.543  0.00  0.00     0.174 A 
ATOM      3  C3  BZF d   1      -0.176   1.404  -0.381  0.00  0.00    -0.012 A 
ATOM      4  C3A BZF d   1      -0.897   1.731  -1.572  0.00  0.00    -0.107 A 
ATOM      5  C4  BZF d   1      -0.514   2.103  -2.829  0.00  0.00     0.055 A 
ATOM      6  C5  BZF d   1      -1.465   2.279  -3.784  0.00  0.00    -0.016 A 
ATOM      7  C6  BZF d   1      -2.805   2.089  -3.519  0.00  0.00     0.022 A 
ATOM      8  C7  BZF d   1      -3.233   1.725  -2.285  0.00  0.00     0.029 A 
ATOM      9  C7A BZF d   1      -2.278   1.578  -1.310  0.00  0.00     0.058 A 
ENDROOT
TORSDOF 0
ENDMDL
