MODEL 1
REMARK minimizedAffinity -0.9332394
REMARK minimizedRMSD -1
REMARK  0 active torsions:
REMARK  status: ('A' for Active; 'I' for Inactive)
ROOT
ATOM      1  O1  BZF d   1       0.287   1.302   0.190  0.00  0.00    -0.204 OA
ATOM      2  C2  BZF d   1      -1.085   1.372   0.330  0.00  0.00     0.174 A 
ATOM      3  C3  BZF d   1      -1.629   0.138   0.342  0.00  0.00    -0.012 A 
ATOM      4  C3A BZF d   1      -0.518  -0.763   0.293  0.00  0.00    -0.107 A 
ATOM      5  C4  BZF d   1      -0.413  -2.124   0.294  0.00  0.00     0.055 A 
ATOM      6  C5  BZF d   1       0.815  -2.692   0.164  0.00  0.00    -0.016 A 
ATOM      7  C6  BZF d   1       1.956  -1.930   0.025  0.00  0.00     0.022 A 
ATOM      8  C7  BZF d   1       1.903  -0.575   0.024  0.00  0.00     0.029 A 
ATOM      9  C7A BZF d   1       0.667   0.001   0.188  0.00  0.00     0.058 A 
ENDROOT
TORSDOF 0
ENDMDL
