MODEL 1
REMARK minimizedAffinity -4.55787754
REMARK minimizedRMSD -1
REMARK  0 active torsions:
REMARK  status: ('A' for Active; 'I' for Inactive)
ROOT
ATOM      1  O1  BZF d   1      -0.678   0.642   0.331  0.00  0.00    -0.204 OA
ATOM      2  C2  BZF d   1      -1.767   0.231   1.076  0.00  0.00     0.174 A 
ATOM      3  C3  BZF d   1      -1.571  -1.010   1.566  0.00  0.00    -0.012 A 
ATOM      4  C3A BZF d   1      -0.240  -1.363   1.175  0.00  0.00    -0.107 A 
ATOM      5  C4  BZF d   1       0.536  -2.468   1.378  0.00  0.00     0.055 A 
ATOM      6  C5  BZF d   1       1.764  -2.527   0.801  0.00  0.00    -0.016 A 
ATOM      7  C6  BZF d   1       2.246  -1.504   0.011  0.00  0.00     0.022 A 
ATOM      8  C7  BZF d   1       1.514  -0.386  -0.215  0.00  0.00     0.029 A 
ATOM      9  C7A BZF d   1       0.286  -0.308   0.394  0.00  0.00     0.058 A 
ENDROOT
TORSDOF 0
ENDMDL
