MODEL 1
REMARK minimizedAffinity -3.87685943
REMARK minimizedRMSD -1
REMARK  0 active torsions:
REMARK  status: ('A' for Active; 'I' for Inactive)
ROOT
ATOM      1  O1  BZF d   1       1.668  -0.573  -0.528  0.00  0.00    -0.204 OA
ATOM      2  C2  BZF d   1       2.037  -1.843  -0.127  0.00  0.00     0.174 A 
ATOM      3  C3  BZF d   1       1.146  -2.345   0.752  0.00  0.00    -0.012 A 
ATOM      4  C3A BZF d   1       0.110  -1.362   0.841  0.00  0.00    -0.107 A 
ATOM      5  C4  BZF d   1      -1.060  -1.291   1.542  0.00  0.00     0.055 A 
ATOM      6  C5  BZF d   1      -1.810  -0.161   1.462  0.00  0.00    -0.016 A 
ATOM      7  C6  BZF d   1      -1.419   0.918   0.698  0.00  0.00     0.022 A 
ATOM      8  C7  BZF d   1      -0.269   0.893  -0.019  0.00  0.00     0.029 A 
ATOM      9  C7A BZF d   1       0.475  -0.260   0.033  0.00  0.00     0.058 A 
ENDROOT
TORSDOF 0
ENDMDL
