MODEL 1
REMARK minimizedAffinity -5.10129833
REMARK minimizedRMSD -1
REMARK  0 active torsions:
REMARK  status: ('A' for Active; 'I' for Inactive)
ROOT
ATOM      1  O1  BZF d   1      -0.097  -2.434   1.191  0.00  0.00    -0.204 OA
ATOM      2  C2  BZF d   1       1.156  -2.858   0.794  0.00  0.00     0.174 A 
ATOM      3  C3  BZF d   1       1.803  -1.881   0.126  0.00  0.00    -0.012 A 
ATOM      4  C3A BZF d   1       0.934  -0.746   0.185  0.00  0.00    -0.107 A 
ATOM      5  C4  BZF d   1       1.027   0.533  -0.283  0.00  0.00     0.055 A 
ATOM      6  C5  BZF d   1      -0.028   1.374  -0.122  0.00  0.00    -0.016 A 
ATOM      7  C6  BZF d   1      -1.192   0.968   0.498  0.00  0.00     0.022 A 
ATOM      8  C7  BZF d   1      -1.329  -0.290   0.983  0.00  0.00     0.029 A 
ATOM      9  C7A BZF d   1      -0.253  -1.132   0.851  0.00  0.00     0.058 A 
ENDROOT
TORSDOF 0
ENDMDL
