MODEL 1
REMARK minimizedAffinity -2.70095468
REMARK minimizedRMSD -1
REMARK  1 active torsions:
REMARK  status: ('A' for Active; 'I' for Inactive)
REMARK    1  A    between atoms: C1_2  and  C2_3 
ROOT
ATOM      1  C2  UNL d   1       5.381   4.949  -3.318  0.00  0.00    -0.077 A 
ATOM      2  C3  UNL d   1       4.291   5.818  -3.468  0.00  0.00     0.002 A 
ATOM      3  C4  UNL d   1       3.693   5.993  -4.718  0.00  0.00     0.002 A 
ATOM      4  C5  UNL d   1       4.175   5.299  -5.825  0.00  0.00    -0.004 A 
ATOM      5  C6  UNL d   1       5.260   4.433  -5.687  0.00  0.00     0.002 A 
ATOM      6  C7  UNL d   1       5.859   4.259  -4.439  0.00  0.00     0.002 A 
ENDROOT
BRANCH   1   7
ATOM      7  C1  UNL d   1       5.996   4.722  -1.962  0.00  0.00     0.055 C 
ATOM      8  C   UNL d   1       5.999   6.000  -1.135  0.00  0.00     0.019 C 
ENDBRANCH   1   7
TORSDOF 1
ENDMDL
