MODEL 1
REMARK minimizedAffinity 4.51512051
REMARK minimizedRMSD -1
REMARK  1 active torsions:
REMARK  status: ('A' for Active; 'I' for Inactive)
REMARK    1  A    between atoms: C1_2  and  C2_3 
ROOT
ATOM      1  C2  UNL d   1      -1.272  -2.611  -1.389  0.00  0.00    -0.077 A 
ATOM      2  C3  UNL d   1      -0.311  -1.605  -1.217  0.00  0.00     0.002 A 
ATOM      3  C4  UNL d   1       0.719  -1.446  -2.146  0.00  0.00     0.002 A 
ATOM      4  C5  UNL d   1       0.795  -2.286  -3.255  0.00  0.00    -0.004 A 
ATOM      5  C6  UNL d   1      -0.154  -3.292  -3.433  0.00  0.00     0.002 A 
ATOM      6  C7  UNL d   1      -1.184  -3.453  -2.505  0.00  0.00     0.002 A 
ENDROOT
BRANCH   1   7
ATOM      7  C1  UNL d   1      -2.412  -2.753  -0.414  0.00  0.00     0.055 C 
ATOM      8  C   UNL d   1      -1.936  -3.318   0.916  0.00  0.00     0.019 C 
ENDBRANCH   1   7
TORSDOF 1
ENDMDL
