MODEL 1
REMARK minimizedAffinity 2.84746194
REMARK minimizedRMSD -1
REMARK  1 active torsions:
REMARK  status: ('A' for Active; 'I' for Inactive)
REMARK    1  A    between atoms: C1_2  and  C2_3 
ROOT
ATOM      1  C2  UNL d   1      -0.497  -2.637  -1.613  0.00  0.00    -0.077 A 
ATOM      2  C3  UNL d   1      -0.316  -2.019  -2.858  0.00  0.00     0.002 A 
ATOM      3  C4  UNL d   1      -0.182  -2.789  -4.015  0.00  0.00     0.002 A 
ATOM      4  C5  UNL d   1      -0.232  -4.179  -3.939  0.00  0.00    -0.004 A 
ATOM      5  C6  UNL d   1      -0.410  -4.803  -2.705  0.00  0.00     0.002 A 
ATOM      6  C7  UNL d   1      -0.543  -4.035  -1.547  0.00  0.00     0.002 A 
ENDROOT
BRANCH   1   7
ATOM      7  C1  UNL d   1      -0.692  -1.807  -0.371  0.00  0.00     0.055 C 
ATOM      8  C   UNL d   1      -1.038  -2.678   0.828  0.00  0.00     0.019 C 
ENDBRANCH   1   7
TORSDOF 1
ENDMDL
