MODEL 1
REMARK minimizedAffinity 10.1097527
REMARK minimizedRMSD -1
REMARK  1 active torsions:
REMARK  status: ('A' for Active; 'I' for Inactive)
REMARK    1  A    between atoms: C1_2  and  C2_3 
ROOT
ATOM      1  C2  UNL d   1      -0.350  -3.560  -3.370  0.00  0.00    -0.077 A 
ATOM      2  C3  UNL d   1      -0.544  -4.736  -2.631  0.00  0.00     0.002 A 
ATOM      3  C4  UNL d   1      -0.776  -5.949  -3.282  0.00  0.00     0.002 A 
ATOM      4  C5  UNL d   1      -0.811  -5.999  -4.674  0.00  0.00    -0.004 A 
ATOM      5  C6  UNL d   1      -0.622  -4.835  -5.418  0.00  0.00     0.002 A 
ATOM      6  C7  UNL d   1      -0.392  -3.621  -4.769  0.00  0.00     0.002 A 
ENDROOT
BRANCH   1   7
ATOM      7  C1  UNL d   1      -0.052  -2.259  -2.671  0.00  0.00     0.055 C 
ATOM      8  C   UNL d   1      -0.750  -2.184  -1.321  0.00  0.00     0.019 C 
ENDBRANCH   1   7
TORSDOF 1
ENDMDL
