MODEL 1
REMARK minimizedAffinity 4.62924814
REMARK minimizedRMSD -1
REMARK  1 active torsions:
REMARK  status: ('A' for Active; 'I' for Inactive)
REMARK    1  A    between atoms: C1_2  and  C2_3 
ROOT
ATOM      1  C2  UNL d   1      -0.157  -2.154  -2.455  0.00  0.00    -0.077 A 
ATOM      2  C3  UNL d   1      -1.539  -2.001  -2.630  0.00  0.00     0.002 A 
ATOM      3  C4  UNL d   1      -2.393  -1.978  -1.525  0.00  0.00     0.002 A 
ATOM      4  C5  UNL d   1      -1.874  -2.103  -0.239  0.00  0.00    -0.004 A 
ATOM      5  C6  UNL d   1      -0.500  -2.258  -0.054  0.00  0.00     0.002 A 
ATOM      6  C7  UNL d   1       0.354  -2.282  -1.157  0.00  0.00     0.002 A 
ENDROOT
BRANCH   1   7
ATOM      7  C1  UNL d   1       0.771  -2.130  -3.642  0.00  0.00     0.055 C 
ATOM      8  C   UNL d   1       2.201  -2.449  -3.233  0.00  0.00     0.019 C 
ENDBRANCH   1   7
TORSDOF 1
ENDMDL
