MODEL 1
REMARK minimizedAffinity 0.864282012
REMARK minimizedRMSD -1
REMARK  1 active torsions:
REMARK  status: ('A' for Active; 'I' for Inactive)
REMARK    1  A    between atoms: C1_2  and  C2_3 
ROOT
ATOM      1  C2  UNL d   1       4.748   5.332  -2.749  0.00  0.00    -0.077 A 
ATOM      2  C3  UNL d   1       5.790   4.457  -3.084  0.00  0.00     0.002 A 
ATOM      3  C4  UNL d   1       5.921   3.981  -4.390  0.00  0.00     0.002 A 
ATOM      4  C5  UNL d   1       5.015   4.378  -5.372  0.00  0.00    -0.004 A 
ATOM      5  C6  UNL d   1       3.974   5.247  -5.048  0.00  0.00     0.002 A 
ATOM      6  C7  UNL d   1       3.841   5.722  -3.743  0.00  0.00     0.002 A 
ENDROOT
BRANCH   1   7
ATOM      7  C1  UNL d   1       4.634   5.885  -1.352  0.00  0.00     0.055 C 
ATOM      8  C   UNL d   1       5.999   6.000  -0.690  0.00  0.00     0.019 C 
ENDBRANCH   1   7
TORSDOF 1
ENDMDL
