MODEL 1
REMARK minimizedAffinity -0.299076229
REMARK minimizedRMSD -1
REMARK  1 active torsions:
REMARK  status: ('A' for Active; 'I' for Inactive)
REMARK    1  A    between atoms: C1_2  and  C2_3 
ROOT
ATOM      1  C2  UNL d   1       0.148  -2.038  -1.981  0.00  0.00    -0.077 A 
ATOM      2  C3  UNL d   1       0.266  -1.143  -0.909  0.00  0.00     0.002 A 
ATOM      3  C4  UNL d   1      -0.485  -1.329   0.253  0.00  0.00     0.002 A 
ATOM      4  C5  UNL d   1      -1.355  -2.413   0.356  0.00  0.00    -0.004 A 
ATOM      5  C6  UNL d   1      -1.481  -3.308  -0.705  0.00  0.00     0.002 A 
ATOM      6  C7  UNL d   1      -0.732  -3.122  -1.868  0.00  0.00     0.002 A 
ENDROOT
BRANCH   1   7
ATOM      7  C1  UNL d   1       0.993  -1.867  -3.216  0.00  0.00     0.055 C 
ATOM      8  C   UNL d   1       2.472  -2.037  -2.903  0.00  0.00     0.019 C 
ENDBRANCH   1   7
TORSDOF 1
ENDMDL
