MODEL 1
REMARK minimizedAffinity 7.73678446
REMARK minimizedRMSD -1
REMARK  1 active torsions:
REMARK  status: ('A' for Active; 'I' for Inactive)
REMARK    1  A    between atoms: C1_2  and  C2_3 
ROOT
ATOM      1  C2  UNL d   1       0.989  -2.200  -3.252  0.00  0.00    -0.077 A 
ATOM      2  C3  UNL d   1       0.847  -2.021  -1.869  0.00  0.00     0.002 A 
ATOM      3  C4  UNL d   1      -0.421  -1.996  -1.287  0.00  0.00     0.002 A 
ATOM      4  C5  UNL d   1      -1.557  -2.153  -2.079  0.00  0.00    -0.004 A 
ATOM      5  C6  UNL d   1      -1.426  -2.330  -3.456  0.00  0.00     0.002 A 
ATOM      6  C7  UNL d   1      -0.159  -2.354  -4.040  0.00  0.00     0.002 A 
ENDROOT
BRANCH   1   7
ATOM      7  C1  UNL d   1       2.359  -2.277  -3.876  0.00  0.00     0.055 C 
ATOM      8  C   UNL d   1       3.428  -1.755  -2.928  0.00  0.00     0.019 C 
ENDBRANCH   1   7
TORSDOF 1
ENDMDL
