MODEL 1
REMARK minimizedAffinity 0.872857034
REMARK minimizedRMSD -1
REMARK  1 active torsions:
REMARK  status: ('A' for Active; 'I' for Inactive)
REMARK    1  A    between atoms: C1_2  and  C2_3 
ROOT
ATOM      1  C2  UNL d   1       5.688   4.698  -2.175  0.00  0.00    -0.077 A 
ATOM      2  C3  UNL d   1       5.991   3.644  -3.050  0.00  0.00     0.002 A 
ATOM      3  C4  UNL d   1       5.744   3.769  -4.418  0.00  0.00     0.002 A 
ATOM      4  C5  UNL d   1       5.197   4.946  -4.925  0.00  0.00    -0.004 A 
ATOM      5  C6  UNL d   1       4.890   5.998  -4.063  0.00  0.00     0.002 A 
ATOM      6  C7  UNL d   1       5.135   5.875  -2.695  0.00  0.00     0.002 A 
ENDROOT
BRANCH   1   7
ATOM      7  C1  UNL d   1       5.999   4.584  -0.706  0.00  0.00     0.055 C 
ATOM      8  C   UNL d   1       5.999   5.949  -0.033  0.00  0.00     0.019 C 
ENDBRANCH   1   7
TORSDOF 1
ENDMDL
