MODEL 1
REMARK minimizedAffinity -0.932682633
REMARK minimizedRMSD -1
REMARK  1 active torsions:
REMARK  status: ('A' for Active; 'I' for Inactive)
REMARK    1  A    between atoms: C1_2  and  C2_3 
ROOT
ATOM      1  C2  UNL d   1       5.410   4.346  -3.373  0.00  0.00    -0.077 A 
ATOM      2  C3  UNL d   1       6.000   3.466  -4.291  0.00  0.00     0.002 A 
ATOM      3  C4  UNL d   1       5.487   3.347  -5.584  0.00  0.00     0.002 A 
ATOM      4  C5  UNL d   1       4.386   4.107  -5.971  0.00  0.00    -0.004 A 
ATOM      5  C6  UNL d   1       3.791   4.984  -5.065  0.00  0.00     0.002 A 
ATOM      6  C7  UNL d   1       4.301   5.104  -3.772  0.00  0.00     0.002 A 
ENDROOT
BRANCH   1   7
ATOM      7  C1  UNL d   1       5.992   4.513  -1.993  0.00  0.00     0.055 C 
ATOM      8  C   UNL d   1       5.997   5.973  -1.567  0.00  0.00     0.019 C 
ENDBRANCH   1   7
TORSDOF 1
ENDMDL
