MODEL 1
REMARK minimizedAffinity 2.14998126
REMARK minimizedRMSD -1
REMARK  1 active torsions:
REMARK  status: ('A' for Active; 'I' for Inactive)
REMARK    1  A    between atoms: C1_2  and  C2_3 
ROOT
ATOM      1  C2  UNL d   1       1.328  -2.390  -2.088  0.00  0.00    -0.077 A 
ATOM      2  C3  UNL d   1       0.341  -1.937  -2.973  0.00  0.00     0.002 A 
ATOM      3  C4  UNL d   1      -0.992  -1.859  -2.565  0.00  0.00     0.002 A 
ATOM      4  C5  UNL d   1      -1.349  -2.230  -1.270  0.00  0.00    -0.004 A 
ATOM      5  C6  UNL d   1      -0.374  -2.684  -0.382  0.00  0.00     0.002 A 
ATOM      6  C7  UNL d   1       0.959  -2.763  -0.789  0.00  0.00     0.002 A 
ENDROOT
BRANCH   1   7
ATOM      7  C1  UNL d   1       2.774  -2.428  -2.510  0.00  0.00     0.055 C 
ATOM      8  C   UNL d   1       2.939  -1.990  -3.958  0.00  0.00     0.019 C 
ENDBRANCH   1   7
TORSDOF 1
ENDMDL
