MODEL 1
REMARK minimizedAffinity 8.66253376
REMARK minimizedRMSD -1
REMARK  0 active torsions:
REMARK  status: ('A' for Active; 'I' for Inactive)
ROOT
ATOM      1  C1  DEN d   1      -0.872  -3.094  -2.572  0.00  0.00     0.130 A 
ATOM      2  C2  DEN d   1       0.261  -2.318  -3.068  0.00  0.00    -0.031 A 
ATOM      3  C3  DEN d   1       0.825  -1.558  -1.934  0.00  0.00     0.027 A 
ATOM      4  C4  DEN d   1       0.061  -1.512   0.529  0.00  0.00     0.027 A 
ATOM      5  C5  DEN d   1      -0.865  -1.998   1.426  0.00  0.00    -0.003 A 
ATOM      6  C6  DEN d   1      -1.870  -2.849   1.050  0.00  0.00     0.001 A 
ATOM      7  C7  DEN d   1      -1.946  -3.277  -0.249  0.00  0.00     0.017 A 
ATOM      8  C8  DEN d   1      -1.021  -2.786  -1.161  0.00  0.00    -0.094 A 
ATOM      9  C9  DEN d   1      -0.005  -1.935  -0.759  0.00  0.00    -0.072 A 
ENDROOT
TORSDOF 0
ENDMDL
