MODEL 1
REMARK minimizedAffinity 8.94849968
REMARK minimizedRMSD -1
REMARK  0 active torsions:
REMARK  status: ('A' for Active; 'I' for Inactive)
ROOT
ATOM      1  C1  DEN d   1      -2.394  -3.331  -1.748  0.00  0.00     0.130 A 
ATOM      2  C2  DEN d   1      -2.569  -2.827  -0.389  0.00  0.00    -0.031 A 
ATOM      3  C3  DEN d   1      -1.383  -2.017  -0.046  0.00  0.00     0.027 A 
ATOM      4  C4  DEN d   1       0.694  -1.492  -1.483  0.00  0.00     0.027 A 
ATOM      5  C5  DEN d   1       1.299  -1.707  -2.702  0.00  0.00    -0.003 A 
ATOM      6  C6  DEN d   1       0.737  -2.499  -3.667  0.00  0.00     0.001 A 
ATOM      7  C7  DEN d   1      -0.489  -3.070  -3.447  0.00  0.00     0.017 A 
ATOM      8  C8  DEN d   1      -1.102  -2.864  -2.218  0.00  0.00    -0.094 A 
ATOM      9  C9  DEN d   1      -0.523  -2.049  -1.260  0.00  0.00    -0.072 A 
ENDROOT
TORSDOF 0
ENDMDL
