MODEL 1
REMARK minimizedAffinity 15.3319273
REMARK minimizedRMSD -1
REMARK  0 active torsions:
REMARK  status: ('A' for Active; 'I' for Inactive)
ROOT
ATOM      1  C1  DEN d   1       3.254   4.849  -0.867  0.00  0.00     0.130 A 
ATOM      2  C2  DEN d   1       1.858   5.039  -1.251  0.00  0.00    -0.031 A 
ATOM      3  C3  DEN d   1       1.831   5.526  -2.645  0.00  0.00     0.027 A 
ATOM      4  C4  DEN d   1       3.803   6.000  -4.238  0.00  0.00     0.027 A 
ATOM      5  C5  DEN d   1       5.176   5.999  -4.356  0.00  0.00    -0.003 A 
ATOM      6  C6  DEN d   1       5.998   5.650  -3.318  0.00  0.00     0.001 A 
ATOM      7  C7  DEN d   1       5.454   5.244  -2.128  0.00  0.00     0.017 A 
ATOM      8  C8  DEN d   1       4.071   5.250  -1.999  0.00  0.00    -0.094 A 
ATOM      9  C9  DEN d   1       3.257   5.594  -3.064  0.00  0.00    -0.072 A 
ENDROOT
TORSDOF 0
ENDMDL
