MODEL 1
REMARK minimizedAffinity 12.7952805
REMARK minimizedRMSD -1
REMARK  0 active torsions:
REMARK  status: ('A' for Active; 'I' for Inactive)
ROOT
ATOM      1  C1  DEN d   1      -0.352  -4.779  -5.189  0.00  0.00     0.130 A 
ATOM      2  C2  DEN d   1      -0.816  -6.000  -4.536  0.00  0.00    -0.031 A 
ATOM      3  C3  DEN d   1      -0.992  -5.710  -3.098  0.00  0.00     0.027 A 
ATOM      4  C4  DEN d   1      -0.596  -3.500  -1.829  0.00  0.00     0.027 A 
ATOM      5  C5  DEN d   1      -0.190  -2.190  -1.955  0.00  0.00    -0.003 A 
ATOM      6  C6  DEN d   1       0.221  -1.665  -3.152  0.00  0.00     0.001 A 
ATOM      7  C7  DEN d   1       0.191  -2.442  -4.280  0.00  0.00     0.017 A 
ATOM      8  C8  DEN d   1      -0.211  -3.766  -4.159  0.00  0.00    -0.094 A 
ATOM      9  C9  DEN d   1      -0.634  -4.274  -2.942  0.00  0.00    -0.072 A 
ENDROOT
TORSDOF 0
ENDMDL
