MODEL 1
REMARK minimizedAffinity 1.1698153
REMARK minimizedRMSD -1
REMARK  0 active torsions:
REMARK  status: ('A' for Active; 'I' for Inactive)
ROOT
ATOM      1  C1  DEN d   1       5.999   4.184  -2.315  0.00  0.00     0.130 A 
ATOM      2  C2  DEN d   1       5.459   5.120  -1.333  0.00  0.00    -0.031 A 
ATOM      3  C3  DEN d   1       4.494   6.000  -2.023  0.00  0.00     0.027 A 
ATOM      4  C4  DEN d   1       3.785   6.000  -4.503  0.00  0.00     0.027 A 
ATOM      5  C5  DEN d   1       3.980   5.397  -5.726  0.00  0.00    -0.003 A 
ATOM      6  C6  DEN d   1       4.879   4.379  -5.904  0.00  0.00     0.001 A 
ATOM      7  C7  DEN d   1       5.585   3.902  -4.831  0.00  0.00     0.017 A 
ATOM      8  C8  DEN d   1       5.399   4.509  -3.596  0.00  0.00    -0.094 A 
ATOM      9  C9  DEN d   1       4.477   5.529  -3.434  0.00  0.00    -0.072 A 
ENDROOT
TORSDOF 0
ENDMDL
