MODEL 1
REMARK minimizedAffinity 4.35834408
REMARK minimizedRMSD -1
REMARK  0 active torsions:
REMARK  status: ('A' for Active; 'I' for Inactive)
ROOT
ATOM      1  C1  DEN d   1       2.128  -1.522  -2.479  0.00  0.00     0.130 A 
ATOM      2  C2  DEN d   1       2.032  -1.889  -3.890  0.00  0.00    -0.031 A 
ATOM      3  C3  DEN d   1       0.719  -2.530  -4.107  0.00  0.00     0.027 A 
ATOM      4  C4  DEN d   1      -1.167  -2.982  -2.407  0.00  0.00     0.027 A 
ATOM      5  C5  DEN d   1      -1.541  -2.860  -1.087  0.00  0.00    -0.003 A 
ATOM      6  C6  DEN d   1      -0.713  -2.318  -0.140  0.00  0.00     0.001 A 
ATOM      7  C7  DEN d   1       0.516  -1.838  -0.508  0.00  0.00     0.017 A 
ATOM      8  C8  DEN d   1       0.904  -1.964  -1.835  0.00  0.00    -0.094 A 
ATOM      9  C9  DEN d   1       0.047  -2.503  -2.780  0.00  0.00    -0.072 A 
ENDROOT
TORSDOF 0
ENDMDL
