MODEL 1
REMARK minimizedAffinity 3.18456793
REMARK minimizedRMSD -1
REMARK  0 active torsions:
REMARK  status: ('A' for Active; 'I' for Inactive)
ROOT
ATOM      1  C1  DEN d   1      -0.626  -1.004   0.182  0.00  0.00     0.130 A 
ATOM      2  C2  DEN d   1      -1.102  -1.949   1.188  0.00  0.00    -0.031 A 
ATOM      3  C3  DEN d   1      -1.112  -3.295   0.581  0.00  0.00     0.027 A 
ATOM      4  C4  DEN d   1      -0.437  -4.004  -1.805  0.00  0.00     0.027 A 
ATOM      5  C5  DEN d   1       0.020  -3.552  -3.024  0.00  0.00    -0.003 A 
ATOM      6  C6  DEN d   1       0.259  -2.225  -3.267  0.00  0.00     0.001 A 
ATOM      7  C7  DEN d   1       0.085  -1.309  -2.264  0.00  0.00     0.017 A 
ATOM      8  C8  DEN d   1      -0.382  -1.756  -1.035  0.00  0.00    -0.094 A 
ATOM      9  C9  DEN d   1      -0.606  -3.103  -0.805  0.00  0.00    -0.072 A 
ENDROOT
TORSDOF 0
ENDMDL
