MODEL 1
REMARK minimizedAffinity 5.42882347
REMARK minimizedRMSD -1
REMARK  0 active torsions:
REMARK  status: ('A' for Active; 'I' for Inactive)
ROOT
ATOM      1  C1  DEN d   1      -0.597  -3.702  -0.076  0.00  0.00     0.130 A 
ATOM      2  C2  DEN d   1      -0.644  -2.283   0.265  0.00  0.00    -0.031 A 
ATOM      3  C3  DEN d   1      -0.550  -1.508  -0.988  0.00  0.00     0.027 A 
ATOM      4  C4  DEN d   1      -0.343  -2.364  -3.413  0.00  0.00     0.027 A 
ATOM      5  C5  DEN d   1      -0.253  -3.490  -4.202  0.00  0.00    -0.003 A 
ATOM      6  C6  DEN d   1      -0.236  -4.753  -3.673  0.00  0.00     0.001 A 
ATOM      7  C7  DEN d   1      -0.357  -4.924  -2.319  0.00  0.00     0.017 A 
ATOM      8  C8  DEN d   1      -0.442  -3.794  -1.516  0.00  0.00    -0.094 A 
ATOM      9  C9  DEN d   1      -0.469  -2.526  -2.071  0.00  0.00    -0.072 A 
ENDROOT
TORSDOF 0
ENDMDL
