MODEL 1
REMARK minimizedAffinity 2.6693511
REMARK minimizedRMSD -1
REMARK  0 active torsions:
REMARK  status: ('A' for Active; 'I' for Inactive)
ROOT
ATOM      1  C1  DEN d   1      -2.212  -3.034  -1.164  0.00  0.00     0.130 A 
ATOM      2  C2  DEN d   1      -2.289  -2.898   0.288  0.00  0.00    -0.031 A 
ATOM      3  C3  DEN d   1      -1.024  -2.300   0.758  0.00  0.00     0.027 A 
ATOM      4  C4  DEN d   1       1.036  -1.572  -0.613  0.00  0.00     0.027 A 
ATOM      5  C5  DEN d   1       1.573  -1.501  -1.879  0.00  0.00    -0.003 A 
ATOM      6  C6  DEN d   1       0.907  -1.964  -2.983  0.00  0.00     0.001 A 
ATOM      7  C7  DEN d   1      -0.356  -2.477  -2.847  0.00  0.00     0.017 A 
ATOM      8  C8  DEN d   1      -0.902  -2.558  -1.572  0.00  0.00    -0.094 A 
ATOM      9  C9  DEN d   1      -0.217  -2.074  -0.471  0.00  0.00    -0.072 A 
ENDROOT
TORSDOF 0
ENDMDL
