MODEL 1
REMARK minimizedAffinity 11.9413834
REMARK minimizedRMSD -1
REMARK  0 active torsions:
REMARK  status: ('A' for Active; 'I' for Inactive)
ROOT
ATOM      1  C1  DEN d   1       2.518  -1.908  -2.053  0.00  0.00     0.130 A 
ATOM      2  C2  DEN d   1       3.204  -1.956  -3.341  0.00  0.00    -0.031 A 
ATOM      3  C3  DEN d   1       2.183  -2.110  -4.397  0.00  0.00     0.027 A 
ATOM      4  C4  DEN d   1      -0.381  -2.273  -4.164  0.00  0.00     0.027 A 
ATOM      5  C5  DEN d   1      -1.427  -2.292  -3.269  0.00  0.00    -0.003 A 
ATOM      6  C6  DEN d   1      -1.232  -2.219  -1.915  0.00  0.00     0.001 A 
ATOM      7  C7  DEN d   1       0.037  -2.078  -1.419  0.00  0.00     0.017 A 
ATOM      8  C8  DEN d   1       1.098  -2.066  -2.315  0.00  0.00    -0.094 A 
ATOM      9  C9  DEN d   1       0.879  -2.129  -3.680  0.00  0.00    -0.072 A 
ENDROOT
TORSDOF 0
ENDMDL
