MODEL 1
REMARK minimizedAffinity 9.734725
REMARK minimizedRMSD -1
REMARK  0 active torsions:
REMARK  status: ('A' for Active; 'I' for Inactive)
ROOT
ATOM      1  C1  DEN d   1       1.607  -2.203  -2.425  0.00  0.00     0.130 A 
ATOM      2  C2  DEN d   1       1.360  -2.130  -3.862  0.00  0.00    -0.031 A 
ATOM      3  C3  DEN d   1      -0.095  -2.258  -4.082  0.00  0.00     0.027 A 
ATOM      4  C4  DEN d   1      -1.978  -2.557  -2.346  0.00  0.00     0.027 A 
ATOM      5  C5  DEN d   1      -2.257  -2.686  -1.003  0.00  0.00    -0.003 A 
ATOM      6  C6  DEN d   1      -1.273  -2.698  -0.051  0.00  0.00     0.001 A 
ATOM      7  C7  DEN d   1       0.035  -2.533  -0.424  0.00  0.00     0.017 A 
ATOM      8  C8  DEN d   1       0.324  -2.409  -1.777  0.00  0.00    -0.094 A 
ATOM      9  C9  DEN d   1      -0.686  -2.387  -2.723  0.00  0.00    -0.072 A 
ENDROOT
TORSDOF 0
ENDMDL
