MODEL 1
REMARK minimizedAffinity 4.70348692
REMARK minimizedRMSD -1
REMARK  0 active torsions:
REMARK  status: ('A' for Active; 'I' for Inactive)
ROOT
ATOM      1  C1  DEN d   1       1.335  -2.215  -0.728  0.00  0.00     0.130 A 
ATOM      2  C2  DEN d   1       2.206  -2.201  -1.900  0.00  0.00    -0.031 A 
ATOM      3  C3  DEN d   1       1.351  -2.183  -3.104  0.00  0.00     0.027 A 
ATOM      4  C4  DEN d   1      -1.223  -2.169  -3.266  0.00  0.00     0.027 A 
ATOM      5  C5  DEN d   1      -2.394  -2.187  -2.540  0.00  0.00    -0.003 A 
ATOM      6  C6  DEN d   1      -2.404  -2.249  -1.171  0.00  0.00     0.001 A 
ATOM      7  C7  DEN d   1      -1.219  -2.250  -0.484  0.00  0.00     0.017 A 
ATOM      8  C8  DEN d   1      -0.035  -2.240  -1.209  0.00  0.00    -0.094 A 
ATOM      9  C9  DEN d   1      -0.046  -2.165  -2.591  0.00  0.00    -0.072 A 
ENDROOT
TORSDOF 0
ENDMDL
