MODEL 1
REMARK minimizedAffinity -1.73240769
REMARK minimizedRMSD -1
REMARK  0 active torsions:
REMARK  status: ('A' for Active; 'I' for Inactive)
ROOT
ATOM      1  C1  DEN d   1       3.638   3.748  -5.200  0.00  0.00     0.130 A 
ATOM      2  C2  DEN d   1       4.852   3.541  -5.985  0.00  0.00    -0.031 A 
ATOM      3  C3  DEN d   1       5.994   4.063  -5.207  0.00  0.00     0.027 A 
ATOM      4  C4  DEN d   1       6.000   5.161  -2.873  0.00  0.00     0.027 A 
ATOM      5  C5  DEN d   1       5.208   5.564  -1.820  0.00  0.00    -0.003 A 
ATOM      6  C6  DEN d   1       3.846   5.422  -1.834  0.00  0.00     0.001 A 
ATOM      7  C7  DEN d   1       3.237   4.822  -2.904  0.00  0.00     0.017 A 
ATOM      8  C8  DEN d   1       4.028   4.420  -3.973  0.00  0.00    -0.094 A 
ATOM      9  C9  DEN d   1       5.404   4.561  -3.934  0.00  0.00    -0.072 A 
ENDROOT
TORSDOF 0
ENDMDL
