MODEL 1
REMARK minimizedAffinity 10.2840519
REMARK minimizedRMSD -1
REMARK  1 active torsions:
REMARK  status: ('A' for Active; 'I' for Inactive)
REMARK    1  A    between atoms: C1_2  and  C2_3 
ROOT
ATOM      1  C2  UNL d   1      -3.859  -2.344  -5.919  0.00  0.00    -0.077 A 
ATOM      2  C3  UNL d   1      -3.199  -1.107  -5.901  0.00  0.00     0.002 A 
ATOM      3  C4  UNL d   1      -1.803  -1.051  -5.918  0.00  0.00     0.002 A 
ATOM      4  C5  UNL d   1      -1.058  -2.228  -5.957  0.00  0.00    -0.004 A 
ATOM      5  C6  UNL d   1      -1.705  -3.462  -5.973  0.00  0.00     0.002 A 
ATOM      6  C7  UNL d   1      -3.100  -3.520  -5.955  0.00  0.00     0.002 A 
ENDROOT
BRANCH   1   7
ATOM      7  C1  UNL d   1      -5.364  -2.405  -5.951  0.00  0.00     0.055 C 
ATOM      8  C   UNL d   1      -5.982  -1.204  -5.250  0.00  0.00     0.019 C 
ENDBRANCH   1   7
TORSDOF 1
ENDMDL
