MODEL 1
REMARK minimizedAffinity 14.6371994
REMARK minimizedRMSD -1
REMARK  1 active torsions:
REMARK  status: ('A' for Active; 'I' for Inactive)
REMARK    1  A    between atoms: C1_2  and  C2_3 
ROOT
ATOM      1  C2  UNL d   1       2.804   3.086  -2.494  0.00  0.00    -0.077 A 
ATOM      2  C3  UNL d   1       2.206   4.328  -2.751  0.00  0.00     0.002 A 
ATOM      3  C4  UNL d   1       2.768   5.203  -3.682  0.00  0.00     0.002 A 
ATOM      4  C5  UNL d   1       3.927   4.844  -4.367  0.00  0.00    -0.004 A 
ATOM      5  C6  UNL d   1       4.530   3.612  -4.117  0.00  0.00     0.002 A 
ATOM      6  C7  UNL d   1       3.971   2.736  -3.186  0.00  0.00     0.002 A 
ENDROOT
BRANCH   1   7
ATOM      7  C1  UNL d   1       2.172   2.120  -1.527  0.00  0.00     0.055 C 
ATOM      8  C   UNL d   1       1.820   0.805  -2.207  0.00  0.00     0.019 C 
ENDBRANCH   1   7
TORSDOF 1
ENDMDL
