MODEL 1
REMARK minimizedAffinity -0.617686212
REMARK minimizedRMSD -1
REMARK  1 active torsions:
REMARK  status: ('A' for Active; 'I' for Inactive)
REMARK    1  A    between atoms: C1_2  and  C2_3 
ROOT
ATOM      1  C2  UNL d   1      -2.361  -2.366   0.713  0.00  0.00    -0.077 A 
ATOM      2  C3  UNL d   1      -1.390  -1.430   1.097  0.00  0.00     0.002 A 
ATOM      3  C4  UNL d   1      -1.745  -0.101   1.335  0.00  0.00     0.002 A 
ATOM      4  C5  UNL d   1      -3.072   0.303   1.196  0.00  0.00    -0.004 A 
ATOM      5  C6  UNL d   1      -4.044  -0.620   0.812  0.00  0.00     0.002 A 
ATOM      6  C7  UNL d   1      -3.691  -1.948   0.573  0.00  0.00     0.002 A 
ENDROOT
BRANCH   1   7
ATOM      7  C1  UNL d   1      -1.989  -3.810   0.503  0.00  0.00     0.055 C 
ATOM      8  C   UNL d   1      -0.756  -4.187   1.312  0.00  0.00     0.019 C 
ENDBRANCH   1   7
TORSDOF 1
ENDMDL
