MODEL 1
REMARK minimizedAffinity 7.25594044
REMARK minimizedRMSD -1
REMARK  1 active torsions:
REMARK  status: ('A' for Active; 'I' for Inactive)
REMARK    1  A    between atoms: C1_2  and  C2_3 
ROOT
ATOM      1  C2  UNL d   1      -3.095   0.680   1.355  0.00  0.00    -0.077 A 
ATOM      2  C3  UNL d   1      -1.845   0.089   1.127  0.00  0.00     0.002 A 
ATOM      3  C4  UNL d   1      -0.761   0.389   1.954  0.00  0.00     0.002 A 
ATOM      4  C5  UNL d   1      -0.917   1.277   3.016  0.00  0.00    -0.004 A 
ATOM      5  C6  UNL d   1      -2.156   1.872   3.250  0.00  0.00     0.002 A 
ATOM      6  C7  UNL d   1      -3.240   1.574   2.424  0.00  0.00     0.002 A 
ENDROOT
BRANCH   1   7
ATOM      7  C1  UNL d   1      -4.279   0.321   0.495  0.00  0.00     0.055 C 
ATOM      8  C   UNL d   1      -4.540  -1.178   0.512  0.00  0.00     0.019 C 
ENDBRANCH   1   7
TORSDOF 1
ENDMDL
