MODEL 1
REMARK minimizedAffinity 11.6191053
REMARK minimizedRMSD -1
REMARK  1 active torsions:
REMARK  status: ('A' for Active; 'I' for Inactive)
REMARK    1  A    between atoms: C1_2  and  C2_3 
ROOT
ATOM      1  C2  UNL d   1       2.718   0.605   2.752  0.00  0.00    -0.077 A 
ATOM      2  C3  UNL d   1       3.435  -0.260   3.591  0.00  0.00     0.002 A 
ATOM      3  C4  UNL d   1       4.728  -0.661   3.253  0.00  0.00     0.002 A 
ATOM      4  C5  UNL d   1       5.318  -0.200   2.078  0.00  0.00    -0.004 A 
ATOM      5  C6  UNL d   1       4.613   0.659   1.235  0.00  0.00     0.002 A 
ATOM      6  C7  UNL d   1       3.319   1.060   1.572  0.00  0.00     0.002 A 
ENDROOT
BRANCH   1   7
ATOM      7  C1  UNL d   1       1.342   1.079   3.140  0.00  0.00     0.055 C 
ATOM      8  C   UNL d   1       0.367  -0.085   3.249  0.00  0.00     0.019 C 
ENDBRANCH   1   7
TORSDOF 1
ENDMDL
