MODEL 1
REMARK minimizedAffinity 8.31471539
REMARK minimizedRMSD -1
REMARK  1 active torsions:
REMARK  status: ('A' for Active; 'I' for Inactive)
REMARK    1  A    between atoms: C1_2  and  C2_3 
ROOT
ATOM      1  C2  UNL d   1      -3.839   0.433   3.057  0.00  0.00    -0.077 A 
ATOM      2  C3  UNL d   1      -2.458   0.200   3.003  0.00  0.00     0.002 A 
ATOM      3  C4  UNL d   1      -1.794   0.173   1.775  0.00  0.00     0.002 A 
ATOM      4  C5  UNL d   1      -2.502   0.381   0.593  0.00  0.00    -0.004 A 
ATOM      5  C6  UNL d   1      -3.877   0.611   0.637  0.00  0.00     0.002 A 
ATOM      6  C7  UNL d   1      -4.542   0.638   1.863  0.00  0.00     0.002 A 
ENDROOT
BRANCH   1   7
ATOM      7  C1  UNL d   1      -4.549   0.511   4.384  0.00  0.00     0.055 C 
ATOM      8  C   UNL d   1      -5.792   1.385   4.296  0.00  0.00     0.019 C 
ENDBRANCH   1   7
TORSDOF 1
ENDMDL
