MODEL 1
REMARK minimizedAffinity 2.7088933
REMARK minimizedRMSD -1
REMARK  1 active torsions:
REMARK  status: ('A' for Active; 'I' for Inactive)
REMARK    1  A    between atoms: C1_2  and  C2_3 
ROOT
ATOM      1  C2  UNL d   1      -5.521  -1.723   3.000  0.00  0.00    -0.077 A 
ATOM      2  C3  UNL d   1      -5.304  -1.839   1.620  0.00  0.00     0.002 A 
ATOM      3  C4  UNL d   1      -4.817  -0.754   0.889  0.00  0.00     0.002 A 
ATOM      4  C5  UNL d   1      -4.538   0.451   1.529  0.00  0.00    -0.004 A 
ATOM      5  C6  UNL d   1      -4.752   0.577   2.901  0.00  0.00     0.002 A 
ATOM      6  C7  UNL d   1      -5.240  -0.506   3.634  0.00  0.00     0.002 A 
ENDROOT
BRANCH   1   7
ATOM      7  C1  UNL d   1      -6.000  -2.907   3.800  0.00  0.00     0.055 C 
ATOM      8  C   UNL d   1      -5.313  -2.974   5.156  0.00  0.00     0.019 C 
ENDBRANCH   1   7
TORSDOF 1
ENDMDL
