MODEL 1
REMARK minimizedAffinity 3.3077848
REMARK minimizedRMSD -1
REMARK  1 active torsions:
REMARK  status: ('A' for Active; 'I' for Inactive)
REMARK    1  A    between atoms: C1_2  and  C2_3 
ROOT
ATOM      1  C2  UNL d   1      -3.327   0.043   1.450  0.00  0.00    -0.077 A 
ATOM      2  C3  UNL d   1      -3.307   1.400   1.802  0.00  0.00     0.002 A 
ATOM      3  C4  UNL d   1      -2.127   1.995   2.254  0.00  0.00     0.002 A 
ATOM      4  C5  UNL d   1      -0.959   1.242   2.354  0.00  0.00    -0.004 A 
ATOM      5  C6  UNL d   1      -0.970  -0.109   2.009  0.00  0.00     0.002 A 
ATOM      6  C7  UNL d   1      -2.148  -0.705   1.558  0.00  0.00     0.002 A 
ENDROOT
BRANCH   1   7
ATOM      7  C1  UNL d   1      -4.586  -0.589   0.916  0.00  0.00     0.055 C 
ATOM      8  C   UNL d   1      -4.299  -1.938   0.273  0.00  0.00     0.019 C 
ENDBRANCH   1   7
TORSDOF 1
ENDMDL
