MODEL 1
REMARK minimizedAffinity 7.1840024
REMARK minimizedRMSD -1
REMARK  1 active torsions:
REMARK  status: ('A' for Active; 'I' for Inactive)
REMARK    1  A    between atoms: C1_2  and  C2_3 
ROOT
ATOM      1  C2  UNL d   1      -1.408   1.224   2.813  0.00  0.00    -0.077 A 
ATOM      2  C3  UNL d   1      -0.556   0.112   2.872  0.00  0.00     0.002 A 
ATOM      3  C4  UNL d   1       0.779   0.265   3.250  0.00  0.00     0.002 A 
ATOM      4  C5  UNL d   1       1.273   1.527   3.577  0.00  0.00    -0.004 A 
ATOM      5  C6  UNL d   1       0.434   2.639   3.519  0.00  0.00     0.002 A 
ATOM      6  C7  UNL d   1      -0.901   2.488   3.140  0.00  0.00     0.002 A 
ENDROOT
BRANCH   1   7
ATOM      7  C1  UNL d   1      -2.861   1.054   2.453  0.00  0.00     0.055 C 
ATOM      8  C   UNL d   1      -3.021   0.297   1.142  0.00  0.00     0.019 C 
ENDBRANCH   1   7
TORSDOF 1
ENDMDL
