MODEL 1
REMARK minimizedAffinity 4.2946043
REMARK minimizedRMSD -1
REMARK  1 active torsions:
REMARK  status: ('A' for Active; 'I' for Inactive)
REMARK    1  A    between atoms: C1_2  and  C2_3 
ROOT
ATOM      1  C2  UNL d   1      -1.436   0.914   2.155  0.00  0.00    -0.077 A 
ATOM      2  C3  UNL d   1      -1.154   2.253   2.462  0.00  0.00     0.002 A 
ATOM      3  C4  UNL d   1      -0.073   2.576   3.286  0.00  0.00     0.002 A 
ATOM      4  C5  UNL d   1       0.736   1.567   3.804  0.00  0.00    -0.004 A 
ATOM      5  C6  UNL d   1       0.462   0.233   3.506  0.00  0.00     0.002 A 
ATOM      6  C7  UNL d   1      -0.618  -0.092   2.684  0.00  0.00     0.002 A 
ENDROOT
BRANCH   1   7
ATOM      7  C1  UNL d   1      -2.571   0.567   1.227  0.00  0.00     0.055 C 
ATOM      8  C   UNL d   1      -3.756  -0.004   1.993  0.00  0.00     0.019 C 
ENDBRANCH   1   7
TORSDOF 1
ENDMDL
