MODEL 1
REMARK minimizedAffinity -1.56220675
REMARK minimizedRMSD -1
REMARK  0 active torsions:
REMARK  status: ('A' for Active; 'I' for Inactive)
ROOT
ATOM      1  C2' OXE d   1       4.915  -0.664   2.829  0.00  0.00     0.078 C 
ATOM      2  C1' OXE d   1       2.523  -2.133   2.835  0.00  0.00     0.078 C 
ATOM      3  C1  OXE d   1       2.611  -0.936   1.922  0.00  0.00    -0.078 A 
ATOM      4  C2  OXE d   1       3.768  -0.195   1.960  0.00  0.00    -0.078 A 
ATOM      5  C3  OXE d   1       3.922   0.887   1.098  0.00  0.00     0.003 A 
ATOM      6  C4  OXE d   1       2.853   1.320   0.305  0.00  0.00    -0.002 A 
ATOM      7  C5  OXE d   1       1.651   0.603   0.281  0.00  0.00    -0.002 A 
ATOM      8  C6  OXE d   1       1.530  -0.549   1.050  0.00  0.00     0.003 A 
ENDROOT
TORSDOF 0
ENDMDL
