MODEL 1
REMARK minimizedAffinity 2.98176765
REMARK minimizedRMSD -1
REMARK  0 active torsions:
REMARK  status: ('A' for Active; 'I' for Inactive)
ROOT
ATOM      1  C2' OXE d   1      -5.949   1.119   2.608  0.00  0.00     0.078 C 
ATOM      2  C1' OXE d   1      -5.611   3.794   1.826  0.00  0.00     0.078 C 
ATOM      3  C1  OXE d   1      -5.727   3.502   3.301  0.00  0.00    -0.078 A 
ATOM      4  C2  OXE d   1      -5.939   2.196   3.672  0.00  0.00    -0.078 A 
ATOM      5  C3  OXE d   1      -5.997   1.864   5.023  0.00  0.00     0.003 A 
ATOM      6  C4  OXE d   1      -5.997   2.867   6.000  0.00  0.00    -0.002 A 
ATOM      7  C5  OXE d   1      -5.822   4.207   5.641  0.00  0.00    -0.002 A 
ATOM      8  C6  OXE d   1      -5.643   4.537   4.302  0.00  0.00     0.003 A 
ENDROOT
TORSDOF 0
ENDMDL
