MODEL 1
REMARK minimizedAffinity 5.00332737
REMARK minimizedRMSD -1
REMARK  0 active torsions:
REMARK  status: ('A' for Active; 'I' for Inactive)
ROOT
ATOM      1  C2' OXE d   1       5.166  -0.138   2.986  0.00  0.00     0.078 C 
ATOM      2  C1' OXE d   1       5.085   1.471   0.687  0.00  0.00     0.078 C 
ATOM      3  C1  OXE d   1       3.813   0.775   1.104  0.00  0.00    -0.078 A 
ATOM      4  C2  OXE d   1       3.874  -0.048   2.203  0.00  0.00    -0.078 A 
ATOM      5  C3  OXE d   1       2.717  -0.670   2.663  0.00  0.00     0.003 A 
ATOM      6  C4  OXE d   1       1.528  -0.589   1.928  0.00  0.00    -0.002 A 
ATOM      7  C5  OXE d   1       1.455   0.211   0.783  0.00  0.00    -0.002 A 
ATOM      8  C6  OXE d   1       2.575   0.932   0.382  0.00  0.00     0.003 A 
ENDROOT
TORSDOF 0
ENDMDL
