MODEL 1
REMARK minimizedAffinity 9.83551884
REMARK minimizedRMSD -1
REMARK  0 active torsions:
REMARK  status: ('A' for Active; 'I' for Inactive)
ROOT
ATOM      1  C2' OXE d   1       4.556  -0.076   2.977  0.00  0.00     0.078 C 
ATOM      2  C1' OXE d   1       2.476  -1.929   2.632  0.00  0.00     0.078 C 
ATOM      3  C1  OXE d   1       2.487  -0.711   1.743  0.00  0.00    -0.078 A 
ATOM      4  C2  OXE d   1       3.482   0.214   1.951  0.00  0.00    -0.078 A 
ATOM      5  C3  OXE d   1       3.571   1.329   1.122  0.00  0.00     0.003 A 
ATOM      6  C4  OXE d   1       2.569   1.595   0.181  0.00  0.00    -0.002 A 
ATOM      7  C5  OXE d   1       1.524   0.686  -0.019  0.00  0.00    -0.002 A 
ATOM      8  C6  OXE d   1       1.493  -0.490   0.722  0.00  0.00     0.003 A 
ENDROOT
TORSDOF 0
ENDMDL
