MODEL 1
REMARK minimizedAffinity 4.21010494
REMARK minimizedRMSD -1
REMARK  0 active torsions:
REMARK  status: ('A' for Active; 'I' for Inactive)
ROOT
ATOM      1  C2' OXE d   1       4.594  -0.486   2.918  0.00  0.00     0.078 C 
ATOM      2  C1' OXE d   1       2.142  -1.826   3.189  0.00  0.00     0.078 C 
ATOM      3  C1  OXE d   1       2.232  -0.723   2.164  0.00  0.00    -0.078 A 
ATOM      4  C2  OXE d   1       3.422  -0.042   2.071  0.00  0.00    -0.078 A 
ATOM      5  C3  OXE d   1       3.576   0.948   1.104  0.00  0.00     0.003 A 
ATOM      6  C4  OXE d   1       2.484   1.359   0.331  0.00  0.00    -0.002 A 
ATOM      7  C5  OXE d   1       1.252   0.705   0.437  0.00  0.00    -0.002 A 
ATOM      8  C6  OXE d   1       1.122  -0.364   1.317  0.00  0.00     0.003 A 
ENDROOT
TORSDOF 0
ENDMDL
