MODEL 1
REMARK minimizedAffinity 6.3197093
REMARK minimizedRMSD -1
REMARK  0 active torsions:
REMARK  status: ('A' for Active; 'I' for Inactive)
ROOT
ATOM      1  C2' OXE d   1      -5.618   2.782   5.961  0.00  0.00     0.078 C 
ATOM      2  C1' OXE d   1      -5.971   5.567   5.969  0.00  0.00     0.078 C 
ATOM      3  C1  OXE d   1      -4.559   5.037   5.957  0.00  0.00    -0.078 A 
ATOM      4  C2  OXE d   1      -4.395   3.673   6.000  0.00  0.00    -0.078 A 
ATOM      5  C3  OXE d   1      -3.115   3.130   5.935  0.00  0.00     0.003 A 
ATOM      6  C4  OXE d   1      -1.989   3.961   5.981  0.00  0.00    -0.002 A 
ATOM      7  C5  OXE d   1      -2.134   5.353   5.977  0.00  0.00    -0.002 A 
ATOM      8  C6  OXE d   1      -3.408   5.905   5.922  0.00  0.00     0.003 A 
ENDROOT
TORSDOF 0
ENDMDL
