MODEL 1
REMARK minimizedAffinity 10.6790571
REMARK minimizedRMSD -1
REMARK  0 active torsions:
REMARK  status: ('A' for Active; 'I' for Inactive)
ROOT
ATOM      1  C2' OXE d   1       5.006  -0.477   3.182  0.00  0.00     0.078 C 
ATOM      2  C1' OXE d   1       2.510  -1.754   3.336  0.00  0.00     0.078 C 
ATOM      3  C1  OXE d   1       2.667  -0.634   2.337  0.00  0.00    -0.078 A 
ATOM      4  C2  OXE d   1       3.878   0.016   2.302  0.00  0.00    -0.078 A 
ATOM      5  C3  OXE d   1       4.094   1.020   1.362  0.00  0.00     0.003 A 
ATOM      6  C4  OXE d   1       3.042   1.477   0.558  0.00  0.00    -0.002 A 
ATOM      7  C5  OXE d   1       1.790   0.855   0.607  0.00  0.00    -0.002 A 
ATOM      8  C6  OXE d   1       1.599  -0.227   1.459  0.00  0.00     0.003 A 
ENDROOT
TORSDOF 0
ENDMDL
