MODEL 1
REMARK minimizedAffinity 4.78658628
REMARK minimizedRMSD -1
REMARK  0 active torsions:
REMARK  status: ('A' for Active; 'I' for Inactive)
ROOT
ATOM      1  C2' OXE d   1      -3.047  -1.142   5.972  0.00  0.00     0.078 C 
ATOM      2  C1' OXE d   1      -3.508  -1.013   3.206  0.00  0.00     0.078 C 
ATOM      3  C1  OXE d   1      -3.916  -2.272   3.929  0.00  0.00    -0.078 A 
ATOM      4  C2  OXE d   1      -3.644  -2.345   5.274  0.00  0.00    -0.078 A 
ATOM      5  C3  OXE d   1      -4.048  -3.462   6.000  0.00  0.00     0.003 A 
ATOM      6  C4  OXE d   1      -4.591  -4.574   5.345  0.00  0.00    -0.002 A 
ATOM      7  C5  OXE d   1      -4.840  -4.536   3.969  0.00  0.00    -0.002 A 
ATOM      8  C6  OXE d   1      -4.548  -3.379   3.255  0.00  0.00     0.003 A 
ENDROOT
TORSDOF 0
ENDMDL
