MODEL 1
REMARK minimizedAffinity 11.5594912
REMARK minimizedRMSD -1
REMARK  0 active torsions:
REMARK  status: ('A' for Active; 'I' for Inactive)
ROOT
ATOM      1  C2' OXE d   1       4.169  -0.451   3.037  0.00  0.00     0.078 C 
ATOM      2  C1' OXE d   1       2.567  -2.739   3.314  0.00  0.00     0.078 C 
ATOM      3  C1  OXE d   1       2.046  -1.616   2.452  0.00  0.00    -0.078 A 
ATOM      4  C2  OXE d   1       2.816  -0.481   2.360  0.00  0.00    -0.078 A 
ATOM      5  C3  OXE d   1       2.408   0.563   1.535  0.00  0.00     0.003 A 
ATOM      6  C4  OXE d   1       1.150   0.531   0.921  0.00  0.00    -0.002 A 
ATOM      7  C5  OXE d   1       0.333  -0.599   1.035  0.00  0.00    -0.002 A 
ATOM      8  C6  OXE d   1       0.784  -1.696   1.760  0.00  0.00     0.003 A 
ENDROOT
TORSDOF 0
ENDMDL
