MODEL 1
REMARK minimizedAffinity 4.98004246
REMARK minimizedRMSD -1
REMARK  0 active torsions:
REMARK  status: ('A' for Active; 'I' for Inactive)
ROOT
ATOM      1  C2' OXE d   1       5.846  -0.039   2.107  0.00  0.00     0.078 C 
ATOM      2  C1' OXE d   1       4.200   1.809   0.781  0.00  0.00     0.078 C 
ATOM      3  C1  OXE d   1       3.532   0.702   1.559  0.00  0.00    -0.078 A 
ATOM      4  C2  OXE d   1       4.345  -0.224   2.166  0.00  0.00    -0.078 A 
ATOM      5  C3  OXE d   1       3.781  -1.234   2.941  0.00  0.00     0.003 A 
ATOM      6  C4  OXE d   1       2.392  -1.404   2.981  0.00  0.00    -0.002 A 
ATOM      7  C5  OXE d   1       1.546  -0.495   2.338  0.00  0.00    -0.002 A 
ATOM      8  C6  OXE d   1       2.098   0.586   1.659  0.00  0.00     0.003 A 
ENDROOT
TORSDOF 0
ENDMDL
