MODEL 1
REMARK minimizedAffinity 9.47527504
REMARK minimizedRMSD -1
REMARK  0 active torsions:
REMARK  status: ('A' for Active; 'I' for Inactive)
ROOT
ATOM      1  C2' OXE d   1      -2.614   1.693   0.030  0.00  0.00     0.078 C 
ATOM      2  C1' OXE d   1      -3.755  -0.732   0.866  0.00  0.00     0.078 C 
ATOM      3  C1  OXE d   1      -4.367   0.548   1.379  0.00  0.00    -0.078 A 
ATOM      4  C2  OXE d   1      -3.774   1.728   1.002  0.00  0.00    -0.078 A 
ATOM      5  C3  OXE d   1      -4.332   2.939   1.403  0.00  0.00     0.003 A 
ATOM      6  C4  OXE d   1      -5.398   2.962   2.310  0.00  0.00    -0.002 A 
ATOM      7  C5  OXE d   1      -5.992   1.770   2.739  0.00  0.00    -0.002 A 
ATOM      8  C6  OXE d   1      -5.517   0.558   2.250  0.00  0.00     0.003 A 
ENDROOT
TORSDOF 0
ENDMDL
