MODEL 1
REMARK minimizedAffinity 12.096549
REMARK minimizedRMSD -1
REMARK  0 active torsions:
REMARK  status: ('A' for Active; 'I' for Inactive)
ROOT
ATOM      1  C2' OXE d   1      -5.187  -1.661   2.261  0.00  0.00     0.078 C 
ATOM      2  C1' OXE d   1      -3.381  -0.483   0.464  0.00  0.00     0.078 C 
ATOM      3  C1  OXE d   1      -4.275   0.432   1.264  0.00  0.00    -0.078 A 
ATOM      4  C2  OXE d   1      -5.188  -0.155   2.107  0.00  0.00    -0.078 A 
ATOM      5  C3  OXE d   1      -5.999   0.643   2.908  0.00  0.00     0.003 A 
ATOM      6  C4  OXE d   1      -6.000   2.035   2.752  0.00  0.00    -0.002 A 
ATOM      7  C5  OXE d   1      -5.105   2.651   1.870  0.00  0.00    -0.002 A 
ATOM      8  C6  OXE d   1      -4.209   1.868   1.152  0.00  0.00     0.003 A 
ENDROOT
TORSDOF 0
ENDMDL
