MODEL 1
REMARK minimizedAffinity 3.84002566
REMARK minimizedRMSD -1
REMARK  0 active torsions:
REMARK  status: ('A' for Active; 'I' for Inactive)
ROOT
ATOM      1  C2' OXE d   1       4.373   1.692   0.370  0.00  0.00     0.078 C 
ATOM      2  C1' OXE d   1       6.000   0.341   2.216  0.00  0.00     0.078 C 
ATOM      3  C1  OXE d   1       4.546  -0.054   2.137  0.00  0.00    -0.078 A 
ATOM      4  C2  OXE d   1       3.748   0.644   1.264  0.00  0.00    -0.078 A 
ATOM      5  C3  OXE d   1       2.412   0.284   1.113  0.00  0.00     0.003 A 
ATOM      6  C4  OXE d   1       1.838  -0.680   1.952  0.00  0.00    -0.002 A 
ATOM      7  C5  OXE d   1       2.625  -1.376   2.875  0.00  0.00    -0.002 A 
ATOM      8  C6  OXE d   1       3.987  -1.105   2.951  0.00  0.00     0.003 A 
ENDROOT
TORSDOF 0
ENDMDL
