MODEL 1
REMARK minimizedAffinity 1.92299652
REMARK minimizedRMSD -1
REMARK  0 active torsions:
REMARK  status: ('A' for Active; 'I' for Inactive)
ROOT
ATOM      1  C2' OXE d   1       5.937  -0.050   2.833  0.00  0.00     0.078 C 
ATOM      2  C1' OXE d   1       5.155   1.493   0.622  0.00  0.00     0.078 C 
ATOM      3  C1  OXE d   1       4.169   0.487   1.162  0.00  0.00    -0.078 A 
ATOM      4  C2  OXE d   1       4.578  -0.296   2.215  0.00  0.00    -0.078 A 
ATOM      5  C3  OXE d   1       3.688  -1.202   2.786  0.00  0.00     0.003 A 
ATOM      6  C4  OXE d   1       2.436  -1.430   2.202  0.00  0.00    -0.002 A 
ATOM      7  C5  OXE d   1       2.016  -0.671   1.105  0.00  0.00    -0.002 A 
ATOM      8  C6  OXE d   1       2.852   0.319   0.600  0.00  0.00     0.003 A 
ENDROOT
TORSDOF 0
ENDMDL
