MODEL 1
REMARK minimizedAffinity 6.2996707
REMARK minimizedRMSD -1
REMARK  0 active torsions:
REMARK  status: ('A' for Active; 'I' for Inactive)
ROOT
ATOM      1  C2' OXE d   1      -4.005  -3.312   6.000  0.00  0.00     0.078 C 
ATOM      2  C1' OXE d   1      -3.734  -0.520   5.882  0.00  0.00     0.078 C 
ATOM      3  C1  OXE d   1      -3.828  -1.273   4.579  0.00  0.00    -0.078 A 
ATOM      4  C2  OXE d   1      -3.913  -2.643   4.645  0.00  0.00    -0.078 A 
ATOM      5  C3  OXE d   1      -4.058  -3.382   3.474  0.00  0.00     0.003 A 
ATOM      6  C4  OXE d   1      -3.962  -2.758   2.225  0.00  0.00    -0.002 A 
ATOM      7  C5  OXE d   1      -3.835  -1.367   2.135  0.00  0.00    -0.002 A 
ATOM      8  C6  OXE d   1      -3.810  -0.608   3.299  0.00  0.00     0.003 A 
ENDROOT
TORSDOF 0
ENDMDL
