MODEL 1
REMARK minimizedAffinity 2.1238687
REMARK minimizedRMSD -1
REMARK  0 active torsions:
REMARK  status: ('A' for Active; 'I' for Inactive)
ROOT
ATOM      1  C2' OXE d   1      -5.962   0.716   2.617  0.00  0.00     0.078 C 
ATOM      2  C1' OXE d   1      -5.999   3.493   2.209  0.00  0.00     0.078 C 
ATOM      3  C1  OXE d   1      -5.522   2.985   3.546  0.00  0.00    -0.078 A 
ATOM      4  C2  OXE d   1      -5.552   1.627   3.754  0.00  0.00    -0.078 A 
ATOM      5  C3  OXE d   1      -5.071   1.102   4.950  0.00  0.00     0.003 A 
ATOM      6  C4  OXE d   1      -4.702   1.952   6.000  0.00  0.00    -0.002 A 
ATOM      7  C5  OXE d   1      -4.702   3.340   5.823  0.00  0.00    -0.002 A 
ATOM      8  C6  OXE d   1      -5.068   3.869   4.591  0.00  0.00     0.003 A 
ENDROOT
TORSDOF 0
ENDMDL
