MODEL 1
REMARK minimizedAffinity -4.35202742
REMARK minimizedRMSD -1
REMARK  0 active torsions:
REMARK  status: ('A' for Active; 'I' for Inactive)
ROOT
ATOM      1  C2' OXE d   1       1.295   2.882   1.145  0.00  0.00     0.078 C 
ATOM      2  C1' OXE d   1       1.286   0.105   0.732  0.00  0.00     0.078 C 
ATOM      3  C1  OXE d   1      -0.043   0.818   0.750  0.00  0.00    -0.078 A 
ATOM      4  C2  OXE d   1      -0.033   2.169   0.999  0.00  0.00    -0.078 A 
ATOM      5  C3  OXE d   1      -1.227   2.884   0.973  0.00  0.00     0.003 A 
ATOM      6  C4  OXE d   1      -2.451   2.216   0.848  0.00  0.00    -0.002 A 
ATOM      7  C5  OXE d   1      -2.486   0.834   0.632  0.00  0.00    -0.002 A 
ATOM      8  C6  OXE d   1      -1.292   0.128   0.539  0.00  0.00     0.003 A 
ENDROOT
TORSDOF 0
ENDMDL
