MODEL 1
REMARK minimizedAffinity 2.89989591
REMARK minimizedRMSD -1
REMARK  0 active torsions:
REMARK  status: ('A' for Active; 'I' for Inactive)
ROOT
ATOM      1  C2' OXE d   1      -2.489   0.146  -0.232  0.00  0.00     0.078 C 
ATOM      2  C1' OXE d   1      -1.673   2.807  -0.599  0.00  0.00     0.078 C 
ATOM      3  C1  OXE d   1      -1.643   2.249   0.802  0.00  0.00    -0.078 A 
ATOM      4  C2  OXE d   1      -2.088   0.961   0.979  0.00  0.00    -0.078 A 
ATOM      5  C3  OXE d   1      -2.031   0.379   2.242  0.00  0.00     0.003 A 
ATOM      6  C4  OXE d   1      -1.668   1.142   3.358  0.00  0.00    -0.002 A 
ATOM      7  C5  OXE d   1      -1.249   2.468   3.205  0.00  0.00    -0.002 A 
ATOM      8  C6  OXE d   1      -1.190   3.022   1.931  0.00  0.00     0.003 A 
ENDROOT
TORSDOF 0
ENDMDL
