MODEL 1
REMARK minimizedAffinity 8.30727768
REMARK minimizedRMSD -1
REMARK  0 active torsions:
REMARK  status: ('A' for Active; 'I' for Inactive)
ROOT
ATOM      1  C2' OXE d   1      -0.331  -0.358   1.159  0.00  0.00     0.078 C 
ATOM      2  C1' OXE d   1      -0.131   2.308   2.016  0.00  0.00     0.078 C 
ATOM      3  C1  OXE d   1      -1.353   1.913   1.225  0.00  0.00    -0.078 A 
ATOM      4  C2  OXE d   1      -1.421   0.618   0.770  0.00  0.00    -0.078 A 
ATOM      5  C3  OXE d   1      -2.551   0.187   0.082  0.00  0.00     0.003 A 
ATOM      6  C4  OXE d   1      -3.550   1.099  -0.282  0.00  0.00    -0.002 A 
ATOM      7  C5  OXE d   1      -3.482   2.432   0.137  0.00  0.00    -0.002 A 
ATOM      8  C6  OXE d   1      -2.413   2.844   0.926  0.00  0.00     0.003 A 
ENDROOT
TORSDOF 0
ENDMDL
