MODEL 1
REMARK minimizedAffinity 8.94263363
REMARK minimizedRMSD -1
REMARK  0 active torsions:
REMARK  status: ('A' for Active; 'I' for Inactive)
ROOT
ATOM      1  C2' OXE d   1       1.566  -1.927   1.447  0.00  0.00     0.078 C 
ATOM      2  C1' OXE d   1       0.255   0.480   0.839  0.00  0.00     0.078 C 
ATOM      3  C1  OXE d   1       1.427   0.080  -0.022  0.00  0.00    -0.078 A 
ATOM      4  C2  OXE d   1       2.091  -1.076   0.312  0.00  0.00    -0.078 A 
ATOM      5  C3  OXE d   1       3.145  -1.519  -0.483  0.00  0.00     0.003 A 
ATOM      6  C4  OXE d   1       3.631  -0.721  -1.525  0.00  0.00    -0.002 A 
ATOM      7  C5  OXE d   1       2.994   0.479  -1.857  0.00  0.00    -0.002 A 
ATOM      8  C6  OXE d   1       1.867   0.872  -1.144  0.00  0.00     0.003 A 
ENDROOT
TORSDOF 0
ENDMDL
