MODEL 1
REMARK minimizedAffinity 3.28468275
REMARK minimizedRMSD -1
REMARK  0 active torsions:
REMARK  status: ('A' for Active; 'I' for Inactive)
ROOT
ATOM      1  C2' OXE d   1       0.276  -0.007  -3.974  0.00  0.00     0.078 C 
ATOM      2  C1' OXE d   1      -0.273   1.858  -5.998  0.00  0.00     0.078 C 
ATOM      3  C1  OXE d   1       1.140   1.781  -5.477  0.00  0.00    -0.078 A 
ATOM      4  C2  OXE d   1       1.390   0.899  -4.454  0.00  0.00    -0.078 A 
ATOM      5  C3  OXE d   1       2.687   0.749  -3.974  0.00  0.00     0.003 A 
ATOM      6  C4  OXE d   1       3.709   1.597  -4.416  0.00  0.00    -0.002 A 
ATOM      7  C5  OXE d   1       3.468   2.531  -5.430  0.00  0.00    -0.002 A 
ATOM      8  C6  OXE d   1       2.202   2.606  -6.000  0.00  0.00     0.003 A 
ENDROOT
TORSDOF 0
ENDMDL
