MODEL 1
REMARK minimizedAffinity 4.69609642
REMARK minimizedRMSD -1
REMARK  0 active torsions:
REMARK  status: ('A' for Active; 'I' for Inactive)
ROOT
ATOM      1  C2' OXE d   1      -5.061   5.508  -5.957  0.00  0.00     0.078 C 
ATOM      2  C1' OXE d   1      -5.964   2.850  -5.982  0.00  0.00     0.078 C 
ATOM      3  C1  OXE d   1      -4.474   3.087  -5.964  0.00  0.00    -0.078 A 
ATOM      4  C2  OXE d   1      -4.041   4.391  -6.000  0.00  0.00    -0.078 A 
ATOM      5  C3  OXE d   1      -2.679   4.667  -5.930  0.00  0.00     0.003 A 
ATOM      6  C4  OXE d   1      -1.742   3.628  -5.980  0.00  0.00    -0.002 A 
ATOM      7  C5  OXE d   1      -2.161   2.293  -5.985  0.00  0.00    -0.002 A 
ATOM      8  C6  OXE d   1      -3.521   2.006  -5.934  0.00  0.00     0.003 A 
ENDROOT
TORSDOF 0
ENDMDL
