MODEL 1
REMARK minimizedAffinity 20.7534313
REMARK minimizedRMSD -1
REMARK  0 active torsions:
REMARK  status: ('A' for Active; 'I' for Inactive)
ROOT
ATOM      1  C2' OXE d   1       3.927   2.876  -0.331  0.00  0.00     0.078 C 
ATOM      2  C1' OXE d   1       3.185   1.757   2.134  0.00  0.00     0.078 C 
ATOM      3  C1  OXE d   1       2.358   1.404   0.923  0.00  0.00    -0.078 A 
ATOM      4  C2  OXE d   1       2.700   1.993  -0.270  0.00  0.00    -0.078 A 
ATOM      5  C3  OXE d   1       2.004   1.659  -1.429  0.00  0.00     0.003 A 
ATOM      6  C4  OXE d   1       0.864   0.849  -1.362  0.00  0.00    -0.002 A 
ATOM      7  C5  OXE d   1       0.475   0.270  -0.150  0.00  0.00    -0.002 A 
ATOM      8  C6  OXE d   1       1.234   0.503   0.992  0.00  0.00     0.003 A 
ENDROOT
TORSDOF 0
ENDMDL
