MODEL 1
REMARK minimizedAffinity -3.94267082
REMARK minimizedRMSD -1
REMARK  0 active torsions:
REMARK  status: ('A' for Active; 'I' for Inactive)
ROOT
ATOM      1  C2' OXE d   1      -0.772   0.020   0.386  0.00  0.00     0.078 C 
ATOM      2  C1' OXE d   1      -1.808   2.462   1.303  0.00  0.00     0.078 C 
ATOM      3  C1  OXE d   1      -0.426   2.466   0.699  0.00  0.00    -0.078 A 
ATOM      4  C2  OXE d   1       0.092   1.259   0.296  0.00  0.00    -0.078 A 
ATOM      5  C3  OXE d   1       1.341   1.214  -0.317  0.00  0.00     0.003 A 
ATOM      6  C4  OXE d   1       2.137   2.364  -0.387  0.00  0.00    -0.002 A 
ATOM      7  C5  OXE d   1       1.645   3.597   0.054  0.00  0.00    -0.002 A 
ATOM      8  C6  OXE d   1       0.352   3.673   0.560  0.00  0.00     0.003 A 
ENDROOT
TORSDOF 0
ENDMDL
