MODEL 1
REMARK minimizedAffinity 6.31636715
REMARK minimizedRMSD -1
REMARK  0 active torsions:
REMARK  status: ('A' for Active; 'I' for Inactive)
ROOT
ATOM      1  C2' OXE d   1      -0.745  -1.566  -0.565  0.00  0.00     0.078 C 
ATOM      2  C1' OXE d   1       1.343   0.081   0.335  0.00  0.00     0.078 C 
ATOM      3  C1  OXE d   1      -0.061   0.629   0.394  0.00  0.00    -0.078 A 
ATOM      4  C2  OXE d   1      -1.071  -0.165  -0.092  0.00  0.00    -0.078 A 
ATOM      5  C3  OXE d   1      -2.391   0.270  -0.011  0.00  0.00     0.003 A 
ATOM      6  C4  OXE d   1      -2.683   1.570   0.418  0.00  0.00    -0.002 A 
ATOM      7  C5  OXE d   1      -1.664   2.411   0.880  0.00  0.00    -0.002 A 
ATOM      8  C6  OXE d   1      -0.356   1.942   0.915  0.00  0.00     0.003 A 
ENDROOT
TORSDOF 0
ENDMDL
