MODEL 1
REMARK minimizedAffinity 8.16214085
REMARK minimizedRMSD -1
REMARK  0 active torsions:
REMARK  status: ('A' for Active; 'I' for Inactive)
ROOT
ATOM      1  C2' OXE d   1       2.462  -0.229   0.556  0.00  0.00     0.078 C 
ATOM      2  C1' OXE d   1       2.874   2.159   1.973  0.00  0.00     0.078 C 
ATOM      3  C1  OXE d   1       1.451   1.726   1.722  0.00  0.00    -0.078 A 
ATOM      4  C2  OXE d   1       1.259   0.581   0.988  0.00  0.00    -0.078 A 
ATOM      5  C3  OXE d   1      -0.033   0.108   0.775  0.00  0.00     0.003 A 
ATOM      6  C4  OXE d   1      -1.140   0.868   1.169  0.00  0.00    -0.002 A 
ATOM      7  C5  OXE d   1      -0.966   2.058   1.884  0.00  0.00    -0.002 A 
ATOM      8  C6  OXE d   1       0.320   2.478   2.205  0.00  0.00     0.003 A 
ENDROOT
TORSDOF 0
ENDMDL
