MODEL 1
REMARK minimizedAffinity -4.86024189
REMARK minimizedRMSD -1
REMARK  0 active torsions:
REMARK  status: ('A' for Active; 'I' for Inactive)
ROOT
ATOM      1  C2' OXE d   1      -0.179  -1.496   0.145  0.00  0.00     0.078 C 
ATOM      2  C1' OXE d   1       2.423  -0.666   0.793  0.00  0.00     0.078 C 
ATOM      3  C1  OXE d   1       1.340   0.383   0.754  0.00  0.00    -0.078 A 
ATOM      4  C2  OXE d   1       0.079  -0.024   0.390  0.00  0.00    -0.078 A 
ATOM      5  C3  OXE d   1      -0.969   0.892   0.391  0.00  0.00     0.003 A 
ATOM      6  C4  OXE d   1      -0.720   2.253   0.609  0.00  0.00    -0.002 A 
ATOM      7  C5  OXE d   1       0.565   2.695   0.942  0.00  0.00    -0.002 A 
ATOM      8  C6  OXE d   1       1.595   1.769   1.060  0.00  0.00     0.003 A 
ENDROOT
TORSDOF 0
ENDMDL
