MODEL 1
REMARK minimizedAffinity -4.03590727
REMARK minimizedRMSD -1
REMARK  0 active torsions:
REMARK  status: ('A' for Active; 'I' for Inactive)
ROOT
ATOM      1  C2' OXE d   1       0.950   0.566   0.455  0.00  0.00     0.078 C 
ATOM      2  C1' OXE d   1      -1.464   1.587  -0.549  0.00  0.00     0.078 C 
ATOM      3  C1  OXE d   1      -1.208   0.108  -0.703  0.00  0.00    -0.078 A 
ATOM      4  C2  OXE d   1      -0.003  -0.374  -0.250  0.00  0.00    -0.078 A 
ATOM      5  C3  OXE d   1       0.262  -1.739  -0.318  0.00  0.00     0.003 A 
ATOM      6  C4  OXE d   1      -0.621  -2.601  -0.980  0.00  0.00    -0.002 A 
ATOM      7  C5  OXE d   1      -1.836  -2.123  -1.484  0.00  0.00    -0.002 A 
ATOM      8  C6  OXE d   1      -2.163  -0.782  -1.316  0.00  0.00     0.003 A 
ENDROOT
TORSDOF 0
ENDMDL
