MODEL 1
REMARK minimizedAffinity -4.34467268
REMARK minimizedRMSD -1
REMARK  0 active torsions:
REMARK  status: ('A' for Active; 'I' for Inactive)
ROOT
ATOM      1  C2' OXE d   1       0.897  -2.509  -2.547  0.00  0.00     0.078 C 
ATOM      2  C1' OXE d   1       0.069  -1.384  -0.112  0.00  0.00     0.078 C 
ATOM      3  C1  OXE d   1      -0.660  -2.609  -0.606  0.00  0.00    -0.078 A 
ATOM      4  C2  OXE d   1      -0.279  -3.125  -1.821  0.00  0.00    -0.078 A 
ATOM      5  C3  OXE d   1      -0.883  -4.285  -2.297  0.00  0.00     0.003 A 
ATOM      6  C4  OXE d   1      -1.977  -4.842  -1.624  0.00  0.00    -0.002 A 
ATOM      7  C5  OXE d   1      -2.407  -4.309  -0.404  0.00  0.00    -0.002 A 
ATOM      8  C6  OXE d   1      -1.734  -3.220   0.138  0.00  0.00     0.003 A 
ENDROOT
TORSDOF 0
ENDMDL
