MODEL 1
REMARK minimizedAffinity -1.73475158
REMARK minimizedRMSD -1
REMARK  0 active torsions:
REMARK  status: ('A' for Active; 'I' for Inactive)
ROOT
ATOM      1  C2' OXE d   1      -3.602   3.006  -3.090  0.00  0.00     0.078 C 
ATOM      2  C1' OXE d   1      -3.548   0.715  -1.468  0.00  0.00     0.078 C 
ATOM      3  C1  OXE d   1      -4.433   1.859  -1.041  0.00  0.00    -0.078 A 
ATOM      4  C2  OXE d   1      -4.417   2.994  -1.815  0.00  0.00    -0.078 A 
ATOM      5  C3  OXE d   1      -5.256   4.059  -1.496  0.00  0.00     0.003 A 
ATOM      6  C4  OXE d   1      -5.999   4.044  -0.309  0.00  0.00    -0.002 A 
ATOM      7  C5  OXE d   1      -5.999   2.913   0.514  0.00  0.00    -0.002 A 
ATOM      8  C6  OXE d   1      -5.256   1.799   0.142  0.00  0.00     0.003 A 
ENDROOT
TORSDOF 0
ENDMDL
