MODEL 1
REMARK minimizedAffinity -4.25821733
REMARK minimizedRMSD -1
REMARK  0 active torsions:
REMARK  status: ('A' for Active; 'I' for Inactive)
ROOT
ATOM      1  C2' OXE d   1      -1.558  -0.604   0.086  0.00  0.00     0.078 C 
ATOM      2  C1' OXE d   1       0.901  -0.219  -1.212  0.00  0.00     0.078 C 
ATOM      3  C1  OXE d   1       0.186  -1.529  -1.433  0.00  0.00    -0.078 A 
ATOM      4  C2  OXE d   1      -0.994  -1.727  -0.757  0.00  0.00    -0.078 A 
ATOM      5  C3  OXE d   1      -1.721  -2.895  -0.968  0.00  0.00     0.003 A 
ATOM      6  C4  OXE d   1      -1.187  -3.933  -1.742  0.00  0.00    -0.002 A 
ATOM      7  C5  OXE d   1       0.032  -3.767  -2.407  0.00  0.00    -0.002 A 
ATOM      8  C6  OXE d   1       0.709  -2.558  -2.298  0.00  0.00     0.003 A 
ENDROOT
TORSDOF 0
ENDMDL
