MODEL 1
REMARK minimizedAffinity -0.0588498637
REMARK minimizedRMSD -1
REMARK  0 active torsions:
REMARK  status: ('A' for Active; 'I' for Inactive)
ROOT
ATOM      1  C2' OXE d   1       1.217  -0.315  -0.618  0.00  0.00     0.078 C 
ATOM      2  C1' OXE d   1      -1.286  -0.920   0.500  0.00  0.00     0.078 C 
ATOM      3  C1  OXE d   1      -0.781  -1.803  -0.615  0.00  0.00    -0.078 A 
ATOM      4  C2  OXE d   1       0.424  -1.471  -1.187  0.00  0.00    -0.078 A 
ATOM      5  C3  OXE d   1       0.961  -2.283  -2.181  0.00  0.00     0.003 A 
ATOM      6  C4  OXE d   1       0.216  -3.345  -2.709  0.00  0.00    -0.002 A 
ATOM      7  C5  OXE d   1      -1.030  -3.676  -2.167  0.00  0.00    -0.002 A 
ATOM      8  C6  OXE d   1      -1.523  -2.942  -1.094  0.00  0.00     0.003 A 
ENDROOT
TORSDOF 0
ENDMDL
