MODEL 1
REMARK minimizedAffinity -0.252886355
REMARK minimizedRMSD -1
REMARK  0 active torsions:
REMARK  status: ('A' for Active; 'I' for Inactive)
ROOT
ATOM      1  C2' OXE d   1       1.100   2.744   2.466  0.00  0.00     0.078 C 
ATOM      2  C1' OXE d   1       1.655   0.498   0.878  0.00  0.00     0.078 C 
ATOM      3  C1  OXE d   1       1.850   1.860   0.261  0.00  0.00    -0.078 A 
ATOM      4  C2  OXE d   1       1.531   2.953   1.031  0.00  0.00    -0.078 A 
ATOM      5  C3  OXE d   1       1.744   4.235   0.530  0.00  0.00     0.003 A 
ATOM      6  C4  OXE d   1       2.133   4.419  -0.803  0.00  0.00    -0.002 A 
ATOM      7  C5  OXE d   1       2.425   3.319  -1.616  0.00  0.00    -0.002 A 
ATOM      8  C6  OXE d   1       2.329   2.036  -1.087  0.00  0.00     0.003 A 
ENDROOT
TORSDOF 0
ENDMDL
