MODEL 1
REMARK minimizedAffinity 0.974233329
REMARK minimizedRMSD -1
REMARK  0 active torsions:
REMARK  status: ('A' for Active; 'I' for Inactive)
ROOT
ATOM      1  C2' OXE d   1       1.272   4.835   0.269  0.00  0.00     0.078 C 
ATOM      2  C1' OXE d   1       0.964   3.223   2.547  0.00  0.00     0.078 C 
ATOM      3  C1  OXE d   1       1.651   2.621   1.347  0.00  0.00    -0.078 A 
ATOM      4  C2  OXE d   1       1.756   3.402   0.221  0.00  0.00    -0.078 A 
ATOM      5  C3  OXE d   1       2.429   2.914  -0.896  0.00  0.00     0.003 A 
ATOM      6  C4  OXE d   1       2.865   1.585  -0.936  0.00  0.00    -0.002 A 
ATOM      7  C5  OXE d   1       2.733   0.760   0.186  0.00  0.00    -0.002 A 
ATOM      8  C6  OXE d   1       2.168   1.275   1.347  0.00  0.00     0.003 A 
ENDROOT
TORSDOF 0
ENDMDL
