MODEL 1
REMARK minimizedAffinity 15.4458799
REMARK minimizedRMSD -1
REMARK  0 active torsions:
REMARK  status: ('A' for Active; 'I' for Inactive)
ROOT
ATOM      1  C1  DEN d   1       1.611  -0.212   3.963  0.00  0.00     0.130 A 
ATOM      2  C2  DEN d   1       1.955  -1.614   3.743  0.00  0.00    -0.031 A 
ATOM      3  C3  DEN d   1       2.671  -1.713   2.455  0.00  0.00     0.027 A 
ATOM      4  C4  DEN d   1       3.281   0.161   0.791  0.00  0.00     0.027 A 
ATOM      5  C5  DEN d   1       3.190   1.512   0.539  0.00  0.00    -0.003 A 
ATOM      6  C6  DEN d   1       2.541   2.371   1.386  0.00  0.00     0.001 A 
ATOM      7  C7  DEN d   1       1.998   1.895   2.550  0.00  0.00     0.017 A 
ATOM      8  C8  DEN d   1       2.080   0.532   2.808  0.00  0.00    -0.094 A 
ATOM      9  C9  DEN d   1       2.750  -0.317   1.944  0.00  0.00    -0.072 A 
ENDROOT
TORSDOF 0
ENDMDL
