MODEL 1
REMARK minimizedAffinity 11.4999409
REMARK minimizedRMSD -1
REMARK  0 active torsions:
REMARK  status: ('A' for Active; 'I' for Inactive)
ROOT
ATOM      1  C1  DEN d   1       2.445  -2.946   4.644  0.00  0.00     0.130 A 
ATOM      2  C2  DEN d   1       3.260  -3.963   3.985  0.00  0.00    -0.031 A 
ATOM      3  C3  DEN d   1       3.602  -3.470   2.636  0.00  0.00     0.027 A 
ATOM      4  C4  DEN d   1       2.957  -1.240   1.511  0.00  0.00     0.027 A 
ATOM      5  C5  DEN d   1       2.265  -0.060   1.673  0.00  0.00    -0.003 A 
ATOM      6  C6  DEN d   1       1.562   0.224   2.814  0.00  0.00     0.001 A 
ATOM      7  C7  DEN d   1       1.572  -0.665   3.856  0.00  0.00     0.017 A 
ATOM      8  C8  DEN d   1       2.262  -1.860   3.698  0.00  0.00    -0.094 A 
ATOM      9  C9  DEN d   1       2.976  -2.123   2.541  0.00  0.00    -0.072 A 
ENDROOT
TORSDOF 0
ENDMDL
