MODEL 1
REMARK minimizedAffinity 9.21626377
REMARK minimizedRMSD -1
REMARK  0 active torsions:
REMARK  status: ('A' for Active; 'I' for Inactive)
ROOT
ATOM      1  C1  DEN d   1       5.977  -4.837  -5.358  0.00  0.00     0.130 A 
ATOM      2  C2  DEN d   1       5.788  -5.516  -4.079  0.00  0.00    -0.031 A 
ATOM      3  C3  DEN d   1       5.553  -4.487  -3.046  0.00  0.00     0.027 A 
ATOM      4  C4  DEN d   1       5.460  -1.923  -3.302  0.00  0.00     0.027 A 
ATOM      5  C5  DEN d   1       5.573  -0.879  -4.194  0.00  0.00    -0.003 A 
ATOM      6  C6  DEN d   1       5.859  -1.077  -5.518  0.00  0.00     0.001 A 
ATOM      7  C7  DEN d   1       5.999  -2.353  -5.999  0.00  0.00     0.017 A 
ATOM      8  C8  DEN d   1       5.893  -3.410  -5.105  0.00  0.00    -0.094 A 
ATOM      9  C9  DEN d   1       5.591  -3.189  -3.772  0.00  0.00    -0.072 A 
ENDROOT
TORSDOF 0
ENDMDL
