MODEL 1
REMARK minimizedAffinity 2.21345472
REMARK minimizedRMSD -1
REMARK  0 active torsions:
REMARK  status: ('A' for Active; 'I' for Inactive)
ROOT
ATOM      1  C1  DEN d   1       1.895  -0.047   3.561  0.00  0.00     0.130 A 
ATOM      2  C2  DEN d   1       2.597  -1.324   3.466  0.00  0.00    -0.031 A 
ATOM      3  C3  DEN d   1       3.380  -1.322   2.214  0.00  0.00     0.027 A 
ATOM      4  C4  DEN d   1       3.575   0.525   0.425  0.00  0.00     0.027 A 
ATOM      5  C5  DEN d   1       3.154   1.785   0.061  0.00  0.00    -0.003 A 
ATOM      6  C6  DEN d   1       2.264   2.503   0.816  0.00  0.00     0.001 A 
ATOM      7  C7  DEN d   1       1.802   1.985   1.996  0.00  0.00     0.017 A 
ATOM      8  C8  DEN d   1       2.216   0.712   2.365  0.00  0.00    -0.094 A 
ATOM      9  C9  DEN d   1       3.125   0.006   1.595  0.00  0.00    -0.072 A 
ENDROOT
TORSDOF 0
ENDMDL
