MODEL 1
REMARK minimizedAffinity 20.0414944
REMARK minimizedRMSD -1
REMARK  0 active torsions:
REMARK  status: ('A' for Active; 'I' for Inactive)
ROOT
ATOM      1  C1  DEN d   1       3.148  -3.833   3.037  0.00  0.00     0.130 A 
ATOM      2  C2  DEN d   1       3.497  -3.949   4.450  0.00  0.00    -0.031 A 
ATOM      3  C3  DEN d   1       3.209  -2.654   5.099  0.00  0.00     0.027 A 
ATOM      4  C4  DEN d   1       2.255  -0.494   4.060  0.00  0.00     0.027 A 
ATOM      5  C5  DEN d   1       1.816   0.090   2.893  0.00  0.00    -0.003 A 
ATOM      6  C6  DEN d   1       1.821  -0.575   1.695  0.00  0.00     0.001 A 
ATOM      7  C7  DEN d   1       2.233  -1.880   1.646  0.00  0.00     0.017 A 
ATOM      8  C8  DEN d   1       2.685  -2.475   2.817  0.00  0.00    -0.094 A 
ATOM      9  C9  DEN d   1       2.660  -1.789   4.020  0.00  0.00    -0.072 A 
ENDROOT
TORSDOF 0
ENDMDL
