MODEL 1
REMARK minimizedAffinity 18.5704784
REMARK minimizedRMSD -1
REMARK  0 active torsions:
REMARK  status: ('A' for Active; 'I' for Inactive)
ROOT
ATOM      1  C1  DEN d   1       1.989  -3.555  -0.739  0.00  0.00     0.130 A 
ATOM      2  C2  DEN d   1       1.876  -2.197  -1.264  0.00  0.00    -0.031 A 
ATOM      3  C3  DEN d   1       0.442  -1.901  -1.459  0.00  0.00     0.027 A 
ATOM      4  C4  DEN d   1      -1.602  -3.403  -0.995  0.00  0.00     0.027 A 
ATOM      5  C5  DEN d   1      -2.007  -4.644  -0.555  0.00  0.00    -0.003 A 
ATOM      6  C6  DEN d   1      -1.114  -5.613  -0.181  0.00  0.00     0.001 A 
ATOM      7  C7  DEN d   1       0.229  -5.341  -0.197  0.00  0.00     0.017 A 
ATOM      8  C8  DEN d   1       0.645  -4.095  -0.646  0.00  0.00    -0.094 A 
ATOM      9  C9  DEN d   1      -0.274  -3.124  -1.008  0.00  0.00    -0.072 A 
ENDROOT
TORSDOF 0
ENDMDL
