MODEL 1
REMARK minimizedAffinity 5.59334326
REMARK minimizedRMSD -1
REMARK  0 active torsions:
REMARK  status: ('A' for Active; 'I' for Inactive)
ROOT
ATOM      1  C1  DEN d   1       4.424  -1.354   5.995  0.00  0.00     0.130 A 
ATOM      2  C2  DEN d   1       4.819  -2.719   5.658  0.00  0.00    -0.031 A 
ATOM      3  C3  DEN d   1       4.160  -3.085   4.388  0.00  0.00     0.027 A 
ATOM      4  C4  DEN d   1       2.578  -1.676   2.916  0.00  0.00     0.027 A 
ATOM      5  C5  DEN d   1       1.941  -0.461   2.797  0.00  0.00    -0.003 A 
ATOM      6  C6  DEN d   1       2.059   0.521   3.744  0.00  0.00     0.001 A 
ATOM      7  C7  DEN d   1       2.868   0.322   4.832  0.00  0.00     0.017 A 
ATOM      8  C8  DEN d   1       3.508  -0.904   4.963  0.00  0.00    -0.094 A 
ATOM      9  C9  DEN d   1       3.386  -1.879   3.988  0.00  0.00    -0.072 A 
ENDROOT
TORSDOF 0
ENDMDL
