MODEL 1
REMARK minimizedAffinity 6.40311146
REMARK minimizedRMSD -1
REMARK  0 active torsions:
REMARK  status: ('A' for Active; 'I' for Inactive)
ROOT
ATOM      1  C1  DEN d   1       2.070  -5.871   5.997  0.00  0.00     0.130 A 
ATOM      2  C2  DEN d   1       0.716  -5.495   5.601  0.00  0.00    -0.031 A 
ATOM      3  C3  DEN d   1       0.796  -4.229   4.844  0.00  0.00     0.027 A 
ATOM      4  C4  DEN d   1       2.876  -2.826   4.246  0.00  0.00     0.027 A 
ATOM      5  C5  DEN d   1       4.244  -2.736   4.375  0.00  0.00    -0.003 A 
ATOM      6  C6  DEN d   1       4.974  -3.659   5.076  0.00  0.00     0.001 A 
ATOM      7  C7  DEN d   1       4.344  -4.737   5.638  0.00  0.00     0.017 A 
ATOM      8  C8  DEN d   1       2.963  -4.831   5.519  0.00  0.00    -0.094 A 
ATOM      9  C9  DEN d   1       2.245  -3.894   4.796  0.00  0.00    -0.072 A 
ENDROOT
TORSDOF 0
ENDMDL
