MODEL 1
REMARK minimizedAffinity 10.3403349
REMARK minimizedRMSD -1
REMARK  0 active torsions:
REMARK  status: ('A' for Active; 'I' for Inactive)
ROOT
ATOM      1  C1  DEN d   1       2.932   2.059   4.684  0.00  0.00     0.130 A 
ATOM      2  C2  DEN d   1       3.119   1.445   5.996  0.00  0.00    -0.031 A 
ATOM      3  C3  DEN d   1       2.925  -0.012   5.851  0.00  0.00     0.027 A 
ATOM      4  C4  DEN d   1       2.362  -1.370   3.732  0.00  0.00     0.027 A 
ATOM      5  C5  DEN d   1       2.096  -1.287   2.383  0.00  0.00    -0.003 A 
ATOM      6  C6  DEN d   1       2.057  -0.090   1.719  0.00  0.00     0.001 A 
ATOM      7  C7  DEN d   1       2.332   1.070   2.394  0.00  0.00     0.017 A 
ATOM      8  C8  DEN d   1       2.594   0.995   3.756  0.00  0.00    -0.094 A 
ATOM      9  C9  DEN d   1       2.641  -0.226   4.406  0.00  0.00    -0.072 A 
ENDROOT
TORSDOF 0
ENDMDL
