MODEL 1
REMARK minimizedAffinity 1.93797529
REMARK minimizedRMSD -1
REMARK  0 active torsions:
REMARK  status: ('A' for Active; 'I' for Inactive)
ROOT
ATOM      1  C1  DEN d   1       0.506  -4.507   4.689  0.00  0.00     0.130 A 
ATOM      2  C2  DEN d   1       0.776  -5.590   5.631  0.00  0.00    -0.031 A 
ATOM      3  C3  DEN d   1       2.204  -5.529   6.000  0.00  0.00     0.027 A 
ATOM      4  C4  DEN d   1       4.014  -3.867   5.214  0.00  0.00     0.027 A 
ATOM      5  C5  DEN d   1       4.265  -2.780   4.407  0.00  0.00    -0.003 A 
ATOM      6  C6  DEN d   1       3.296  -2.217   3.618  0.00  0.00     0.001 A 
ATOM      7  C7  DEN d   1       2.020  -2.712   3.653  0.00  0.00     0.017 A 
ATOM      8  C8  DEN d   1       1.761  -3.813   4.459  0.00  0.00    -0.094 A 
ATOM      9  C9  DEN d   1       2.750  -4.360   5.258  0.00  0.00    -0.072 A 
ENDROOT
TORSDOF 0
ENDMDL
