MODEL 1
REMARK minimizedAffinity 8.59580231
REMARK minimizedRMSD -1
REMARK  1 active torsions:
REMARK  status: ('A' for Active; 'I' for Inactive)
REMARK    1  A    between atoms: C1_2  and  C2_3 
ROOT
ATOM      1  C2  UNL d   1      -3.976   5.262   4.509  0.00  0.00    -0.077 A 
ATOM      2  C3  UNL d   1      -4.071   3.864   4.475  0.00  0.00     0.002 A 
ATOM      3  C4  UNL d   1      -5.071   3.206   5.193  0.00  0.00     0.002 A 
ATOM      4  C5  UNL d   1      -5.987   3.938   5.946  0.00  0.00    -0.004 A 
ATOM      5  C6  UNL d   1      -5.900   5.329   5.988  0.00  0.00     0.002 A 
ATOM      6  C7  UNL d   1      -4.900   5.988   5.272  0.00  0.00     0.002 A 
ENDROOT
BRANCH   1   7
ATOM      7  C1  UNL d   1      -2.928   5.977   3.697  0.00  0.00     0.055 C 
ATOM      8  C   UNL d   1      -1.544   5.396   3.945  0.00  0.00     0.019 C 
ENDBRANCH   1   7
TORSDOF 1
ENDMDL
