MODEL 1
REMARK minimizedAffinity 0.545858204
REMARK minimizedRMSD -1
REMARK  1 active torsions:
REMARK  status: ('A' for Active; 'I' for Inactive)
REMARK    1  A    between atoms: C1_2  and  C2_3 
ROOT
ATOM      1  C2  UNL d   1       2.158   1.220   5.210  0.00  0.00    -0.077 A 
ATOM      2  C3  UNL d   1       1.908   1.611   3.887  0.00  0.00     0.002 A 
ATOM      3  C4  UNL d   1       2.871   2.317   3.164  0.00  0.00     0.002 A 
ATOM      4  C5  UNL d   1       4.092   2.635   3.754  0.00  0.00    -0.004 A 
ATOM      5  C6  UNL d   1       4.351   2.253   5.070  0.00  0.00     0.002 A 
ATOM      6  C7  UNL d   1       3.388   1.548   5.794  0.00  0.00     0.002 A 
ENDROOT
BRANCH   1   7
ATOM      7  C1  UNL d   1       1.140   0.416   5.974  0.00  0.00     0.055 C 
ATOM      8  C   UNL d   1      -0.212   1.115   6.000  0.00  0.00     0.019 C 
ENDBRANCH   1   7
TORSDOF 1
ENDMDL
