MODEL 1
REMARK minimizedAffinity 7.43867779
REMARK minimizedRMSD -1
REMARK  1 active torsions:
REMARK  status: ('A' for Active; 'I' for Inactive)
REMARK    1  A    between atoms: C1_2  and  C2_3 
ROOT
ATOM      1  C2  UNL d   1       0.738  -1.763  -0.701  0.00  0.00    -0.077 A 
ATOM      2  C3  UNL d   1      -0.282  -1.065  -1.363  0.00  0.00     0.002 A 
ATOM      3  C4  UNL d   1      -1.548  -1.635  -1.510  0.00  0.00     0.002 A 
ATOM      4  C5  UNL d   1      -1.807  -2.903  -0.994  0.00  0.00    -0.004 A 
ATOM      5  C6  UNL d   1      -0.799  -3.606  -0.335  0.00  0.00     0.002 A 
ATOM      6  C7  UNL d   1       0.468  -3.038  -0.188  0.00  0.00     0.002 A 
ENDROOT
BRANCH   1   7
ATOM      7  C1  UNL d   1       2.090  -1.129  -0.498  0.00  0.00     0.055 C 
ATOM      8  C   UNL d   1       2.015   0.386  -0.623  0.00  0.00     0.019 C 
ENDBRANCH   1   7
TORSDOF 1
ENDMDL
