MODEL 1
REMARK minimizedAffinity 1.88886738
REMARK minimizedRMSD -1
REMARK  1 active torsions:
REMARK  status: ('A' for Active; 'I' for Inactive)
REMARK    1  A    between atoms: C1_2  and  C2_3 
ROOT
ATOM      1  C2  UNL d   1       4.546   2.064   0.731  0.00  0.00    -0.077 A 
ATOM      2  C3  UNL d   1       4.911   2.557  -0.530  0.00  0.00     0.002 A 
ATOM      3  C4  UNL d   1       4.403   1.971  -1.691  0.00  0.00     0.002 A 
ATOM      4  C5  UNL d   1       3.526   0.893  -1.603  0.00  0.00    -0.004 A 
ATOM      5  C6  UNL d   1       3.159   0.394  -0.354  0.00  0.00     0.002 A 
ATOM      6  C7  UNL d   1       3.666   0.978   0.808  0.00  0.00     0.002 A 
ENDROOT
BRANCH   1   7
ATOM      7  C1  UNL d   1       5.054   2.726   1.985  0.00  0.00     0.055 C 
ATOM      8  C   UNL d   1       3.959   2.832   3.037  0.00  0.00     0.019 C 
ENDBRANCH   1   7
TORSDOF 1
ENDMDL
