MODEL 1
REMARK minimizedAffinity 7.35829449
REMARK minimizedRMSD -1
REMARK  1 active torsions:
REMARK  status: ('A' for Active; 'I' for Inactive)
REMARK    1  A    between atoms: C1_2  and  C2_3 
ROOT
ATOM      1  C2  UNL d   1      -3.549   0.532  -1.727  0.00  0.00    -0.077 A 
ATOM      2  C3  UNL d   1      -3.638   0.258  -0.355  0.00  0.00     0.002 A 
ATOM      3  C4  UNL d   1      -4.857   0.391   0.314  0.00  0.00     0.002 A 
ATOM      4  C5  UNL d   1      -5.995   0.794  -0.382  0.00  0.00    -0.004 A 
ATOM      5  C6  UNL d   1      -5.916   1.071  -1.746  0.00  0.00     0.002 A 
ATOM      6  C7  UNL d   1      -4.698   0.940  -2.416  0.00  0.00     0.002 A 
ENDROOT
BRANCH   1   7
ATOM      7  C1  UNL d   1      -2.247   0.342  -2.460  0.00  0.00     0.055 C 
ATOM      8  C   UNL d   1      -1.134  -0.081  -1.512  0.00  0.00     0.019 C 
ENDBRANCH   1   7
TORSDOF 1
ENDMDL
