MODEL 1
REMARK minimizedAffinity -3.87532806
REMARK minimizedRMSD -1
REMARK  0 active torsions:
REMARK  status: ('A' for Active; 'I' for Inactive)
ROOT
ATOM      1  C   UNL d   1       0.021   0.324   2.401  0.00  0.00     0.020 A 
ATOM      2  C1  UNL d   1       1.062  -0.598   2.298  0.00  0.00     0.020 A 
ATOM      3  C2  UNL d   1       1.473  -1.050   1.042  0.00  0.00     0.034 A 
ATOM      4  C3  UNL d   1       0.842  -0.580  -0.115  0.00  0.00     0.017 A 
ATOM      5  C4  UNL d   1      -0.202   0.345  -0.011  0.00  0.00     0.017 A 
ATOM      6  C5  UNL d   1      -0.609   0.795   1.249  0.00  0.00     0.034 A 
ATOM      7 Cl   UNL d   1      -1.028   0.971  -1.395  0.00  0.00    -0.070 Cl
ATOM      8 Cl1  UNL d   1       1.402  -1.182  -1.635  0.00  0.00    -0.070 Cl
ENDROOT
TORSDOF 0
ENDMDL
