MODEL 1
REMARK minimizedAffinity -2.81637478
REMARK minimizedRMSD -1
REMARK  0 active torsions:
REMARK  status: ('A' for Active; 'I' for Inactive)
ROOT
ATOM      1  C   UNL d   1      -0.461   3.028  -2.074  0.00  0.00     0.020 A 
ATOM      2  C1  UNL d   1      -0.619   1.656  -2.268  0.00  0.00     0.020 A 
ATOM      3  C2  UNL d   1      -1.855   1.146  -2.670  0.00  0.00     0.034 A 
ATOM      4  C3  UNL d   1      -2.938   2.007  -2.879  0.00  0.00     0.017 A 
ATOM      5  C4  UNL d   1      -2.779   3.384  -2.684  0.00  0.00     0.017 A 
ATOM      6  C5  UNL d   1      -1.539   3.890  -2.282  0.00  0.00     0.034 A 
ATOM      7 Cl   UNL d   1      -4.069   4.509  -2.922  0.00  0.00    -0.070 Cl
ATOM      8 Cl1  UNL d   1      -4.437   1.307  -3.375  0.00  0.00    -0.070 Cl
ENDROOT
TORSDOF 0
ENDMDL
