MODEL 1
REMARK minimizedAffinity -3.20813322
REMARK minimizedRMSD -1
REMARK  0 active torsions:
REMARK  status: ('A' for Active; 'I' for Inactive)
ROOT
ATOM      1  C   UNL d   1      -0.847  -0.066   2.261  0.00  0.00     0.020 A 
ATOM      2  C1  UNL d   1       0.231  -0.930   2.453  0.00  0.00     0.020 A 
ATOM      3  C2  UNL d   1       1.051  -1.274   1.377  0.00  0.00     0.034 A 
ATOM      4  C3  UNL d   1       0.795  -0.754   0.103  0.00  0.00     0.017 A 
ATOM      5  C4  UNL d   1      -0.287   0.113  -0.090  0.00  0.00     0.017 A 
ATOM      6  C5  UNL d   1      -1.105   0.454   0.992  0.00  0.00     0.034 A 
ATOM      7 Cl   UNL d   1      -0.666   0.794  -1.632  0.00  0.00    -0.070 Cl
ATOM      8 Cl1  UNL d   1       1.851  -1.222  -1.183  0.00  0.00    -0.070 Cl
ENDROOT
TORSDOF 0
ENDMDL
