MODEL 1
REMARK minimizedAffinity -3.97608638
REMARK minimizedRMSD -1
REMARK  0 active torsions:
REMARK  status: ('A' for Active; 'I' for Inactive)
ROOT
ATOM      1  C   UNL d   1      -1.027  -0.115   1.993  0.00  0.00     0.020 A 
ATOM      2  C1  UNL d   1       0.170  -0.643   2.473  0.00  0.00     0.020 A 
ATOM      3  C2  UNL d   1       1.210  -0.933   1.587  0.00  0.00     0.034 A 
ATOM      4  C3  UNL d   1       1.055  -0.695   0.217  0.00  0.00     0.017 A 
ATOM      5  C4  UNL d   1      -0.148  -0.164  -0.264  0.00  0.00     0.017 A 
ATOM      6  C5  UNL d   1      -1.186   0.124   0.627  0.00  0.00     0.034 A 
ATOM      7 Cl   UNL d   1      -0.414   0.157  -1.941  0.00  0.00    -0.070 Cl
ATOM      8 Cl1  UNL d   1       2.383  -1.076  -0.821  0.00  0.00    -0.070 Cl
ENDROOT
TORSDOF 0
ENDMDL
