MODEL 1
REMARK minimizedAffinity -4.38886261
REMARK minimizedRMSD -1
REMARK  0 active torsions:
REMARK  status: ('A' for Active; 'I' for Inactive)
ROOT
ATOM      1  C   UNL d   1      -1.552   0.091   0.077  0.00  0.00     0.020 A 
ATOM      2  C1  UNL d   1      -0.896  -0.036  -1.147  0.00  0.00     0.020 A 
ATOM      3  C2  UNL d   1       0.398  -0.559  -1.195  0.00  0.00     0.034 A 
ATOM      4  C3  UNL d   1       1.040  -0.958  -0.017  0.00  0.00     0.017 A 
ATOM      5  C4  UNL d   1       0.380  -0.831   1.211  0.00  0.00     0.017 A 
ATOM      6  C5  UNL d   1      -0.915  -0.306   1.253  0.00  0.00     0.034 A 
ATOM      7 Cl   UNL d   1       1.107  -1.301   2.707  0.00  0.00    -0.070 Cl
ATOM      8 Cl1  UNL d   1       2.639  -1.597  -0.150  0.00  0.00    -0.070 Cl
ENDROOT
TORSDOF 0
ENDMDL
