MODEL 1
REMARK minimizedAffinity -4.74110365
REMARK minimizedRMSD -1
REMARK  0 active torsions:
REMARK  status: ('A' for Active; 'I' for Inactive)
ROOT
ATOM      1  C   UNL d   1       1.613  -1.362   2.884  0.00  0.00     0.020 A 
ATOM      2  C1  UNL d   1       2.588  -1.789   1.983  0.00  0.00     0.020 A 
ATOM      3  C2  UNL d   1       2.323  -1.779   0.612  0.00  0.00     0.034 A 
ATOM      4  C3  UNL d   1       1.081  -1.341   0.138  0.00  0.00     0.017 A 
ATOM      5  C4  UNL d   1       0.103  -0.913   1.043  0.00  0.00     0.017 A 
ATOM      6  C5  UNL d   1       0.374  -0.925   2.415  0.00  0.00     0.034 A 
ATOM      7 Cl   UNL d   1      -1.453  -0.359   0.535  0.00  0.00    -0.070 Cl
ATOM      8 Cl1  UNL d   1       0.822  -1.354  -1.570  0.00  0.00    -0.070 Cl
ENDROOT
TORSDOF 0
ENDMDL
