MODEL 1
REMARK minimizedAffinity -2.8982687
REMARK minimizedRMSD -1
REMARK  0 active torsions:
REMARK  status: ('A' for Active; 'I' for Inactive)
ROOT
ATOM      1  C   UNL d   1       1.037  -0.977   1.289  0.00  0.00     0.020 A 
ATOM      2  C1  UNL d   1       1.723  -0.486   0.178  0.00  0.00     0.020 A 
ATOM      3  C2  UNL d   1       1.033   0.209  -0.817  0.00  0.00     0.034 A 
ATOM      4  C3  UNL d   1      -0.346   0.416  -0.704  0.00  0.00     0.017 A 
ATOM      5  C4  UNL d   1      -1.034  -0.076   0.411  0.00  0.00     0.017 A 
ATOM      6  C5  UNL d   1      -0.338  -0.772   1.405  0.00  0.00     0.034 A 
ATOM      7 Cl   UNL d   1      -2.736   0.140   0.620  0.00  0.00    -0.070 Cl
ATOM      8 Cl1  UNL d   1      -1.135   1.285  -1.972  0.00  0.00    -0.070 Cl
ENDROOT
TORSDOF 0
ENDMDL
