MODEL 1
REMARK minimizedAffinity -3.56991696
REMARK minimizedRMSD -1
REMARK  0 active torsions:
REMARK  status: ('A' for Active; 'I' for Inactive)
ROOT
ATOM      1  C   UNL d   1       0.041  -0.717   2.514  0.00  0.00     0.020 A 
ATOM      2  C1  UNL d   1      -0.962   0.089   1.976  0.00  0.00     0.020 A 
ATOM      3  C2  UNL d   1      -0.996   0.338   0.602  0.00  0.00     0.034 A 
ATOM      4  C3  UNL d   1      -0.026  -0.220  -0.239  0.00  0.00     0.017 A 
ATOM      5  C4  UNL d   1       0.980  -1.029   0.302  0.00  0.00     0.017 A 
ATOM      6  C5  UNL d   1       1.010  -1.274   1.679  0.00  0.00     0.034 A 
ATOM      7 Cl   UNL d   1       2.212  -1.752  -0.671  0.00  0.00    -0.070 Cl
ATOM      8 Cl1  UNL d   1      -0.130   0.129  -1.928  0.00  0.00    -0.070 Cl
ENDROOT
TORSDOF 0
ENDMDL
