MODEL 1
REMARK minimizedAffinity 4.49697685
REMARK minimizedRMSD -1
REMARK  1 active torsions:
REMARK  status: ('A' for Active; 'I' for Inactive)
REMARK    1  A    between atoms: C3_4  and  O_7 
ROOT
ATOM      1  C   UNL d   1      -1.343   0.764  -1.689  0.00  0.00    -0.033 A 
ATOM      2  C1  UNL d   1      -1.046  -0.600  -1.674  0.00  0.00     0.039 A 
ATOM      3  C2  UNL d   1       0.262  -1.029  -1.443  0.00  0.00    -0.080 A 
ATOM      4  C3  UNL d   1       1.263  -0.085  -1.227  0.00  0.00     0.150 A 
ATOM      5  C4  UNL d   1       0.973   1.275  -1.237  0.00  0.00    -0.007 A 
ATOM      6  C5  UNL d   1      -0.334   1.702  -1.469  0.00  0.00     0.039 A 
ENDROOT
BRANCH   4   7
ATOM      7  O   UNL d   1       2.555  -0.455  -1.002  0.00  0.00    -0.526 OA
ATOM      8  H5  UNL d   1       2.611  -1.424  -1.052  0.00  0.00     0.418 HD
ENDBRANCH   4   7
TORSDOF 1
ENDMDL
