MODEL 1
REMARK minimizedAffinity 0.855226755
REMARK minimizedRMSD -1
REMARK  1 active torsions:
REMARK  status: ('A' for Active; 'I' for Inactive)
REMARK    1  A    between atoms: C3_4  and  O_7 
ROOT
ATOM      1  C   UNL d   1       2.013   0.429   0.595  0.00  0.00    -0.033 A 
ATOM      2  C1  UNL d   1       1.119   0.069  -0.416  0.00  0.00     0.039 A 
ATOM      3  C2  UNL d   1       1.559  -0.025  -1.738  0.00  0.00    -0.080 A 
ATOM      4  C3  UNL d   1       2.892   0.241  -2.035  0.00  0.00     0.150 A 
ATOM      5  C4  UNL d   1       3.789   0.596  -1.032  0.00  0.00    -0.007 A 
ATOM      6  C5  UNL d   1       3.348   0.691   0.287  0.00  0.00     0.039 A 
ENDROOT
BRANCH   4   7
ATOM      7  O   UNL d   1       3.367   0.167  -3.311  0.00  0.00    -0.526 OA
ATOM      8  H5  UNL d   1       2.629  -0.061  -3.901  0.00  0.00     0.418 HD
ENDBRANCH   4   7
TORSDOF 1
ENDMDL
