MODEL 1
REMARK minimizedAffinity -1.57413054
REMARK minimizedRMSD -1
REMARK  1 active torsions:
REMARK  status: ('A' for Active; 'I' for Inactive)
REMARK    1  A    between atoms: C3_4  and  O_7 
ROOT
ATOM      1  C   UNL d   1       1.956   0.556   0.966  0.00  0.00    -0.033 A 
ATOM      2  C1  UNL d   1       3.300   0.721   0.625  0.00  0.00     0.039 A 
ATOM      3  C2  UNL d   1       3.738   0.407  -0.663  0.00  0.00    -0.080 A 
ATOM      4  C3  UNL d   1       2.824  -0.067  -1.600  0.00  0.00     0.150 A 
ATOM      5  C4  UNL d   1       1.483  -0.229  -1.268  0.00  0.00    -0.007 A 
ATOM      6  C5  UNL d   1       1.047   0.083   0.019  0.00  0.00     0.039 A 
ENDROOT
BRANCH   4   7
ATOM      7  O   UNL d   1       3.206  -0.391  -2.868  0.00  0.00    -0.526 OA
ATOM      8  H5  UNL d   1       4.165  -0.255  -2.944  0.00  0.00     0.418 HD
ENDBRANCH   4   7
TORSDOF 1
ENDMDL
