MODEL 1
REMARK minimizedAffinity 1.82972085
REMARK minimizedRMSD -1
REMARK  1 active torsions:
REMARK  status: ('A' for Active; 'I' for Inactive)
REMARK    1  A    between atoms: C3_4  and  O_7 
ROOT
ATOM      1  C   UNL d   1      -0.301   0.221  -1.194  0.00  0.00    -0.033 A 
ATOM      2  C1  UNL d   1      -1.524   0.890  -1.123  0.00  0.00     0.039 A 
ATOM      3  C2  UNL d   1      -1.578   2.200  -0.643  0.00  0.00    -0.080 A 
ATOM      4  C3  UNL d   1      -0.404   2.829  -0.239  0.00  0.00     0.150 A 
ATOM      5  C4  UNL d   1       0.819   2.170  -0.310  0.00  0.00    -0.007 A 
ATOM      6  C5  UNL d   1       0.871   0.861  -0.789  0.00  0.00     0.039 A 
ENDROOT
BRANCH   4   7
ATOM      7  O   UNL d   1      -0.408   4.105   0.242  0.00  0.00    -0.526 OA
ATOM      8  H5  UNL d   1      -1.326   4.424   0.261  0.00  0.00     0.418 HD
ENDBRANCH   4   7
TORSDOF 1
ENDMDL
