MODEL 1
REMARK minimizedAffinity 0.299722105
REMARK minimizedRMSD -1
REMARK  1 active torsions:
REMARK  status: ('A' for Active; 'I' for Inactive)
REMARK    1  A    between atoms: C3_4  and  O_7 
ROOT
ATOM      1  C   UNL d   1      -2.624   3.969   1.265  0.00  0.00    -0.033 A 
ATOM      2  C1  UNL d   1      -3.275   3.310   2.310  0.00  0.00     0.039 A 
ATOM      3  C2  UNL d   1      -3.856   2.058   2.093  0.00  0.00    -0.080 A 
ATOM      4  C3  UNL d   1      -3.777   1.478   0.831  0.00  0.00     0.150 A 
ATOM      5  C4  UNL d   1      -3.127   2.127  -0.213  0.00  0.00    -0.007 A 
ATOM      6  C5  UNL d   1      -2.549   3.377   0.004  0.00  0.00     0.039 A 
ENDROOT
BRANCH   4   7
ATOM      7  O   UNL d   1      -4.333   0.260   0.570  0.00  0.00    -0.526 OA
ATOM      8  H5  UNL d   1      -4.773  -0.056   1.377  0.00  0.00     0.418 HD
ENDBRANCH   4   7
TORSDOF 1
ENDMDL
