MODEL 1
REMARK minimizedAffinity 1.99925935
REMARK minimizedRMSD -1
REMARK  1 active torsions:
REMARK  status: ('A' for Active; 'I' for Inactive)
REMARK    1  A    between atoms: C3_4  and  O_7 
ROOT
ATOM      1  C   UNL d   1      -1.959   2.995   0.335  0.00  0.00    -0.033 A 
ATOM      2  C1  UNL d   1      -0.652   3.427   0.567  0.00  0.00     0.039 A 
ATOM      3  C2  UNL d   1       0.428   2.663   0.120  0.00  0.00    -0.080 A 
ATOM      4  C3  UNL d   1       0.188   1.470  -0.556  0.00  0.00     0.150 A 
ATOM      5  C4  UNL d   1      -1.112   1.035  -0.794  0.00  0.00    -0.007 A 
ATOM      6  C5  UNL d   1      -2.189   1.799  -0.347  0.00  0.00     0.039 A 
ENDROOT
BRANCH   4   7
ATOM      7  O   UNL d   1       1.209   0.688  -1.006  0.00  0.00    -0.526 OA
ATOM      8  H5  UNL d   1       2.050   1.099  -0.745  0.00  0.00     0.418 HD
ENDBRANCH   4   7
TORSDOF 1
ENDMDL
