MODEL 1
REMARK minimizedAffinity 4.96880198
REMARK minimizedRMSD -1
REMARK  1 active torsions:
REMARK  status: ('A' for Active; 'I' for Inactive)
REMARK    1  A    between atoms: C3_4  and  O_7 
ROOT
ATOM      1  C   UNL d   1      -5.998   0.654   1.942  0.00  0.00    -0.033 A 
ATOM      2  C1  UNL d   1      -5.304   1.754   2.449  0.00  0.00     0.039 A 
ATOM      3  C2  UNL d   1      -4.242   2.304   1.728  0.00  0.00    -0.080 A 
ATOM      4  C3  UNL d   1      -3.885   1.746   0.503  0.00  0.00     0.150 A 
ATOM      5  C4  UNL d   1      -4.575   0.653  -0.010  0.00  0.00    -0.007 A 
ATOM      6  C5  UNL d   1      -5.635   0.105   0.712  0.00  0.00     0.039 A 
ENDROOT
BRANCH   4   7
ATOM      7  O   UNL d   1      -2.853   2.246  -0.234  0.00  0.00    -0.526 OA
ATOM      8  H5  UNL d   1      -2.451   2.981   0.258  0.00  0.00     0.418 HD
ENDBRANCH   4   7
TORSDOF 1
ENDMDL
