MODEL 1
REMARK minimizedAffinity 8.79642773
REMARK minimizedRMSD -1
REMARK  1 active torsions:
REMARK  status: ('A' for Active; 'I' for Inactive)
REMARK    1  A    between atoms: C3_4  and  O_7 
ROOT
ATOM      1  C   UNL d   1       2.542  -0.072   0.013  0.00  0.00    -0.033 A 
ATOM      2  C1  UNL d   1       2.247   0.032  -1.348  0.00  0.00     0.039 A 
ATOM      3  C2  UNL d   1       3.050   0.813  -2.181  0.00  0.00    -0.080 A 
ATOM      4  C3  UNL d   1       4.145   1.483  -1.643  0.00  0.00     0.150 A 
ATOM      5  C4  UNL d   1       4.448   1.381  -0.289  0.00  0.00    -0.007 A 
ATOM      6  C5  UNL d   1       3.644   0.602   0.542  0.00  0.00     0.039 A 
ENDROOT
BRANCH   4   7
ATOM      7  O   UNL d   1       4.955   2.260  -2.416  0.00  0.00    -0.526 OA
ATOM      8  H5  UNL d   1       4.608   2.260  -3.323  0.00  0.00     0.418 HD
ENDBRANCH   4   7
TORSDOF 1
ENDMDL
