MODEL 1
REMARK minimizedAffinity -2.41781163
REMARK minimizedRMSD -1
REMARK  0 active torsions:
REMARK  status: ('A' for Active; 'I' for Inactive)
ROOT
ATOM      1  C   UNL d   1      -1.239   0.867  -0.802  0.00  0.00     0.172 C 
ATOM      2  N   UNL d   1      -0.042   0.411  -0.136  0.00  0.00    -0.070 N 
ATOM      3  C1  UNL d   1       0.185  -0.862   0.315  0.00  0.00    -0.004 A 
ATOM      4  C2  UNL d   1       1.438  -0.889   0.888  0.00  0.00    -0.047 A 
ATOM      5  C3  UNL d   1       1.982   0.412   0.779  0.00  0.00    -0.047 A 
ATOM      6  C4  UNL d   1       1.045   1.197   0.140  0.00  0.00    -0.004 A 
ENDROOT
TORSDOF 0
ENDMDL
