MODEL 1
REMARK minimizedAffinity -3.84547448
REMARK minimizedRMSD -1
REMARK  0 active torsions:
REMARK  status: ('A' for Active; 'I' for Inactive)
ROOT
ATOM      1  C   UNL d   1       0.108   0.017  -0.440  0.00  0.00     0.172 C 
ATOM      2  N   UNL d   1       1.507   0.069  -0.088  0.00  0.00    -0.070 N 
ATOM      3  C1  UNL d   1       2.298   1.187  -0.125  0.00  0.00    -0.004 A 
ATOM      4  C2  UNL d   1       3.563   0.822   0.284  0.00  0.00    -0.047 A 
ATOM      5  C3  UNL d   1       3.531  -0.562   0.576  0.00  0.00    -0.047 A 
ATOM      6  C4  UNL d   1       2.247  -1.003   0.338  0.00  0.00    -0.004 A 
ENDROOT
TORSDOF 0
ENDMDL
