MODEL 1
REMARK minimizedAffinity -1.50843227
REMARK minimizedRMSD -1
REMARK  0 active torsions:
REMARK  status: ('A' for Active; 'I' for Inactive)
ROOT
ATOM      1  C   UNL d   1       2.215  -1.528  -0.695  0.00  0.00     0.172 C 
ATOM      2  N   UNL d   1       1.022  -0.729  -0.534  0.00  0.00    -0.070 N 
ATOM      3  C1  UNL d   1       0.326  -0.561   0.633  0.00  0.00    -0.004 A 
ATOM      4  C2  UNL d   1      -0.743   0.268   0.371  0.00  0.00    -0.047 A 
ATOM      5  C3  UNL d   1      -0.688   0.609  -1.001  0.00  0.00    -0.047 A 
ATOM      6  C4  UNL d   1       0.415  -0.022  -1.537  0.00  0.00    -0.004 A 
ENDROOT
TORSDOF 0
ENDMDL
