MODEL 1
REMARK minimizedAffinity -3.4206202
REMARK minimizedRMSD -1
REMARK  0 active torsions:
REMARK  status: ('A' for Active; 'I' for Inactive)
ROOT
ATOM      1  C   UNL d   1      -0.589   0.608  -0.250  0.00  0.00     0.172 C 
ATOM      2  N   UNL d   1       0.578  -0.170   0.093  0.00  0.00    -0.070 N 
ATOM      3  C1  UNL d   1       1.406   0.060   1.160  0.00  0.00    -0.004 A 
ATOM      4  C2  UNL d   1       2.396  -0.898   1.140  0.00  0.00    -0.047 A 
ATOM      5  C3  UNL d   1       2.156  -1.732   0.022  0.00  0.00    -0.047 A 
ATOM      6  C4  UNL d   1       1.025  -1.259  -0.608  0.00  0.00    -0.004 A 
ENDROOT
TORSDOF 0
ENDMDL
