MODEL 1
REMARK minimizedAffinity -2.30165458
REMARK minimizedRMSD -1
REMARK  0 active torsions:
REMARK  status: ('A' for Active; 'I' for Inactive)
ROOT
ATOM      1  C   UNL d   1       0.568  -0.595  -0.446  0.00  0.00     0.172 C 
ATOM      2  N   UNL d   1       1.734   0.257  -0.415  0.00  0.00    -0.070 N 
ATOM      3  C1  UNL d   1       3.034  -0.165  -0.496  0.00  0.00    -0.004 A 
ATOM      4  C2  UNL d   1       3.844   0.948  -0.431  0.00  0.00    -0.047 A 
ATOM      5  C3  UNL d   1       3.002   2.078  -0.306  0.00  0.00    -0.047 A 
ATOM      6  C4  UNL d   1       1.701   1.622  -0.299  0.00  0.00    -0.004 A 
ENDROOT
TORSDOF 0
ENDMDL
