MODEL 1
REMARK minimizedAffinity -2.68173075
REMARK minimizedRMSD -1
REMARK  0 active torsions:
REMARK  status: ('A' for Active; 'I' for Inactive)
ROOT
ATOM      1  C   UNL d   1       2.799  -1.208  -0.042  0.00  0.00     0.172 C 
ATOM      2  N   UNL d   1       1.698  -0.274  -0.030  0.00  0.00    -0.070 N 
ATOM      3  C1  UNL d   1       0.369  -0.606  -0.010  0.00  0.00    -0.004 A 
ATOM      4  C2  UNL d   1      -0.358   0.564  -0.002  0.00  0.00    -0.047 A 
ATOM      5  C3  UNL d   1       0.565   1.637  -0.019  0.00  0.00    -0.047 A 
ATOM      6  C4  UNL d   1       1.830   1.089  -0.036  0.00  0.00    -0.004 A 
ENDROOT
TORSDOF 0
ENDMDL
