MODEL 1
REMARK minimizedAffinity -3.93484545
REMARK minimizedRMSD -1
REMARK  0 active torsions:
REMARK  status: ('A' for Active; 'I' for Inactive)
ROOT
ATOM      1  C   UNL d   1       1.524   2.041   0.164  0.00  0.00     0.172 C 
ATOM      2  N   UNL d   1       1.472   0.602   0.274  0.00  0.00    -0.070 N 
ATOM      3  C1  UNL d   1       0.432  -0.192  -0.128  0.00  0.00    -0.004 A 
ATOM      4  C2  UNL d   1       0.769  -1.500   0.148  0.00  0.00    -0.047 A 
ATOM      5  C3  UNL d   1       2.055  -1.491   0.738  0.00  0.00    -0.047 A 
ATOM      6  C4  UNL d   1       2.467  -0.176   0.804  0.00  0.00    -0.004 A 
ENDROOT
TORSDOF 0
ENDMDL
