MODEL 1
REMARK minimizedAffinity -3.65074277
REMARK minimizedRMSD -1
REMARK  0 active torsions:
REMARK  status: ('A' for Active; 'I' for Inactive)
ROOT
ATOM      1  C   UNL d   1      -0.016  -0.002   0.389  0.00  0.00     0.172 C 
ATOM      2  N   UNL d   1       1.180  -0.754   0.687  0.00  0.00    -0.070 N 
ATOM      3  C1  UNL d   1       1.221  -1.987   1.281  0.00  0.00    -0.004 A 
ATOM      4  C2  UNL d   1       2.543  -2.360   1.388  0.00  0.00    -0.047 A 
ATOM      5  C3  UNL d   1       3.324  -1.315   0.840  0.00  0.00    -0.047 A 
ATOM      6  C4  UNL d   1       2.455  -0.333   0.413  0.00  0.00    -0.004 A 
ENDROOT
TORSDOF 0
ENDMDL
