MODEL 1
REMARK minimizedAffinity 7.11216545
REMARK minimizedRMSD -1
REMARK  1 active torsions:
REMARK  status: ('A' for Active; 'I' for Inactive)
REMARK    1  A    between atoms: N_2  and  C1_3 
ROOT
ATOM      1  C1  UNL d   1       2.414  -1.316  -0.612  0.00  0.00     0.143 A 
ATOM      2  C2  UNL d   1       3.352  -2.343  -0.760  0.00  0.00    -0.057 A 
ATOM      3  C3  UNL d   1       3.375  -3.437   0.113  0.00  0.00     0.033 A 
ATOM      4  C4  UNL d   1       2.475  -3.509   1.171  0.00  0.00    -0.042 A 
ATOM      5  C5  UNL d   1       1.550  -2.487   1.353  0.00  0.00     0.033 A 
ATOM      6  C6  UNL d   1       1.528  -1.400   0.474  0.00  0.00    -0.057 A 
ENDROOT
BRANCH   1   7
ATOM      7  N   UNL d   1       2.404  -0.154  -1.387  0.00  0.00    -0.732 N 
ATOM      8  C   UNL d   1       1.193   0.279  -2.051  0.00  0.00     0.284 C 
ATOM      9  H3  UNL d   1       2.938   0.601  -0.963  0.00  0.00     0.395 HD
ENDBRANCH   1   7
TORSDOF 1
ENDMDL
