MODEL 1
REMARK minimizedAffinity 3.90439034
REMARK minimizedRMSD -1
REMARK  1 active torsions:
REMARK  status: ('A' for Active; 'I' for Inactive)
REMARK    1  A    between atoms: N_2  and  C1_3 
ROOT
ATOM      1  C1  UNL d   1       3.387  -1.517  -0.531  0.00  0.00     0.143 A 
ATOM      2  C2  UNL d   1       2.320  -0.646  -0.781  0.00  0.00    -0.057 A 
ATOM      3  C3  UNL d   1       2.532   0.724  -0.978  0.00  0.00     0.033 A 
ATOM      4  C4  UNL d   1       3.816   1.254  -0.898  0.00  0.00    -0.042 A 
ATOM      5  C5  UNL d   1       4.888   0.411  -0.626  0.00  0.00     0.033 A 
ATOM      6  C6  UNL d   1       4.671  -0.957  -0.437  0.00  0.00    -0.057 A 
ENDROOT
BRANCH   1   7
ATOM      7  N   UNL d   1       3.230  -2.872  -0.229  0.00  0.00    -0.732 N 
ATOM      8  C   UNL d   1       2.497  -3.285   0.948  0.00  0.00     0.284 C 
ATOM      9  H3  UNL d   1       3.041  -3.434  -1.056  0.00  0.00     0.395 HD
ENDBRANCH   1   7
TORSDOF 1
ENDMDL
