MODEL 1
REMARK minimizedAffinity -1.09259486
REMARK minimizedRMSD -1
REMARK  1 active torsions:
REMARK  status: ('A' for Active; 'I' for Inactive)
REMARK    1  A    between atoms: N_2  and  C1_3 
ROOT
ATOM      1  C1  UNL d   1       3.866  -3.478   3.225  0.00  0.00     0.143 A 
ATOM      2  C2  UNL d   1       4.119  -4.238   2.078  0.00  0.00    -0.057 A 
ATOM      3  C3  UNL d   1       3.279  -4.167   0.960  0.00  0.00     0.033 A 
ATOM      4  C4  UNL d   1       2.152  -3.352   0.980  0.00  0.00    -0.042 A 
ATOM      5  C5  UNL d   1       1.867  -2.607   2.119  0.00  0.00     0.033 A 
ATOM      6  C6  UNL d   1       2.713  -2.678   3.230  0.00  0.00    -0.057 A 
ENDROOT
BRANCH   1   7
ATOM      7  N   UNL d   1       4.607  -3.580   4.405  0.00  0.00    -0.732 N 
ATOM      8  C   UNL d   1       4.731  -2.448   5.298  0.00  0.00     0.284 C 
ATOM      9  H3  UNL d   1       4.463  -4.470   4.878  0.00  0.00     0.395 HD
ENDBRANCH   1   7
TORSDOF 1
ENDMDL
