MODEL 1
REMARK minimizedAffinity 5.15321398
REMARK minimizedRMSD -1
REMARK  1 active torsions:
REMARK  status: ('A' for Active; 'I' for Inactive)
REMARK    1  A    between atoms: N_2  and  C1_3 
ROOT
ATOM      1  C1  UNL d   1       4.343  -4.207   3.275  0.00  0.00     0.143 A 
ATOM      2  C2  UNL d   1       3.118  -3.684   2.848  0.00  0.00    -0.057 A 
ATOM      3  C3  UNL d   1       2.834  -3.519   1.487  0.00  0.00     0.033 A 
ATOM      4  C4  UNL d   1       3.785  -3.849   0.527  0.00  0.00    -0.042 A 
ATOM      5  C5  UNL d   1       5.019  -4.347   0.929  0.00  0.00     0.033 A 
ATOM      6  C6  UNL d   1       5.294  -4.516   2.289  0.00  0.00    -0.057 A 
ENDROOT
BRANCH   1   7
ATOM      7  N   UNL d   1       4.723  -4.303   4.616  0.00  0.00    -0.732 N 
ATOM      8  C   UNL d   1       5.090  -3.120   5.364  0.00  0.00     0.284 C 
ATOM      9  H3  UNL d   1       4.149  -4.962   5.136  0.00  0.00     0.395 HD
ENDBRANCH   1   7
TORSDOF 1
ENDMDL
