MODEL 1
REMARK minimizedAffinity -0.507386208
REMARK minimizedRMSD -1
REMARK  1 active torsions:
REMARK  status: ('A' for Active; 'I' for Inactive)
REMARK    1  A    between atoms: N_2  and  C1_3 
ROOT
ATOM      1  C1  UNL d   1       3.946  -0.734  -0.384  0.00  0.00     0.143 A 
ATOM      2  C2  UNL d   1       3.255  -1.937  -0.205  0.00  0.00    -0.057 A 
ATOM      3  C3  UNL d   1       3.909  -3.090   0.247  0.00  0.00     0.033 A 
ATOM      4  C4  UNL d   1       5.277  -3.067   0.499  0.00  0.00    -0.042 A 
ATOM      5  C5  UNL d   1       5.989  -1.889   0.304  0.00  0.00     0.033 A 
ATOM      6  C6  UNL d   1       5.328  -0.739  -0.140  0.00  0.00    -0.057 A 
ENDROOT
BRANCH   1   7
ATOM      7  N   UNL d   1       3.372   0.420  -0.924  0.00  0.00    -0.732 N 
ATOM      8  C   UNL d   1       2.360   0.327  -1.954  0.00  0.00     0.284 C 
ATOM      9  H3  UNL d   1       3.182   1.127  -0.217  0.00  0.00     0.395 HD
ENDBRANCH   1   7
TORSDOF 1
ENDMDL
