MODEL 1
REMARK minimizedAffinity 5.21073437
REMARK minimizedRMSD -1
REMARK  1 active torsions:
REMARK  status: ('A' for Active; 'I' for Inactive)
REMARK    1  A    between atoms: N_2  and  C1_3 
ROOT
ATOM      1  C1  UNL d   1      -0.261  -1.002   2.238  0.00  0.00     0.143 A 
ATOM      2  C2  UNL d   1       0.085  -0.517   0.972  0.00  0.00    -0.057 A 
ATOM      3  C3  UNL d   1      -0.797   0.284   0.236  0.00  0.00     0.033 A 
ATOM      4  C4  UNL d   1      -2.056   0.590   0.742  0.00  0.00    -0.042 A 
ATOM      5  C5  UNL d   1      -2.430   0.098   1.988  0.00  0.00     0.033 A 
ATOM      6  C6  UNL d   1      -1.543  -0.695   2.721  0.00  0.00    -0.057 A 
ENDROOT
BRANCH   1   7
ATOM      7  N   UNL d   1       0.533  -1.883   2.976  0.00  0.00    -0.732 N 
ATOM      8  C   UNL d   1       0.940  -3.154   2.417  0.00  0.00     0.284 C 
ATOM      9  H3  UNL d   1       1.265  -1.404   3.496  0.00  0.00     0.395 HD
ENDBRANCH   1   7
TORSDOF 1
ENDMDL
