MODEL 1
REMARK minimizedAffinity 0.837082028
REMARK minimizedRMSD -1
REMARK  1 active torsions:
REMARK  status: ('A' for Active; 'I' for Inactive)
REMARK    1  A    between atoms: N_2  and  C1_3 
ROOT
ATOM      1  C1  UNL d   1       0.255  -0.539  -0.300  0.00  0.00     0.143 A 
ATOM      2  C2  UNL d   1      -1.011  -0.334  -0.858  0.00  0.00    -0.057 A 
ATOM      3  C3  UNL d   1      -2.146  -0.188  -0.051  0.00  0.00     0.033 A 
ATOM      4  C4  UNL d   1      -2.038  -0.275   1.333  0.00  0.00    -0.042 A 
ATOM      5  C5  UNL d   1      -0.794  -0.504   1.909  0.00  0.00     0.033 A 
ATOM      6  C6  UNL d   1       0.337  -0.642   1.098  0.00  0.00    -0.057 A 
ENDROOT
BRANCH   1   7
ATOM      7  N   UNL d   1       1.406  -0.789  -1.051  0.00  0.00    -0.732 N 
ATOM      8  C   UNL d   1       2.461   0.197  -1.134  0.00  0.00     0.284 C 
ATOM      9  H3  UNL d   1       1.738  -1.745  -0.947  0.00  0.00     0.395 HD
ENDBRANCH   1   7
TORSDOF 1
ENDMDL
