MODEL 1
REMARK minimizedAffinity -0.79539299
REMARK minimizedRMSD -1
REMARK  3 active torsions:
REMARK  status: ('A' for Active; 'I' for Inactive)
REMARK    1  A    between atoms: C3'_2  and  C2'_3 
REMARK    2  A    between atoms: C2'_3  and  C1'_4 
REMARK    3  A    between atoms: C1'_4  and  C1_5 
ROOT
ATOM      1  C1  N4B d   1      -0.723   1.351   0.796  0.00  0.00    -0.075 A 
ATOM      2  C2  N4B d   1       0.514   0.751   0.473  0.00  0.00     0.002 A 
ATOM      3  C3  N4B d   1       1.539   1.518  -0.026  0.00  0.00     0.002 A 
ATOM      4  C4  N4B d   1       1.344   2.876  -0.228  0.00  0.00    -0.004 A 
ATOM      5  C5  N4B d   1       0.154   3.451   0.111  0.00  0.00     0.002 A 
ATOM      6  C6  N4B d   1      -0.883   2.694   0.617  0.00  0.00     0.002 A 
ENDROOT
BRANCH   1   7
ATOM      7  C1' N4B d   1      -1.900   0.539   1.263  0.00  0.00     0.057 C 
BRANCH   7   8
ATOM      8  C2' N4B d   1      -3.128   0.918   0.441  0.00  0.00     0.009 C 
BRANCH   8   9
ATOM      9  C3' N4B d   1      -4.208  -0.148   0.507  0.00  0.00     0.004 C 
ATOM     10  C4' N4B d   1      -5.590   0.429   0.579  0.00  0.00     0.003 C 
ENDBRANCH   8   9
ENDBRANCH   7   8
ENDBRANCH   1   7
TORSDOF 3
ENDMDL
