MODEL 1
REMARK minimizedAffinity 1.60707259
REMARK minimizedRMSD -1
REMARK  3 active torsions:
REMARK  status: ('A' for Active; 'I' for Inactive)
REMARK    1  A    between atoms: C3'_2  and  C2'_3 
REMARK    2  A    between atoms: C2'_3  and  C1'_4 
REMARK    3  A    between atoms: C1'_4  and  C1_5 
ROOT
ATOM      1  C1  N4B d   1      -0.602   1.007   1.319  0.00  0.00    -0.075 A 
ATOM      2  C2  N4B d   1      -0.013  -0.249   1.060  0.00  0.00     0.002 A 
ATOM      3  C3  N4B d   1      -0.475  -1.370   1.705  0.00  0.00     0.002 A 
ATOM      4  C4  N4B d   1      -1.507  -1.257   2.624  0.00  0.00    -0.004 A 
ATOM      5  C5  N4B d   1      -2.088  -0.043   2.850  0.00  0.00     0.002 A 
ATOM      6  C6  N4B d   1      -1.637   1.091   2.205  0.00  0.00     0.002 A 
ENDROOT
BRANCH   1   7
ATOM      7  C1' N4B d   1      -0.075   2.274   0.702  0.00  0.00     0.057 C 
BRANCH   7   8
ATOM      8  C2' N4B d   1       1.315   2.012   0.132  0.00  0.00     0.009 C 
BRANCH   8   9
ATOM      9  C3' N4B d   1       2.377   2.863   0.807  0.00  0.00     0.004 C 
ATOM     10  C4' N4B d   1       3.646   2.109   1.069  0.00  0.00     0.003 C 
ENDBRANCH   8   9
ENDBRANCH   7   8
ENDBRANCH   1   7
TORSDOF 3
ENDMDL
