MODEL 1
REMARK minimizedAffinity 2.32916832
REMARK minimizedRMSD -1
REMARK  3 active torsions:
REMARK  status: ('A' for Active; 'I' for Inactive)
REMARK    1  A    between atoms: C3'_2  and  C2'_3 
REMARK    2  A    between atoms: C2'_3  and  C1'_4 
REMARK    3  A    between atoms: C1'_4  and  C1_5 
ROOT
ATOM      1  C1  N4B d   1       0.415   1.245   0.804  0.00  0.00    -0.075 A 
ATOM      2  C2  N4B d   1       1.795   1.507   0.660  0.00  0.00     0.002 A 
ATOM      3  C3  N4B d   1       2.221   2.758   0.288  0.00  0.00     0.002 A 
ATOM      4  C4  N4B d   1       1.289   3.754   0.039  0.00  0.00    -0.004 A 
ATOM      5  C5  N4B d   1      -0.041   3.500   0.205  0.00  0.00     0.002 A 
ATOM      6  C6  N4B d   1      -0.483   2.248   0.582  0.00  0.00     0.002 A 
ENDROOT
BRANCH   1   7
ATOM      7  C1' N4B d   1      -0.103  -0.130   1.125  0.00  0.00     0.057 C 
BRANCH   7   8
ATOM      8  C2' N4B d   1      -1.381  -0.004   1.950  0.00  0.00     0.009 C 
BRANCH   8   9
ATOM      9  C3' N4B d   1      -1.589  -1.202   2.862  0.00  0.00     0.004 C 
ATOM     10  C4' N4B d   1      -2.874  -1.130   3.631  0.00  0.00     0.003 C 
ENDBRANCH   8   9
ENDBRANCH   7   8
ENDBRANCH   1   7
TORSDOF 3
ENDMDL
