MODEL 1
REMARK minimizedAffinity 5.54767227
REMARK minimizedRMSD -1
REMARK  3 active torsions:
REMARK  status: ('A' for Active; 'I' for Inactive)
REMARK    1  A    between atoms: C3'_2  and  C2'_3 
REMARK    2  A    between atoms: C2'_3  and  C1'_4 
REMARK    3  A    between atoms: C1'_4  and  C1_5 
ROOT
ATOM      1  C1  N4B d   1       0.420   1.404   1.734  0.00  0.00    -0.075 A 
ATOM      2  C2  N4B d   1       1.191   0.266   1.407  0.00  0.00     0.002 A 
ATOM      3  C3  N4B d   1       1.807   0.182   0.182  0.00  0.00     0.002 A 
ATOM      4  C4  N4B d   1       1.650   1.210  -0.736  0.00  0.00    -0.004 A 
ATOM      5  C5  N4B d   1       0.925   2.317  -0.403  0.00  0.00     0.002 A 
ATOM      6  C6  N4B d   1       0.305   2.416   0.826  0.00  0.00     0.002 A 
ENDROOT
BRANCH   1   7
ATOM      7  C1' N4B d   1      -0.341   1.502   3.027  0.00  0.00     0.057 C 
BRANCH   7   8
ATOM      8  C2' N4B d   1      -1.821   1.245   2.758  0.00  0.00     0.009 C 
BRANCH   8   9
ATOM      9  C3' N4B d   1      -2.114  -0.233   2.565  0.00  0.00     0.004 C 
ATOM     10  C4' N4B d   1      -3.349  -0.680   3.290  0.00  0.00     0.003 C 
ENDBRANCH   8   9
ENDBRANCH   7   8
ENDBRANCH   1   7
TORSDOF 3
ENDMDL
