MODEL 1
REMARK minimizedAffinity 4.35200882
REMARK minimizedRMSD -1
REMARK  3 active torsions:
REMARK  status: ('A' for Active; 'I' for Inactive)
REMARK    1  A    between atoms: C3'_2  and  C2'_3 
REMARK    2  A    between atoms: C2'_3  and  C1'_4 
REMARK    3  A    between atoms: C1'_4  and  C1_5 
ROOT
ATOM      1  C1  N4B d   1       1.152   2.414   0.598  0.00  0.00    -0.075 A 
ATOM      2  C2  N4B d   1       1.432   1.106   0.145  0.00  0.00     0.002 A 
ATOM      3  C3  N4B d   1       2.697   0.589   0.281  0.00  0.00     0.002 A 
ATOM      4  C4  N4B d   1       3.698   1.364   0.847  0.00  0.00    -0.004 A 
ATOM      5  C5  N4B d   1       3.413   2.617   1.305  0.00  0.00     0.002 A 
ATOM      6  C6  N4B d   1       2.145   3.148   1.179  0.00  0.00     0.002 A 
ENDROOT
BRANCH   1   7
ATOM      7  C1' N4B d   1      -0.194   3.054   0.393  0.00  0.00     0.057 C 
BRANCH   7   8
ATOM      8  C2' N4B d   1      -1.256   2.228   1.113  0.00  0.00     0.009 C 
BRANCH   8   9
ATOM      9  C3' N4B d   1      -0.967   2.100   2.598  0.00  0.00     0.004 C 
ATOM     10  C4' N4B d   1      -0.904   3.427   3.294  0.00  0.00     0.003 C 
ENDBRANCH   8   9
ENDBRANCH   7   8
ENDBRANCH   1   7
TORSDOF 3
ENDMDL
