MODEL 1
REMARK minimizedAffinity 3.26458001
REMARK minimizedRMSD -1
REMARK  0 active torsions:
REMARK  status: ('A' for Active; 'I' for Inactive)
ROOT
ATOM      1  C   UNL d   1       0.342   5.403   5.222  0.00  0.00    -0.002 A 
ATOM      2  C1  UNL d   1       0.465   5.752   3.885  0.00  0.00     0.010 A 
ATOM      3  C2  UNL d   1       1.725   5.855   3.291  0.00  0.00     0.041 A 
ATOM      4  C3  UNL d   1       2.869   5.596   4.071  0.00  0.00    -0.075 A 
ATOM      5  S   UNL d   1       4.514   5.660   3.557  0.00  0.00     0.015 SA
ATOM      6  C4  UNL d   1       5.091   5.224   5.100  0.00  0.00     0.022 A 
ATOM      7  C5  UNL d   1       4.068   5.032   5.998  0.00  0.00     0.026 A 
ATOM      8  C6  UNL d   1       2.770   5.242   5.420  0.00  0.00    -0.082 A 
ATOM      9  C7  UNL d   1       1.479   5.147   5.993  0.00  0.00     0.045 A 
ENDROOT
TORSDOF 0
ENDMDL
