MODEL 1
REMARK minimizedAffinity 2.70463252
REMARK minimizedRMSD -1
REMARK  0 active torsions:
REMARK  status: ('A' for Active; 'I' for Inactive)
ROOT
ATOM      1  C   UNL d   1       0.265   5.986   5.202  0.00  0.00    -0.002 A 
ATOM      2  C1  UNL d   1       0.371   5.982   3.819  0.00  0.00     0.010 A 
ATOM      3  C2  UNL d   1       1.624   5.981   3.202  0.00  0.00     0.041 A 
ATOM      4  C3  UNL d   1       2.780   5.983   4.008  0.00  0.00    -0.075 A 
ATOM      5  S   UNL d   1       4.419   5.982   3.474  0.00  0.00     0.015 SA
ATOM      6  C4  UNL d   1       5.017   5.986   5.070  0.00  0.00     0.022 A 
ATOM      7  C5  UNL d   1       4.005   5.989   6.000  0.00  0.00     0.026 A 
ATOM      8  C6  UNL d   1       2.698   5.987   5.403  0.00  0.00    -0.082 A 
ATOM      9  C7  UNL d   1       1.414   5.988   5.998  0.00  0.00     0.045 A 
ENDROOT
TORSDOF 0
ENDMDL
