MODEL 1
REMARK minimizedAffinity 5.22884655
REMARK minimizedRMSD -1
REMARK  0 active torsions:
REMARK  status: ('A' for Active; 'I' for Inactive)
ROOT
ATOM      1  C   UNL d   1       3.227   2.440   0.970  0.00  0.00    -0.002 A 
ATOM      2  C1  UNL d   1       2.460   2.246  -0.170  0.00  0.00     0.010 A 
ATOM      3  C2  UNL d   1       2.202   0.958  -0.642  0.00  0.00     0.041 A 
ATOM      4  C3  UNL d   1       2.731  -0.143   0.059  0.00  0.00    -0.075 A 
ATOM      5  S   UNL d   1       2.545  -1.812  -0.333  0.00  0.00     0.015 SA
ATOM      6  C4  UNL d   1       3.478  -2.307   1.005  0.00  0.00     0.022 A 
ATOM      7  C5  UNL d   1       3.928  -1.238   1.743  0.00  0.00     0.026 A 
ATOM      8  C6  UNL d   1       3.505   0.026   1.211  0.00  0.00    -0.082 A 
ATOM      9  C7  UNL d   1       3.750   1.345   1.663  0.00  0.00     0.045 A 
ENDROOT
TORSDOF 0
ENDMDL
