MODEL 1
REMARK minimizedAffinity -3.64842439
REMARK minimizedRMSD -1
REMARK  0 active torsions:
REMARK  status: ('A' for Active; 'I' for Inactive)
ROOT
ATOM      1  C   UNL d   1       4.121   3.114   4.011  0.00  0.00    -0.002 A 
ATOM      2  C1  UNL d   1       4.409   3.488   5.316  0.00  0.00     0.010 A 
ATOM      3  C2  UNL d   1       3.579   4.378   6.000  0.00  0.00     0.041 A 
ATOM      4  C3  UNL d   1       2.441   4.889   5.344  0.00  0.00    -0.075 A 
ATOM      5  S   UNL d   1       1.281   5.992   5.984  0.00  0.00     0.015 SA
ATOM      6  C4  UNL d   1       0.374   5.991   4.541  0.00  0.00     0.022 A 
ATOM      7  C5  UNL d   1       0.929   5.175   3.584  0.00  0.00     0.026 A 
ATOM      8  C6  UNL d   1       2.129   4.526   4.031  0.00  0.00    -0.082 A 
ATOM      9  C7  UNL d   1       2.991   3.623   3.365  0.00  0.00     0.045 A 
ENDROOT
TORSDOF 0
ENDMDL
