MODEL 1
REMARK minimizedAffinity 4.00322437
REMARK minimizedRMSD -1
REMARK  0 active torsions:
REMARK  status: ('A' for Active; 'I' for Inactive)
ROOT
ATOM      1  C   UNL d   1       4.113   5.995   3.880  0.00  0.00    -0.002 A 
ATOM      2  C1  UNL d   1       4.181   5.999   5.266  0.00  0.00     0.010 A 
ATOM      3  C2  UNL d   1       3.785   4.879   6.000  0.00  0.00     0.041 A 
ATOM      4  C3  UNL d   1       3.317   3.743   5.310  0.00  0.00    -0.075 A 
ATOM      5  S   UNL d   1       2.779   2.258   6.000  0.00  0.00     0.015 SA
ATOM      6  C4  UNL d   1       2.447   1.582   4.470  0.00  0.00     0.022 A 
ATOM      7  C5  UNL d   1       2.734   2.455   3.448  0.00  0.00     0.026 A 
ATOM      8  C6  UNL d   1       3.240   3.715   3.915  0.00  0.00    -0.082 A 
ATOM      9  C7  UNL d   1       3.649   4.866   3.199  0.00  0.00     0.045 A 
ENDROOT
TORSDOF 0
ENDMDL
