MODEL 1
REMARK minimizedAffinity -0.863039255
REMARK minimizedRMSD -1
REMARK  0 active torsions:
REMARK  status: ('A' for Active; 'I' for Inactive)
ROOT
ATOM      1  C   UNL d   1      -0.341   3.811  -6.000  0.00  0.00     0.078 C 
ATOM      2  C1  UNL d   1      -1.798   4.161  -5.942  0.00  0.00    -0.077 A 
ATOM      3  C2  UNL d   1      -2.216   5.494  -5.844  0.00  0.00    -0.001 A 
ATOM      4  C3  UNL d   1      -3.576   5.804  -5.781  0.00  0.00     0.003 A 
ATOM      5  C4  UNL d   1      -4.528   4.787  -5.813  0.00  0.00    -0.005 A 
ATOM      6  C5  UNL d   1      -4.121   3.458  -5.908  0.00  0.00     0.003 A 
ATOM      7  C6  UNL d   1      -2.762   3.146  -5.971  0.00  0.00    -0.001 A 
ENDROOT
TORSDOF 0
ENDMDL
