MODEL 1
REMARK minimizedAffinity -1.17872798
REMARK minimizedRMSD -1
REMARK  0 active torsions:
REMARK  status: ('A' for Active; 'I' for Inactive)
ROOT
ATOM      1  C   UNL d   1       1.685   4.569  -5.998  0.00  0.00     0.078 C 
ATOM      2  C1  UNL d   1       3.173   4.386  -5.991  0.00  0.00    -0.077 A 
ATOM      3  C2  UNL d   1       4.035   5.490  -5.994  0.00  0.00    -0.001 A 
ATOM      4  C3  UNL d   1       5.419   5.306  -5.997  0.00  0.00     0.003 A 
ATOM      5  C4  UNL d   1       5.953   4.019  -5.999  0.00  0.00    -0.005 A 
ATOM      6  C5  UNL d   1       5.103   2.914  -5.998  0.00  0.00     0.003 A 
ATOM      7  C6  UNL d   1       3.719   3.097  -5.995  0.00  0.00    -0.001 A 
ENDROOT
TORSDOF 0
ENDMDL
