MODEL 1
REMARK minimizedAffinity 1.66110086
REMARK minimizedRMSD -1
REMARK  0 active torsions:
REMARK  status: ('A' for Active; 'I' for Inactive)
ROOT
ATOM      1  C   UNL d   1      -4.360   3.670  -5.985  0.00  0.00     0.078 C 
ATOM      2  C1  UNL d   1      -2.901   4.016  -5.997  0.00  0.00    -0.077 A 
ATOM      3  C2  UNL d   1      -1.923   3.014  -5.996  0.00  0.00    -0.001 A 
ATOM      4  C3  UNL d   1      -0.568   3.350  -5.998  0.00  0.00     0.003 A 
ATOM      5  C4  UNL d   1      -0.179   4.688  -6.000  0.00  0.00    -0.005 A 
ATOM      6  C5  UNL d   1      -1.145   5.692  -5.999  0.00  0.00     0.003 A 
ATOM      7  C6  UNL d   1      -2.500   5.358  -5.997  0.00  0.00    -0.001 A 
ENDROOT
TORSDOF 0
ENDMDL
