MODEL 1
REMARK minimizedAffinity 0.304009974
REMARK minimizedRMSD -1
REMARK  0 active torsions:
REMARK  status: ('A' for Active; 'I' for Inactive)
ROOT
ATOM      1  C   UNL d   1      -1.064   2.223  -6.000  0.00  0.00     0.078 C 
ATOM      2  C1  UNL d   1      -1.720   3.532  -5.678  0.00  0.00    -0.077 A 
ATOM      3  C2  UNL d   1      -2.980   3.576  -5.068  0.00  0.00    -0.001 A 
ATOM      4  C3  UNL d   1      -3.583   4.802  -4.783  0.00  0.00     0.003 A 
ATOM      5  C4  UNL d   1      -2.935   5.993  -5.104  0.00  0.00    -0.005 A 
ATOM      6  C5  UNL d   1      -1.682   5.959  -5.713  0.00  0.00     0.003 A 
ATOM      7  C6  UNL d   1      -1.077   4.734  -5.999  0.00  0.00    -0.001 A 
ENDROOT
TORSDOF 0
ENDMDL
