MODEL 1
REMARK minimizedAffinity -2.33210635
REMARK minimizedRMSD -1
REMARK  0 active torsions:
REMARK  status: ('A' for Active; 'I' for Inactive)
ROOT
ATOM      1  C   UNL d   1       0.471   4.947  -5.992  0.00  0.00     0.078 C 
ATOM      2  C1  UNL d   1      -1.024   4.825  -5.995  0.00  0.00    -0.077 A 
ATOM      3  C2  UNL d   1      -1.840   5.962  -5.979  0.00  0.00    -0.001 A 
ATOM      4  C3  UNL d   1      -3.230   5.833  -5.971  0.00  0.00     0.003 A 
ATOM      5  C4  UNL d   1      -3.816   4.569  -5.979  0.00  0.00    -0.005 A 
ATOM      6  C5  UNL d   1      -3.011   3.431  -5.992  0.00  0.00     0.003 A 
ATOM      7  C6  UNL d   1      -1.621   3.558  -6.000  0.00  0.00    -0.001 A 
ENDROOT
TORSDOF 0
ENDMDL
