MODEL 1
REMARK minimizedAffinity -1.23952174
REMARK minimizedRMSD -1
REMARK  0 active torsions:
REMARK  status: ('A' for Active; 'I' for Inactive)
ROOT
ATOM      1  C   UNL d   1       1.537   2.952  -5.957  0.00  0.00     0.078 C 
ATOM      2  C1  UNL d   1       0.239   3.702  -5.973  0.00  0.00    -0.077 A 
ATOM      3  C2  UNL d   1       0.214   5.102  -5.955  0.00  0.00    -0.001 A 
ATOM      4  C3  UNL d   1      -1.002   5.786  -5.961  0.00  0.00     0.003 A 
ATOM      5  C4  UNL d   1      -2.203   5.080  -5.984  0.00  0.00    -0.005 A 
ATOM      6  C5  UNL d   1      -2.188   3.686  -6.000  0.00  0.00     0.003 A 
ATOM      7  C6  UNL d   1      -0.973   3.000  -5.994  0.00  0.00    -0.001 A 
ENDROOT
TORSDOF 0
ENDMDL
