MODEL 1
REMARK minimizedAffinity -1.5638144
REMARK minimizedRMSD -1
REMARK  0 active torsions:
REMARK  status: ('A' for Active; 'I' for Inactive)
ROOT
ATOM      1  C   UNL d   1       0.858   2.236  -6.000  0.00  0.00     0.078 C 
ATOM      2  C1  UNL d   1      -0.363   3.106  -5.990  0.00  0.00    -0.077 A 
ATOM      3  C2  UNL d   1      -1.647   2.546  -6.000  0.00  0.00    -0.001 A 
ATOM      4  C3  UNL d   1      -2.775   3.368  -6.000  0.00  0.00     0.003 A 
ATOM      5  C4  UNL d   1      -2.631   4.754  -5.991  0.00  0.00    -0.005 A 
ATOM      6  C5  UNL d   1      -1.358   5.320  -5.983  0.00  0.00     0.003 A 
ATOM      7  C6  UNL d   1      -0.228   4.500  -5.983  0.00  0.00    -0.001 A 
ENDROOT
TORSDOF 0
ENDMDL
