MODEL 1
REMARK minimizedAffinity -2.4304955
REMARK minimizedRMSD -1
REMARK  0 active torsions:
REMARK  status: ('A' for Active; 'I' for Inactive)
ROOT
ATOM      1  C   UNL d   1      -3.377   2.701  -5.988  0.00  0.00     0.078 C 
ATOM      2  C1  UNL d   1      -1.892   2.911  -5.999  0.00  0.00    -0.077 A 
ATOM      3  C2  UNL d   1      -1.009   1.824  -5.997  0.00  0.00    -0.001 A 
ATOM      4  C3  UNL d   1       0.370   2.035  -5.998  0.00  0.00     0.003 A 
ATOM      5  C4  UNL d   1       0.880   3.332  -5.999  0.00  0.00    -0.005 A 
ATOM      6  C5  UNL d   1       0.009   4.420  -5.999  0.00  0.00     0.003 A 
ATOM      7  C6  UNL d   1      -1.371   4.211  -5.998  0.00  0.00    -0.001 A 
ENDROOT
TORSDOF 0
ENDMDL
