MODEL 1
REMARK minimizedAffinity -3.46286321
REMARK minimizedRMSD -1
REMARK  0 active torsions:
REMARK  status: ('A' for Active; 'I' for Inactive)
ROOT
ATOM      1  C   UNL d   1      -0.376   2.982  -5.960  0.00  0.00     0.078 C 
ATOM      2  C1  UNL d   1       0.885   3.795  -5.967  0.00  0.00    -0.077 A 
ATOM      3  C2  UNL d   1       0.841   5.194  -5.972  0.00  0.00    -0.001 A 
ATOM      4  C3  UNL d   1       2.022   5.938  -5.987  0.00  0.00     0.003 A 
ATOM      5  C4  UNL d   1       3.256   5.290  -5.999  0.00  0.00    -0.005 A 
ATOM      6  C5  UNL d   1       3.310   3.898  -5.997  0.00  0.00     0.003 A 
ATOM      7  C6  UNL d   1       2.130   3.153  -5.981  0.00  0.00    -0.001 A 
ENDROOT
TORSDOF 0
ENDMDL
