MODEL 1
REMARK minimizedAffinity -2.52878737
REMARK minimizedRMSD -1
REMARK  0 active torsions:
REMARK  status: ('A' for Active; 'I' for Inactive)
ROOT
ATOM      1  C   UNL d   1       0.718   2.556  -5.991  0.00  0.00     0.078 C 
ATOM      2  C1  UNL d   1      -0.563   3.334  -6.000  0.00  0.00    -0.077 A 
ATOM      3  C2  UNL d   1      -0.557   4.735  -5.998  0.00  0.00    -0.001 A 
ATOM      4  C3  UNL d   1      -1.757   5.446  -5.997  0.00  0.00     0.003 A 
ATOM      5  C4  UNL d   1      -2.974   4.766  -5.996  0.00  0.00    -0.005 A 
ATOM      6  C5  UNL d   1      -2.990   3.373  -5.995  0.00  0.00     0.003 A 
ATOM      7  C6  UNL d   1      -1.791   2.660  -5.997  0.00  0.00    -0.001 A 
ENDROOT
TORSDOF 0
ENDMDL
