MODEL 1
REMARK minimizedAffinity -0.561566889
REMARK minimizedRMSD -1
REMARK  0 active torsions:
REMARK  status: ('A' for Active; 'I' for Inactive)
ROOT
ATOM      1  C   UNL d   1       0.013   3.814  -5.988  0.00  0.00     0.078 C 
ATOM      2  C1  UNL d   1      -1.451   4.138  -5.999  0.00  0.00    -0.077 A 
ATOM      3  C2  UNL d   1      -1.895   5.466  -5.996  0.00  0.00    -0.001 A 
ATOM      4  C3  UNL d   1      -3.261   5.753  -5.996  0.00  0.00     0.003 A 
ATOM      5  C4  UNL d   1      -4.194   4.718  -5.999  0.00  0.00    -0.005 A 
ATOM      6  C5  UNL d   1      -3.761   3.393  -6.000  0.00  0.00     0.003 A 
ATOM      7  C6  UNL d   1      -2.396   3.104  -5.999  0.00  0.00    -0.001 A 
ENDROOT
TORSDOF 0
ENDMDL
