MODEL 1
REMARK minimizedAffinity -3.2950604
REMARK minimizedRMSD -1
REMARK  0 active torsions:
REMARK  status: ('A' for Active; 'I' for Inactive)
ROOT
ATOM      1  C   UNL d   1      -4.523   4.141  -5.989  0.00  0.00     0.078 C 
ATOM      2  C1  UNL d   1      -3.028   4.250  -5.985  0.00  0.00    -0.077 A 
ATOM      3  C2  UNL d   1      -2.396   5.500  -5.989  0.00  0.00    -0.001 A 
ATOM      4  C3  UNL d   1      -1.003   5.586  -5.996  0.00  0.00     0.003 A 
ATOM      5  C4  UNL d   1      -0.230   4.427  -5.999  0.00  0.00    -0.005 A 
ATOM      6  C5  UNL d   1      -0.849   3.179  -5.997  0.00  0.00     0.003 A 
ATOM      7  C6  UNL d   1      -2.242   3.090  -5.991  0.00  0.00    -0.001 A 
ENDROOT
TORSDOF 0
ENDMDL
