MODEL 1
REMARK minimizedAffinity 8.07454777
REMARK minimizedRMSD -1
REMARK  0 active torsions:
REMARK  status: ('A' for Active; 'I' for Inactive)
ROOT
ATOM      1  C2' OXE d   1       3.634   2.669   1.799  0.00  0.00     0.078 C 
ATOM      2  C1' OXE d   1       5.074   4.115   3.727  0.00  0.00     0.078 C 
ATOM      3  C1  OXE d   1       5.176   2.611   3.754  0.00  0.00    -0.078 A 
ATOM      4  C2  OXE d   1       4.432   1.909   2.837  0.00  0.00    -0.078 A 
ATOM      5  C3  OXE d   1       4.533   0.522   2.783  0.00  0.00     0.003 A 
ATOM      6  C4  OXE d   1       5.265  -0.173   3.753  0.00  0.00    -0.002 A 
ATOM      7  C5  OXE d   1       5.999   0.520   4.721  0.00  0.00    -0.002 A 
ATOM      8  C6  OXE d   1       6.000   1.911   4.709  0.00  0.00     0.003 A 
ENDROOT
TORSDOF 0
ENDMDL
