MODEL 1
REMARK minimizedAffinity 5.14187717
REMARK minimizedRMSD -1
REMARK  0 active torsions:
REMARK  status: ('A' for Active; 'I' for Inactive)
ROOT
ATOM      1  C2' OXE d   1       3.775   2.557   2.038  0.00  0.00     0.078 C 
ATOM      2  C1' OXE d   1       5.102   3.915   4.105  0.00  0.00     0.078 C 
ATOM      3  C1  OXE d   1       5.214   2.411   4.066  0.00  0.00    -0.078 A 
ATOM      4  C2  OXE d   1       4.523   1.752   3.078  0.00  0.00    -0.078 A 
ATOM      5  C3  OXE d   1       4.635   0.369   2.964  0.00  0.00     0.003 A 
ATOM      6  C4  OXE d   1       5.321  -0.369   3.936  0.00  0.00    -0.002 A 
ATOM      7  C5  OXE d   1       5.999   0.280   4.973  0.00  0.00    -0.002 A 
ATOM      8  C6  OXE d   1       5.991   1.669   5.028  0.00  0.00     0.003 A 
ENDROOT
TORSDOF 0
ENDMDL
