MODEL 1
REMARK minimizedAffinity 6.12595081
REMARK minimizedRMSD -1
REMARK  0 active torsions:
REMARK  status: ('A' for Active; 'I' for Inactive)
ROOT
ATOM      1  C2' OXE d   1       0.418   3.730  -0.244  0.00  0.00     0.078 C 
ATOM      2  C1' OXE d   1      -0.642   1.323  -1.224  0.00  0.00     0.078 C 
ATOM      3  C1  OXE d   1      -1.612   2.403  -0.812  0.00  0.00    -0.078 A 
ATOM      4  C2  OXE d   1      -1.085   3.560  -0.290  0.00  0.00    -0.078 A 
ATOM      5  C3  OXE d   1      -1.932   4.609   0.054  0.00  0.00     0.003 A 
ATOM      6  C4  OXE d   1      -3.322   4.439   0.018  0.00  0.00    -0.002 A 
ATOM      7  C5  OXE d   1      -3.879   3.254  -0.474  0.00  0.00    -0.002 A 
ATOM      8  C6  OXE d   1      -3.040   2.245  -0.932  0.00  0.00     0.003 A 
ENDROOT
TORSDOF 0
ENDMDL
