MODEL 1
REMARK minimizedAffinity 4.73789835
REMARK minimizedRMSD -1
REMARK  0 active torsions:
REMARK  status: ('A' for Active; 'I' for Inactive)
ROOT
ATOM      1  C2' OXE d   1       6.000   1.142   5.583  0.00  0.00     0.078 C 
ATOM      2  C1' OXE d   1       4.922  -0.679   3.739  0.00  0.00     0.078 C 
ATOM      3  C1  OXE d   1       4.785   0.793   3.437  0.00  0.00    -0.078 A 
ATOM      4  C2  OXE d   1       5.274   1.677   4.368  0.00  0.00    -0.078 A 
ATOM      5  C3  OXE d   1       5.222   3.045   4.114  0.00  0.00     0.003 A 
ATOM      6  C4  OXE d   1       4.539   3.532   2.992  0.00  0.00    -0.002 A 
ATOM      7  C5  OXE d   1       3.999   2.649   2.051  0.00  0.00    -0.002 A 
ATOM      8  C6  OXE d   1       4.150   1.279   2.237  0.00  0.00     0.003 A 
ENDROOT
TORSDOF 0
ENDMDL
