MODEL 1
REMARK minimizedAffinity 3.67664599
REMARK minimizedRMSD -1
REMARK  0 active torsions:
REMARK  status: ('A' for Active; 'I' for Inactive)
ROOT
ATOM      1  C2' OXE d   1      -5.559  -1.125   0.750  0.00  0.00     0.078 C 
ATOM      2  C1' OXE d   1      -2.999  -1.367  -0.375  0.00  0.00     0.078 C 
ATOM      3  C1  OXE d   1      -3.096  -1.168   1.117  0.00  0.00    -0.078 A 
ATOM      4  C2  OXE d   1      -4.351  -1.004   1.653  0.00  0.00    -0.078 A 
ATOM      5  C3  OXE d   1      -4.500  -0.872   3.030  0.00  0.00     0.003 A 
ATOM      6  C4  OXE d   1      -3.376  -0.750   3.857  0.00  0.00    -0.002 A 
ATOM      7  C5  OXE d   1      -2.088  -0.874   3.326  0.00  0.00    -0.002 A 
ATOM      8  C6  OXE d   1      -1.932  -1.125   1.967  0.00  0.00     0.003 A 
ENDROOT
TORSDOF 0
ENDMDL
