MODEL 1
REMARK minimizedAffinity 5.79007483
REMARK minimizedRMSD -1
REMARK  0 active torsions:
REMARK  status: ('A' for Active; 'I' for Inactive)
ROOT
ATOM      1  C2' OXE d   1       3.004   5.307  -5.215  0.00  0.00     0.078 C 
ATOM      2  C1' OXE d   1       1.796   2.774  -5.181  0.00  0.00     0.078 C 
ATOM      3  C1  OXE d   1       3.277   2.843  -5.456  0.00  0.00    -0.078 A 
ATOM      4  C2  OXE d   1       3.852   4.090  -5.516  0.00  0.00    -0.078 A 
ATOM      5  C3  OXE d   1       5.225   4.208  -5.712  0.00  0.00     0.003 A 
ATOM      6  C4  OXE d   1       5.999   3.078  -6.000  0.00  0.00    -0.002 A 
ATOM      7  C5  OXE d   1       5.427   1.801  -5.982  0.00  0.00    -0.002 A 
ATOM      8  C6  OXE d   1       4.079   1.663  -5.670  0.00  0.00     0.003 A 
ENDROOT
TORSDOF 0
ENDMDL
