MODEL 1
REMARK minimizedAffinity 8.37468624
REMARK minimizedRMSD -1
REMARK  0 active torsions:
REMARK  status: ('A' for Active; 'I' for Inactive)
ROOT
ATOM      1  C2' OXE d   1       5.275   4.190   3.748  0.00  0.00     0.078 C 
ATOM      2  C1' OXE d   1       3.721   3.006   1.733  0.00  0.00     0.078 C 
ATOM      3  C1  OXE d   1       4.495   2.094   2.651  0.00  0.00    -0.078 A 
ATOM      4  C2  OXE d   1       5.290   2.683   3.605  0.00  0.00    -0.078 A 
ATOM      5  C3  OXE d   1       5.983   1.887   4.512  0.00  0.00     0.003 A 
ATOM      6  C4  OXE d   1       5.999   0.495   4.366  0.00  0.00    -0.002 A 
ATOM      7  C5  OXE d   1       5.228  -0.124   3.376  0.00  0.00    -0.002 A 
ATOM      8  C6  OXE d   1       4.439   0.657   2.539  0.00  0.00     0.003 A 
ENDROOT
TORSDOF 0
ENDMDL
