MODEL 1
REMARK minimizedAffinity 5.46026516
REMARK minimizedRMSD -1
REMARK  0 active torsions:
REMARK  status: ('A' for Active; 'I' for Inactive)
ROOT
ATOM      1  C2' OXE d   1       5.617   4.006   4.109  0.00  0.00     0.078 C 
ATOM      2  C1' OXE d   1       4.122   2.650   2.158  0.00  0.00     0.078 C 
ATOM      3  C1  OXE d   1       4.710   1.838   3.284  0.00  0.00    -0.078 A 
ATOM      4  C2  OXE d   1       5.479   2.502   4.209  0.00  0.00    -0.078 A 
ATOM      5  C3  OXE d   1       6.000   1.809   5.298  0.00  0.00     0.003 A 
ATOM      6  C4  OXE d   1       5.876   0.417   5.377  0.00  0.00    -0.002 A 
ATOM      7  C5  OXE d   1       5.130  -0.285   4.424  0.00  0.00    -0.002 A 
ATOM      8  C6  OXE d   1       4.507   0.414   3.397  0.00  0.00     0.003 A 
ENDROOT
TORSDOF 0
ENDMDL
