MODEL 1
REMARK minimizedAffinity 3.53199172
REMARK minimizedRMSD -1
REMARK  0 active torsions:
REMARK  status: ('A' for Active; 'I' for Inactive)
ROOT
ATOM      1  C2' OXE d   1       6.000   0.792   5.593  0.00  0.00     0.078 C 
ATOM      2  C1' OXE d   1       4.503  -0.210   3.440  0.00  0.00     0.078 C 
ATOM      3  C1  OXE d   1       4.883   1.249   3.414  0.00  0.00    -0.078 A 
ATOM      4  C2  OXE d   1       5.575   1.742   4.493  0.00  0.00    -0.078 A 
ATOM      5  C3  OXE d   1       5.998   3.068   4.495  0.00  0.00     0.003 A 
ATOM      6  C4  OXE d   1       5.592   3.942   3.479  0.00  0.00    -0.002 A 
ATOM      7  C5  OXE d   1       4.853   3.470   2.389  0.00  0.00    -0.002 A 
ATOM      8  C6  OXE d   1       4.527   2.120   2.320  0.00  0.00     0.003 A 
ENDROOT
TORSDOF 0
ENDMDL
