MODEL 1
REMARK minimizedAffinity -5.27002382
REMARK minimizedRMSD -1
REMARK  0 active torsions:
REMARK  status: ('A' for Active; 'I' for Inactive)
ROOT
ATOM      1  C2' OXE d   1      -3.295   0.785   3.441  0.00  0.00     0.078 C 
ATOM      2  C1' OXE d   1      -2.879   2.547   1.296  0.00  0.00     0.078 C 
ATOM      3  C1  OXE d   1      -3.423   3.119   2.581  0.00  0.00    -0.078 A 
ATOM      4  C2  OXE d   1      -3.668   2.242   3.610  0.00  0.00    -0.078 A 
ATOM      5  C3  OXE d   1      -4.118   2.725   4.835  0.00  0.00     0.003 A 
ATOM      6  C4  OXE d   1      -4.470   4.073   4.980  0.00  0.00    -0.002 A 
ATOM      7  C5  OXE d   1      -4.266   4.976   3.931  0.00  0.00    -0.002 A 
ATOM      8  C6  OXE d   1      -3.705   4.524   2.742  0.00  0.00     0.003 A 
ENDROOT
TORSDOF 0
ENDMDL
