MODEL 1
REMARK minimizedAffinity 5.19020319
REMARK minimizedRMSD -1
REMARK  0 active torsions:
REMARK  status: ('A' for Active; 'I' for Inactive)
ROOT
ATOM      1  C2' OXE d   1      -5.879  -1.102   0.762  0.00  0.00     0.078 C 
ATOM      2  C1' OXE d   1      -3.478   0.135  -0.002  0.00  0.00     0.078 C 
ATOM      3  C1  OXE d   1      -3.567  -0.425   1.395  0.00  0.00    -0.078 A 
ATOM      4  C2  OXE d   1      -4.761  -0.987   1.776  0.00  0.00    -0.078 A 
ATOM      5  C3  OXE d   1      -4.879  -1.568   3.036  0.00  0.00     0.003 A 
ATOM      6  C4  OXE d   1      -3.845  -1.448   3.971  0.00  0.00    -0.002 A 
ATOM      7  C5  OXE d   1      -2.634  -0.844   3.617  0.00  0.00    -0.002 A 
ATOM      8  C6  OXE d   1      -2.464  -0.366   2.322  0.00  0.00     0.003 A 
ENDROOT
TORSDOF 0
ENDMDL
