MODEL 1
REMARK minimizedAffinity 7.34201336
REMARK minimizedRMSD -1
REMARK  0 active torsions:
REMARK  status: ('A' for Active; 'I' for Inactive)
ROOT
ATOM      1  C2' OXE d   1      -2.450   0.074   0.197  0.00  0.00     0.078 C 
ATOM      2  C1' OXE d   1      -4.887   0.764  -1.014  0.00  0.00     0.078 C 
ATOM      3  C1  OXE d   1      -3.968   1.884  -0.594  0.00  0.00    -0.078 A 
ATOM      4  C2  OXE d   1      -2.799   1.538   0.040  0.00  0.00    -0.078 A 
ATOM      5  C3  OXE d   1      -1.890   2.530   0.399  0.00  0.00     0.003 A 
ATOM      6  C4  OXE d   1      -2.225   3.882   0.259  0.00  0.00    -0.002 A 
ATOM      7  C5  OXE d   1      -3.428   4.257  -0.348  0.00  0.00    -0.002 A 
ATOM      8  C6  OXE d   1      -4.290   3.272  -0.818  0.00  0.00     0.003 A 
ENDROOT
TORSDOF 0
ENDMDL
