MODEL 1
REMARK minimizedAffinity 2.49746108
REMARK minimizedRMSD -1
REMARK  0 active torsions:
REMARK  status: ('A' for Active; 'I' for Inactive)
ROOT
ATOM      1  C2' OXE d   1       4.949   3.507   1.840  0.00  0.00     0.078 C 
ATOM      2  C1' OXE d   1       5.893   4.727   4.185  0.00  0.00     0.078 C 
ATOM      3  C1  OXE d   1       5.695   3.231   4.200  0.00  0.00    -0.078 A 
ATOM      4  C2  OXE d   1       5.189   2.649   3.063  0.00  0.00    -0.078 A 
ATOM      5  C3  OXE d   1       5.039   1.267   3.005  0.00  0.00     0.003 A 
ATOM      6  C4  OXE d   1       5.253   0.482   4.144  0.00  0.00    -0.002 A 
ATOM      7  C5  OXE d   1       5.731   1.060   5.325  0.00  0.00    -0.002 A 
ATOM      8  C6  OXE d   1       5.997   2.424   5.356  0.00  0.00     0.003 A 
ENDROOT
TORSDOF 0
ENDMDL
