MODEL 1
REMARK minimizedAffinity 0.437582076
REMARK minimizedRMSD -1
REMARK  0 active torsions:
REMARK  status: ('A' for Active; 'I' for Inactive)
ROOT
ATOM      1  C2' OXE d   1       5.308   1.841  -6.000  0.00  0.00     0.078 C 
ATOM      2  C1' OXE d   1       5.962  -0.440  -4.500  0.00  0.00     0.078 C 
ATOM      3  C1  OXE d   1       4.639   0.228  -4.223  0.00  0.00    -0.078 A 
ATOM      4  C2  OXE d   1       4.348   1.370  -4.929  0.00  0.00    -0.078 A 
ATOM      5  C3  OXE d   1       3.116   1.995  -4.752  0.00  0.00     0.003 A 
ATOM      6  C4  OXE d   1       2.238   1.559  -3.753  0.00  0.00    -0.002 A 
ATOM      7  C5  OXE d   1       2.533   0.421  -2.995  0.00  0.00    -0.002 A 
ATOM      8  C6  OXE d   1       3.707  -0.280  -3.247  0.00  0.00     0.003 A 
ENDROOT
TORSDOF 0
ENDMDL
