MODEL 1
REMARK minimizedAffinity 5.84310532
REMARK minimizedRMSD -1
REMARK  0 active torsions:
REMARK  status: ('A' for Active; 'I' for Inactive)
ROOT
ATOM      1  C2' OXE d   1      -3.847  -0.535   0.035  0.00  0.00     0.078 C 
ATOM      2  C1' OXE d   1      -2.611  -0.018   2.502  0.00  0.00     0.078 C 
ATOM      3  C1  OXE d   1      -2.727   1.122   1.521  0.00  0.00    -0.078 A 
ATOM      4  C2  OXE d   1      -3.291   0.848   0.298  0.00  0.00    -0.078 A 
ATOM      5  C3  OXE d   1      -3.472   1.876  -0.623  0.00  0.00     0.003 A 
ATOM      6  C4  OXE d   1      -2.946   3.150  -0.376  0.00  0.00    -0.002 A 
ATOM      7  C5  OXE d   1      -2.332   3.440   0.847  0.00  0.00    -0.002 A 
ATOM      8  C6  OXE d   1      -2.253   2.450   1.821  0.00  0.00     0.003 A 
ENDROOT
TORSDOF 0
ENDMDL
