MODEL 1
REMARK minimizedAffinity 7.59475279
REMARK minimizedRMSD -1
REMARK  0 active torsions:
REMARK  status: ('A' for Active; 'I' for Inactive)
ROOT
ATOM      1  C2' OXE d   1      -6.000  -0.961   1.113  0.00  0.00     0.078 C 
ATOM      2  C1' OXE d   1      -3.904  -1.164  -0.743  0.00  0.00     0.078 C 
ATOM      3  C1  OXE d   1      -3.563  -1.296   0.720  0.00  0.00    -0.078 A 
ATOM      4  C2  OXE d   1      -4.588  -1.149   1.624  0.00  0.00    -0.078 A 
ATOM      5  C3  OXE d   1      -4.337  -1.316   2.983  0.00  0.00     0.003 A 
ATOM      6  C4  OXE d   1      -3.027  -1.479   3.447  0.00  0.00    -0.002 A 
ATOM      7  C5  OXE d   1      -1.963  -1.592   2.546  0.00  0.00    -0.002 A 
ATOM      8  C6  OXE d   1      -2.219  -1.545   1.180  0.00  0.00     0.003 A 
ENDROOT
TORSDOF 0
ENDMDL
