MODEL 1
REMARK minimizedAffinity 3.69953465
REMARK minimizedRMSD -1
REMARK  0 active torsions:
REMARK  status: ('A' for Active; 'I' for Inactive)
ROOT
ATOM      1  C2' OXE d   1      -2.845   0.725   2.405  0.00  0.00     0.078 C 
ATOM      2  C1' OXE d   1      -3.239   0.120  -0.308  0.00  0.00     0.078 C 
ATOM      3  C1  OXE d   1      -3.105   1.573   0.076  0.00  0.00    -0.078 A 
ATOM      4  C2  OXE d   1      -2.959   1.862   1.412  0.00  0.00    -0.078 A 
ATOM      5  C3  OXE d   1      -2.776   3.182   1.815  0.00  0.00     0.003 A 
ATOM      6  C4  OXE d   1      -2.893   4.228   0.892  0.00  0.00    -0.002 A 
ATOM      7  C5  OXE d   1      -3.081   3.957  -0.468  0.00  0.00    -0.002 A 
ATOM      8  C6  OXE d   1      -3.146   2.636  -0.897  0.00  0.00     0.003 A 
ENDROOT
TORSDOF 0
ENDMDL
