MODEL 1
REMARK minimizedAffinity -4.6932292
REMARK minimizedRMSD -1
REMARK  1 active torsions:
REMARK  status: ('A' for Active; 'I' for Inactive)
REMARK    1  A    between atoms: C1_2  and  C2_3 
ROOT
ATOM      1  C2  UNL d   1       0.001  -0.382  -0.747  0.00  0.00    -0.073 A 
ATOM      2  C3  UNL d   1       1.029   0.565  -0.676  0.00  0.00    -0.002 A 
ATOM      3  C4  UNL d   1       1.492   1.011   0.562  0.00  0.00     0.004 A 
ATOM      4  C5  UNL d   1       0.938   0.512   1.740  0.00  0.00    -0.004 A 
ATOM      5  C6  UNL d   1      -0.082  -0.443   1.691  0.00  0.00    -0.075 A 
ATOM      6  C7  UNL d   1      -0.689  -0.989   2.950  0.00  0.00     0.076 C 
ATOM      7  C8  UNL d   1      -0.544  -0.885   0.444  0.00  0.00     0.001 A 
ENDROOT
BRANCH   1   8
ATOM      8  C1  UNL d   1      -0.499  -0.872  -2.081  0.00  0.00     0.053 C 
ATOM      9  C   UNL d   1       0.642  -1.215  -3.026  0.00  0.00     0.018 C 
ENDBRANCH   1   8
TORSDOF 1
ENDMDL
