MODEL 1
REMARK minimizedAffinity 4.3907938
REMARK minimizedRMSD -1
REMARK  1 active torsions:
REMARK  status: ('A' for Active; 'I' for Inactive)
REMARK    1  A    between atoms: C1_2  and  C2_3 
ROOT
ATOM      1  C2  UNL d   1      -2.090   0.249  -0.722  0.00  0.00    -0.073 A 
ATOM      2  C3  UNL d   1      -3.379   0.634  -0.338  0.00  0.00    -0.002 A 
ATOM      3  C4  UNL d   1      -3.714   0.728   1.013  0.00  0.00     0.004 A 
ATOM      4  C5  UNL d   1      -2.763   0.446   1.993  0.00  0.00    -0.004 A 
ATOM      5  C6  UNL d   1      -1.465   0.070   1.630  0.00  0.00    -0.075 A 
ATOM      6  C7  UNL d   1      -0.431  -0.239   2.672  0.00  0.00     0.076 C 
ATOM      7  C8  UNL d   1      -1.138  -0.024   0.271  0.00  0.00     0.001 A 
ENDROOT
BRANCH   1   8
ATOM      8  C1  UNL d   1      -1.722   0.152  -2.180  0.00  0.00     0.053 C 
ATOM      9  C   UNL d   1      -1.970  -1.240  -2.739  0.00  0.00     0.018 C 
ENDBRANCH   1   8
TORSDOF 1
ENDMDL
