MODEL 1
REMARK minimizedAffinity 3.66786647
REMARK minimizedRMSD -1
REMARK  1 active torsions:
REMARK  status: ('A' for Active; 'I' for Inactive)
REMARK    1  A    between atoms: C1_2  and  C2_3 
ROOT
ATOM      1  C2  UNL d   1      -2.446   0.068   2.471  0.00  0.00    -0.073 A 
ATOM      2  C3  UNL d   1      -2.159  -0.963   3.373  0.00  0.00    -0.002 A 
ATOM      3  C4  UNL d   1      -0.835  -1.290   3.670  0.00  0.00     0.004 A 
ATOM      4  C5  UNL d   1       0.213  -0.587   3.076  0.00  0.00    -0.004 A 
ATOM      5  C6  UNL d   1      -0.055   0.455   2.182  0.00  0.00    -0.075 A 
ATOM      6  C7  UNL d   1       1.061   1.219   1.532  0.00  0.00     0.076 C 
ATOM      7  C8  UNL d   1      -1.386   0.776   1.886  0.00  0.00     0.001 A 
ENDROOT
BRANCH   1   8
ATOM      8  C1  UNL d   1      -3.874   0.429   2.151  0.00  0.00     0.053 C 
ATOM      9  C   UNL d   1      -4.070   1.933   2.040  0.00  0.00     0.018 C 
ENDBRANCH   1   8
TORSDOF 1
ENDMDL
