MODEL 1
REMARK minimizedAffinity 2.34870434
REMARK minimizedRMSD -1
REMARK  1 active torsions:
REMARK  status: ('A' for Active; 'I' for Inactive)
REMARK    1  A    between atoms: C1_2  and  C2_3 
ROOT
ATOM      1  C2  UNL d   1      -0.118   0.535   2.566  0.00  0.00    -0.073 A 
ATOM      2  C3  UNL d   1       0.411   1.097   3.734  0.00  0.00    -0.002 A 
ATOM      3  C4  UNL d   1       1.385   2.093   3.658  0.00  0.00     0.004 A 
ATOM      4  C5  UNL d   1       1.836   2.541   2.417  0.00  0.00    -0.004 A 
ATOM      5  C6  UNL d   1       1.312   1.999   1.238  0.00  0.00    -0.075 A 
ATOM      6  C7  UNL d   1       1.789   2.468  -0.105  0.00  0.00     0.076 C 
ATOM      7  C8  UNL d   1       0.336   0.998   1.323  0.00  0.00     0.001 A 
ENDROOT
BRANCH   1   8
ATOM      8  C1  UNL d   1      -1.175  -0.536   2.643  0.00  0.00     0.053 C 
ATOM      9  C   UNL d   1      -2.571   0.024   2.420  0.00  0.00     0.018 C 
ENDBRANCH   1   8
TORSDOF 1
ENDMDL
