MODEL 1
REMARK minimizedAffinity 7.94733334
REMARK minimizedRMSD -1
REMARK  1 active torsions:
REMARK  status: ('A' for Active; 'I' for Inactive)
REMARK    1  A    between atoms: C1_2  and  C2_3 
ROOT
ATOM      1  C2  UNL d   1      -1.237   0.260   2.391  0.00  0.00    -0.073 A 
ATOM      2  C3  UNL d   1      -2.411   0.299   3.151  0.00  0.00    -0.002 A 
ATOM      3  C4  UNL d   1      -3.657   0.334   2.522  0.00  0.00     0.004 A 
ATOM      4  C5  UNL d   1      -3.740   0.323   1.130  0.00  0.00    -0.004 A 
ATOM      5  C6  UNL d   1      -2.578   0.272   0.353  0.00  0.00    -0.075 A 
ATOM      6  C7  UNL d   1      -2.651   0.261  -1.145  0.00  0.00     0.076 C 
ATOM      7  C8  UNL d   1      -1.331   0.240   0.992  0.00  0.00     0.001 A 
ENDROOT
BRANCH   1   8
ATOM      8  C1  UNL d   1       0.110   0.216   3.066  0.00  0.00     0.053 C 
ATOM      9  C   UNL d   1       0.723  -1.175   3.025  0.00  0.00     0.018 C 
ENDBRANCH   1   8
TORSDOF 1
ENDMDL
