MODEL 1
REMARK minimizedAffinity -3.75246024
REMARK minimizedRMSD -1
REMARK  1 active torsions:
REMARK  status: ('A' for Active; 'I' for Inactive)
REMARK    1  A    between atoms: C1_2  and  C2_3 
ROOT
ATOM      1  C2  UNL d   1       0.546   0.679  -1.228  0.00  0.00    -0.073 A 
ATOM      2  C3  UNL d   1       1.481   0.480  -0.207  0.00  0.00    -0.002 A 
ATOM      3  C4  UNL d   1       1.062   0.356   1.119  0.00  0.00     0.004 A 
ATOM      4  C5  UNL d   1      -0.295   0.421   1.435  0.00  0.00    -0.004 A 
ATOM      5  C6  UNL d   1      -1.246   0.607   0.426  0.00  0.00    -0.075 A 
ATOM      6  C7  UNL d   1      -2.709   0.682   0.750  0.00  0.00     0.076 C 
ATOM      7  C8  UNL d   1      -0.817   0.734  -0.902  0.00  0.00     0.001 A 
ENDROOT
BRANCH   1   8
ATOM      8  C1  UNL d   1       0.993   0.807  -2.662  0.00  0.00     0.053 C 
ATOM      9  C   UNL d   1       0.878  -0.508  -3.415  0.00  0.00     0.018 C 
ENDBRANCH   1   8
TORSDOF 1
ENDMDL
