MODEL 1
REMARK minimizedAffinity 8.20835495
REMARK minimizedRMSD -1
REMARK  1 active torsions:
REMARK  status: ('A' for Active; 'I' for Inactive)
REMARK    1  A    between atoms: C1_2  and  C2_3 
ROOT
ATOM      1  C2  UNL d   1      -1.568   0.092   2.388  0.00  0.00    -0.073 A 
ATOM      2  C3  UNL d   1      -0.665   1.154   2.520  0.00  0.00    -0.002 A 
ATOM      3  C4  UNL d   1       0.696   0.904   2.701  0.00  0.00     0.004 A 
ATOM      4  C5  UNL d   1       1.169  -0.407   2.745  0.00  0.00    -0.004 A 
ATOM      5  C6  UNL d   1       0.284  -1.481   2.604  0.00  0.00    -0.075 A 
ATOM      6  C7  UNL d   1       0.777  -2.898   2.651  0.00  0.00     0.076 C 
ATOM      7  C8  UNL d   1      -1.081  -1.222   2.425  0.00  0.00     0.001 A 
ENDROOT
BRANCH   1   8
ATOM      8  C1  UNL d   1      -3.037   0.357   2.186  0.00  0.00     0.053 C 
ATOM      9  C   UNL d   1      -3.340   1.844   2.085  0.00  0.00     0.018 C 
ENDBRANCH   1   8
TORSDOF 1
ENDMDL
