MODEL 1
REMARK minimizedAffinity 0.000535792264
REMARK minimizedRMSD -1
REMARK  1 active torsions:
REMARK  status: ('A' for Active; 'I' for Inactive)
REMARK    1  A    between atoms: C1_2  and  C2_3 
ROOT
ATOM      1  C2  UNL d   1       0.112   0.692   1.954  0.00  0.00    -0.073 A 
ATOM      2  C3  UNL d   1      -0.837   0.923   0.952  0.00  0.00    -0.002 A 
ATOM      3  C4  UNL d   1      -2.197   0.755   1.217  0.00  0.00     0.004 A 
ATOM      4  C5  UNL d   1      -2.621   0.361   2.486  0.00  0.00    -0.004 A 
ATOM      5  C6  UNL d   1      -1.688   0.137   3.504  0.00  0.00    -0.075 A 
ATOM      6  C7  UNL d   1      -2.128  -0.290   4.874  0.00  0.00     0.076 C 
ATOM      7  C8  UNL d   1      -0.324   0.305   3.229  0.00  0.00     0.001 A 
ENDROOT
BRANCH   1   8
ATOM      8  C1  UNL d   1       1.581   0.879   1.674  0.00  0.00     0.053 C 
ATOM      9  C   UNL d   1       1.831   1.969   0.644  0.00  0.00     0.018 C 
ENDBRANCH   1   8
TORSDOF 1
ENDMDL
