MODEL 1
REMARK minimizedAffinity -0.561539948
REMARK minimizedRMSD -1
REMARK  1 active torsions:
REMARK  status: ('A' for Active; 'I' for Inactive)
REMARK    1  A    between atoms: C1_2  and  C2_3 
ROOT
ATOM      1  C2  UNL d   1      -0.946   0.872   3.205  0.00  0.00    -0.073 A 
ATOM      2  C3  UNL d   1       0.434   0.854   3.440  0.00  0.00    -0.002 A 
ATOM      3  C4  UNL d   1       1.320   0.536   2.410  0.00  0.00     0.004 A 
ATOM      4  C5  UNL d   1       0.838   0.241   1.135  0.00  0.00    -0.004 A 
ATOM      5  C6  UNL d   1      -0.537   0.265   0.878  0.00  0.00    -0.075 A 
ATOM      6  C7  UNL d   1      -1.072  -0.052  -0.488  0.00  0.00     0.076 C 
ATOM      7  C8  UNL d   1      -1.421   0.583   1.918  0.00  0.00     0.001 A 
ENDROOT
BRANCH   1   8
ATOM      8  C1  UNL d   1      -1.906   1.221   4.313  0.00  0.00     0.053 C 
ATOM      9  C   UNL d   1      -3.190   1.839   3.780  0.00  0.00     0.018 C 
ENDBRANCH   1   8
TORSDOF 1
ENDMDL
