MODEL 1
REMARK minimizedAffinity -0.757879436
REMARK minimizedRMSD -1
REMARK  1 active torsions:
REMARK  status: ('A' for Active; 'I' for Inactive)
REMARK    1  A    between atoms: C1_2  and  C2_3 
ROOT
ATOM      1  C2  UNL d   1      -0.417   0.481  -0.271  0.00  0.00    -0.073 A 
ATOM      2  C3  UNL d   1       0.844   0.396  -0.873  0.00  0.00    -0.002 A 
ATOM      3  C4  UNL d   1       1.993   0.279  -0.090  0.00  0.00     0.004 A 
ATOM      4  C5  UNL d   1       1.893   0.239   1.300  0.00  0.00    -0.004 A 
ATOM      5  C6  UNL d   1       0.642   0.310   1.921  0.00  0.00    -0.075 A 
ATOM      6  C7  UNL d   1       0.518   0.271   3.415  0.00  0.00     0.076 C 
ATOM      7  C8  UNL d   1      -0.507   0.430   1.127  0.00  0.00     0.001 A 
ENDROOT
BRANCH   1   8
ATOM      8  C1  UNL d   1      -1.661   0.600  -1.113  0.00  0.00     0.053 C 
ATOM      9  C   UNL d   1      -2.920   0.663  -0.263  0.00  0.00     0.018 C 
ENDBRANCH   1   8
TORSDOF 1
ENDMDL
