MODEL 1
REMARK minimizedAffinity -0.581604958
REMARK minimizedRMSD -1
REMARK  1 active torsions:
REMARK  status: ('A' for Active; 'I' for Inactive)
REMARK    1  A    between atoms: C1_2  and  C2_3 
ROOT
ATOM      1  C2  UNL d   1       1.139   0.520   0.961  0.00  0.00    -0.073 A 
ATOM      2  C3  UNL d   1       0.229   0.529  -0.102  0.00  0.00    -0.002 A 
ATOM      3  C4  UNL d   1      -1.041  -0.028   0.052  0.00  0.00     0.004 A 
ATOM      4  C5  UNL d   1      -1.417  -0.592   1.271  0.00  0.00    -0.004 A 
ATOM      5  C6  UNL d   1      -0.526  -0.600   2.349  0.00  0.00    -0.075 A 
ATOM      6  C7  UNL d   1      -0.914  -1.204   3.667  0.00  0.00     0.076 C 
ATOM      7  C8  UNL d   1       0.749  -0.041   2.186  0.00  0.00     0.001 A 
ENDROOT
BRANCH   1   8
ATOM      8  C1  UNL d   1       2.509   1.125   0.801  0.00  0.00     0.053 C 
ATOM      9  C   UNL d   1       3.575   0.327   1.535  0.00  0.00     0.018 C 
ENDBRANCH   1   8
TORSDOF 1
ENDMDL
