MODEL 1
REMARK minimizedAffinity -3.95478845
REMARK minimizedRMSD -1
REMARK  0 active torsions:
REMARK  status: ('A' for Active; 'I' for Inactive)
ROOT
ATOM      1  C4' PXY d   1       0.439  -0.622  -1.739  0.00  0.00     0.077 C 
ATOM      2  C1' PXY d   1      -1.187   1.397   3.427  0.00  0.00     0.077 C 
ATOM      3  C1  PXY d   1      -0.749   0.873   2.074  0.00  0.00    -0.082 A 
ATOM      4  C2  PXY d   1      -1.661   0.562   1.167  0.00  0.00     0.003 A 
ATOM      5  C3  PXY d   1      -1.283   0.057  -0.051  0.00  0.00     0.003 A 
ATOM      6  C4  PXY d   1       0.043  -0.081  -0.363  0.00  0.00    -0.082 A 
ATOM      7  C5  PXY d   1       0.979   0.245   0.553  0.00  0.00     0.003 A 
ATOM      8  C6  PXY d   1       0.574   0.717   1.799  0.00  0.00     0.003 A 
ENDROOT
TORSDOF 0
ENDMDL
