MODEL 1
REMARK minimizedAffinity -0.168021366
REMARK minimizedRMSD -1
REMARK  0 active torsions:
REMARK  status: ('A' for Active; 'I' for Inactive)
ROOT
ATOM      1  C4' PXY d   1      -4.422   1.585  -0.082  0.00  0.00     0.077 C 
ATOM      2  C1' PXY d   1       0.398  -1.594  -0.360  0.00  0.00     0.077 C 
ATOM      3  C1  PXY d   1      -0.860  -0.752  -0.280  0.00  0.00    -0.082 A 
ATOM      4  C2  PXY d   1      -2.040  -1.318  -0.475  0.00  0.00     0.003 A 
ATOM      5  C3  PXY d   1      -3.185  -0.565  -0.438  0.00  0.00     0.003 A 
ATOM      6  C4  PXY d   1      -3.126   0.771  -0.145  0.00  0.00    -0.082 A 
ATOM      7  C5  PXY d   1      -1.927   1.354   0.067  0.00  0.00     0.003 A 
ATOM      8  C6  PXY d   1      -0.773   0.581  -0.017  0.00  0.00     0.003 A 
ENDROOT
TORSDOF 0
ENDMDL
