MODEL 1
REMARK minimizedAffinity -5.31171703
REMARK minimizedRMSD -1
REMARK  0 active torsions:
REMARK  status: ('A' for Active; 'I' for Inactive)
ROOT
ATOM      1  C4' PXY d   1       0.817  -0.679  -1.960  0.00  0.00     0.077 C 
ATOM      2  C1' PXY d   1      -1.179   1.065   3.176  0.00  0.00     0.077 C 
ATOM      3  C1  PXY d   1      -0.644   0.614   1.832  0.00  0.00    -0.082 A 
ATOM      4  C2  PXY d   1      -1.489   0.334   0.852  0.00  0.00     0.003 A 
ATOM      5  C3  PXY d   1      -1.023  -0.107  -0.360  0.00  0.00     0.003 A 
ATOM      6  C4  PXY d   1       0.322  -0.210  -0.589  0.00  0.00    -0.082 A 
ATOM      7  C5  PXY d   1       1.191   0.084   0.401  0.00  0.00     0.003 A 
ATOM      8  C6  PXY d   1       0.697   0.490   1.638  0.00  0.00     0.003 A 
ENDROOT
TORSDOF 0
ENDMDL
