MODEL 1
REMARK minimizedAffinity -5.69842672
REMARK minimizedRMSD -1
REMARK  0 active torsions:
REMARK  status: ('A' for Active; 'I' for Inactive)
ROOT
ATOM      1  C4' PXY d   1      -2.313   0.655  -0.474  0.00  0.00     0.077 C 
ATOM      2  C1' PXY d   1       1.794  -0.075   3.529  0.00  0.00     0.077 C 
ATOM      3  C1  PXY d   1       0.726   0.115   2.470  0.00  0.00    -0.082 A 
ATOM      4  C2  PXY d   1      -0.413   0.710   2.788  0.00  0.00     0.003 A 
ATOM      5  C3  PXY d   1      -1.402   0.862   1.851  0.00  0.00     0.003 A 
ATOM      6  C4  PXY d   1      -1.203   0.449   0.561  0.00  0.00    -0.082 A 
ATOM      7  C5  PXY d   1      -0.040  -0.149   0.225  0.00  0.00     0.003 A 
ATOM      8  C6  PXY d   1       0.935  -0.331   1.201  0.00  0.00     0.003 A 
ENDROOT
TORSDOF 0
ENDMDL
