MODEL 1
REMARK minimizedAffinity -3.80895495
REMARK minimizedRMSD -1
REMARK  0 active torsions:
REMARK  status: ('A' for Active; 'I' for Inactive)
ROOT
ATOM      1  C4' PXY d   1       0.579  -0.679  -2.043  0.00  0.00     0.077 C 
ATOM      2  C1' PXY d   1      -0.406   1.599   3.177  0.00  0.00     0.077 C 
ATOM      3  C1  PXY d   1      -0.160   0.997   1.808  0.00  0.00    -0.082 A 
ATOM      4  C2  PXY d   1       1.079   0.741   1.419  0.00  0.00     0.003 A 
ATOM      5  C3  PXY d   1       1.322   0.226   0.172  0.00  0.00     0.003 A 
ATOM      6  C4  PXY d   1       0.283  -0.080  -0.666  0.00  0.00    -0.082 A 
ATOM      7  C5  PXY d   1      -0.984   0.169  -0.272  0.00  0.00     0.003 A 
ATOM      8  C6  PXY d   1      -1.207   0.730   0.982  0.00  0.00     0.003 A 
ENDROOT
TORSDOF 0
ENDMDL
