MODEL 1
REMARK minimizedAffinity -3.97297192
REMARK minimizedRMSD -1
REMARK  0 active torsions:
REMARK  status: ('A' for Active; 'I' for Inactive)
ROOT
ATOM      1  C4' PXY d   1      -1.059   2.169   2.658  0.00  0.00     0.077 C 
ATOM      2  C1' PXY d   1       0.642  -1.437  -1.528  0.00  0.00     0.077 C 
ATOM      3  C1  PXY d   1       0.184  -0.492  -0.434  0.00  0.00    -0.082 A 
ATOM      4  C2  PXY d   1       1.055   0.331   0.127  0.00  0.00     0.003 A 
ATOM      5  C3  PXY d   1       0.664   1.169   1.139  0.00  0.00     0.003 A 
ATOM      6  C4  PXY d   1      -0.643   1.204   1.544  0.00  0.00    -0.082 A 
ATOM      7  C5  PXY d   1      -1.540   0.376   0.969  0.00  0.00     0.003 A 
ATOM      8  C6  PXY d   1      -1.115  -0.497  -0.028  0.00  0.00     0.003 A 
ENDROOT
TORSDOF 0
ENDMDL
