MODEL 1
REMARK minimizedAffinity -4.36200809
REMARK minimizedRMSD -1
REMARK  0 active torsions:
REMARK  status: ('A' for Active; 'I' for Inactive)
ROOT
ATOM      1  C4' PXY d   1      -0.616   1.046   2.932  0.00  0.00     0.077 C 
ATOM      2  C1' PXY d   1       0.697  -0.509  -2.478  0.00  0.00     0.077 C 
ATOM      3  C1  PXY d   1       0.361  -0.110  -1.055  0.00  0.00    -0.082 A 
ATOM      4  C2  PXY d   1      -0.793   0.483  -0.797  0.00  0.00     0.003 A 
ATOM      5  C3  PXY d   1      -1.100   0.879   0.480  0.00  0.00     0.003 A 
ATOM      6  C4  PXY d   1      -0.239   0.618   1.512  0.00  0.00    -0.082 A 
ATOM      7  C5  PXY d   1       0.936   0.003   1.258  0.00  0.00     0.003 A 
ATOM      8  C6  PXY d   1       1.246  -0.354  -0.051  0.00  0.00     0.003 A 
ENDROOT
TORSDOF 0
ENDMDL
