MODEL 1
REMARK minimizedAffinity -4.52510786
REMARK minimizedRMSD -1
REMARK  0 active torsions:
REMARK  status: ('A' for Active; 'I' for Inactive)
ROOT
ATOM      1  C4' PXY d   1       0.223  -0.723  -2.905  0.00  0.00     0.077 C 
ATOM      2  C1' PXY d   1      -1.317   0.707   2.480  0.00  0.00     0.077 C 
ATOM      3  C1  PXY d   1      -0.926   0.331   1.065  0.00  0.00    -0.082 A 
ATOM      4  C2  PXY d   1       0.258  -0.214   0.836  0.00  0.00     0.003 A 
ATOM      5  C3  PXY d   1       0.640  -0.530  -0.442  0.00  0.00     0.003 A 
ATOM      6  C4  PXY d   1      -0.218  -0.336  -1.491  0.00  0.00    -0.082 A 
ATOM      7  C5  PXY d   1      -1.432   0.210  -1.264  0.00  0.00     0.003 A 
ATOM      8  C6  PXY d   1      -1.786   0.562   0.035  0.00  0.00     0.003 A 
ENDROOT
TORSDOF 0
ENDMDL
