MODEL 1
REMARK minimizedAffinity -4.79241323
REMARK minimizedRMSD -1
REMARK  0 active torsions:
REMARK  status: ('A' for Active; 'I' for Inactive)
ROOT
ATOM      1  C4' PXY d   1      -0.005   0.386   2.456  0.00  0.00     0.077 C 
ATOM      2  C1' PXY d   1       0.437  -0.026  -3.293  0.00  0.00     0.077 C 
ATOM      3  C1  PXY d   1       0.333   0.088  -1.785  0.00  0.00    -0.082 A 
ATOM      4  C2  PXY d   1      -0.416  -0.772  -1.114  0.00  0.00     0.003 A 
ATOM      5  C3  PXY d   1      -0.547  -0.663   0.247  0.00  0.00     0.003 A 
ATOM      6  C4  PXY d   1       0.137   0.303   0.934  0.00  0.00    -0.082 A 
ATOM      7  C5  PXY d   1       0.912   1.178   0.258  0.00  0.00     0.003 A 
ATOM      8  C6  PXY d   1       0.999   1.076  -1.128  0.00  0.00     0.003 A 
ENDROOT
TORSDOF 0
ENDMDL
