MODEL 1
REMARK minimizedAffinity -4.12491941
REMARK minimizedRMSD -1
REMARK  0 active torsions:
REMARK  status: ('A' for Active; 'I' for Inactive)
ROOT
ATOM      1  C4' PXY d   1       1.135  -0.546  -2.209  0.00  0.00     0.077 C 
ATOM      2  C1' PXY d   1      -0.697   1.350   2.936  0.00  0.00     0.077 C 
ATOM      3  C1  PXY d   1      -0.228   0.846   1.585  0.00  0.00    -0.082 A 
ATOM      4  C2  PXY d   1       1.068   0.785   1.324  0.00  0.00     0.003 A 
ATOM      5  C3  PXY d   1       1.509   0.362   0.096  0.00  0.00     0.003 A 
ATOM      6  C4  PXY d   1       0.616  -0.053  -0.855  0.00  0.00    -0.082 A 
ATOM      7  C5  PXY d   1      -0.708  -0.003  -0.593  0.00  0.00     0.003 A 
ATOM      8  C6  PXY d   1      -1.136   0.468   0.645  0.00  0.00     0.003 A 
ENDROOT
TORSDOF 0
ENDMDL
