MODEL 1
REMARK minimizedAffinity -5.33643007
REMARK minimizedRMSD -1
REMARK  0 active torsions:
REMARK  status: ('A' for Active; 'I' for Inactive)
ROOT
ATOM      1  C4' PXY d   1       3.195  -0.343   1.814  0.00  0.00     0.077 C 
ATOM      2  C1' PXY d   1      -2.194  -0.170  -0.270  0.00  0.00     0.077 C 
ATOM      3  C1  PXY d   1      -0.783  -0.204   0.283  0.00  0.00    -0.082 A 
ATOM      4  C2  PXY d   1       0.150  -0.900  -0.347  0.00  0.00     0.003 A 
ATOM      5  C3  PXY d   1       1.423  -0.968   0.156  0.00  0.00     0.003 A 
ATOM      6  C4  PXY d   1       1.759  -0.273   1.287  0.00  0.00    -0.082 A 
ATOM      7  C5  PXY d   1       0.816   0.448   1.930  0.00  0.00     0.003 A 
ATOM      8  C6  PXY d   1      -0.481   0.471   1.425  0.00  0.00     0.003 A 
ENDROOT
TORSDOF 0
ENDMDL
