MODEL 1
REMARK minimizedAffinity -6.50804329
REMARK minimizedRMSD -1
REMARK  0 active torsions:
REMARK  status: ('A' for Active; 'I' for Inactive)
ROOT
ATOM      1  C2' OXE d   1       0.530  -0.750  -0.692  0.00  0.00     0.078 C 
ATOM      2  C1' OXE d   1      -1.930   0.501  -0.176  0.00  0.00     0.078 C 
ATOM      3  C1  OXE d   1      -0.925   0.433   0.948  0.00  0.00    -0.078 A 
ATOM      4  C2  OXE d   1       0.257  -0.222   0.700  0.00  0.00    -0.078 A 
ATOM      5  C3  OXE d   1       1.240  -0.266   1.684  0.00  0.00     0.003 A 
ATOM      6  C4  OXE d   1       0.976   0.216   2.972  0.00  0.00    -0.002 A 
ATOM      7  C5  OXE d   1      -0.237   0.851   3.257  0.00  0.00    -0.002 A 
ATOM      8  C6  OXE d   1      -1.180   1.006   2.246  0.00  0.00     0.003 A 
ENDROOT
TORSDOF 0
ENDMDL
