MODEL 1
REMARK minimizedAffinity -3.80497575
REMARK minimizedRMSD -1
REMARK  0 active torsions:
REMARK  status: ('A' for Active; 'I' for Inactive)
ROOT
ATOM      1  C2' OXE d   1      -1.925  -0.147  -0.622  0.00  0.00     0.078 C 
ATOM      2  C1' OXE d   1       0.802  -0.438  -1.222  0.00  0.00     0.078 C 
ATOM      3  C1  OXE d   1       0.435   0.124   0.128  0.00  0.00    -0.078 A 
ATOM      4  C2  OXE d   1      -0.900   0.307   0.396  0.00  0.00    -0.078 A 
ATOM      5  C3  OXE d   1      -1.296   0.772   1.647  0.00  0.00     0.003 A 
ATOM      6  C4  OXE d   1      -0.342   1.199   2.578  0.00  0.00    -0.002 A 
ATOM      7  C5  OXE d   1       1.024   1.058   2.311  0.00  0.00    -0.002 A 
ATOM      8  C6  OXE d   1       1.428   0.485   1.110  0.00  0.00     0.003 A 
ENDROOT
TORSDOF 0
ENDMDL
