MODEL 1
REMARK minimizedAffinity -4.03981018
REMARK minimizedRMSD -1
REMARK  0 active torsions:
REMARK  status: ('A' for Active; 'I' for Inactive)
ROOT
ATOM      1  C2' OXE d   1       2.178  -0.318   2.011  0.00  0.00     0.078 C 
ATOM      2  C1' OXE d   1      -0.185   1.009   2.740  0.00  0.00     0.078 C 
ATOM      3  C1  OXE d   1      -0.066   0.514   1.321  0.00  0.00    -0.078 A 
ATOM      4  C2  OXE d   1       1.113  -0.093   0.960  0.00  0.00    -0.078 A 
ATOM      5  C3  OXE d   1       1.254  -0.617  -0.322  0.00  0.00     0.003 A 
ATOM      6  C4  OXE d   1       0.268  -0.395  -1.291  0.00  0.00    -0.002 A 
ATOM      7  C5  OXE d   1      -0.924   0.256  -0.955  0.00  0.00    -0.002 A 
ATOM      8  C6  OXE d   1      -1.124   0.678   0.355  0.00  0.00     0.003 A 
ENDROOT
TORSDOF 0
ENDMDL
