MODEL 1
REMARK minimizedAffinity -2.43695474
REMARK minimizedRMSD -1
REMARK  0 active torsions:
REMARK  status: ('A' for Active; 'I' for Inactive)
ROOT
ATOM      1  C2' OXE d   1       0.770  -1.041  -1.121  0.00  0.00     0.078 C 
ATOM      2  C1' OXE d   1       2.385   0.654  -2.669  0.00  0.00     0.078 C 
ATOM      3  C1  OXE d   1       1.083   0.183  -3.267  0.00  0.00    -0.078 A 
ATOM      4  C2  OXE d   1       0.321  -0.683  -2.521  0.00  0.00    -0.078 A 
ATOM      5  C3  OXE d   1      -0.915  -1.104  -3.003  0.00  0.00     0.003 A 
ATOM      6  C4  OXE d   1      -1.319  -0.776  -4.303  0.00  0.00    -0.002 A 
ATOM      7  C5  OXE d   1      -0.539   0.073  -5.095  0.00  0.00    -0.002 A 
ATOM      8  C6  OXE d   1       0.642   0.595  -4.577  0.00  0.00     0.003 A 
ENDROOT
TORSDOF 0
ENDMDL
