MODEL 1
REMARK minimizedAffinity -4.26182556
REMARK minimizedRMSD -1
REMARK  0 active torsions:
REMARK  status: ('A' for Active; 'I' for Inactive)
ROOT
ATOM      1  C2' OXE d   1      -3.067   1.100  -0.693  0.00  0.00     0.078 C 
ATOM      2  C1' OXE d   1      -1.978   1.252   1.890  0.00  0.00     0.078 C 
ATOM      3  C1  OXE d   1      -1.171   0.552   0.827  0.00  0.00    -0.078 A 
ATOM      4  C2  OXE d   1      -1.732   0.441  -0.423  0.00  0.00    -0.078 A 
ATOM      5  C3  OXE d   1      -1.006  -0.148  -1.455  0.00  0.00     0.003 A 
ATOM      6  C4  OXE d   1       0.224  -0.764  -1.194  0.00  0.00    -0.002 A 
ATOM      7  C5  OXE d   1       0.796  -0.697   0.081  0.00  0.00    -0.002 A 
ATOM      8  C6  OXE d   1       0.132  -0.008   1.090  0.00  0.00     0.003 A 
ENDROOT
TORSDOF 0
ENDMDL
