MODEL 1
REMARK minimizedAffinity -2.02905583
REMARK minimizedRMSD -1
REMARK  0 active torsions:
REMARK  status: ('A' for Active; 'I' for Inactive)
ROOT
ATOM      1  C2' OXE d   1       1.631  -1.384  -0.722  0.00  0.00     0.078 C 
ATOM      2  C1' OXE d   1      -0.868  -0.110  -0.623  0.00  0.00     0.078 C 
ATOM      3  C1  OXE d   1       0.010   0.157  -1.820  0.00  0.00    -0.078 A 
ATOM      4  C2  OXE d   1       1.251  -0.434  -1.837  0.00  0.00    -0.078 A 
ATOM      5  C3  OXE d   1       2.079  -0.265  -2.943  0.00  0.00     0.003 A 
ATOM      6  C4  OXE d   1       1.724   0.623  -3.965  0.00  0.00    -0.002 A 
ATOM      7  C5  OXE d   1       0.482   1.266  -3.948  0.00  0.00    -0.002 A 
ATOM      8  C6  OXE d   1      -0.403   1.011  -2.905  0.00  0.00     0.003 A 
ENDROOT
TORSDOF 0
ENDMDL
