MODEL 1
REMARK minimizedAffinity -6.14204693
REMARK minimizedRMSD -1
REMARK  0 active torsions:
REMARK  status: ('A' for Active; 'I' for Inactive)
ROOT
ATOM      1  C2' OXE d   1      -1.519  -0.050   0.007  0.00  0.00     0.078 C 
ATOM      2  C1' OXE d   1      -1.127   0.956   2.598  0.00  0.00     0.078 C 
ATOM      3  C1  OXE d   1       0.057   0.340   1.896  0.00  0.00    -0.078 A 
ATOM      4  C2  OXE d   1      -0.155  -0.192   0.646  0.00  0.00    -0.078 A 
ATOM      5  C3  OXE d   1       0.916  -0.722  -0.068  0.00  0.00     0.003 A 
ATOM      6  C4  OXE d   1       2.172  -0.858   0.535  0.00  0.00    -0.002 A 
ATOM      7  C5  OXE d   1       2.400  -0.359   1.822  0.00  0.00    -0.002 A 
ATOM      8  C6  OXE d   1       1.366   0.280   2.498  0.00  0.00     0.003 A 
ENDROOT
TORSDOF 0
ENDMDL
