MODEL 1
REMARK minimizedAffinity 0.867202163
REMARK minimizedRMSD -1
REMARK  0 active torsions:
REMARK  status: ('A' for Active; 'I' for Inactive)
ROOT
ATOM      1  N1  IND d   1       2.277   0.005   0.433  0.00  0.00    -0.196 N 
ATOM      2  C2  IND d   1       1.757  -1.214   0.097  0.00  0.00     0.054 A 
ATOM      3  C3  IND d   1       0.407  -1.153   0.055  0.00  0.00    -0.031 A 
ATOM      4  C4  IND d   1      -1.151   0.867   0.401  0.00  0.00     0.051 A 
ATOM      5  C5  IND d   1      -1.142   2.185   0.763  0.00  0.00    -0.031 A 
ATOM      6  C6  IND d   1       0.031   2.858   1.036  0.00  0.00     0.015 A 
ATOM      7  C7  IND d   1       1.246   2.238   0.946  0.00  0.00    -0.016 A 
ATOM      8  C8  IND d   1       1.240   0.898   0.586  0.00  0.00    -0.047 A 
ATOM      9  C9  IND d   1       0.049   0.198   0.349  0.00  0.00    -0.096 A 
ATOM     10  HN1 IND d   1       3.113   0.184   0.531  0.00  0.00     0.298 HD
ENDROOT
TORSDOF 0
ENDMDL
