MODEL 1
REMARK minimizedAffinity -3.36635399
REMARK minimizedRMSD -1
REMARK  0 active torsions:
REMARK  status: ('A' for Active; 'I' for Inactive)
ROOT
ATOM      1  N1  IND d   1       0.757  -0.023   0.339  0.00  0.00    -0.196 N 
ATOM      2  C2  IND d   1      -0.014   1.087   0.126  0.00  0.00     0.054 A 
ATOM      3  C3  IND d   1      -1.059   0.786  -0.677  0.00  0.00    -0.031 A 
ATOM      4  C4  IND d   1      -1.756  -1.482  -1.675  0.00  0.00     0.051 A 
ATOM      5  C5  IND d   1      -1.345  -2.781  -1.789  0.00  0.00    -0.031 A 
ATOM      6  C6  IND d   1      -0.190  -3.236  -1.186  0.00  0.00     0.015 A 
ATOM      7  C7  IND d   1       0.594  -2.408  -0.433  0.00  0.00    -0.016 A 
ATOM      8  C8  IND d   1       0.183  -1.088  -0.320  0.00  0.00    -0.047 A 
ATOM      9  C9  IND d   1      -0.965  -0.610  -0.965  0.00  0.00    -0.096 A 
ATOM     10  HN1 IND d   1       1.478  -0.050   0.806  0.00  0.00     0.298 HD
ENDROOT
TORSDOF 0
ENDMDL
