MODEL 1
REMARK minimizedAffinity -4.73133278
REMARK minimizedRMSD -1
REMARK  0 active torsions:
REMARK  status: ('A' for Active; 'I' for Inactive)
ROOT
ATOM      1  N1  IND d   1      -0.141   0.223   0.605  0.00  0.00    -0.196 N 
ATOM      2  C2  IND d   1      -0.724   1.068  -0.297  0.00  0.00     0.054 A 
ATOM      3  C3  IND d   1      -0.935   0.431  -1.471  0.00  0.00    -0.031 A 
ATOM      4  C4  IND d   1      -0.496  -2.027  -2.098  0.00  0.00     0.051 A 
ATOM      5  C5  IND d   1       0.060  -3.179  -1.617  0.00  0.00    -0.031 A 
ATOM      6  C6  IND d   1       0.584  -3.259  -0.343  0.00  0.00     0.015 A 
ATOM      7  C7  IND d   1       0.563  -2.187   0.504  0.00  0.00    -0.016 A 
ATOM      8  C8  IND d   1       0.006  -1.013   0.016  0.00  0.00    -0.047 A 
ATOM      9  C9  IND d   1      -0.489  -0.915  -1.290  0.00  0.00    -0.096 A 
ATOM     10  HN1 IND d   1       0.093   0.429   1.407  0.00  0.00     0.298 HD
ENDROOT
TORSDOF 0
ENDMDL
