MODEL 1
REMARK minimizedAffinity -1.97409809
REMARK minimizedRMSD -1
REMARK  0 active torsions:
REMARK  status: ('A' for Active; 'I' for Inactive)
ROOT
ATOM      1  N1  IND d   1       0.474  -3.136  -0.885  0.00  0.00    -0.196 N 
ATOM      2  C2  IND d   1      -0.352  -3.498  -1.912  0.00  0.00     0.054 A 
ATOM      3  C3  IND d   1      -1.267  -2.530  -2.143  0.00  0.00    -0.031 A 
ATOM      4  C4  IND d   1      -1.531  -0.227  -1.023  0.00  0.00     0.051 A 
ATOM      5  C5  IND d   1      -1.034   0.540  -0.007  0.00  0.00    -0.031 A 
ATOM      6  C6  IND d   1       0.014   0.113   0.783  0.00  0.00     0.015 A 
ATOM      7  C7  IND d   1       0.614  -1.097   0.578  0.00  0.00    -0.016 A 
ATOM      8  C8  IND d   1       0.108  -1.881  -0.449  0.00  0.00    -0.047 A 
ATOM      9  C9  IND d   1      -0.983  -1.472  -1.226  0.00  0.00    -0.096 A 
ATOM     10  HN1 IND d   1       1.115  -3.611  -0.564  0.00  0.00     0.298 HD
ENDROOT
TORSDOF 0
ENDMDL
