MODEL 1
REMARK minimizedAffinity -3.19015121
REMARK minimizedRMSD -1
REMARK  0 active torsions:
REMARK  status: ('A' for Active; 'I' for Inactive)
ROOT
ATOM      1  N1  IND d   1       1.182  -0.293  -0.067  0.00  0.00    -0.196 N 
ATOM      2  C2  IND d   1       0.424  -1.431  -0.064  0.00  0.00     0.054 A 
ATOM      3  C3  IND d   1      -0.869  -1.134   0.201  0.00  0.00    -0.031 A 
ATOM      4  C4  IND d   1      -1.979   1.160   0.561  0.00  0.00     0.051 A 
ATOM      5  C5  IND d   1      -1.689   2.489   0.686  0.00  0.00    -0.031 A 
ATOM      6  C6  IND d   1      -0.401   2.969   0.562  0.00  0.00     0.015 A 
ATOM      7  C7  IND d   1       0.647   2.135   0.295  0.00  0.00    -0.016 A 
ATOM      8  C8  IND d   1       0.357   0.783   0.174  0.00  0.00    -0.047 A 
ATOM      9  C9  IND d   1      -0.942   0.285   0.341  0.00  0.00    -0.096 A 
ATOM     10  HN1 IND d   1       2.031  -0.257  -0.197  0.00  0.00     0.298 HD
ENDROOT
TORSDOF 0
ENDMDL
