MODEL 1
REMARK minimizedAffinity -1.03611016
REMARK minimizedRMSD -1
REMARK  0 active torsions:
REMARK  status: ('A' for Active; 'I' for Inactive)
ROOT
ATOM      1  N1  IND d   1       2.255  -0.432   0.582  0.00  0.00    -0.196 N 
ATOM      2  C2  IND d   1       1.289  -1.316   0.190  0.00  0.00     0.054 A 
ATOM      3  C3  IND d   1       0.084  -0.704   0.138  0.00  0.00    -0.031 A 
ATOM      4  C4  IND d   1      -0.515   1.764   0.556  0.00  0.00     0.051 A 
ATOM      5  C5  IND d   1       0.025   2.948   0.974  0.00  0.00    -0.031 A 
ATOM      6  C6  IND d   1       1.364   3.069   1.286  0.00  0.00     0.015 A 
ATOM      7  C7  IND d   1       2.218   2.008   1.181  0.00  0.00    -0.016 A 
ATOM      8  C8  IND d   1       1.672   0.803   0.764  0.00  0.00    -0.047 A 
ATOM      9  C9  IND d   1       0.306   0.664   0.486  0.00  0.00    -0.096 A 
ATOM     10  HN1 IND d   1       3.087  -0.616   0.696  0.00  0.00     0.298 HD
ENDROOT
TORSDOF 0
ENDMDL
