MODEL 1
REMARK minimizedAffinity -1.910537
REMARK minimizedRMSD -1
REMARK  0 active torsions:
REMARK  status: ('A' for Active; 'I' for Inactive)
ROOT
ATOM      1  N1  IND d   1       0.701  -0.431  -1.120  0.00  0.00    -0.196 N 
ATOM      2  C2  IND d   1       0.207   0.035   0.066  0.00  0.00     0.054 A 
ATOM      3  C3  IND d   1      -0.697  -0.833   0.573  0.00  0.00    -0.031 A 
ATOM      4  C4  IND d   1      -1.441  -3.128  -0.325  0.00  0.00     0.051 A 
ATOM      5  C5  IND d   1      -1.295  -3.966  -1.395  0.00  0.00    -0.031 A 
ATOM      6  C6  IND d   1      -0.456  -3.663  -2.448  0.00  0.00     0.015 A 
ATOM      7  C7  IND d   1       0.279  -2.511  -2.465  0.00  0.00    -0.016 A 
ATOM      8  C8  IND d   1       0.127  -1.655  -1.383  0.00  0.00    -0.047 A 
ATOM      9  C9  IND d   1      -0.754  -1.937  -0.332  0.00  0.00    -0.096 A 
ATOM     10  HN1 IND d   1       1.275  -0.028  -1.618  0.00  0.00     0.298 HD
ENDROOT
TORSDOF 0
ENDMDL
