MODEL 1
REMARK minimizedAffinity -5.26104259
REMARK minimizedRMSD -1
REMARK  0 active torsions:
REMARK  status: ('A' for Active; 'I' for Inactive)
ROOT
ATOM      1  N1  IND d   1      -3.475  -4.811  -1.553  0.00  0.00    -0.196 N 
ATOM      2  C2  IND d   1      -3.875  -4.994  -0.258  0.00  0.00     0.054 A 
ATOM      3  C3  IND d   1      -2.913  -4.576   0.595  0.00  0.00    -0.031 A 
ATOM      4  C4  IND d   1      -0.647  -3.465   0.087  0.00  0.00     0.051 A 
ATOM      5  C5  IND d   1       0.176  -3.121  -0.949  0.00  0.00    -0.031 A 
ATOM      6  C6  IND d   1      -0.184  -3.325  -2.265  0.00  0.00     0.015 A 
ATOM      7  C7  IND d   1      -1.391  -3.872  -2.597  0.00  0.00    -0.016 A 
ATOM      8  C8  IND d   1      -2.227  -4.229  -1.548  0.00  0.00    -0.047 A 
ATOM      9  C9  IND d   1      -1.849  -4.063  -0.209  0.00  0.00    -0.096 A 
ATOM     10  HN1 IND d   1      -3.927  -5.024  -2.252  0.00  0.00     0.298 HD
ENDROOT
TORSDOF 0
ENDMDL
