MODEL 1
REMARK minimizedAffinity -0.191541389
REMARK minimizedRMSD -1
REMARK  0 active torsions:
REMARK  status: ('A' for Active; 'I' for Inactive)
ROOT
ATOM      1  N1  IND d   1       0.942  -0.834   0.429  0.00  0.00    -0.196 N 
ATOM      2  C2  IND d   1       0.106  -1.644  -0.289  0.00  0.00     0.054 A 
ATOM      3  C3  IND d   1      -1.091  -1.041  -0.471  0.00  0.00    -0.031 A 
ATOM      4  C4  IND d   1      -1.861   1.312   0.234  0.00  0.00     0.051 A 
ATOM      5  C5  IND d   1      -1.460   2.409   0.944  0.00  0.00    -0.031 A 
ATOM      6  C6  IND d   1      -0.212   2.484   1.528  0.00  0.00     0.015 A 
ATOM      7  C7  IND d   1       0.690   1.464   1.413  0.00  0.00    -0.016 A 
ATOM      8  C8  IND d   1       0.284   0.346   0.699  0.00  0.00    -0.047 A 
ATOM      9  C9  IND d   1      -0.997   0.247   0.140  0.00  0.00    -0.096 A 
ATOM     10  HN1 IND d   1       1.744  -1.029   0.670  0.00  0.00     0.298 HD
ENDROOT
TORSDOF 0
ENDMDL
