MODEL 1
REMARK minimizedAffinity -2.75617552
REMARK minimizedRMSD -1
REMARK  0 active torsions:
REMARK  status: ('A' for Active; 'I' for Inactive)
ROOT
ATOM      1  N1  IND d   1      -0.429   0.022  -1.244  0.00  0.00    -0.196 N 
ATOM      2  C2  IND d   1      -0.269   0.019   0.114  0.00  0.00     0.054 A 
ATOM      3  C3  IND d   1      -0.383  -1.238   0.599  0.00  0.00    -0.031 A 
ATOM      4  C4  IND d   1      -0.730  -3.453  -0.665  0.00  0.00     0.051 A 
ATOM      5  C5  IND d   1      -0.969  -3.955  -1.914  0.00  0.00    -0.031 A 
ATOM      6  C6  IND d   1      -1.039  -3.140  -3.026  0.00  0.00     0.015 A 
ATOM      7  C7  IND d   1      -0.860  -1.789  -2.932  0.00  0.00    -0.016 A 
ATOM      8  C8  IND d   1      -0.625  -1.275  -1.664  0.00  0.00    -0.047 A 
ATOM      9  C9  IND d   1      -0.595  -2.092  -0.526  0.00  0.00    -0.096 A 
ATOM     10  HN1 IND d   1      -0.412   0.717  -1.750  0.00  0.00     0.298 HD
ENDROOT
TORSDOF 0
ENDMDL
