MODEL 1
REMARK minimizedAffinity -3.72887444
REMARK minimizedRMSD -1
REMARK  0 active torsions:
REMARK  status: ('A' for Active; 'I' for Inactive)
ROOT
ATOM      1  N1  IND d   1       2.744   1.146   0.603  0.00  0.00    -0.196 N 
ATOM      2  C2  IND d   1       3.235   2.247   1.246  0.00  0.00     0.054 A 
ATOM      3  C3  IND d   1       2.250   3.149   1.455  0.00  0.00    -0.031 A 
ATOM      4  C4  IND d   1      -0.262   2.980   0.915  0.00  0.00     0.051 A 
ATOM      5  C5  IND d   1      -1.179   2.179   0.295  0.00  0.00    -0.031 A 
ATOM      6  C6  IND d   1      -0.828   0.967  -0.264  0.00  0.00     0.015 A 
ATOM      7  C7  IND d   1       0.456   0.503  -0.212  0.00  0.00    -0.016 A 
ATOM      8  C8  IND d   1       1.391   1.317   0.411  0.00  0.00    -0.047 A 
ATOM      9  C9  IND d   1       1.049   2.568   0.942  0.00  0.00    -0.096 A 
ATOM     10  HN1 IND d   1       3.203   0.461   0.359  0.00  0.00     0.298 HD
ENDROOT
TORSDOF 0
ENDMDL
