MODEL 1
REMARK minimizedAffinity -0.72137028
REMARK minimizedRMSD -1
REMARK  0 active torsions:
REMARK  status: ('A' for Active; 'I' for Inactive)
ROOT
ATOM      1  N1  IND d   1       2.344   1.430   1.037  0.00  0.00    -0.196 N 
ATOM      2  C2  IND d   1       2.433   2.728   1.458  0.00  0.00     0.054 A 
ATOM      3  C3  IND d   1       1.230   3.338   1.361  0.00  0.00    -0.031 A 
ATOM      4  C4  IND d   1      -1.041   2.367   0.634  0.00  0.00     0.051 A 
ATOM      5  C5  IND d   1      -1.616   1.237   0.125  0.00  0.00    -0.031 A 
ATOM      6  C6  IND d   1      -0.887   0.089  -0.107  0.00  0.00     0.015 A 
ATOM      7  C7  IND d   1       0.449   0.025   0.172  0.00  0.00    -0.016 A 
ATOM      8  C8  IND d   1       1.038   1.173   0.681  0.00  0.00    -0.047 A 
ATOM      9  C9  IND d   1       0.312   2.355   0.880  0.00  0.00    -0.096 A 
ATOM     10  HN1 IND d   1       2.995   0.869   1.000  0.00  0.00     0.298 HD
ENDROOT
TORSDOF 0
ENDMDL
