MODEL 1
REMARK minimizedAffinity -0.857905686
REMARK minimizedRMSD -1
REMARK  0 active torsions:
REMARK  status: ('A' for Active; 'I' for Inactive)
ROOT
ATOM      1  N1  IND d   1       0.457   2.526   0.757  0.00  0.00    -0.196 N 
ATOM      2  C2  IND d   1      -0.841   2.829   0.453  0.00  0.00     0.054 A 
ATOM      3  C3  IND d   1      -1.499   1.722   0.042  0.00  0.00    -0.031 A 
ATOM      4  C4  IND d   1      -0.670  -0.711  -0.110  0.00  0.00     0.051 A 
ATOM      5  C5  IND d   1       0.454  -1.476   0.027  0.00  0.00    -0.031 A 
ATOM      6  C6  IND d   1       1.659  -0.937   0.426  0.00  0.00     0.015 A 
ATOM      7  C7  IND d   1       1.784   0.393   0.714  0.00  0.00    -0.016 A 
ATOM      8  C8  IND d   1       0.647   1.175   0.568  0.00  0.00    -0.047 A 
ATOM      9  C9  IND d   1      -0.569   0.640   0.123  0.00  0.00    -0.096 A 
ATOM     10  HN1 IND d   1       1.054   3.085   1.021  0.00  0.00     0.298 HD
ENDROOT
TORSDOF 0
ENDMDL
