MODEL 1
REMARK minimizedAffinity 0.172539935
REMARK minimizedRMSD -1
REMARK  0 active torsions:
REMARK  status: ('A' for Active; 'I' for Inactive)
ROOT
ATOM      1  N1  IND d   1       2.650   0.973   0.758  0.00  0.00    -0.196 N 
ATOM      2  C2  IND d   1       2.911   2.199   1.304  0.00  0.00     0.054 A 
ATOM      3  C3  IND d   1       1.763   2.891   1.476  0.00  0.00    -0.031 A 
ATOM      4  C4  IND d   1      -0.666   2.167   1.027  0.00  0.00     0.051 A 
ATOM      5  C5  IND d   1      -1.406   1.149   0.495  0.00  0.00    -0.031 A 
ATOM      6  C6  IND d   1      -0.820  -0.005   0.016  0.00  0.00     0.015 A 
ATOM      7  C7  IND d   1       0.533  -0.189   0.062  0.00  0.00    -0.016 A 
ATOM      8  C8  IND d   1       1.288   0.846   0.595  0.00  0.00    -0.047 A 
ATOM      9  C9  IND d   1       0.702   2.037   1.044  0.00  0.00    -0.096 A 
ATOM     10  HN1 IND d   1       3.238   0.380   0.551  0.00  0.00     0.298 HD
ENDROOT
TORSDOF 0
ENDMDL
