MODEL 1
REMARK minimizedAffinity -4.08506918
REMARK minimizedRMSD -1
REMARK  0 active torsions:
REMARK  status: ('A' for Active; 'I' for Inactive)
ROOT
ATOM      1  N1  IND d   1       0.450  -2.442  -0.084  0.00  0.00    -0.196 N 
ATOM      2  C2  IND d   1      -0.284  -3.124  -1.014  0.00  0.00     0.054 A 
ATOM      3  C3  IND d   1      -1.087  -2.276  -1.694  0.00  0.00    -0.031 A 
ATOM      4  C4  IND d   1      -1.285   0.285  -1.516  0.00  0.00     0.051 A 
ATOM      5  C5  IND d   1      -0.843   1.351  -0.784  0.00  0.00    -0.031 A 
ATOM      6  C6  IND d   1       0.074   1.205   0.237  0.00  0.00     0.015 A 
ATOM      7  C7  IND d   1       0.593  -0.017   0.559  0.00  0.00    -0.016 A 
ATOM      8  C8  IND d   1       0.141  -1.103  -0.177  0.00  0.00    -0.047 A 
ATOM      9  C9  IND d   1      -0.821  -0.967  -1.187  0.00  0.00    -0.096 A 
ATOM     10  HN1 IND d   1       1.011  -2.791   0.467  0.00  0.00     0.298 HD
ENDROOT
TORSDOF 0
ENDMDL
