MODEL 1
REMARK minimizedAffinity -2.28391504
REMARK minimizedRMSD -1
REMARK  0 active torsions:
REMARK  status: ('A' for Active; 'I' for Inactive)
ROOT
ATOM      1  C   UNL d   1       1.813  -1.378  -1.247  0.00  0.00     0.078 C 
ATOM      2  C1  UNL d   1       0.824  -0.873  -0.240  0.00  0.00    -0.077 A 
ATOM      3  C2  UNL d   1       0.904  -1.255   1.104  0.00  0.00    -0.001 A 
ATOM      4  C3  UNL d   1      -0.029  -0.785   2.029  0.00  0.00     0.003 A 
ATOM      5  C4  UNL d   1      -1.051   0.069   1.619  0.00  0.00    -0.005 A 
ATOM      6  C5  UNL d   1      -1.141   0.453   0.283  0.00  0.00     0.003 A 
ATOM      7  C6  UNL d   1      -0.208  -0.016  -0.643  0.00  0.00    -0.001 A 
ENDROOT
TORSDOF 0
ENDMDL
