MODEL 1
REMARK minimizedAffinity -5.61138916
REMARK minimizedRMSD -1
REMARK  0 active torsions:
REMARK  status: ('A' for Active; 'I' for Inactive)
ROOT
ATOM      1  C   UNL d   1      -0.488   0.774   0.872  0.00  0.00     0.078 C 
ATOM      2  C1  UNL d   1       0.518  -0.152   1.487  0.00  0.00    -0.077 A 
ATOM      3  C2  UNL d   1       0.217  -0.878   2.646  0.00  0.00    -0.001 A 
ATOM      4  C3  UNL d   1       1.167  -1.728   3.214  0.00  0.00     0.003 A 
ATOM      5  C4  UNL d   1       2.426  -1.859   2.630  0.00  0.00    -0.005 A 
ATOM      6  C5  UNL d   1       2.736  -1.139   1.478  0.00  0.00     0.003 A 
ATOM      7  C6  UNL d   1       1.787  -0.288   0.909  0.00  0.00    -0.001 A 
ENDROOT
TORSDOF 0
ENDMDL
