MODEL 1
REMARK minimizedAffinity -5.99971914
REMARK minimizedRMSD -1
REMARK  0 active torsions:
REMARK  status: ('A' for Active; 'I' for Inactive)
ROOT
ATOM      1  C   UNL d   1      -0.663  -0.235   0.420  0.00  0.00     0.078 C 
ATOM      2  C1  UNL d   1       0.504  -0.629   1.275  0.00  0.00    -0.077 A 
ATOM      3  C2  UNL d   1       1.592  -1.326   0.735  0.00  0.00    -0.001 A 
ATOM      4  C3  UNL d   1       2.666  -1.695   1.545  0.00  0.00     0.003 A 
ATOM      5  C4  UNL d   1       2.663  -1.374   2.901  0.00  0.00    -0.005 A 
ATOM      6  C5  UNL d   1       1.584  -0.683   3.449  0.00  0.00     0.003 A 
ATOM      7  C6  UNL d   1       0.508  -0.313   2.640  0.00  0.00    -0.001 A 
ENDROOT
TORSDOF 0
ENDMDL
