MODEL 1
REMARK minimizedAffinity -5.98665571
REMARK minimizedRMSD -1
REMARK  0 active torsions:
REMARK  status: ('A' for Active; 'I' for Inactive)
ROOT
ATOM      1  C   UNL d   1      -0.785   0.277   0.793  0.00  0.00     0.078 C 
ATOM      2  C1  UNL d   1       0.461  -0.433   1.230  0.00  0.00    -0.077 A 
ATOM      3  C2  UNL d   1       1.392  -0.900   0.293  0.00  0.00    -0.001 A 
ATOM      4  C3  UNL d   1       2.543  -1.568   0.714  0.00  0.00     0.003 A 
ATOM      5  C4  UNL d   1       2.774  -1.776   2.072  0.00  0.00    -0.005 A 
ATOM      6  C5  UNL d   1       1.853  -1.317   3.011  0.00  0.00     0.003 A 
ATOM      7  C6  UNL d   1       0.701  -0.649   2.593  0.00  0.00    -0.001 A 
ENDROOT
TORSDOF 0
ENDMDL
