MODEL 1
REMARK minimizedAffinity -0.56320709
REMARK minimizedRMSD -1
REMARK  0 active torsions:
REMARK  status: ('A' for Active; 'I' for Inactive)
ROOT
ATOM      1  C   UNL d   1      -0.010  -0.352  -1.060  0.00  0.00     0.078 C 
ATOM      2  C1  UNL d   1      -0.009  -0.779   0.377  0.00  0.00    -0.077 A 
ATOM      3  C2  UNL d   1      -1.032  -0.385   1.247  0.00  0.00    -0.001 A 
ATOM      4  C3  UNL d   1      -1.013  -0.782   2.585  0.00  0.00     0.003 A 
ATOM      5  C4  UNL d   1       0.028  -1.574   3.065  0.00  0.00    -0.005 A 
ATOM      6  C5  UNL d   1       1.052  -1.970   2.207  0.00  0.00     0.003 A 
ATOM      7  C6  UNL d   1       1.034  -1.574   0.869  0.00  0.00    -0.001 A 
ENDROOT
TORSDOF 0
ENDMDL
