MODEL 1
REMARK minimizedAffinity -5.15612602
REMARK minimizedRMSD -1
REMARK  0 active torsions:
REMARK  status: ('A' for Active; 'I' for Inactive)
ROOT
ATOM      1  C   UNL d   1       2.293  -0.680   3.190  0.00  0.00     0.078 C 
ATOM      2  C1  UNL d   1       1.235  -0.489   2.145  0.00  0.00    -0.077 A 
ATOM      3  C2  UNL d   1       1.559  -0.492   0.782  0.00  0.00    -0.001 A 
ATOM      4  C3  UNL d   1       0.566  -0.303  -0.180  0.00  0.00     0.003 A 
ATOM      5  C4  UNL d   1      -0.758  -0.109   0.210  0.00  0.00    -0.005 A 
ATOM      6  C5  UNL d   1      -1.089  -0.102   1.563  0.00  0.00     0.003 A 
ATOM      7  C6  UNL d   1      -0.097  -0.291   2.527  0.00  0.00    -0.001 A 
ENDROOT
TORSDOF 0
ENDMDL
