MODEL 1
REMARK minimizedAffinity -3.47236919
REMARK minimizedRMSD -1
REMARK  0 active torsions:
REMARK  status: ('A' for Active; 'I' for Inactive)
ROOT
ATOM      1  C4' PXY d   1       2.296   2.083   1.244  0.00  0.00     0.077 C 
ATOM      2  C1' PXY d   1      -1.892  -0.738  -1.569  0.00  0.00     0.077 C 
ATOM      3  C1  PXY d   1      -0.791  -0.009  -0.825  0.00  0.00    -0.082 A 
ATOM      4  C2  PXY d   1      -0.838   1.309  -0.714  0.00  0.00     0.003 A 
ATOM      5  C3  PXY d   1       0.166   1.987  -0.072  0.00  0.00     0.003 A 
ATOM      6  C4  PXY d   1       1.201   1.305   0.510  0.00  0.00    -0.082 A 
ATOM      7  C5  PXY d   1       1.250  -0.041   0.410  0.00  0.00     0.003 A 
ATOM      8  C6  PXY d   1       0.243  -0.707  -0.281  0.00  0.00     0.003 A 
ENDROOT
TORSDOF 0
ENDMDL
