MODEL 1
REMARK minimizedAffinity -2.3092792
REMARK minimizedRMSD -1
REMARK  0 active torsions:
REMARK  status: ('A' for Active; 'I' for Inactive)
ROOT
ATOM      1  C4' PXY d   1       2.611   1.885   1.010  0.00  0.00     0.077 C 
ATOM      2  C1' PXY d   1      -1.926  -0.416  -1.734  0.00  0.00     0.077 C 
ATOM      3  C1  PXY d   1      -0.733   0.175  -1.010  0.00  0.00    -0.082 A 
ATOM      4  C2  PXY d   1      -0.748   1.451  -0.658  0.00  0.00     0.003 A 
ATOM      5  C3  PXY d   1       0.336   2.010  -0.031  0.00  0.00     0.003 A 
ATOM      6  C4  PXY d   1       1.425   1.243   0.286  0.00  0.00    -0.082 A 
ATOM      7  C5  PXY d   1       1.443  -0.062  -0.060  0.00  0.00     0.003 A 
ATOM      8  C6  PXY d   1       0.350  -0.601  -0.733  0.00  0.00     0.003 A 
ENDROOT
TORSDOF 0
ENDMDL
