MODEL 1
REMARK minimizedAffinity -4.50380802
REMARK minimizedRMSD -1
REMARK  0 active torsions:
REMARK  status: ('A' for Active; 'I' for Inactive)
ROOT
ATOM      1  C4' PXY d   1       2.025   0.803   0.521  0.00  0.00     0.077 C 
ATOM      2  C1' PXY d   1      -3.184  -1.263  -0.899  0.00  0.00     0.077 C 
ATOM      3  C1  PXY d   1      -1.820  -0.726  -0.515  0.00  0.00    -0.082 A 
ATOM      4  C2  PXY d   1      -1.298   0.283  -1.195  0.00  0.00     0.003 A 
ATOM      5  C3  PXY d   1      -0.052   0.760  -0.881  0.00  0.00     0.003 A 
ATOM      6  C4  PXY d   1       0.646   0.234   0.174  0.00  0.00    -0.082 A 
ATOM      7  C5  PXY d   1       0.116  -0.788   0.879  0.00  0.00     0.003 A 
ATOM      8  C6  PXY d   1      -1.133  -1.285   0.518  0.00  0.00     0.003 A 
ENDROOT
TORSDOF 0
ENDMDL
