MODEL 1
REMARK minimizedAffinity -3.15549588
REMARK minimizedRMSD -1
REMARK  0 active torsions:
REMARK  status: ('A' for Active; 'I' for Inactive)
ROOT
ATOM      1  C4' PXY d   1      -1.521  -3.660   1.412  0.00  0.00     0.077 C 
ATOM      2  C1' PXY d   1      -0.945   0.901  -2.092  0.00  0.00     0.077 C 
ATOM      3  C1  PXY d   1      -1.084  -0.295  -1.171  0.00  0.00    -0.082 A 
ATOM      4  C2  PXY d   1      -2.125  -1.102  -1.297  0.00  0.00     0.003 A 
ATOM      5  C3  PXY d   1      -2.282  -2.169  -0.452  0.00  0.00     0.003 A 
ATOM      6  C4  PXY d   1      -1.336  -2.446   0.498  0.00  0.00    -0.082 A 
ATOM      7  C5  PXY d   1      -0.265  -1.634   0.626  0.00  0.00     0.003 A 
ATOM      8  C6  PXY d   1      -0.145  -0.532  -0.215  0.00  0.00     0.003 A 
ENDROOT
TORSDOF 0
ENDMDL
