MODEL 1
REMARK minimizedAffinity -2.90706205
REMARK minimizedRMSD -1
REMARK  0 active torsions:
REMARK  status: ('A' for Active; 'I' for Inactive)
ROOT
ATOM      1  C4' PXY d   1      -1.064   0.588  -2.521  0.00  0.00     0.077 C 
ATOM      2  C1' PXY d   1      -1.574  -2.776   2.152  0.00  0.00     0.077 C 
ATOM      3  C1  PXY d   1      -1.433  -1.885   0.933  0.00  0.00    -0.082 A 
ATOM      4  C2  PXY d   1      -2.326  -1.964  -0.041  0.00  0.00     0.003 A 
ATOM      5  C3  PXY d   1      -2.196  -1.188  -1.164  0.00  0.00     0.003 A 
ATOM      6  C4  PXY d   1      -1.172  -0.285  -1.268  0.00  0.00    -0.082 A 
ATOM      7  C5  PXY d   1      -0.263  -0.192  -0.274  0.00  0.00     0.003 A 
ATOM      8  C6  PXY d   1      -0.390  -1.017   0.840  0.00  0.00     0.003 A 
ENDROOT
TORSDOF 0
ENDMDL
