MODEL 1
REMARK minimizedAffinity -3.12352252
REMARK minimizedRMSD -1
REMARK  0 active torsions:
REMARK  status: ('A' for Active; 'I' for Inactive)
ROOT
ATOM      1  C4' PXY d   1      -1.101  -0.713  -1.034  0.00  0.00     0.077 C 
ATOM      2  C1' PXY d   1       2.924   2.405   1.703  0.00  0.00     0.077 C 
ATOM      3  C1  PXY d   1       1.878   1.581   0.978  0.00  0.00    -0.082 A 
ATOM      4  C2  PXY d   1       0.634   2.026   0.900  0.00  0.00     0.003 A 
ATOM      5  C3  PXY d   1      -0.332   1.280   0.276  0.00  0.00     0.003 A 
ATOM      6  C4  PXY d   1      -0.010   0.090  -0.320  0.00  0.00    -0.082 A 
ATOM      7  C5  PXY d   1       1.259  -0.366  -0.254  0.00  0.00     0.003 A 
ATOM      8  C6  PXY d   1       2.216   0.387   0.420  0.00  0.00     0.003 A 
ENDROOT
TORSDOF 0
ENDMDL
