MODEL 1
REMARK minimizedAffinity -2.29082346
REMARK minimizedRMSD -1
REMARK  0 active torsions:
REMARK  status: ('A' for Active; 'I' for Inactive)
ROOT
ATOM      1  C4' PXY d   1      -1.547  -3.452   1.210  0.00  0.00     0.077 C 
ATOM      2  C1' PXY d   1      -0.911   1.361  -1.928  0.00  0.00     0.077 C 
ATOM      3  C1  PXY d   1      -1.091   0.098  -1.109  0.00  0.00    -0.082 A 
ATOM      4  C2  PXY d   1      -0.246  -0.169  -0.126  0.00  0.00     0.003 A 
ATOM      5  C3  PXY d   1      -0.375  -1.322   0.605  0.00  0.00     0.003 A 
ATOM      6  C4  PXY d   1      -1.410  -2.184   0.362  0.00  0.00    -0.082 A 
ATOM      7  C5  PXY d   1      -2.282  -1.913  -0.632  0.00  0.00     0.003 A 
ATOM      8  C6  PXY d   1      -2.110  -0.758  -1.389  0.00  0.00     0.003 A 
ENDROOT
TORSDOF 0
ENDMDL
