MODEL 1
REMARK minimizedAffinity -3.21755171
REMARK minimizedRMSD -1
REMARK  0 active torsions:
REMARK  status: ('A' for Active; 'I' for Inactive)
ROOT
ATOM      1  C4' PXY d   1      -1.717  -0.573  -1.421  0.00  0.00     0.077 C 
ATOM      2  C1' PXY d   1       2.364   2.399   1.393  0.00  0.00     0.077 C 
ATOM      3  C1  PXY d   1       1.303   1.613   0.649  0.00  0.00    -0.082 A 
ATOM      4  C2  PXY d   1       0.094   2.129   0.494  0.00  0.00     0.003 A 
ATOM      5  C3  PXY d   1      -0.886   1.418  -0.148  0.00  0.00     0.003 A 
ATOM      6  C4  PXY d   1      -0.612   0.188  -0.685  0.00  0.00    -0.082 A 
ATOM      7  C5  PXY d   1       0.621  -0.340  -0.541  0.00  0.00     0.003 A 
ATOM      8  C6  PXY d   1       1.591   0.380   0.151  0.00  0.00     0.003 A 
ENDROOT
TORSDOF 0
ENDMDL
