MODEL 1
REMARK minimizedAffinity -1.86449325
REMARK minimizedRMSD -1
REMARK  0 active torsions:
REMARK  status: ('A' for Active; 'I' for Inactive)
ROOT
ATOM      1  C4' PXY d   1       2.424   2.035   1.455  0.00  0.00     0.077 C 
ATOM      2  C1' PXY d   1      -1.855  -0.205  -1.720  0.00  0.00     0.077 C 
ATOM      3  C1  PXY d   1      -0.727   0.371  -0.887  0.00  0.00    -0.082 A 
ATOM      4  C2  PXY d   1      -0.936   1.461  -0.167  0.00  0.00     0.003 A 
ATOM      5  C3  PXY d   1       0.082   2.013   0.567  0.00  0.00     0.003 A 
ATOM      6  C4  PXY d   1       1.312   1.413   0.606  0.00  0.00    -0.082 A 
ATOM      7  C5  PXY d   1       1.530   0.295  -0.117  0.00  0.00     0.003 A 
ATOM      8  C6  PXY d   1       0.495  -0.227  -0.888  0.00  0.00     0.003 A 
ENDROOT
TORSDOF 0
ENDMDL
