MODEL 1
REMARK minimizedAffinity -3.7926898
REMARK minimizedRMSD -1
REMARK  0 active torsions:
REMARK  status: ('A' for Active; 'I' for Inactive)
ROOT
ATOM      1  C4' PXY d   1      -1.346  -3.012   0.766  0.00  0.00     0.077 C 
ATOM      2  C1' PXY d   1       2.666   1.101   0.139  0.00  0.00     0.077 C 
ATOM      3  C1  PXY d   1       1.623   0.014   0.305  0.00  0.00    -0.082 A 
ATOM      4  C2  PXY d   1       0.425   0.168  -0.234  0.00  0.00     0.003 A 
ATOM      5  C3  PXY d   1      -0.540  -0.791  -0.067  0.00  0.00     0.003 A 
ATOM      6  C4  PXY d   1      -0.259  -1.945   0.616  0.00  0.00    -0.082 A 
ATOM      7  C5  PXY d   1       0.964  -2.114   1.160  0.00  0.00     0.003 A 
ATOM      8  C6  PXY d   1       1.917  -1.110   1.014  0.00  0.00     0.003 A 
ENDROOT
TORSDOF 0
ENDMDL
