MODEL 1
REMARK minimizedAffinity -3.59271431
REMARK minimizedRMSD -1
REMARK  0 active torsions:
REMARK  status: ('A' for Active; 'I' for Inactive)
ROOT
ATOM      1  C4' PXY d   1      -1.659  -0.557  -1.028  0.00  0.00     0.077 C 
ATOM      2  C1' PXY d   1       2.436   2.167   2.010  0.00  0.00     0.077 C 
ATOM      3  C1  PXY d   1       1.372   1.445   1.208  0.00  0.00    -0.082 A 
ATOM      4  C2  PXY d   1       0.225   2.052   0.948  0.00  0.00     0.003 A 
ATOM      5  C3  PXY d   1      -0.761   1.402   0.252  0.00  0.00     0.003 A 
ATOM      6  C4  PXY d   1      -0.551   0.137  -0.229  0.00  0.00    -0.082 A 
ATOM      7  C5  PXY d   1       0.620  -0.485   0.023  0.00  0.00     0.003 A 
ATOM      8  C6  PXY d   1       1.592   0.177   0.767  0.00  0.00     0.003 A 
ENDROOT
TORSDOF 0
ENDMDL
