MODEL 1
REMARK minimizedAffinity -4.63104343
REMARK minimizedRMSD -1
REMARK  0 active torsions:
REMARK  status: ('A' for Active; 'I' for Inactive)
ROOT
ATOM      1  C4' PXY d   1      -1.672  -3.120   1.494  0.00  0.00     0.077 C 
ATOM      2  C1' PXY d   1      -1.235   1.515  -1.932  0.00  0.00     0.077 C 
ATOM      3  C1  PXY d   1      -1.362   0.300  -1.034  0.00  0.00    -0.082 A 
ATOM      4  C2  PXY d   1      -0.372  -0.015  -0.216  0.00  0.00     0.003 A 
ATOM      5  C3  PXY d   1      -0.457  -1.129   0.580  0.00  0.00     0.003 A 
ATOM      6  C4  PXY d   1      -1.591  -1.897   0.577  0.00  0.00    -0.082 A 
ATOM      7  C5  PXY d   1      -2.610  -1.576  -0.248  0.00  0.00     0.003 A 
ATOM      8  C6  PXY d   1      -2.487  -0.465  -1.078  0.00  0.00     0.003 A 
ENDROOT
TORSDOF 0
ENDMDL
