MODEL 1
REMARK minimizedAffinity -3.02715755
REMARK minimizedRMSD -1
REMARK  0 active torsions:
REMARK  status: ('A' for Active; 'I' for Inactive)
ROOT
ATOM      1  C4' PXY d   1       3.007   1.398   0.081  0.00  0.00     0.077 C 
ATOM      2  C1' PXY d   1      -2.236  -0.796   1.135  0.00  0.00     0.077 C 
ATOM      3  C1  PXY d   1      -0.856  -0.228   0.868  0.00  0.00    -0.082 A 
ATOM      4  C2  PXY d   1      -0.736   0.982   0.348  0.00  0.00     0.003 A 
ATOM      5  C3  PXY d   1       0.504   1.498   0.070  0.00  0.00     0.003 A 
ATOM      6  C4  PXY d   1       1.634   0.789   0.377  0.00  0.00    -0.082 A 
ATOM      7  C5  PXY d   1       1.520  -0.443   0.918  0.00  0.00     0.003 A 
ATOM      8  C6  PXY d   1       0.252  -0.965   1.154  0.00  0.00     0.003 A 
ENDROOT
TORSDOF 0
ENDMDL
