MODEL 1
REMARK minimizedAffinity -5.20257568
REMARK minimizedRMSD -1
REMARK  0 active torsions:
REMARK  status: ('A' for Active; 'I' for Inactive)
ROOT
ATOM      1  C4' PXY d   1       2.834   2.835   1.402  0.00  0.00     0.077 C 
ATOM      2  C1' PXY d   1      -1.442  -0.595  -0.431  0.00  0.00     0.077 C 
ATOM      3  C1  PXY d   1      -0.313   0.294   0.049  0.00  0.00    -0.082 A 
ATOM      4  C2  PXY d   1      -0.591   1.400   0.721  0.00  0.00     0.003 A 
ATOM      5  C3  PXY d   1       0.417   2.232   1.135  0.00  0.00     0.003 A 
ATOM      6  C4  PXY d   1       1.726   1.902   0.906  0.00  0.00    -0.082 A 
ATOM      7  C5  PXY d   1       2.018   0.771   0.230  0.00  0.00     0.003 A 
ATOM      8  C6  PXY d   1       0.979  -0.039  -0.218  0.00  0.00     0.003 A 
ENDROOT
TORSDOF 0
ENDMDL
