MODEL 1
REMARK minimizedAffinity -3.14821005
REMARK minimizedRMSD -1
REMARK  0 active torsions:
REMARK  status: ('A' for Active; 'I' for Inactive)
ROOT
ATOM      1  C4' PXY d   1       1.945   0.565  -0.357  0.00  0.00     0.077 C 
ATOM      2  C1' PXY d   1      -3.382  -1.681  -0.397  0.00  0.00     0.077 C 
ATOM      3  C1  PXY d   1      -1.984  -1.094  -0.374  0.00  0.00    -0.082 A 
ATOM      4  C2  PXY d   1      -1.617  -0.241  -1.316  0.00  0.00     0.003 A 
ATOM      5  C3  PXY d   1      -0.346   0.274  -1.328  0.00  0.00     0.003 A 
ATOM      6  C4  PXY d   1       0.541  -0.045  -0.336  0.00  0.00    -0.082 A 
ATOM      7  C5  PXY d   1       0.170  -0.907   0.636  0.00  0.00     0.003 A 
ATOM      8  C6  PXY d   1      -1.111  -1.451   0.607  0.00  0.00     0.003 A 
ENDROOT
TORSDOF 0
ENDMDL
