MODEL 1
REMARK minimizedAffinity -3.28498793
REMARK minimizedRMSD -1
REMARK  0 active torsions:
REMARK  status: ('A' for Active; 'I' for Inactive)
ROOT
ATOM      1  C4' PXY d   1       2.338   2.867   0.766  0.00  0.00     0.077 C 
ATOM      2  C1' PXY d   1      -1.926  -0.506  -1.195  0.00  0.00     0.077 C 
ATOM      3  C1  PXY d   1      -0.801   0.368  -0.678  0.00  0.00    -0.082 A 
ATOM      4  C2  PXY d   1      -1.062   1.601  -0.276  0.00  0.00     0.003 A 
ATOM      5  C3  PXY d   1      -0.052   2.416   0.164  0.00  0.00     0.003 A 
ATOM      6  C4  PXY d   1       1.232   1.946   0.245  0.00  0.00    -0.082 A 
ATOM      7  C5  PXY d   1       1.505   0.685  -0.152  0.00  0.00     0.003 A 
ATOM      8  C6  PXY d   1       0.471  -0.112  -0.635  0.00  0.00     0.003 A 
ENDROOT
TORSDOF 0
ENDMDL
