MODEL 1
REMARK minimizedAffinity -5.3863287
REMARK minimizedRMSD -1
REMARK  0 active torsions:
REMARK  status: ('A' for Active; 'I' for Inactive)
ROOT
ATOM      1  C4' PXY d   1       1.962   1.811   1.002  0.00  0.00     0.077 C 
ATOM      2  C1' PXY d   1      -3.010  -0.925  -0.097  0.00  0.00     0.077 C 
ATOM      3  C1  PXY d   1      -1.702  -0.218   0.197  0.00  0.00    -0.082 A 
ATOM      4  C2  PXY d   1      -1.664   1.105   0.224  0.00  0.00     0.003 A 
ATOM      5  C3  PXY d   1      -0.483   1.760   0.457  0.00  0.00     0.003 A 
ATOM      6  C4  PXY d   1       0.661   1.055   0.718  0.00  0.00    -0.082 A 
ATOM      7  C5  PXY d   1       0.629  -0.294   0.704  0.00  0.00     0.003 A 
ATOM      8  C6  PXY d   1      -0.572  -0.941   0.424  0.00  0.00     0.003 A 
ENDROOT
TORSDOF 0
ENDMDL
