MODEL 1
REMARK minimizedAffinity -0.805215836
REMARK minimizedRMSD -1
REMARK  0 active torsions:
REMARK  status: ('A' for Active; 'I' for Inactive)
ROOT
ATOM      1  C4' PXY d   1       2.656   2.118  -0.213  0.00  0.00     0.077 C 
ATOM      2  C1' PXY d   1      -2.205  -0.756  -1.447  0.00  0.00     0.077 C 
ATOM      3  C1  PXY d   1      -0.924  -0.008  -1.134  0.00  0.00    -0.082 A 
ATOM      4  C2  PXY d   1      -0.722   0.458   0.088  0.00  0.00     0.003 A 
ATOM      5  C3  PXY d   1       0.416   1.164   0.381  0.00  0.00     0.003 A 
ATOM      6  C4  PXY d   1       1.382   1.349  -0.573  0.00  0.00    -0.082 A 
ATOM      7  C5  PXY d   1       1.187   0.867  -1.818  0.00  0.00     0.003 A 
ATOM      8  C6  PXY d   1       0.007   0.188  -2.106  0.00  0.00     0.003 A 
ENDROOT
TORSDOF 0
ENDMDL
