MODEL 1
REMARK minimizedAffinity -3.93048978
REMARK minimizedRMSD -1
REMARK  0 active torsions:
REMARK  status: ('A' for Active; 'I' for Inactive)
ROOT
ATOM      1  C4' PXY d   1       1.496   1.499   1.867  0.00  0.00     0.077 C 
ATOM      2  C1' PXY d   1      -2.246  -1.160  -1.646  0.00  0.00     0.077 C 
ATOM      3  C1  PXY d   1      -1.255  -0.469  -0.730  0.00  0.00    -0.082 A 
ATOM      4  C2  PXY d   1      -1.655  -0.022   0.449  0.00  0.00     0.003 A 
ATOM      5  C3  PXY d   1      -0.779   0.634   1.276  0.00  0.00     0.003 A 
ATOM      6  C4  PXY d   1       0.532   0.787   0.914  0.00  0.00    -0.082 A 
ATOM      7  C5  PXY d   1       0.951   0.324  -0.283  0.00  0.00     0.003 A 
ATOM      8  C6  PXY d   1       0.037  -0.302  -1.125  0.00  0.00     0.003 A 
ENDROOT
TORSDOF 0
ENDMDL
