MODEL 1
REMARK minimizedAffinity 4.7595911
REMARK minimizedRMSD -1
REMARK  0 active torsions:
REMARK  status: ('A' for Active; 'I' for Inactive)
ROOT
ATOM      1  C1  BNZ d   1       3.747   5.271  -2.824  0.00  0.00     0.000 A 
ATOM      2  C2  BNZ d   1       3.766   5.276  -4.193  0.00  0.00     0.000 A 
ATOM      3  C3  BNZ d   1       4.900   5.615  -4.876  0.00  0.00     0.000 A 
ATOM      4  C4  BNZ d   1       6.000   5.988  -4.191  0.00  0.00     0.000 A 
ATOM      5  C5  BNZ d   1       5.994   5.998  -2.811  0.00  0.00     0.000 A 
ATOM      6  C6  BNZ d   1       4.863   5.617  -2.126  0.00  0.00     0.000 A 
ENDROOT
TORSDOF 0
ENDMDL
