MODEL 1
REMARK minimizedAffinity 7.59738874
REMARK minimizedRMSD -1
REMARK  0 active torsions:
REMARK  status: ('A' for Active; 'I' for Inactive)
ROOT
ATOM      1  C1  BNZ d   1       2.212  -2.174   1.937  0.00  0.00     0.000 A 
ATOM      2  C2  BNZ d   1       1.157  -2.199   2.810  0.00  0.00     0.000 A 
ATOM      3  C3  BNZ d   1       0.335  -1.115   2.946  0.00  0.00     0.000 A 
ATOM      4  C4  BNZ d   1       0.592   0.004   2.240  0.00  0.00     0.000 A 
ATOM      5  C5  BNZ d   1       1.657   0.049   1.363  0.00  0.00     0.000 A 
ATOM      6  C6  BNZ d   1       2.459  -1.057   1.199  0.00  0.00     0.000 A 
ENDROOT
TORSDOF 0
ENDMDL
