MODEL 1
REMARK minimizedAffinity 2.23145199
REMARK minimizedRMSD -1
REMARK  0 active torsions:
REMARK  status: ('A' for Active; 'I' for Inactive)
ROOT
ATOM      1  C1  BNZ d   1      -5.088  -0.184  -1.488  0.00  0.00     0.000 A 
ATOM      2  C2  BNZ d   1      -3.908  -0.466  -2.124  0.00  0.00     0.000 A 
ATOM      3  C3  BNZ d   1      -3.217   0.512  -2.783  0.00  0.00     0.000 A 
ATOM      4  C4  BNZ d   1      -3.726   1.760  -2.839  0.00  0.00     0.000 A 
ATOM      5  C5  BNZ d   1      -4.919   2.058  -2.211  0.00  0.00     0.000 A 
ATOM      6  C6  BNZ d   1      -5.592   1.079  -1.516  0.00  0.00     0.000 A 
ENDROOT
TORSDOF 0
ENDMDL
