MODEL 1
REMARK minimizedAffinity 4.99758625
REMARK minimizedRMSD -1
REMARK  0 active torsions:
REMARK  status: ('A' for Active; 'I' for Inactive)
ROOT
ATOM      1  C1  BNZ d   1       3.686   5.342  -3.868  0.00  0.00     0.000 A 
ATOM      2  C2  BNZ d   1       4.889   5.567  -3.255  0.00  0.00     0.000 A 
ATOM      3  C3  BNZ d   1       5.999   5.884  -3.987  0.00  0.00     0.000 A 
ATOM      4  C4  BNZ d   1       5.914   5.936  -5.332  0.00  0.00     0.000 A 
ATOM      5  C5  BNZ d   1       4.709   5.703  -5.966  0.00  0.00     0.000 A 
ATOM      6  C6  BNZ d   1       3.586   5.422  -5.223  0.00  0.00     0.000 A 
ENDROOT
TORSDOF 0
ENDMDL
