MODEL 1
REMARK minimizedAffinity 8.63352013
REMARK minimizedRMSD -1
REMARK  0 active torsions:
REMARK  status: ('A' for Active; 'I' for Inactive)
ROOT
ATOM      1  C1  BNZ d   1      -5.917  -4.009  -6.000  0.00  0.00     0.000 A 
ATOM      2  C2  BNZ d   1      -5.650  -5.352  -6.000  0.00  0.00     0.000 A 
ATOM      3  C3  BNZ d   1      -4.824  -5.902  -5.059  0.00  0.00     0.000 A 
ATOM      4  C4  BNZ d   1      -4.235  -5.103  -4.146  0.00  0.00     0.000 A 
ATOM      5  C5  BNZ d   1      -4.486  -3.745  -4.139  0.00  0.00     0.000 A 
ATOM      6  C6  BNZ d   1      -5.349  -3.201  -5.063  0.00  0.00     0.000 A 
ENDROOT
TORSDOF 0
ENDMDL
