MODEL 1
REMARK minimizedAffinity 9.645257
REMARK minimizedRMSD -1
REMARK  0 active torsions:
REMARK  status: ('A' for Active; 'I' for Inactive)
ROOT
ATOM      1  C1  BNZ d   1       1.524   0.460   2.961  0.00  0.00     0.000 A 
ATOM      2  C2  BNZ d   1       1.475   0.723   4.304  0.00  0.00     0.000 A 
ATOM      3  C3  BNZ d   1       1.045  -0.227   5.188  0.00  0.00     0.000 A 
ATOM      4  C4  BNZ d   1       0.627  -1.423   4.725  0.00  0.00     0.000 A 
ATOM      5  C5  BNZ d   1       0.661  -1.700   3.373  0.00  0.00     0.000 A 
ATOM      6  C6  BNZ d   1       1.131  -0.755   2.490  0.00  0.00     0.000 A 
ENDROOT
TORSDOF 0
ENDMDL
