MODEL 1
REMARK minimizedAffinity 2.64148903
REMARK minimizedRMSD -1
REMARK  0 active torsions:
REMARK  status: ('A' for Active; 'I' for Inactive)
ROOT
ATOM      1  C1  BNZ d   1       4.029   4.696  -4.527  0.00  0.00     0.000 A 
ATOM      2  C2  BNZ d   1       4.050   4.634  -3.160  0.00  0.00     0.000 A 
ATOM      3  C3  BNZ d   1       5.025   5.271  -2.445  0.00  0.00     0.000 A 
ATOM      4  C4  BNZ d   1       6.000   5.935  -3.099  0.00  0.00     0.000 A 
ATOM      5  C5  BNZ d   1       5.998   6.000  -4.478  0.00  0.00     0.000 A 
ATOM      6  C6  BNZ d   1       4.992   5.390  -5.193  0.00  0.00     0.000 A 
ENDROOT
TORSDOF 0
ENDMDL
