MODEL 1
REMARK minimizedAffinity 13.5295467
REMARK minimizedRMSD -1
REMARK  0 active torsions:
REMARK  status: ('A' for Active; 'I' for Inactive)
ROOT
ATOM      1  C   UNL d   1       5.514  -3.590   5.775  0.00  0.00    -0.002 A 
ATOM      2  C1  UNL d   1       5.209  -4.926   5.997  0.00  0.00     0.010 A 
ATOM      3  C2  UNL d   1       4.767  -5.737   4.950  0.00  0.00     0.041 A 
ATOM      4  C3  UNL d   1       4.637  -5.179   3.664  0.00  0.00    -0.075 A 
ATOM      5  S   UNL d   1       4.114  -5.982   2.230  0.00  0.00     0.015 SA
ATOM      6  C4  UNL d   1       4.284  -4.572   1.289  0.00  0.00     0.022 A 
ATOM      7  C5  UNL d   1       4.727  -3.505   2.034  0.00  0.00     0.026 A 
ATOM      8  C6  UNL d   1       4.938  -3.837   3.415  0.00  0.00    -0.082 A 
ATOM      9  C7  UNL d   1       5.383  -3.040   4.497  0.00  0.00     0.045 A 
ENDROOT
TORSDOF 0
ENDMDL
