MODEL 1
REMARK minimizedAffinity 11.4245243
REMARK minimizedRMSD -1
REMARK  0 active torsions:
REMARK  status: ('A' for Active; 'I' for Inactive)
ROOT
ATOM      1  C   UNL d   1       0.944   6.000   5.181  0.00  0.00    -0.002 A 
ATOM      2  C1  UNL d   1       2.212   5.773   5.698  0.00  0.00     0.010 A 
ATOM      3  C2  UNL d   1       3.121   4.959   5.019  0.00  0.00     0.041 A 
ATOM      4  C3  UNL d   1       2.731   4.373   3.799  0.00  0.00    -0.075 A 
ATOM      5  S   UNL d   1       3.677   3.341   2.792  0.00  0.00     0.015 SA
ATOM      6  C4  UNL d   1       2.421   3.178   1.652  0.00  0.00     0.022 A 
ATOM      7  C5  UNL d   1       1.300   3.886   2.014  0.00  0.00     0.026 A 
ATOM      8  C6  UNL d   1       1.461   4.587   3.257  0.00  0.00    -0.082 A 
ATOM      9  C7  UNL d   1       0.561   5.416   3.970  0.00  0.00     0.045 A 
ENDROOT
TORSDOF 0
ENDMDL
