MODEL 1
REMARK minimizedAffinity 3.05346918
REMARK minimizedRMSD -1
REMARK  0 active torsions:
REMARK  status: ('A' for Active; 'I' for Inactive)
ROOT
ATOM      1  C   UNL d   1       4.510  -4.933   6.000  0.00  0.00    -0.002 A 
ATOM      2  C1  UNL d   1       4.931  -3.610   5.994  0.00  0.00     0.010 A 
ATOM      3  C2  UNL d   1       5.228  -2.965   4.792  0.00  0.00     0.041 A 
ATOM      4  C3  UNL d   1       5.092  -3.677   3.584  0.00  0.00    -0.075 A 
ATOM      5  S   UNL d   1       5.398  -3.092   1.992  0.00  0.00     0.015 SA
ATOM      6  C4  UNL d   1       4.977  -4.583   1.282  0.00  0.00     0.022 A 
ATOM      7  C5  UNL d   1       4.609  -5.516   2.222  0.00  0.00     0.026 A 
ATOM      8  C6  UNL d   1       4.669  -5.009   3.564  0.00  0.00    -0.082 A 
ATOM      9  C7  UNL d   1       4.376  -5.636   4.800  0.00  0.00     0.045 A 
ENDROOT
TORSDOF 0
ENDMDL
