MODEL 1
REMARK minimizedAffinity 4.5088253
REMARK minimizedRMSD -1
REMARK  0 active torsions:
REMARK  status: ('A' for Active; 'I' for Inactive)
ROOT
ATOM      1  C   UNL d   1       5.811   5.848   4.102  0.00  0.00     0.023 A 
ATOM      2  C1  UNL d   1       4.898   5.160   3.302  0.00  0.00     0.003 A 
ATOM      3  C2  UNL d   1       4.131   4.127   3.845  0.00  0.00     0.048 A 
ATOM      4  C3  UNL d   1       4.281   3.788   5.189  0.00  0.00     0.023 A 
ATOM      5  C4  UNL d   1       5.192   4.474   5.994  0.00  0.00     0.048 A 
ATOM      6  C5  UNL d   1       5.957   5.505   5.447  0.00  0.00     0.003 A 
ATOM      7  I   UNL d   1       3.140   2.251   5.999  0.00  0.00    -0.146 I 
ENDROOT
TORSDOF 0
ENDMDL
