MODEL 1
REMARK minimizedAffinity 0.56987679
REMARK minimizedRMSD -1
REMARK  0 active torsions:
REMARK  status: ('A' for Active; 'I' for Inactive)
ROOT
ATOM      1  C   UNL d   1       2.719   1.206  -0.601  0.00  0.00     0.023 A 
ATOM      2  C1  UNL d   1       2.895  -0.175  -0.694  0.00  0.00     0.003 A 
ATOM      3  C2  UNL d   1       1.787  -1.025  -0.669  0.00  0.00     0.048 A 
ATOM      4  C3  UNL d   1       0.506  -0.487  -0.552  0.00  0.00     0.023 A 
ATOM      5  C4  UNL d   1       0.325   0.894  -0.460  0.00  0.00     0.048 A 
ATOM      6  C5  UNL d   1       1.436   1.740  -0.484  0.00  0.00     0.003 A 
ATOM      7  I   UNL d   1      -1.145  -1.749  -0.515  0.00  0.00    -0.146 I 
ENDROOT
TORSDOF 0
ENDMDL
