MODEL 1
REMARK minimizedAffinity 7.72616291
REMARK minimizedRMSD -1
REMARK  0 active torsions:
REMARK  status: ('A' for Active; 'I' for Inactive)
ROOT
ATOM      1  C   UNL d   1       4.301   0.741  -0.679  0.00  0.00     0.023 A 
ATOM      2  C1  UNL d   1       3.338   0.744   0.329  0.00  0.00     0.003 A 
ATOM      3  C2  UNL d   1       2.057   0.249   0.075  0.00  0.00     0.048 A 
ATOM      4  C3  UNL d   1       1.747  -0.249  -1.190  0.00  0.00     0.023 A 
ATOM      5  C4  UNL d   1       2.708  -0.255  -2.202  0.00  0.00     0.048 A 
ATOM      6  C5  UNL d   1       3.987   0.242  -1.943  0.00  0.00     0.003 A 
ATOM      7  I   UNL d   1      -0.158  -0.987  -1.572  0.00  0.00    -0.146 I 
ENDROOT
TORSDOF 0
ENDMDL
