MODEL 1
REMARK minimizedAffinity 7.47337103
REMARK minimizedRMSD -1
REMARK  0 active torsions:
REMARK  status: ('A' for Active; 'I' for Inactive)
ROOT
ATOM      1  C   UNL d   1       5.330   4.329   4.891  0.00  0.00     0.023 A 
ATOM      2  C1  UNL d   1       4.847   4.070   3.608  0.00  0.00     0.003 A 
ATOM      3  C2  UNL d   1       3.536   3.623   3.431  0.00  0.00     0.048 A 
ATOM      4  C3  UNL d   1       2.713   3.438   4.541  0.00  0.00     0.023 A 
ATOM      5  C4  UNL d   1       3.192   3.695   5.827  0.00  0.00     0.048 A 
ATOM      6  C5  UNL d   1       4.504   4.141   5.999  0.00  0.00     0.003 A 
ATOM      7  I   UNL d   1       0.762   2.772   4.280  0.00  0.00    -0.146 I 
ENDROOT
TORSDOF 0
ENDMDL
