MODEL 1
REMARK minimizedAffinity 9.59470558
REMARK minimizedRMSD -1
REMARK  0 active torsions:
REMARK  status: ('A' for Active; 'I' for Inactive)
ROOT
ATOM      1  C   UNL d   1       4.759   4.417   4.781  0.00  0.00     0.023 A 
ATOM      2  C1  UNL d   1       4.177   4.012   3.579  0.00  0.00     0.003 A 
ATOM      3  C2  UNL d   1       2.942   3.360   3.585  0.00  0.00     0.048 A 
ATOM      4  C3  UNL d   1       2.294   3.116   4.795  0.00  0.00     0.023 A 
ATOM      5  C4  UNL d   1       2.872   3.519   6.000  0.00  0.00     0.048 A 
ATOM      6  C5  UNL d   1       4.107   4.171   5.990  0.00  0.00     0.003 A 
ATOM      7  I   UNL d   1       0.457   2.145   4.806  0.00  0.00    -0.146 I 
ENDROOT
TORSDOF 0
ENDMDL
