MODEL 1
REMARK minimizedAffinity 6.36103582
REMARK minimizedRMSD -1
REMARK  0 active torsions:
REMARK  status: ('A' for Active; 'I' for Inactive)
ROOT
ATOM      1  C   UNL d   1       2.593  -0.628  -0.972  0.00  0.00     0.023 A 
ATOM      2  C1  UNL d   1       2.969  -0.553  -2.314  0.00  0.00     0.003 A 
ATOM      3  C2  UNL d   1       3.946   0.359  -2.717  0.00  0.00     0.048 A 
ATOM      4  C3  UNL d   1       4.545   1.193  -1.773  0.00  0.00     0.023 A 
ATOM      5  C4  UNL d   1       4.173   1.120  -0.429  0.00  0.00     0.048 A 
ATOM      6  C5  UNL d   1       3.195   0.207  -0.031  0.00  0.00     0.003 A 
ATOM      7  I   UNL d   1       6.000   2.551  -2.370  0.00  0.00    -0.146 I 
ENDROOT
TORSDOF 0
ENDMDL
