MODEL 1
REMARK minimizedAffinity 5.08446217
REMARK minimizedRMSD -1
REMARK  0 active torsions:
REMARK  status: ('A' for Active; 'I' for Inactive)
ROOT
ATOM      1  C   UNL d   1       3.256   0.794  -0.187  0.00  0.00     0.023 A 
ATOM      2  C1  UNL d   1       2.154   0.854  -1.040  0.00  0.00     0.003 A 
ATOM      3  C2  UNL d   1       1.064   1.665  -0.718  0.00  0.00     0.048 A 
ATOM      4  C3  UNL d   1       1.083   2.416   0.457  0.00  0.00     0.023 A 
ATOM      5  C4  UNL d   1       2.185   2.360   1.313  0.00  0.00     0.048 A 
ATOM      6  C5  UNL d   1       3.272   1.546   0.988  0.00  0.00     0.003 A 
ATOM      7  I   UNL d   1      -0.537   3.625   0.938  0.00  0.00    -0.146 I 
ENDROOT
TORSDOF 0
ENDMDL
