MODEL 1
REMARK minimizedAffinity 4.93977261
REMARK minimizedRMSD -1
REMARK  0 active torsions:
REMARK  status: ('A' for Active; 'I' for Inactive)
ROOT
ATOM      1  C   UNL d   1      -2.423   1.559  -1.069  0.00  0.00     0.023 A 
ATOM      2  C1  UNL d   1      -1.515   2.441  -0.482  0.00  0.00     0.003 A 
ATOM      3  C2  UNL d   1      -0.147   2.165  -0.523  0.00  0.00     0.048 A 
ATOM      4  C3  UNL d   1       0.307   1.007  -1.152  0.00  0.00     0.023 A 
ATOM      5  C4  UNL d   1      -0.597   0.122  -1.741  0.00  0.00     0.048 A 
ATOM      6  C5  UNL d   1      -1.965   0.401  -1.697  0.00  0.00     0.003 A 
ATOM      7  I   UNL d   1       2.343   0.595  -1.214  0.00  0.00    -0.146 I 
ENDROOT
TORSDOF 0
ENDMDL
