MODEL 1
REMARK minimizedAffinity 4.43814325
REMARK minimizedRMSD -1
REMARK  0 active torsions:
REMARK  status: ('A' for Active; 'I' for Inactive)
ROOT
ATOM      1  C   UNL d   1       3.088   0.124  -0.567  0.00  0.00     0.023 A 
ATOM      2  C1  UNL d   1       4.033   0.881   0.126  0.00  0.00     0.003 A 
ATOM      3  C2  UNL d   1       4.869   1.759  -0.565  0.00  0.00     0.048 A 
ATOM      4  C3  UNL d   1       4.756   1.876  -1.950  0.00  0.00     0.023 A 
ATOM      5  C4  UNL d   1       3.811   1.121  -2.648  0.00  0.00     0.048 A 
ATOM      6  C5  UNL d   1       2.978   0.244  -1.952  0.00  0.00     0.003 A 
ATOM      7  I   UNL d   1       6.000   3.183  -2.982  0.00  0.00    -0.146 I 
ENDROOT
TORSDOF 0
ENDMDL
