MODEL 1
REMARK minimizedAffinity 10.6128778
REMARK minimizedRMSD -1
REMARK  0 active torsions:
REMARK  status: ('A' for Active; 'I' for Inactive)
ROOT
ATOM      1  N1  IND d   1       1.073   0.135   2.492  0.00  0.00    -0.196 N 
ATOM      2  C2  IND d   1       2.344  -0.363   2.564  0.00  0.00     0.054 A 
ATOM      3  C3  IND d   1       2.599  -1.156   1.499  0.00  0.00    -0.031 A 
ATOM      4  C4  IND d   1       1.114  -1.694  -0.533  0.00  0.00     0.051 A 
ATOM      5  C5  IND d   1      -0.145  -1.500  -1.029  0.00  0.00    -0.031 A 
ATOM      6  C6  IND d   1      -1.080  -0.734  -0.364  0.00  0.00     0.015 A 
ATOM      7  C7  IND d   1      -0.787  -0.120   0.821  0.00  0.00    -0.016 A 
ATOM      8  C8  IND d   1       0.488  -0.321   1.331  0.00  0.00    -0.047 A 
ATOM      9  C9  IND d   1       1.428  -1.132   0.682  0.00  0.00    -0.096 A 
ATOM     10  HN1 IND d   1       0.701   0.648   3.074  0.00  0.00     0.298 HD
ENDROOT
TORSDOF 0
ENDMDL
