MODEL 1
REMARK minimizedAffinity 15.8547468
REMARK minimizedRMSD -1
REMARK  0 active torsions:
REMARK  status: ('A' for Active; 'I' for Inactive)
ROOT
ATOM      1  N1  IND d   1       0.941  -0.320   2.438  0.00  0.00    -0.196 N 
ATOM      2  C2  IND d   1       2.251  -0.695   2.538  0.00  0.00     0.054 A 
ATOM      3  C3  IND d   1       2.577  -1.540   1.535  0.00  0.00    -0.031 A 
ATOM      4  C4  IND d   1       1.145  -2.363  -0.440  0.00  0.00     0.051 A 
ATOM      5  C5  IND d   1      -0.127  -2.322  -0.939  0.00  0.00    -0.031 A 
ATOM      6  C6  IND d   1      -1.127  -1.595  -0.327  0.00  0.00     0.015 A 
ATOM      7  C7  IND d   1      -0.889  -0.869   0.805  0.00  0.00    -0.016 A 
ATOM      8  C8  IND d   1       0.399  -0.914   1.319  0.00  0.00    -0.047 A 
ATOM      9  C9  IND d   1       1.408  -1.684   0.726  0.00  0.00    -0.096 A 
ATOM     10  HN1 IND d   1       0.524   0.199   2.983  0.00  0.00     0.298 HD
ENDROOT
TORSDOF 0
ENDMDL
