MODEL 1
REMARK minimizedAffinity 2.80516434
REMARK minimizedRMSD -1
REMARK  0 active torsions:
REMARK  status: ('A' for Active; 'I' for Inactive)
ROOT
ATOM      1  N1  IND d   1       4.798  -3.016   5.781  0.00  0.00    -0.196 N 
ATOM      2  C2  IND d   1       6.000  -2.405   5.553  0.00  0.00     0.054 A 
ATOM      3  C3  IND d   1       5.894  -1.526   4.531  0.00  0.00    -0.031 A 
ATOM      4  C4  IND d   1       3.822  -0.857   3.157  0.00  0.00     0.051 A 
ATOM      5  C5  IND d   1       2.505  -1.169   2.973  0.00  0.00    -0.031 A 
ATOM      6  C6  IND d   1       1.871  -2.131   3.733  0.00  0.00     0.015 A 
ATOM      7  C7  IND d   1       2.531  -2.811   4.717  0.00  0.00    -0.016 A 
ATOM      8  C8  IND d   1       3.871  -2.501   4.902  0.00  0.00    -0.047 A 
ATOM      9  C9  IND d   1       4.531  -1.556   4.105  0.00  0.00    -0.096 A 
ATOM     10  HN1 IND d   1       4.647  -3.621   6.373  0.00  0.00     0.298 HD
ENDROOT
TORSDOF 0
ENDMDL
