MODEL 1
REMARK minimizedAffinity 2.53455544
REMARK minimizedRMSD -1
REMARK  0 active torsions:
REMARK  status: ('A' for Active; 'I' for Inactive)
ROOT
ATOM      1  N1  IND d   1       4.816  -2.437   4.937  0.00  0.00    -0.196 N 
ATOM      2  C2  IND d   1       6.000  -1.906   4.506  0.00  0.00     0.054 A 
ATOM      3  C3  IND d   1       5.796  -1.110   3.433  0.00  0.00    -0.031 A 
ATOM      4  C4  IND d   1       3.590  -0.456   2.278  0.00  0.00     0.051 A 
ATOM      5  C5  IND d   1       2.248  -0.718   2.290  0.00  0.00    -0.031 A 
ATOM      6  C6  IND d   1       1.683  -1.582   3.206  0.00  0.00     0.015 A 
ATOM      7  C7  IND d   1       2.439  -2.210   4.154  0.00  0.00    -0.016 A 
ATOM      8  C8  IND d   1       3.802  -1.952   4.140  0.00  0.00    -0.047 A 
ATOM      9  C9  IND d   1       4.388  -1.109   3.187  0.00  0.00    -0.096 A 
ATOM     10  HN1 IND d   1       4.721  -2.983   5.594  0.00  0.00     0.298 HD
ENDROOT
TORSDOF 0
ENDMDL
