MODEL 1
REMARK minimizedAffinity 10.211627
REMARK minimizedRMSD -1
REMARK  0 active torsions:
REMARK  status: ('A' for Active; 'I' for Inactive)
ROOT
ATOM      1  N1  IND d   1       4.941  -2.625   4.690  0.00  0.00    -0.196 N 
ATOM      2  C2  IND d   1       6.000  -2.228   3.922  0.00  0.00     0.054 A 
ATOM      3  C3  IND d   1       5.568  -1.516   2.857  0.00  0.00    -0.031 A 
ATOM      4  C4  IND d   1       3.177  -0.794   2.233  0.00  0.00     0.051 A 
ATOM      5  C5  IND d   1       1.872  -0.948   2.610  0.00  0.00    -0.031 A 
ATOM      6  C6  IND d   1       1.517  -1.681   3.723  0.00  0.00     0.015 A 
ATOM      7  C7  IND d   1       2.458  -2.281   4.511  0.00  0.00    -0.016 A 
ATOM      8  C8  IND d   1       3.783  -2.133   4.128  0.00  0.00    -0.047 A 
ATOM      9  C9  IND d   1       4.147  -1.425   2.975  0.00  0.00    -0.096 A 
ATOM     10  HN1 IND d   1       4.990  -3.101   5.404  0.00  0.00     0.298 HD
ENDROOT
TORSDOF 0
ENDMDL
