MODEL 1
REMARK minimizedAffinity 8.39221001
REMARK minimizedRMSD -1
REMARK  0 active torsions:
REMARK  status: ('A' for Active; 'I' for Inactive)
ROOT
ATOM      1  N1  IND d   1       0.651  -3.913   4.580  0.00  0.00    -0.196 N 
ATOM      2  C2  IND d   1       1.082  -5.161   4.933  0.00  0.00     0.054 A 
ATOM      3  C3  IND d   1       2.425  -5.167   5.091  0.00  0.00    -0.031 A 
ATOM      4  C4  IND d   1       4.101  -3.221   4.922  0.00  0.00     0.051 A 
ATOM      5  C5  IND d   1       4.185  -1.898   4.589  0.00  0.00    -0.031 A 
ATOM      6  C6  IND d   1       3.073  -1.164   4.231  0.00  0.00     0.015 A 
ATOM      7  C7  IND d   1       1.828  -1.724   4.204  0.00  0.00    -0.016 A 
ATOM      8  C8  IND d   1       1.739  -3.069   4.535  0.00  0.00    -0.047 A 
ATOM      9  C9  IND d   1       2.870  -3.830   4.858  0.00  0.00    -0.096 A 
ATOM     10  HN1 IND d   1      -0.164  -3.691   4.415  0.00  0.00     0.298 HD
ENDROOT
TORSDOF 0
ENDMDL
