MODEL 1
REMARK minimizedAffinity 11.807868
REMARK minimizedRMSD -1
REMARK  0 active torsions:
REMARK  status: ('A' for Active; 'I' for Inactive)
ROOT
ATOM      1  N1  IND d   1      -0.947   4.498   1.950  0.00  0.00    -0.196 N 
ATOM      2  C2  IND d   1      -0.924   5.812   1.574  0.00  0.00     0.054 A 
ATOM      3  C3  IND d   1      -0.040   5.998   0.569  0.00  0.00    -0.031 A 
ATOM      4  C4  IND d   1       1.401   4.271  -0.683  0.00  0.00     0.051 A 
ATOM      5  C5  IND d   1       1.750   2.949  -0.674  0.00  0.00    -0.031 A 
ATOM      6  C6  IND d   1       1.204   2.058   0.227  0.00  0.00     0.015 A 
ATOM      7  C7  IND d   1       0.277   2.454   1.149  0.00  0.00    -0.016 A 
ATOM      8  C8  IND d   1      -0.074   3.797   1.147  0.00  0.00    -0.047 A 
ATOM      9  C9  IND d   1       0.508   4.715   0.263  0.00  0.00    -0.096 A 
ATOM     10  HN1 IND d   1      -1.426   4.165   2.582  0.00  0.00     0.298 HD
ENDROOT
TORSDOF 0
ENDMDL
