MODEL 1
REMARK minimizedAffinity -2.16461444
REMARK minimizedRMSD -1
REMARK  1 active torsions:
REMARK  status: ('A' for Active; 'I' for Inactive)
REMARK    1  A    between atoms: C1_2  and  C2_3 
ROOT
ATOM      1  C2  UNL d   1       2.250  -3.166   0.094  0.00  0.00    -0.073 A 
ATOM      2  C3  UNL d   1       3.254  -2.194   0.031  0.00  0.00    -0.002 A 
ATOM      3  C4  UNL d   1       2.943  -0.846   0.218  0.00  0.00     0.004 A 
ATOM      4  C5  UNL d   1       1.629  -0.458   0.477  0.00  0.00    -0.004 A 
ATOM      5  C6  UNL d   1       0.613  -1.417   0.555  0.00  0.00    -0.075 A 
ATOM      6  C7  UNL d   1      -0.807  -1.016   0.831  0.00  0.00     0.076 C 
ATOM      7  C8  UNL d   1       0.932  -2.767   0.363  0.00  0.00     0.001 A 
ENDROOT
BRANCH   1   8
ATOM      8  C1  UNL d   1       2.581  -4.623  -0.102  0.00  0.00     0.053 C 
ATOM      9  C   UNL d   1       4.067  -4.842  -0.341  0.00  0.00     0.018 C 
ENDBRANCH   1   8
TORSDOF 1
ENDMDL
