MODEL 1
REMARK minimizedAffinity 4.39408302
REMARK minimizedRMSD -1
REMARK  1 active torsions:
REMARK  status: ('A' for Active; 'I' for Inactive)
REMARK    1  A    between atoms: C1_2  and  C2_3 
ROOT
ATOM      1  C2  UNL d   1       3.571  -4.279  -0.284  0.00  0.00    -0.073 A 
ATOM      2  C3  UNL d   1       4.437  -3.181  -0.234  0.00  0.00    -0.002 A 
ATOM      3  C4  UNL d   1       3.929  -1.887  -0.111  0.00  0.00     0.004 A 
ATOM      4  C5  UNL d   1       2.553  -1.678  -0.030  0.00  0.00    -0.004 A 
ATOM      5  C6  UNL d   1       1.671  -2.763  -0.067  0.00  0.00    -0.075 A 
ATOM      6  C7  UNL d   1       0.187  -2.555   0.017  0.00  0.00     0.076 C 
ATOM      7  C8  UNL d   1       2.189  -4.059  -0.193  0.00  0.00     0.001 A 
ENDROOT
BRANCH   1   8
ATOM      8  C1  UNL d   1       4.115  -5.678  -0.410  0.00  0.00     0.053 C 
ATOM      9  C   UNL d   1       5.122  -5.999   0.684  0.00  0.00     0.018 C 
ENDBRANCH   1   8
TORSDOF 1
ENDMDL
