MODEL 1
REMARK minimizedAffinity 1.19226396
REMARK minimizedRMSD -1
REMARK  1 active torsions:
REMARK  status: ('A' for Active; 'I' for Inactive)
REMARK    1  A    between atoms: C1_2  and  C2_3 
ROOT
ATOM      1  C2  UNL d   1       4.745   4.165  -1.002  0.00  0.00    -0.073 A 
ATOM      2  C3  UNL d   1       5.858   5.006  -0.881  0.00  0.00    -0.002 A 
ATOM      3  C4  UNL d   1       5.958   5.893   0.191  0.00  0.00     0.004 A 
ATOM      4  C5  UNL d   1       4.952   5.945   1.156  0.00  0.00    -0.004 A 
ATOM      5  C6  UNL d   1       3.838   5.104   1.060  0.00  0.00    -0.075 A 
ATOM      6  C7  UNL d   1       2.747   5.149   2.088  0.00  0.00     0.076 C 
ATOM      7  C8  UNL d   1       3.743   4.218  -0.022  0.00  0.00     0.001 A 
ENDROOT
BRANCH   1   8
ATOM      8  C1  UNL d   1       4.635   3.201  -2.155  0.00  0.00     0.053 C 
ATOM      9  C   UNL d   1       5.999   2.739  -2.643  0.00  0.00     0.018 C 
ENDBRANCH   1   8
TORSDOF 1
ENDMDL
