MODEL 1
REMARK minimizedAffinity 1.68358421
REMARK minimizedRMSD -1
REMARK  1 active torsions:
REMARK  status: ('A' for Active; 'I' for Inactive)
REMARK    1  A    between atoms: C1_2  and  C2_3 
ROOT
ATOM      1  C2  UNL d   1       0.566  -2.647   0.770  0.00  0.00    -0.073 A 
ATOM      2  C3  UNL d   1      -0.351  -1.888   0.033  0.00  0.00    -0.002 A 
ATOM      3  C4  UNL d   1      -0.755  -0.633   0.489  0.00  0.00     0.004 A 
ATOM      4  C5  UNL d   1      -0.243  -0.121   1.681  0.00  0.00    -0.004 A 
ATOM      5  C6  UNL d   1       0.683  -0.859   2.426  0.00  0.00    -0.075 A 
ATOM      6  C7  UNL d   1       1.241  -0.323   3.711  0.00  0.00     0.076 C 
ATOM      7  C8  UNL d   1       1.082  -2.120   1.962  0.00  0.00     0.001 A 
ENDROOT
BRANCH   1   8
ATOM      8  C1  UNL d   1       1.011  -4.000   0.277  0.00  0.00     0.053 C 
ATOM      9  C   UNL d   1       2.445  -4.309   0.679  0.00  0.00     0.018 C 
ENDBRANCH   1   8
TORSDOF 1
ENDMDL
