MODEL 1
REMARK minimizedAffinity -0.822031617
REMARK minimizedRMSD -1
REMARK  1 active torsions:
REMARK  status: ('A' for Active; 'I' for Inactive)
REMARK    1  A    between atoms: C1_2  and  C2_3 
ROOT
ATOM      1  C2  UNL d   1       2.138  -2.439   0.133  0.00  0.00    -0.073 A 
ATOM      2  C3  UNL d   1       1.356  -3.597   0.060  0.00  0.00    -0.002 A 
ATOM      3  C4  UNL d   1       0.011  -3.564   0.431  0.00  0.00     0.004 A 
ATOM      4  C5  UNL d   1      -0.566  -2.374   0.872  0.00  0.00    -0.004 A 
ATOM      5  C6  UNL d   1       0.196  -1.203   0.941  0.00  0.00    -0.075 A 
ATOM      6  C7  UNL d   1      -0.410   0.085   1.416  0.00  0.00     0.076 C 
ATOM      7  C8  UNL d   1       1.546  -1.245   0.570  0.00  0.00     0.001 A 
ENDROOT
BRANCH   1   8
ATOM      8  C1  UNL d   1       3.589  -2.468  -0.272  0.00  0.00     0.053 C 
ATOM      9  C   UNL d   1       4.132  -3.886  -0.347  0.00  0.00     0.018 C 
ENDBRANCH   1   8
TORSDOF 1
ENDMDL
