MODEL 1
REMARK minimizedAffinity -1.40072393
REMARK minimizedRMSD -1
REMARK  1 active torsions:
REMARK  status: ('A' for Active; 'I' for Inactive)
REMARK    1  A    between atoms: C1_2  and  C2_3 
ROOT
ATOM      1  C2  UNL d   1       2.700  -2.797  -0.002  0.00  0.00    -0.073 A 
ATOM      2  C3  UNL d   1       2.987  -1.490   0.407  0.00  0.00    -0.002 A 
ATOM      3  C4  UNL d   1       1.980  -0.678   0.930  0.00  0.00     0.004 A 
ATOM      4  C5  UNL d   1       0.679  -1.165   1.055  0.00  0.00    -0.004 A 
ATOM      5  C6  UNL d   1       0.375  -2.473   0.663  0.00  0.00    -0.075 A 
ATOM      6  C7  UNL d   1      -1.020  -3.012   0.790  0.00  0.00     0.076 C 
ATOM      7  C8  UNL d   1       1.391  -3.282   0.137  0.00  0.00     0.001 A 
ENDROOT
BRANCH   1   8
ATOM      8  C1  UNL d   1       3.785  -3.681  -0.560  0.00  0.00     0.053 C 
ATOM      9  C   UNL d   1       4.122  -4.832   0.375  0.00  0.00     0.018 C 
ENDBRANCH   1   8
TORSDOF 1
ENDMDL
