MODEL 1
REMARK minimizedAffinity -5.85134459
REMARK minimizedRMSD -1
REMARK  1 active torsions:
REMARK  status: ('A' for Active; 'I' for Inactive)
REMARK    1  A    between atoms: C1_2  and  C2_3 
ROOT
ATOM      1  C2  UNL d   1      -1.572   0.037   1.148  0.00  0.00    -0.073 A 
ATOM      2  C3  UNL d   1      -0.309   0.242   1.713  0.00  0.00    -0.002 A 
ATOM      3  C4  UNL d   1       0.678  -0.739   1.607  0.00  0.00     0.004 A 
ATOM      4  C5  UNL d   1       0.415  -1.930   0.930  0.00  0.00    -0.004 A 
ATOM      5  C6  UNL d   1      -0.838  -2.148   0.349  0.00  0.00    -0.075 A 
ATOM      6  C7  UNL d   1      -1.138  -3.425  -0.381  0.00  0.00     0.076 C 
ATOM      7  C8  UNL d   1      -1.825  -1.159   0.462  0.00  0.00     0.001 A 
ENDROOT
BRANCH   1   8
ATOM      8  C1  UNL d   1      -2.639   1.096   1.254  0.00  0.00     0.053 C 
ATOM      9  C   UNL d   1      -3.687   0.962   0.160  0.00  0.00     0.018 C 
ENDBRANCH   1   8
TORSDOF 1
ENDMDL
