MODEL 1
REMARK minimizedAffinity 1.06116903
REMARK minimizedRMSD -1
REMARK  1 active torsions:
REMARK  status: ('A' for Active; 'I' for Inactive)
REMARK    1  A    between atoms: C1_2  and  C2_3 
ROOT
ATOM      1  C2  UNL d   1       1.116  -2.766   0.172  0.00  0.00    -0.073 A 
ATOM      2  C3  UNL d   1      -0.186  -2.424  -0.212  0.00  0.00    -0.002 A 
ATOM      3  C4  UNL d   1      -0.767  -1.240   0.242  0.00  0.00     0.004 A 
ATOM      4  C5  UNL d   1      -0.052  -0.383   1.078  0.00  0.00    -0.004 A 
ATOM      5  C6  UNL d   1       1.254  -0.701   1.463  0.00  0.00    -0.075 A 
ATOM      6  C7  UNL d   1       2.037   0.210   2.364  0.00  0.00     0.076 C 
ATOM      7  C8  UNL d   1       1.830  -1.893   1.005  0.00  0.00     0.001 A 
ENDROOT
BRANCH   1   8
ATOM      8  C1  UNL d   1       1.750  -4.040  -0.322  0.00  0.00     0.053 C 
ATOM      9  C   UNL d   1       3.177  -4.198   0.177  0.00  0.00     0.018 C 
ENDBRANCH   1   8
TORSDOF 1
ENDMDL
