MODEL 1
REMARK minimizedAffinity -1.78681672
REMARK minimizedRMSD -1
REMARK  1 active torsions:
REMARK  status: ('A' for Active; 'I' for Inactive)
REMARK    1  A    between atoms: C1_2  and  C2_3 
ROOT
ATOM      1  C2  UNL d   1       3.782   4.836   0.458  0.00  0.00    -0.073 A 
ATOM      2  C3  UNL d   1       3.267   5.925  -0.255  0.00  0.00    -0.002 A 
ATOM      3  C4  UNL d   1       2.978   5.804  -1.615  0.00  0.00     0.004 A 
ATOM      4  C5  UNL d   1       3.194   4.594  -2.274  0.00  0.00    -0.004 A 
ATOM      5  C6  UNL d   1       3.697   3.491  -1.576  0.00  0.00    -0.075 A 
ATOM      6  C7  UNL d   1       3.938   2.183  -2.271  0.00  0.00     0.076 C 
ATOM      7  C8  UNL d   1       3.987   3.621  -0.211  0.00  0.00     0.001 A 
ENDROOT
BRANCH   1   8
ATOM      8  C1  UNL d   1       4.089   4.959   1.928  0.00  0.00     0.053 C 
ATOM      9  C   UNL d   1       5.278   5.871   2.187  0.00  0.00     0.018 C 
ENDBRANCH   1   8
TORSDOF 1
ENDMDL
