MODEL 1
REMARK minimizedAffinity 1.78495419
REMARK minimizedRMSD -1
REMARK  1 active torsions:
REMARK  status: ('A' for Active; 'I' for Inactive)
REMARK    1  A    between atoms: C1_2  and  C2_3 
ROOT
ATOM      1  C2  UNL d   1       1.135  -2.180   0.288  0.00  0.00    -0.073 A 
ATOM      2  C3  UNL d   1       2.269  -1.457   0.674  0.00  0.00    -0.002 A 
ATOM      3  C4  UNL d   1       2.136  -0.213   1.293  0.00  0.00     0.004 A 
ATOM      4  C5  UNL d   1       0.869   0.317   1.538  0.00  0.00    -0.004 A 
ATOM      5  C6  UNL d   1      -0.277  -0.396   1.170  0.00  0.00    -0.075 A 
ATOM      6  C7  UNL d   1      -1.647   0.161   1.424  0.00  0.00     0.076 C 
ATOM      7  C8  UNL d   1      -0.135  -1.643   0.547  0.00  0.00     0.001 A 
ENDROOT
BRANCH   1   8
ATOM      8  C1  UNL d   1       1.274  -3.526  -0.374  0.00  0.00     0.053 C 
ATOM      9  C   UNL d   1       2.654  -4.127  -0.159  0.00  0.00     0.018 C 
ENDBRANCH   1   8
TORSDOF 1
ENDMDL
