MODEL 1
REMARK minimizedAffinity 5.54016781
REMARK minimizedRMSD -1
REMARK  0 active torsions:
REMARK  status: ('A' for Active; 'I' for Inactive)
ROOT
ATOM      1  C2' OXE d   1      -1.527  -4.501  -3.373  0.00  0.00     0.078 C 
ATOM      2  C1' OXE d   1      -2.571  -1.899  -3.530  0.00  0.00     0.078 C 
ATOM      3  C1  OXE d   1      -3.225  -2.972  -4.365  0.00  0.00    -0.078 A 
ATOM      4  C2  OXE d   1      -2.679  -4.232  -4.317  0.00  0.00    -0.078 A 
ATOM      5  C3  OXE d   1      -3.278  -5.270  -5.025  0.00  0.00     0.003 A 
ATOM      6  C4  OXE d   1      -4.336  -5.011  -5.904  0.00  0.00    -0.002 A 
ATOM      7  C5  OXE d   1      -4.883  -3.726  -5.998  0.00  0.00    -0.002 A 
ATOM      8  C6  OXE d   1      -4.367  -2.707  -5.205  0.00  0.00     0.003 A 
ENDROOT
TORSDOF 0
ENDMDL
