MODEL 1
REMARK minimizedAffinity 7.318573
REMARK minimizedRMSD -1
REMARK  0 active torsions:
REMARK  status: ('A' for Active; 'I' for Inactive)
ROOT
ATOM      1  C2' OXE d   1      -2.220  -5.984  -5.110  0.00  0.00     0.078 C 
ATOM      2  C1' OXE d   1      -1.712  -4.023  -3.167  0.00  0.00     0.078 C 
ATOM      3  C1  OXE d   1      -2.841  -3.777  -4.136  0.00  0.00    -0.078 A 
ATOM      4  C2  OXE d   1      -3.053  -4.720  -5.113  0.00  0.00    -0.078 A 
ATOM      5  C3  OXE d   1      -4.116  -4.569  -5.998  0.00  0.00     0.003 A 
ATOM      6  C4  OXE d   1      -4.875  -3.392  -6.000  0.00  0.00    -0.002 A 
ATOM      7  C5  OXE d   1      -4.650  -2.401  -5.038  0.00  0.00    -0.002 A 
ATOM      8  C6  OXE d   1      -3.667  -2.597  -4.075  0.00  0.00     0.003 A 
ENDROOT
TORSDOF 0
ENDMDL
