MODEL 1
REMARK minimizedAffinity 11.572196
REMARK minimizedRMSD -1
REMARK  0 active torsions:
REMARK  status: ('A' for Active; 'I' for Inactive)
ROOT
ATOM      1  C2' OXE d   1       3.115  -3.071  -0.600  0.00  0.00     0.078 C 
ATOM      2  C1' OXE d   1       1.681  -1.030  -1.888  0.00  0.00     0.078 C 
ATOM      3  C1  OXE d   1       2.792  -0.626  -0.952  0.00  0.00    -0.078 A 
ATOM      4  C2  OXE d   1       3.458  -1.630  -0.290  0.00  0.00    -0.078 A 
ATOM      5  C3  OXE d   1       4.528  -1.315   0.543  0.00  0.00     0.003 A 
ATOM      6  C4  OXE d   1       4.832   0.021   0.832  0.00  0.00    -0.002 A 
ATOM      7  C5  OXE d   1       4.140   1.059   0.199  0.00  0.00    -0.002 A 
ATOM      8  C6  OXE d   1       3.148   0.753  -0.726  0.00  0.00     0.003 A 
ENDROOT
TORSDOF 0
ENDMDL
