MODEL 1
REMARK minimizedAffinity 11.1879797
REMARK minimizedRMSD -1
REMARK  0 active torsions:
REMARK  status: ('A' for Active; 'I' for Inactive)
ROOT
ATOM      1  C2' OXE d   1       1.751  -1.646  -2.618  0.00  0.00     0.078 C 
ATOM      2  C1' OXE d   1       0.634  -4.125  -3.316  0.00  0.00     0.078 C 
ATOM      3  C1  OXE d   1       1.631  -4.097  -2.185  0.00  0.00    -0.078 A 
ATOM      4  C2  OXE d   1       2.208  -2.887  -1.881  0.00  0.00    -0.078 A 
ATOM      5  C3  OXE d   1       3.093  -2.795  -0.811  0.00  0.00     0.003 A 
ATOM      6  C4  OXE d   1       3.518  -3.949  -0.141  0.00  0.00    -0.002 A 
ATOM      7  C5  OXE d   1       2.973  -5.197  -0.461  0.00  0.00    -0.002 A 
ATOM      8  C6  OXE d   1       1.999  -5.281  -1.450  0.00  0.00     0.003 A 
ENDROOT
TORSDOF 0
ENDMDL
