MODEL 1
REMARK minimizedAffinity 14.6571417
REMARK minimizedRMSD -1
REMARK  0 active torsions:
REMARK  status: ('A' for Active; 'I' for Inactive)
ROOT
ATOM      1  C2' OXE d   1       2.711  -5.110   0.254  0.00  0.00     0.078 C 
ATOM      2  C1' OXE d   1       3.458  -2.404   0.254  0.00  0.00     0.078 C 
ATOM      3  C1  OXE d   1       2.568  -2.888  -0.863  0.00  0.00    -0.078 A 
ATOM      4  C2  OXE d   1       2.245  -4.224  -0.881  0.00  0.00    -0.078 A 
ATOM      5  C3  OXE d   1       1.382  -4.711  -1.858  0.00  0.00     0.003 A 
ATOM      6  C4  OXE d   1       0.964  -3.887  -2.910  0.00  0.00    -0.002 A 
ATOM      7  C5  OXE d   1       1.314  -2.533  -2.932  0.00  0.00    -0.002 A 
ATOM      8  C6  OXE d   1       2.078  -2.009  -1.896  0.00  0.00     0.003 A 
ENDROOT
TORSDOF 0
ENDMDL
