MODEL 1
REMARK minimizedAffinity -0.813232005
REMARK minimizedRMSD -1
REMARK  0 active torsions:
REMARK  status: ('A' for Active; 'I' for Inactive)
ROOT
ATOM      1  C2' OXE d   1       1.921  -1.868  -2.149  0.00  0.00     0.078 C 
ATOM      2  C1' OXE d   1       1.168  -3.935  -3.893  0.00  0.00     0.078 C 
ATOM      3  C1  OXE d   1       1.953  -4.306  -2.660  0.00  0.00    -0.078 A 
ATOM      4  C2  OXE d   1       2.358  -3.283  -1.836  0.00  0.00    -0.078 A 
ATOM      5  C3  OXE d   1       3.037  -3.574  -0.657  0.00  0.00     0.003 A 
ATOM      6  C4  OXE d   1       3.446  -4.884  -0.380  0.00  0.00    -0.002 A 
ATOM      7  C5  OXE d   1       3.079  -5.936  -1.226  0.00  0.00    -0.002 A 
ATOM      8  C6  OXE d   1       2.298  -5.670  -2.345  0.00  0.00     0.003 A 
ENDROOT
TORSDOF 0
ENDMDL
