MODEL 1
REMARK minimizedAffinity 15.3726263
REMARK minimizedRMSD -1
REMARK  0 active torsions:
REMARK  status: ('A' for Active; 'I' for Inactive)
ROOT
ATOM      1  C2' OXE d   1       2.796  -4.968   0.257  0.00  0.00     0.078 C 
ATOM      2  C1' OXE d   1       0.342  -3.906  -0.599  0.00  0.00     0.078 C 
ATOM      3  C1  OXE d   1       1.506  -2.958  -0.451  0.00  0.00    -0.078 A 
ATOM      4  C2  OXE d   1       2.690  -3.478   0.013  0.00  0.00    -0.078 A 
ATOM      5  C3  OXE d   1       3.810  -2.658   0.115  0.00  0.00     0.003 A 
ATOM      6  C4  OXE d   1       3.701  -1.279  -0.103  0.00  0.00    -0.002 A 
ATOM      7  C5  OXE d   1       2.494  -0.722  -0.538  0.00  0.00    -0.002 A 
ATOM      8  C6  OXE d   1       1.401  -1.553  -0.758  0.00  0.00     0.003 A 
ENDROOT
TORSDOF 0
ENDMDL
