MODEL 1
REMARK minimizedAffinity 14.6635628
REMARK minimizedRMSD -1
REMARK  0 active torsions:
REMARK  status: ('A' for Active; 'I' for Inactive)
ROOT
ATOM      1  C2' OXE d   1      -2.028   0.752   2.645  0.00  0.00     0.078 C 
ATOM      2  C1' OXE d   1      -4.207  -0.989   2.330  0.00  0.00     0.078 C 
ATOM      3  C1  OXE d   1      -4.484   0.395   2.859  0.00  0.00    -0.078 A 
ATOM      4  C2  OXE d   1      -3.406   1.225   3.055  0.00  0.00    -0.078 A 
ATOM      5  C3  OXE d   1      -3.612   2.531   3.490  0.00  0.00     0.003 A 
ATOM      6  C4  OXE d   1      -4.889   2.957   3.876  0.00  0.00    -0.002 A 
ATOM      7  C5  OXE d   1      -5.995   2.114   3.722  0.00  0.00    -0.002 A 
ATOM      8  C6  OXE d   1      -5.816   0.848   3.177  0.00  0.00     0.003 A 
ENDROOT
TORSDOF 0
ENDMDL
