MODEL 1
REMARK minimizedAffinity 6.90244865
REMARK minimizedRMSD -1
REMARK  0 active torsions:
REMARK  status: ('A' for Active; 'I' for Inactive)
ROOT
ATOM      1  C2' OXE d   1       2.541  -2.983  -0.290  0.00  0.00     0.078 C 
ATOM      2  C1' OXE d   1       1.472  -0.621  -1.365  0.00  0.00     0.078 C 
ATOM      3  C1  OXE d   1       2.908  -0.597  -0.903  0.00  0.00    -0.078 A 
ATOM      4  C2  OXE d   1       3.409  -1.744  -0.336  0.00  0.00    -0.078 A 
ATOM      5  C3  OXE d   1       4.743  -1.793   0.057  0.00  0.00     0.003 A 
ATOM      6  C4  OXE d   1       5.536  -0.639   0.020  0.00  0.00    -0.002 A 
ATOM      7  C5  OXE d   1       5.033   0.550  -0.518  0.00  0.00    -0.002 A 
ATOM      8  C6  OXE d   1       3.737   0.577  -1.022  0.00  0.00     0.003 A 
ENDROOT
TORSDOF 0
ENDMDL
