MODEL 1
REMARK minimizedAffinity 14.4882107
REMARK minimizedRMSD -1
REMARK  0 active torsions:
REMARK  status: ('A' for Active; 'I' for Inactive)
ROOT
ATOM      1  C2' OXE d   1       3.025  -2.988  -0.091  0.00  0.00     0.078 C 
ATOM      2  C1' OXE d   1       1.927  -1.392  -2.123  0.00  0.00     0.078 C 
ATOM      3  C1  OXE d   1       2.736  -0.707  -1.050  0.00  0.00    -0.078 A 
ATOM      4  C2  OXE d   1       3.230  -1.489  -0.034  0.00  0.00    -0.078 A 
ATOM      5  C3  OXE d   1       4.029  -0.916   0.951  0.00  0.00     0.003 A 
ATOM      6  C4  OXE d   1       4.205   0.472   1.002  0.00  0.00    -0.002 A 
ATOM      7  C5  OXE d   1       3.677   1.292  -0.001  0.00  0.00    -0.002 A 
ATOM      8  C6  OXE d   1       2.978   0.714  -1.055  0.00  0.00     0.003 A 
ENDROOT
TORSDOF 0
ENDMDL
