MODEL 1
REMARK minimizedAffinity 14.7336226
REMARK minimizedRMSD -1
REMARK  0 active torsions:
REMARK  status: ('A' for Active; 'I' for Inactive)
ROOT
ATOM      1  C2' OXE d   1       3.295  -2.604  -0.079  0.00  0.00     0.078 C 
ATOM      2  C1' OXE d   1       1.867  -1.860  -2.378  0.00  0.00     0.078 C 
ATOM      3  C1  OXE d   1       1.878  -3.320  -1.998  0.00  0.00    -0.078 A 
ATOM      4  C2  OXE d   1       2.617  -3.681  -0.898  0.00  0.00    -0.078 A 
ATOM      5  C3  OXE d   1       2.617  -5.007  -0.472  0.00  0.00     0.003 A 
ATOM      6  C4  OXE d   1       1.996  -5.998  -1.241  0.00  0.00    -0.002 A 
ATOM      7  C5  OXE d   1       1.270  -5.657  -2.387  0.00  0.00    -0.002 A 
ATOM      8  C6  OXE d   1       1.166  -4.320  -2.755  0.00  0.00     0.003 A 
ENDROOT
TORSDOF 0
ENDMDL
