MODEL 1
REMARK minimizedAffinity 7.17998362
REMARK minimizedRMSD -1
REMARK  0 active torsions:
REMARK  status: ('A' for Active; 'I' for Inactive)
ROOT
ATOM      1  C2' OXE d   1       3.530  -4.234   0.295  0.00  0.00     0.078 C 
ATOM      2  C1' OXE d   1       5.911  -2.978   1.093  0.00  0.00     0.078 C 
ATOM      3  C1  OXE d   1       4.659  -2.139   1.032  0.00  0.00    -0.078 A 
ATOM      4  C2  OXE d   1       3.508  -2.751   0.596  0.00  0.00    -0.078 A 
ATOM      5  C3  OXE d   1       2.314  -2.036   0.574  0.00  0.00     0.003 A 
ATOM      6  C4  OXE d   1       2.304  -0.663   0.844  0.00  0.00    -0.002 A 
ATOM      7  C5  OXE d   1       3.473  -0.011   1.252  0.00  0.00    -0.002 A 
ATOM      8  C6  OXE d   1       4.648  -0.743   1.392  0.00  0.00     0.003 A 
ENDROOT
TORSDOF 0
ENDMDL
