MODEL 1
REMARK minimizedAffinity 12.4999552
REMARK minimizedRMSD -1
REMARK  0 active torsions:
REMARK  status: ('A' for Active; 'I' for Inactive)
ROOT
ATOM      1  C2' OXE d   1      -1.325  -4.845  -1.667  0.00  0.00     0.078 C 
ATOM      2  C1' OXE d   1      -0.663  -3.795  -4.185  0.00  0.00     0.078 C 
ATOM      3  C1  OXE d   1       0.140  -3.330  -2.996  0.00  0.00    -0.078 A 
ATOM      4  C2  OXE d   1      -0.221  -3.813  -1.761  0.00  0.00    -0.078 A 
ATOM      5  C3  OXE d   1       0.521  -3.459  -0.638  0.00  0.00     0.003 A 
ATOM      6  C4  OXE d   1       1.533  -2.496  -0.733  0.00  0.00    -0.002 A 
ATOM      7  C5  OXE d   1       1.891  -1.962  -1.975  0.00  0.00    -0.002 A 
ATOM      8  C6  OXE d   1       1.234  -2.399  -3.120  0.00  0.00     0.003 A 
ENDROOT
TORSDOF 0
ENDMDL
