MODEL 1
REMARK minimizedAffinity 7.59034729
REMARK minimizedRMSD -1
REMARK  0 active torsions:
REMARK  status: ('A' for Active; 'I' for Inactive)
ROOT
ATOM      1  C2' OXE d   1       2.520   2.094  -2.622  0.00  0.00     0.078 C 
ATOM      2  C1' OXE d   1       2.675   1.419   0.098  0.00  0.00     0.078 C 
ATOM      3  C1  OXE d   1       2.237   0.347  -0.869  0.00  0.00    -0.078 A 
ATOM      4  C2  OXE d   1       2.119   0.699  -2.192  0.00  0.00    -0.078 A 
ATOM      5  C3  OXE d   1       1.771  -0.265  -3.133  0.00  0.00     0.003 A 
ATOM      6  C4  OXE d   1       1.392  -1.550  -2.725  0.00  0.00    -0.002 A 
ATOM      7  C5  OXE d   1       1.466  -1.918  -1.378  0.00  0.00    -0.002 A 
ATOM      8  C6  OXE d   1       1.927  -0.996  -0.444  0.00  0.00     0.003 A 
ENDROOT
TORSDOF 0
ENDMDL
