MODEL 1
REMARK minimizedAffinity 21.1807327
REMARK minimizedRMSD -1
REMARK  0 active torsions:
REMARK  status: ('A' for Active; 'I' for Inactive)
ROOT
ATOM      1  C2' OXE d   1      -2.632  -2.551  -4.058  0.00  0.00     0.078 C 
ATOM      2  C1' OXE d   1      -1.962   0.047  -3.233  0.00  0.00     0.078 C 
ATOM      3  C1  OXE d   1      -0.964  -1.053  -2.973  0.00  0.00    -0.078 A 
ATOM      4  C2  OXE d   1      -1.320  -2.329  -3.338  0.00  0.00    -0.078 A 
ATOM      5  C3  OXE d   1      -0.414  -3.373  -3.170  0.00  0.00     0.003 A 
ATOM      6  C4  OXE d   1       0.794  -3.161  -2.494  0.00  0.00    -0.002 A 
ATOM      7  C5  OXE d   1       1.159  -1.876  -2.078  0.00  0.00    -0.002 A 
ATOM      8  C6  OXE d   1       0.312  -0.807  -2.347  0.00  0.00     0.003 A 
ENDROOT
TORSDOF 0
ENDMDL
