MODEL 1
REMARK minimizedAffinity 15.1940937
REMARK minimizedRMSD -1
REMARK  0 active torsions:
REMARK  status: ('A' for Active; 'I' for Inactive)
ROOT
ATOM      1  C2' OXE d   1      -5.491  -3.030  -6.000  0.00  0.00     0.078 C 
ATOM      2  C1' OXE d   1      -5.346  -5.834  -5.998  0.00  0.00     0.078 C 
ATOM      3  C1  OXE d   1      -4.424  -5.081  -5.072  0.00  0.00    -0.078 A 
ATOM      4  C2  OXE d   1      -4.469  -3.708  -5.113  0.00  0.00    -0.078 A 
ATOM      5  C3  OXE d   1      -3.678  -2.966  -4.241  0.00  0.00     0.003 A 
ATOM      6  C4  OXE d   1      -2.728  -3.601  -3.432  0.00  0.00    -0.002 A 
ATOM      7  C5  OXE d   1      -2.638  -4.996  -3.404  0.00  0.00    -0.002 A 
ATOM      8  C6  OXE d   1      -3.506  -5.751  -4.185  0.00  0.00     0.003 A 
ENDROOT
TORSDOF 0
ENDMDL
