MODEL 1
REMARK minimizedAffinity 22.8210983
REMARK minimizedRMSD -1
REMARK  0 active torsions:
REMARK  status: ('A' for Active; 'I' for Inactive)
ROOT
ATOM      1  C2' OXE d   1      -5.992   3.445   3.340  0.00  0.00     0.078 C 
ATOM      2  C1' OXE d   1      -5.116   3.641   6.000  0.00  0.00     0.078 C 
ATOM      3  C1  OXE d   1      -4.460   2.609   5.117  0.00  0.00    -0.078 A 
ATOM      4  C2  OXE d   1      -4.927   2.488   3.831  0.00  0.00    -0.078 A 
ATOM      5  C3  OXE d   1      -4.320   1.589   2.958  0.00  0.00     0.003 A 
ATOM      6  C4  OXE d   1      -3.343   0.701   3.423  0.00  0.00    -0.002 A 
ATOM      7  C5  OXE d   1      -2.880   0.780   4.741  0.00  0.00    -0.002 A 
ATOM      8  C6  OXE d   1      -3.397   1.755   5.587  0.00  0.00     0.003 A 
ENDROOT
TORSDOF 0
ENDMDL
