MODEL 1
REMARK minimizedAffinity -0.761830389
REMARK minimizedRMSD -1
REMARK  0 active torsions:
REMARK  status: ('A' for Active; 'I' for Inactive)
ROOT
ATOM      1  C   UNL d   1       1.784  -1.927  -0.405  0.00  0.00    -0.002 A 
ATOM      2  C1  UNL d   1       2.505  -0.765  -0.169  0.00  0.00     0.010 A 
ATOM      3  C2  UNL d   1       1.847   0.448   0.044  0.00  0.00     0.041 A 
ATOM      4  C3  UNL d   1       0.438   0.473   0.019  0.00  0.00    -0.075 A 
ATOM      5  S   UNL d   1      -0.581   1.842   0.256  0.00  0.00     0.015 SA
ATOM      6  C4  UNL d   1      -1.998   0.917   0.051  0.00  0.00     0.022 A 
ATOM      7  C5  UNL d   1      -1.718  -0.407  -0.192  0.00  0.00     0.026 A 
ATOM      8  C6  UNL d   1      -0.309  -0.685  -0.214  0.00  0.00    -0.082 A 
ATOM      9  C7  UNL d   1       0.387  -1.899  -0.429  0.00  0.00     0.045 A 
ENDROOT
TORSDOF 0
ENDMDL
