MODEL 1
REMARK minimizedAffinity 3.20082521
REMARK minimizedRMSD -1
REMARK  0 active torsions:
REMARK  status: ('A' for Active; 'I' for Inactive)
ROOT
ATOM      1  C   UNL d   1       0.754  -2.995  -0.507  0.00  0.00    -0.002 A 
ATOM      2  C1  UNL d   1       1.839  -2.261  -0.965  0.00  0.00     0.010 A 
ATOM      3  C2  UNL d   1       1.821  -0.865  -0.923  0.00  0.00     0.041 A 
ATOM      4  C3  UNL d   1       0.684  -0.214  -0.406  0.00  0.00    -0.075 A 
ATOM      5  S   UNL d   1       0.439   1.486  -0.255  0.00  0.00     0.015 SA
ATOM      6  C4  UNL d   1      -1.111   1.278   0.422  0.00  0.00     0.022 A 
ATOM      7  C5  UNL d   1      -1.450  -0.050   0.537  0.00  0.00     0.026 A 
ATOM      8  C6  UNL d   1      -0.420  -0.931   0.062  0.00  0.00    -0.082 A 
ATOM      9  C7  UNL d   1      -0.372  -2.345   0.005  0.00  0.00     0.045 A 
ENDROOT
TORSDOF 0
ENDMDL
