MODEL 1
REMARK minimizedAffinity 2.34390068
REMARK minimizedRMSD -1
REMARK  0 active torsions:
REMARK  status: ('A' for Active; 'I' for Inactive)
ROOT
ATOM      1  C   UNL d   1      -0.001  -2.280  -0.729  0.00  0.00    -0.002 A 
ATOM      2  C1  UNL d   1       1.371  -2.466  -0.627  0.00  0.00     0.010 A 
ATOM      3  C2  UNL d   1       2.219  -1.383  -0.389  0.00  0.00     0.041 A 
ATOM      4  C3  UNL d   1       1.660  -0.097  -0.253  0.00  0.00    -0.075 A 
ATOM      5  S   UNL d   1       2.504   1.377   0.043  0.00  0.00     0.015 SA
ATOM      6  C4  UNL d   1       1.064   2.289   0.042  0.00  0.00     0.022 A 
ATOM      7  C5  UNL d   1      -0.043   1.503  -0.178  0.00  0.00     0.026 A 
ATOM      8  C6  UNL d   1       0.282   0.115  -0.350  0.00  0.00    -0.082 A 
ATOM      9  C7  UNL d   1      -0.551  -1.003  -0.592  0.00  0.00     0.045 A 
ENDROOT
TORSDOF 0
ENDMDL
