MODEL 1
REMARK minimizedAffinity -2.36249804
REMARK minimizedRMSD -1
REMARK  0 active torsions:
REMARK  status: ('A' for Active; 'I' for Inactive)
ROOT
ATOM      1  C   UNL d   1       3.383   0.687   1.185  0.00  0.00    -0.002 A 
ATOM      2  C1  UNL d   1       3.547  -0.596   0.682  0.00  0.00     0.010 A 
ATOM      3  C2  UNL d   1       2.520  -1.214  -0.035  0.00  0.00     0.041 A 
ATOM      4  C3  UNL d   1       1.315  -0.514  -0.242  0.00  0.00    -0.075 A 
ATOM      5  S   UNL d   1      -0.078  -1.070  -1.090  0.00  0.00     0.015 SA
ATOM      6  C4  UNL d   1      -0.924   0.382  -0.805  0.00  0.00     0.022 A 
ATOM      7  C5  UNL d   1      -0.176   1.281  -0.082  0.00  0.00     0.026 A 
ATOM      8  C6  UNL d   1       1.127   0.779   0.255  0.00  0.00    -0.082 A 
ATOM      9  C7  UNL d   1       2.186   1.378   0.978  0.00  0.00     0.045 A 
ENDROOT
TORSDOF 0
ENDMDL
