MODEL 1
REMARK minimizedAffinity 3.95771289
REMARK minimizedRMSD -1
REMARK  0 active torsions:
REMARK  status: ('A' for Active; 'I' for Inactive)
ROOT
ATOM      1  C   UNL d   1       1.095  -2.133  -0.850  0.00  0.00    -0.002 A 
ATOM      2  C1  UNL d   1      -0.191  -2.198  -0.331  0.00  0.00     0.010 A 
ATOM      3  C2  UNL d   1      -0.797  -1.062   0.207  0.00  0.00     0.041 A 
ATOM      4  C3  UNL d   1      -0.085   0.153   0.214  0.00  0.00    -0.075 A 
ATOM      5  S   UNL d   1      -0.627   1.673   0.820  0.00  0.00     0.015 SA
ATOM      6  C4  UNL d   1       0.835   2.445   0.404  0.00  0.00     0.022 A 
ATOM      7  C5  UNL d   1       1.726   1.579  -0.184  0.00  0.00     0.026 A 
ATOM      8  C6  UNL d   1       1.211   0.244  -0.304  0.00  0.00    -0.082 A 
ATOM      9  C7  UNL d   1       1.799  -0.926  -0.842  0.00  0.00     0.045 A 
ENDROOT
TORSDOF 0
ENDMDL
