MODEL 1
REMARK minimizedAffinity -3.82780218
REMARK minimizedRMSD -1
REMARK  0 active torsions:
REMARK  status: ('A' for Active; 'I' for Inactive)
ROOT
ATOM      1  C   UNL d   1       3.288  -1.272   0.887  0.00  0.00    -0.002 A 
ATOM      2  C1  UNL d   1       3.757   0.027   0.752  0.00  0.00     0.010 A 
ATOM      3  C2  UNL d   1       2.894   1.058   0.376  0.00  0.00     0.041 A 
ATOM      4  C3  UNL d   1       1.538   0.759   0.137  0.00  0.00    -0.075 A 
ATOM      5  S   UNL d   1       0.298   1.861  -0.333  0.00  0.00     0.015 SA
ATOM      6  C4  UNL d   1      -0.884   0.633  -0.364  0.00  0.00     0.022 A 
ATOM      7  C5  UNL d   1      -0.362  -0.594  -0.027  0.00  0.00     0.026 A 
ATOM      8  C6  UNL d   1       1.042  -0.541   0.268  0.00  0.00    -0.082 A 
ATOM      9  C7  UNL d   1       1.942  -1.565   0.650  0.00  0.00     0.045 A 
ENDROOT
TORSDOF 0
ENDMDL
