MODEL 1
REMARK minimizedAffinity -1.53248405
REMARK minimizedRMSD -1
REMARK  0 active torsions:
REMARK  status: ('A' for Active; 'I' for Inactive)
ROOT
ATOM      1  C   UNL d   1       0.857  -1.091  -0.850  0.00  0.00    -0.002 A 
ATOM      2  C1  UNL d   1       1.087  -1.145   0.518  0.00  0.00     0.010 A 
ATOM      3  C2  UNL d   1       0.180  -0.577   1.414  0.00  0.00     0.041 A 
ATOM      4  C3  UNL d   1      -0.976   0.050   0.908  0.00  0.00    -0.075 A 
ATOM      5  S   UNL d   1      -2.227   0.813   1.816  0.00  0.00     0.015 SA
ATOM      6  C4  UNL d   1      -3.097   1.228   0.411  0.00  0.00     0.022 A 
ATOM      7  C5  UNL d   1      -2.462   0.803  -0.732  0.00  0.00     0.026 A 
ATOM      8  C6  UNL d   1      -1.230   0.117  -0.465  0.00  0.00    -0.082 A 
ATOM      9  C7  UNL d   1      -0.290  -0.467  -1.348  0.00  0.00     0.045 A 
ENDROOT
TORSDOF 0
ENDMDL
