MODEL 1
REMARK minimizedAffinity -4.49657917
REMARK minimizedRMSD -1
REMARK  1 active torsions:
REMARK  status: ('A' for Active; 'I' for Inactive)
REMARK    1  A    between atoms: C1_2  and  C2_3 
ROOT
ATOM      1  C2  UNL d   1       0.882   0.385   0.110  0.00  0.00    -0.081 A 
ATOM      2  C3  UNL d   1       0.371   0.030  -1.144  0.00  0.00     0.006 A 
ATOM      3  C4  UNL d   1      -0.956  -0.384  -1.277  0.00  0.00     0.002 A 
ATOM      4  C5  UNL d   1      -1.797  -0.441  -0.161  0.00  0.00    -0.080 A 
ATOM      5  C6  UNL d   1      -3.233  -0.854  -0.295  0.00  0.00     0.076 C 
ATOM      6  C7  UNL d   1      -1.283  -0.103   1.095  0.00  0.00     0.002 A 
ATOM      7  C8  UNL d   1       0.045   0.310   1.229  0.00  0.00     0.006 A 
ENDROOT
BRANCH   1   8
ATOM      8  C1  UNL d   1       2.295   0.893   0.247  0.00  0.00     0.054 C 
ATOM      9  C   UNL d   1       2.360   2.106   1.163  0.00  0.00     0.018 C 
ENDBRANCH   1   8
TORSDOF 1
ENDMDL
