MODEL 1
REMARK minimizedAffinity -5.41840553
REMARK minimizedRMSD -1
REMARK  1 active torsions:
REMARK  status: ('A' for Active; 'I' for Inactive)
REMARK    1  A    between atoms: C1_2  and  C2_3 
ROOT
ATOM      1  C2  UNL d   1       0.928   0.992   0.142  0.00  0.00    -0.081 A 
ATOM      2  C3  UNL d   1       0.386   1.140  -1.141  0.00  0.00     0.006 A 
ATOM      3  C4  UNL d   1      -0.881   0.632  -1.437  0.00  0.00     0.002 A 
ATOM      4  C5  UNL d   1      -1.630  -0.024  -0.455  0.00  0.00    -0.080 A 
ATOM      5  C6  UNL d   1      -3.004  -0.548  -0.751  0.00  0.00     0.076 C 
ATOM      6  C7  UNL d   1      -1.081  -0.188   0.822  0.00  0.00     0.002 A 
ATOM      7  C8  UNL d   1       0.186   0.319   1.118  0.00  0.00     0.006 A 
ENDROOT
BRANCH   1   8
ATOM      8  C1  UNL d   1       2.267   1.595   0.482  0.00  0.00     0.054 C 
ATOM      9  C   UNL d   1       2.158   3.097   0.701  0.00  0.00     0.018 C 
ENDBRANCH   1   8
TORSDOF 1
ENDMDL
