MODEL 1
REMARK minimizedAffinity -1.69948363
REMARK minimizedRMSD -1
REMARK  1 active torsions:
REMARK  status: ('A' for Active; 'I' for Inactive)
REMARK    1  A    between atoms: C1_2  and  C2_3 
ROOT
ATOM      1  C2  UNL d   1       0.933   0.534   0.718  0.00  0.00    -0.081 A 
ATOM      2  C3  UNL d   1       0.485   0.982  -0.531  0.00  0.00     0.006 A 
ATOM      3  C4  UNL d   1      -0.706   0.494  -1.074  0.00  0.00     0.002 A 
ATOM      4  C5  UNL d   1      -1.472  -0.444  -0.373  0.00  0.00    -0.080 A 
ATOM      5  C6  UNL d   1      -2.768  -0.954  -0.931  0.00  0.00     0.076 C 
ATOM      6  C7  UNL d   1      -1.016  -0.904   0.867  0.00  0.00     0.002 A 
ATOM      7  C8  UNL d   1       0.175  -0.417   1.409  0.00  0.00     0.006 A 
ENDROOT
BRANCH   1   8
ATOM      8  C1  UNL d   1       2.183   1.107   1.334  0.00  0.00     0.054 C 
ATOM      9  C   UNL d   1       2.410   2.545   0.891  0.00  0.00     0.018 C 
ENDBRANCH   1   8
TORSDOF 1
ENDMDL
