MODEL 1
REMARK minimizedAffinity 1.89466989
REMARK minimizedRMSD -1
REMARK  1 active torsions:
REMARK  status: ('A' for Active; 'I' for Inactive)
REMARK    1  A    between atoms: C1_2  and  C2_3 
ROOT
ATOM      1  C2  UNL d   1       1.259   1.353   0.636  0.00  0.00    -0.081 A 
ATOM      2  C3  UNL d   1       0.162   0.805   1.313  0.00  0.00     0.006 A 
ATOM      3  C4  UNL d   1      -0.684  -0.103   0.673  0.00  0.00     0.002 A 
ATOM      4  C5  UNL d   1      -0.444  -0.485  -0.651  0.00  0.00    -0.080 A 
ATOM      5  C6  UNL d   1      -1.327  -1.482  -1.340  0.00  0.00     0.076 C 
ATOM      6  C7  UNL d   1       0.641   0.075  -1.334  0.00  0.00     0.002 A 
ATOM      7  C8  UNL d   1       1.488   0.984  -0.694  0.00  0.00     0.006 A 
ENDROOT
BRANCH   1   8
ATOM      8  C1  UNL d   1       2.210   2.283   1.344  0.00  0.00     0.054 C 
ATOM      9  C   UNL d   1       1.890   3.739   1.040  0.00  0.00     0.018 C 
ENDBRANCH   1   8
TORSDOF 1
ENDMDL
