MODEL 1
REMARK minimizedAffinity -4.0182662
REMARK minimizedRMSD -1
REMARK  1 active torsions:
REMARK  status: ('A' for Active; 'I' for Inactive)
REMARK    1  A    between atoms: C1_2  and  C2_3 
ROOT
ATOM      1  C2  UNL d   1       0.962   0.953   0.418  0.00  0.00    -0.081 A 
ATOM      2  C3  UNL d   1      -0.155   0.616   1.192  0.00  0.00     0.006 A 
ATOM      3  C4  UNL d   1      -1.265   0.004   0.605  0.00  0.00     0.002 A 
ATOM      4  C5  UNL d   1      -1.274  -0.287  -0.763  0.00  0.00    -0.080 A 
ATOM      5  C6  UNL d   1      -2.447  -0.971  -1.400  0.00  0.00     0.076 C 
ATOM      6  C7  UNL d   1      -0.165   0.065  -1.540  0.00  0.00     0.002 A 
ATOM      7  C8  UNL d   1       0.945   0.677  -0.954  0.00  0.00     0.006 A 
ENDROOT
BRANCH   1   8
ATOM      8  C1  UNL d   1       2.186   1.553   1.060  0.00  0.00     0.054 C 
ATOM      9  C   UNL d   1       1.924   2.978   1.527  0.00  0.00     0.018 C 
ENDBRANCH   1   8
TORSDOF 1
ENDMDL
