MODEL 1
REMARK minimizedAffinity -2.86355472
REMARK minimizedRMSD -1
REMARK  1 active torsions:
REMARK  status: ('A' for Active; 'I' for Inactive)
REMARK    1  A    between atoms: C1_2  and  C2_3 
ROOT
ATOM      1  C2  UNL d   1       0.910   0.051   0.395  0.00  0.00    -0.081 A 
ATOM      2  C3  UNL d   1       0.143   0.531  -0.674  0.00  0.00     0.006 A 
ATOM      3  C4  UNL d   1      -1.155   0.057  -0.883  0.00  0.00     0.002 A 
ATOM      4  C5  UNL d   1      -1.708  -0.898  -0.023  0.00  0.00    -0.080 A 
ATOM      5  C6  UNL d   1      -3.111  -1.393  -0.218  0.00  0.00     0.076 C 
ATOM      6  C7  UNL d   1      -0.935  -1.390   1.034  0.00  0.00     0.002 A 
ATOM      7  C8  UNL d   1       0.362  -0.918   1.243  0.00  0.00     0.006 A 
ENDROOT
BRANCH   1   8
ATOM      8  C1  UNL d   1       2.286   0.607   0.661  0.00  0.00     0.054 C 
ATOM      9  C   UNL d   1       2.213   1.924   1.420  0.00  0.00     0.018 C 
ENDBRANCH   1   8
TORSDOF 1
ENDMDL
