MODEL 1
REMARK minimizedAffinity -1.55809581
REMARK minimizedRMSD -1
REMARK  1 active torsions:
REMARK  status: ('A' for Active; 'I' for Inactive)
REMARK    1  A    between atoms: C1_2  and  C2_3 
ROOT
ATOM      1  C2  UNL d   1       1.175   0.368   0.634  0.00  0.00    -0.081 A 
ATOM      2  C3  UNL d   1       0.068   0.801  -0.106  0.00  0.00     0.006 A 
ATOM      3  C4  UNL d   1      -1.151   0.125  -0.018  0.00  0.00     0.002 A 
ATOM      4  C5  UNL d   1      -1.286  -0.991   0.815  0.00  0.00    -0.080 A 
ATOM      5  C6  UNL d   1      -2.597  -1.707   0.942  0.00  0.00     0.076 C 
ATOM      6  C7  UNL d   1      -0.175  -1.435   1.540  0.00  0.00     0.002 A 
ATOM      7  C8  UNL d   1       1.044  -0.759   1.453  0.00  0.00     0.006 A 
ENDROOT
BRANCH   1   8
ATOM      8  C1  UNL d   1       2.473   1.133   0.591  0.00  0.00     0.054 C 
ATOM      9  C   UNL d   1       2.365   2.448   1.350  0.00  0.00     0.018 C 
ENDBRANCH   1   8
TORSDOF 1
ENDMDL
