MODEL 1
REMARK minimizedAffinity -5.37950897
REMARK minimizedRMSD -1
REMARK  1 active torsions:
REMARK  status: ('A' for Active; 'I' for Inactive)
REMARK    1  A    between atoms: C1_2  and  C2_3 
ROOT
ATOM      1  C2  UNL d   1       0.598  -0.041   0.005  0.00  0.00    -0.081 A 
ATOM      2  C3  UNL d   1      -0.139   0.241  -1.152  0.00  0.00     0.006 A 
ATOM      3  C4  UNL d   1      -1.443  -0.238  -1.296  0.00  0.00     0.002 A 
ATOM      4  C5  UNL d   1      -2.034  -1.001  -0.283  0.00  0.00    -0.080 A 
ATOM      5  C6  UNL d   1      -3.444  -1.496  -0.411  0.00  0.00     0.076 C 
ATOM      6  C7  UNL d   1      -1.292  -1.297   0.866  0.00  0.00     0.002 A 
ATOM      7  C8  UNL d   1       0.012  -0.819   1.010  0.00  0.00     0.006 A 
ENDROOT
BRANCH   1   8
ATOM      8  C1  UNL d   1       1.981   0.529   0.191  0.00  0.00     0.054 C 
ATOM      9  C   UNL d   1       1.975   1.682   1.185  0.00  0.00     0.018 C 
ENDBRANCH   1   8
TORSDOF 1
ENDMDL
