MODEL 1
REMARK minimizedAffinity 0.603093088
REMARK minimizedRMSD -1
REMARK  1 active torsions:
REMARK  status: ('A' for Active; 'I' for Inactive)
REMARK    1  A    between atoms: C1_2  and  C2_3 
ROOT
ATOM      1  C2  UNL d   1      -0.305   0.281  -0.583  0.00  0.00    -0.081 A 
ATOM      2  C3  UNL d   1       0.811  -0.040   0.199  0.00  0.00     0.006 A 
ATOM      3  C4  UNL d   1       0.683  -0.885   1.304  0.00  0.00     0.002 A 
ATOM      4  C5  UNL d   1      -0.562  -1.428   1.641  0.00  0.00    -0.080 A 
ATOM      5  C6  UNL d   1      -0.708  -2.360   2.807  0.00  0.00     0.076 C 
ATOM      6  C7  UNL d   1      -1.680  -1.094   0.870  0.00  0.00     0.002 A 
ATOM      7  C8  UNL d   1      -1.553  -0.249  -0.234  0.00  0.00     0.006 A 
ENDROOT
BRANCH   1   8
ATOM      8  C1  UNL d   1      -0.158   1.140  -1.813  0.00  0.00     0.054 C 
ATOM      9  C   UNL d   1       0.584   0.401  -2.918  0.00  0.00     0.018 C 
ENDBRANCH   1   8
TORSDOF 1
ENDMDL
