MODEL 1
REMARK minimizedAffinity -2.74592137
REMARK minimizedRMSD -1
REMARK  1 active torsions:
REMARK  status: ('A' for Active; 'I' for Inactive)
REMARK    1  A    between atoms: C1_2  and  C2_3 
ROOT
ATOM      1  C2  UNL d   1       0.837   0.353   0.294  0.00  0.00    -0.081 A 
ATOM      2  C3  UNL d   1       0.328   0.243  -1.006  0.00  0.00     0.006 A 
ATOM      3  C4  UNL d   1      -0.989  -0.172  -1.218  0.00  0.00     0.002 A 
ATOM      4  C5  UNL d   1      -1.820  -0.476  -0.135  0.00  0.00    -0.080 A 
ATOM      5  C6  UNL d   1      -3.245  -0.893  -0.347  0.00  0.00     0.076 C 
ATOM      6  C7  UNL d   1      -1.306  -0.382   1.163  0.00  0.00     0.002 A 
ATOM      7  C8  UNL d   1       0.010   0.032   1.376  0.00  0.00     0.006 A 
ENDROOT
BRANCH   1   8
ATOM      8  C1  UNL d   1       2.237   0.863   0.528  0.00  0.00     0.054 C 
ATOM      9  C   UNL d   1       2.227   2.160   1.324  0.00  0.00     0.018 C 
ENDBRANCH   1   8
TORSDOF 1
ENDMDL
