MODEL 1
REMARK minimizedAffinity 4.33108377
REMARK minimizedRMSD -1
REMARK  0 active torsions:
REMARK  status: ('A' for Active; 'I' for Inactive)
ROOT
ATOM      1  C   UNL d   1       0.049   3.636  -3.931  0.00  0.00     0.077 C 
ATOM      2  C1  UNL d   1       0.948   2.769  -3.101  0.00  0.00    -0.074 A 
ATOM      3  C2  UNL d   1       1.871   3.333  -2.214  0.00  0.00    -0.005 A 
ATOM      4  C3  UNL d   1       2.694   2.514  -1.441  0.00  0.00     0.006 A 
ATOM      5  C4  UNL d   1       2.603   1.126  -1.547  0.00  0.00    -0.005 A 
ATOM      6  C5  UNL d   1       1.686   0.544  -2.428  0.00  0.00    -0.074 A 
ATOM      7  C6  UNL d   1       1.569  -0.946  -2.547  0.00  0.00     0.077 C 
ATOM      8  C7  UNL d   1       0.857   1.374  -3.196  0.00  0.00    -0.001 A 
ENDROOT
TORSDOF 0
ENDMDL
