MODEL 1
REMARK minimizedAffinity 6.74227715
REMARK minimizedRMSD -1
REMARK  0 active torsions:
REMARK  status: ('A' for Active; 'I' for Inactive)
ROOT
ATOM      1  C   UNL d   1       1.525  -1.124  -1.255  0.00  0.00     0.077 C 
ATOM      2  C1  UNL d   1       1.723  -1.091   0.231  0.00  0.00    -0.074 A 
ATOM      3  C2  UNL d   1       2.965  -0.763   0.784  0.00  0.00    -0.005 A 
ATOM      4  C3  UNL d   1       3.131  -0.728   2.168  0.00  0.00     0.006 A 
ATOM      5  C4  UNL d   1       2.059  -1.019   3.012  0.00  0.00    -0.005 A 
ATOM      6  C5  UNL d   1       0.810  -1.348   2.478  0.00  0.00    -0.074 A 
ATOM      7  C6  UNL d   1      -0.356  -1.654   3.371  0.00  0.00     0.077 C 
ATOM      8  C7  UNL d   1       0.648  -1.375   1.086  0.00  0.00    -0.001 A 
ENDROOT
TORSDOF 0
ENDMDL
