MODEL 1
REMARK minimizedAffinity 7.31979179
REMARK minimizedRMSD -1
REMARK  0 active torsions:
REMARK  status: ('A' for Active; 'I' for Inactive)
ROOT
ATOM      1  C   UNL d   1       1.878  -1.398  -1.843  0.00  0.00     0.077 C 
ATOM      2  C1  UNL d   1       1.912   0.091  -1.670  0.00  0.00    -0.074 A 
ATOM      3  C2  UNL d   1       2.469   0.670  -0.525  0.00  0.00    -0.005 A 
ATOM      4  C3  UNL d   1       2.502   2.057  -0.383  0.00  0.00     0.006 A 
ATOM      5  C4  UNL d   1       1.979   2.878  -1.382  0.00  0.00    -0.005 A 
ATOM      6  C5  UNL d   1       1.420   2.318  -2.535  0.00  0.00    -0.074 A 
ATOM      7  C6  UNL d   1       0.863   3.187  -3.623  0.00  0.00     0.077 C 
ATOM      8  C7  UNL d   1       1.397   0.924  -2.674  0.00  0.00    -0.001 A 
ENDROOT
TORSDOF 0
ENDMDL
