MODEL 1
REMARK minimizedAffinity 3.43184495
REMARK minimizedRMSD -1
REMARK  0 active torsions:
REMARK  status: ('A' for Active; 'I' for Inactive)
ROOT
ATOM      1  C   UNL d   1       1.140  -1.274  -1.480  0.00  0.00     0.077 C 
ATOM      2  C1  UNL d   1       1.348   0.210  -1.421  0.00  0.00    -0.074 A 
ATOM      3  C2  UNL d   1       2.313   0.768  -0.575  0.00  0.00    -0.005 A 
ATOM      4  C3  UNL d   1       2.501   2.149  -0.538  0.00  0.00     0.006 A 
ATOM      5  C4  UNL d   1       1.729   2.986  -1.345  0.00  0.00    -0.005 A 
ATOM      6  C5  UNL d   1       0.761   2.446  -2.198  0.00  0.00    -0.074 A 
ATOM      7  C6  UNL d   1      -0.071   3.330  -3.079  0.00  0.00     0.077 C 
ATOM      8  C7  UNL d   1       0.582   1.057  -2.234  0.00  0.00    -0.001 A 
ENDROOT
TORSDOF 0
ENDMDL
