MODEL 1
REMARK minimizedAffinity 0.0927346423
REMARK minimizedRMSD -1
REMARK  0 active torsions:
REMARK  status: ('A' for Active; 'I' for Inactive)
ROOT
ATOM      1  C   UNL d   1       0.692   2.902  -1.776  0.00  0.00     0.077 C 
ATOM      2  C1  UNL d   1       1.465   1.621  -1.881  0.00  0.00    -0.074 A 
ATOM      3  C2  UNL d   1       2.204   1.321  -3.030  0.00  0.00    -0.005 A 
ATOM      4  C3  UNL d   1       2.926   0.130  -3.110  0.00  0.00     0.006 A 
ATOM      5  C4  UNL d   1       2.916  -0.771  -2.044  0.00  0.00    -0.005 A 
ATOM      6  C5  UNL d   1       2.183  -0.487  -0.887  0.00  0.00    -0.074 A 
ATOM      7  C6  UNL d   1       2.169  -1.440   0.271  0.00  0.00     0.077 C 
ATOM      8  C7  UNL d   1       1.466   0.715  -0.812  0.00  0.00    -0.001 A 
ENDROOT
TORSDOF 0
ENDMDL
