MODEL 1
REMARK minimizedAffinity 5.80484152
REMARK minimizedRMSD -1
REMARK  0 active torsions:
REMARK  status: ('A' for Active; 'I' for Inactive)
ROOT
ATOM      1  C   UNL d   1      -0.538  -3.168   3.145  0.00  0.00     0.077 C 
ATOM      2  C1  UNL d   1       0.329  -2.006   2.761  0.00  0.00    -0.074 A 
ATOM      3  C2  UNL d   1       0.318  -0.823   3.507  0.00  0.00    -0.005 A 
ATOM      4  C3  UNL d   1       1.136   0.246   3.143  0.00  0.00     0.006 A 
ATOM      5  C4  UNL d   1       1.973   0.143   2.031  0.00  0.00    -0.005 A 
ATOM      6  C5  UNL d   1       1.998  -1.032   1.273  0.00  0.00    -0.074 A 
ATOM      7  C6  UNL d   1       2.899  -1.162   0.081  0.00  0.00     0.077 C 
ATOM      8  C7  UNL d   1       1.178  -2.104   1.649  0.00  0.00    -0.001 A 
ENDROOT
TORSDOF 0
ENDMDL
