MODEL 1
REMARK minimizedAffinity 5.91773558
REMARK minimizedRMSD -1
REMARK  0 active torsions:
REMARK  status: ('A' for Active; 'I' for Inactive)
ROOT
ATOM      1  C   UNL d   1       0.719  -1.768   1.683  0.00  0.00     0.077 C 
ATOM      2  C1  UNL d   1      -0.120  -0.726   2.361  0.00  0.00    -0.074 A 
ATOM      3  C2  UNL d   1       0.442   0.162   3.284  0.00  0.00    -0.005 A 
ATOM      4  C3  UNL d   1      -0.349   1.132   3.899  0.00  0.00     0.006 A 
ATOM      5  C4  UNL d   1      -1.708   1.225   3.598  0.00  0.00    -0.005 A 
ATOM      6  C5  UNL d   1      -2.288   0.347   2.676  0.00  0.00    -0.074 A 
ATOM      7  C6  UNL d   1      -3.745   0.439   2.334  0.00  0.00     0.077 C 
ATOM      8  C7  UNL d   1      -1.485  -0.621   2.057  0.00  0.00    -0.001 A 
ENDROOT
TORSDOF 0
ENDMDL
