MODEL 1
REMARK minimizedAffinity 4.28860378
REMARK minimizedRMSD -1
REMARK  0 active torsions:
REMARK  status: ('A' for Active; 'I' for Inactive)
ROOT
ATOM      1  C   UNL d   1      -1.957  -0.039   1.899  0.00  0.00     0.077 C 
ATOM      2  C1  UNL d   1      -0.597  -0.669   1.836  0.00  0.00    -0.074 A 
ATOM      3  C2  UNL d   1       0.003  -1.201   2.982  0.00  0.00    -0.005 A 
ATOM      4  C3  UNL d   1       1.264  -1.792   2.905  0.00  0.00     0.006 A 
ATOM      5  C4  UNL d   1       1.936  -1.858   1.685  0.00  0.00    -0.005 A 
ATOM      6  C5  UNL d   1       1.352  -1.332   0.528  0.00  0.00    -0.074 A 
ATOM      7  C6  UNL d   1       2.057  -1.403  -0.794  0.00  0.00     0.077 C 
ATOM      8  C7  UNL d   1       0.081  -0.746   0.611  0.00  0.00    -0.001 A 
ENDROOT
TORSDOF 0
ENDMDL
