MODEL 1
REMARK minimizedAffinity 1.17985177
REMARK minimizedRMSD -1
REMARK  2 active torsions:
REMARK  status: ('A' for Active; 'I' for Inactive)
REMARK    1  A    between atoms: C1_2  and  C2_3 
REMARK    2  A    between atoms: C2_3  and  C3_4 
ROOT
ATOM      1  C3  UNL d   1      -3.563   5.923  -3.469  0.00  0.00    -0.075 A 
ATOM      2  C4  UNL d   1      -2.168   6.000  -3.597  0.00  0.00     0.002 A 
ATOM      3  C5  UNL d   1      -1.569   5.956  -4.856  0.00  0.00     0.002 A 
ATOM      4  C6  UNL d   1      -2.353   5.823  -6.000  0.00  0.00    -0.004 A 
ATOM      5  C7  UNL d   1      -3.738   5.729  -5.883  0.00  0.00     0.002 A 
ATOM      6  C8  UNL d   1      -4.341   5.777  -4.625  0.00  0.00     0.002 A 
ENDROOT
BRANCH   1   7
ATOM      7  C2  UNL d   1      -4.219   6.000  -2.111  0.00  0.00     0.056 C 
BRANCH   7   8
ATOM      8  C1  UNL d   1      -5.526   5.206  -2.004  0.00  0.00     0.007 C 
ATOM      9  C   UNL d   1      -5.317   3.760  -1.575  0.00  0.00     0.009 C 
ENDBRANCH   7   8
ENDBRANCH   1   7
TORSDOF 2
ENDMDL
