MODEL 1
REMARK minimizedAffinity 18.3905964
REMARK minimizedRMSD -1
REMARK  2 active torsions:
REMARK  status: ('A' for Active; 'I' for Inactive)
REMARK    1  A    between atoms: C1_2  and  C2_3 
REMARK    2  A    between atoms: C2_3  and  C3_4 
ROOT
ATOM      1  C3  UNL d   1      -5.783  -0.174  -1.789  0.00  0.00    -0.075 A 
ATOM      2  C4  UNL d   1      -5.443  -0.392  -0.446  0.00  0.00     0.002 A 
ATOM      3  C5  UNL d   1      -5.273   0.684   0.425  0.00  0.00     0.002 A 
ATOM      4  C6  UNL d   1      -5.428   1.989  -0.036  0.00  0.00    -0.004 A 
ATOM      5  C7  UNL d   1      -5.749   2.218  -1.373  0.00  0.00     0.002 A 
ATOM      6  C8  UNL d   1      -5.925   1.143  -2.246  0.00  0.00     0.002 A 
ENDROOT
BRANCH   1   7
ATOM      7  C2  UNL d   1      -5.998  -1.335  -2.730  0.00  0.00     0.056 C 
BRANCH   7   8
ATOM      8  C1  UNL d   1      -5.965  -0.951  -4.213  0.00  0.00     0.007 C 
ATOM      9  C   UNL d   1      -5.977   0.555  -4.444  0.00  0.00     0.009 C 
ENDBRANCH   7   8
ENDBRANCH   1   7
TORSDOF 2
ENDMDL
