MODEL 1
REMARK minimizedAffinity 16.3870449
REMARK minimizedRMSD -1
REMARK  2 active torsions:
REMARK  status: ('A' for Active; 'I' for Inactive)
REMARK    1  A    between atoms: C1_2  and  C2_3 
REMARK    2  A    between atoms: C2_3  and  C3_4 
ROOT
ATOM      1  C3  UNL d   1      -4.385   3.002   5.153  0.00  0.00    -0.075 A 
ATOM      2  C4  UNL d   1      -4.355   4.131   5.984  0.00  0.00     0.002 A 
ATOM      3  C5  UNL d   1      -5.149   5.242   5.698  0.00  0.00     0.002 A 
ATOM      4  C6  UNL d   1      -5.973   5.243   4.575  0.00  0.00    -0.004 A 
ATOM      5  C7  UNL d   1      -5.999   4.133   3.733  0.00  0.00     0.002 A 
ATOM      6  C8  UNL d   1      -5.209   3.018   4.019  0.00  0.00     0.002 A 
ENDROOT
BRANCH   1   7
ATOM      7  C2  UNL d   1      -3.551   1.785   5.473  0.00  0.00     0.056 C 
BRANCH   7   8
ATOM      8  C1  UNL d   1      -3.018   1.051   4.237  0.00  0.00     0.007 C 
ATOM      9  C   UNL d   1      -1.588   0.555   4.404  0.00  0.00     0.009 C 
ENDBRANCH   7   8
ENDBRANCH   1   7
TORSDOF 2
ENDMDL
