MODEL 1
REMARK minimizedAffinity 6.62357759
REMARK minimizedRMSD -1
REMARK  2 active torsions:
REMARK  status: ('A' for Active; 'I' for Inactive)
REMARK    1  A    between atoms: C1_2  and  C2_3 
REMARK    2  A    between atoms: C2_3  and  C3_4 
ROOT
ATOM      1  C3  UNL d   1      -5.005  -4.051   3.476  0.00  0.00    -0.075 A 
ATOM      2  C4  UNL d   1      -5.024  -5.442   3.655  0.00  0.00     0.002 A 
ATOM      3  C5  UNL d   1      -5.486  -5.997   4.849  0.00  0.00     0.002 A 
ATOM      4  C6  UNL d   1      -5.924  -5.170   5.881  0.00  0.00    -0.004 A 
ATOM      5  C7  UNL d   1      -5.895  -3.786   5.720  0.00  0.00     0.002 A 
ATOM      6  C8  UNL d   1      -5.437  -3.229   4.525  0.00  0.00     0.002 A 
ENDROOT
BRANCH   1   7
ATOM      7  C2  UNL d   1      -4.535  -3.446   2.175  0.00  0.00     0.056 C 
BRANCH   7   8
ATOM      8  C1  UNL d   1      -4.349  -1.926   2.226  0.00  0.00     0.007 C 
ATOM      9  C   UNL d   1      -2.969  -1.474   1.766  0.00  0.00     0.009 C 
ENDBRANCH   7   8
ENDBRANCH   1   7
TORSDOF 2
ENDMDL
