MODEL 1
REMARK minimizedAffinity 10.6398563
REMARK minimizedRMSD -1
REMARK  2 active torsions:
REMARK  status: ('A' for Active; 'I' for Inactive)
REMARK    1  A    between atoms: C1_2  and  C2_3 
REMARK    2  A    between atoms: C2_3  and  C3_4 
ROOT
ATOM      1  C3  UNL d   1      -1.586  -0.065   2.626  0.00  0.00    -0.075 A 
ATOM      2  C4  UNL d   1      -2.580  -0.722   1.886  0.00  0.00     0.002 A 
ATOM      3  C5  UNL d   1      -2.255  -1.804   1.068  0.00  0.00     0.002 A 
ATOM      4  C6  UNL d   1      -0.934  -2.237   0.971  0.00  0.00    -0.004 A 
ATOM      5  C7  UNL d   1       0.064  -1.581   1.689  0.00  0.00     0.002 A 
ATOM      6  C8  UNL d   1      -0.259  -0.500   2.512  0.00  0.00     0.002 A 
ENDROOT
BRANCH   1   7
ATOM      7  C2  UNL d   1      -1.935   1.089   3.535  0.00  0.00     0.056 C 
BRANCH   7   8
ATOM      8  C1  UNL d   1      -2.192   0.680   4.990  0.00  0.00     0.007 C 
ATOM      9  C   UNL d   1      -3.388   1.390   5.610  0.00  0.00     0.009 C 
ENDBRANCH   7   8
ENDBRANCH   1   7
TORSDOF 2
ENDMDL
