MODEL 1
REMARK minimizedAffinity 12.1533537
REMARK minimizedRMSD -1
REMARK  2 active torsions:
REMARK  status: ('A' for Active; 'I' for Inactive)
REMARK    1  A    between atoms: C1_2  and  C2_3 
REMARK    2  A    between atoms: C2_3  and  C3_4 
ROOT
ATOM      1  C3  UNL d   1      -3.920   1.613   3.999  0.00  0.00    -0.075 A 
ATOM      2  C4  UNL d   1      -2.882   1.198   4.846  0.00  0.00     0.002 A 
ATOM      3  C5  UNL d   1      -1.841   0.409   4.357  0.00  0.00     0.002 A 
ATOM      4  C6  UNL d   1      -1.828   0.018   3.020  0.00  0.00    -0.004 A 
ATOM      5  C7  UNL d   1      -2.862   0.411   2.173  0.00  0.00     0.002 A 
ATOM      6  C8  UNL d   1      -3.903   1.204   2.659  0.00  0.00     0.002 A 
ENDROOT
BRANCH   1   7
ATOM      7  C2  UNL d   1      -5.034   2.491   4.515  0.00  0.00     0.056 C 
BRANCH   7   8
ATOM      8  C1  UNL d   1      -4.554   3.678   5.357  0.00  0.00     0.007 C 
ATOM      9  C   UNL d   1      -5.694   4.460   5.997  0.00  0.00     0.009 C 
ENDBRANCH   7   8
ENDBRANCH   1   7
TORSDOF 2
ENDMDL
