MODEL 1
REMARK minimizedAffinity 4.71791363
REMARK minimizedRMSD -1
REMARK  2 active torsions:
REMARK  status: ('A' for Active; 'I' for Inactive)
REMARK    1  A    between atoms: C1_2  and  C2_3 
REMARK    2  A    between atoms: C2_3  and  C3_4 
ROOT
ATOM      1  C3  UNL d   1      -3.814   5.926  -3.830  0.00  0.00    -0.075 A 
ATOM      2  C4  UNL d   1      -5.130   5.998  -3.350  0.00  0.00     0.002 A 
ATOM      3  C5  UNL d   1      -5.386   5.984  -1.979  0.00  0.00     0.002 A 
ATOM      4  C6  UNL d   1      -4.333   5.888  -1.071  0.00  0.00    -0.004 A 
ATOM      5  C7  UNL d   1      -3.023   5.799  -1.537  0.00  0.00     0.002 A 
ATOM      6  C8  UNL d   1      -2.763   5.817  -2.908  0.00  0.00     0.002 A 
ENDROOT
BRANCH   1   7
ATOM      7  C2  UNL d   1      -3.528   5.970  -5.312  0.00  0.00     0.056 C 
BRANCH   7   8
ATOM      8  C1  UNL d   1      -2.035   5.983  -5.659  0.00  0.00     0.007 C 
ATOM      9  C   UNL d   1      -1.281   4.778  -5.113  0.00  0.00     0.009 C 
ENDBRANCH   7   8
ENDBRANCH   1   7
TORSDOF 2
ENDMDL
