MODEL 1
REMARK minimizedAffinity 11.4720135
REMARK minimizedRMSD -1
REMARK  2 active torsions:
REMARK  status: ('A' for Active; 'I' for Inactive)
REMARK    1  A    between atoms: C1_2  and  C2_3 
REMARK    2  A    between atoms: C2_3  and  C3_4 
ROOT
ATOM      1  C3  UNL d   1      -3.528   0.283   1.522  0.00  0.00    -0.075 A 
ATOM      2  C4  UNL d   1      -2.489   1.054   2.064  0.00  0.00     0.002 A 
ATOM      3  C5  UNL d   1      -1.185   0.560   2.098  0.00  0.00     0.002 A 
ATOM      4  C6  UNL d   1      -0.904  -0.711   1.602  0.00  0.00    -0.004 A 
ATOM      5  C7  UNL d   1      -1.931  -1.492   1.077  0.00  0.00     0.002 A 
ATOM      6  C8  UNL d   1      -3.237  -0.999   1.037  0.00  0.00     0.002 A 
ENDROOT
BRANCH   1   7
ATOM      7  C2  UNL d   1      -4.937   0.823   1.455  0.00  0.00     0.056 C 
BRANCH   7   8
ATOM      8  C1  UNL d   1      -5.527   0.850   0.041  0.00  0.00     0.007 C 
ATOM      9  C   UNL d   1      -4.978   1.981  -0.817  0.00  0.00     0.009 C 
ENDBRANCH   7   8
ENDBRANCH   1   7
TORSDOF 2
ENDMDL
