MODEL 1
REMARK minimizedAffinity 11.0489988
REMARK minimizedRMSD -1
REMARK  2 active torsions:
REMARK  status: ('A' for Active; 'I' for Inactive)
REMARK    1  A    between atoms: C1_2  and  C2_3 
REMARK    2  A    between atoms: C2_3  and  C3_4 
ROOT
ATOM      1  C3  UNL d   1      -4.268   0.281   1.747  0.00  0.00    -0.075 A 
ATOM      2  C4  UNL d   1      -3.375  -0.715   1.326  0.00  0.00     0.002 A 
ATOM      3  C5  UNL d   1      -2.127  -0.851   1.935  0.00  0.00     0.002 A 
ATOM      4  C6  UNL d   1      -1.753   0.010   2.964  0.00  0.00    -0.004 A 
ATOM      5  C7  UNL d   1      -2.625   1.014   3.379  0.00  0.00     0.002 A 
ATOM      6  C8  UNL d   1      -3.876   1.150   2.775  0.00  0.00     0.002 A 
ENDROOT
BRANCH   1   7
ATOM      7  C2  UNL d   1      -5.631   0.415   1.113  0.00  0.00     0.056 C 
BRANCH   7   8
ATOM      8  C1  UNL d   1      -5.619   1.119  -0.248  0.00  0.00     0.007 C 
ATOM      9  C   UNL d   1      -5.999   0.202  -1.403  0.00  0.00     0.009 C 
ENDBRANCH   7   8
ENDBRANCH   1   7
TORSDOF 2
ENDMDL
