MODEL 1
REMARK minimizedAffinity 13.6854515
REMARK minimizedRMSD -1
REMARK  2 active torsions:
REMARK  status: ('A' for Active; 'I' for Inactive)
REMARK    1  A    between atoms: C1_2  and  C2_3 
REMARK    2  A    between atoms: C2_3  and  C3_4 
ROOT
ATOM      1  C3  UNL d   1       2.249   3.827  -3.348  0.00  0.00    -0.075 A 
ATOM      2  C4  UNL d   1       0.886   4.155  -3.330  0.00  0.00     0.002 A 
ATOM      3  C5  UNL d   1       0.427   5.238  -2.580  0.00  0.00     0.002 A 
ATOM      4  C6  UNL d   1       1.322   5.999  -1.831  0.00  0.00    -0.004 A 
ATOM      5  C7  UNL d   1       2.676   5.673  -1.828  0.00  0.00     0.002 A 
ATOM      6  C8  UNL d   1       3.139   4.592  -2.582  0.00  0.00     0.002 A 
ENDROOT
BRANCH   1   7
ATOM      7  C2  UNL d   1       2.756   2.674  -4.181  0.00  0.00     0.056 C 
BRANCH   7   8
ATOM      8  C1  UNL d   1       3.357   3.094  -5.527  0.00  0.00     0.007 C 
ATOM      9  C   UNL d   1       4.480   2.179  -5.994  0.00  0.00     0.009 C 
ENDBRANCH   7   8
ENDBRANCH   1   7
TORSDOF 2
ENDMDL
