MODEL 1
REMARK minimizedAffinity 10.5385227
REMARK minimizedRMSD -1
REMARK  2 active torsions:
REMARK  status: ('A' for Active; 'I' for Inactive)
REMARK    1  A    between atoms: C1_2  and  C2_3 
REMARK    2  A    between atoms: C2_3  and  C3_4 
ROOT
ATOM      1  C3  UNL d   1       3.216   3.700  -3.263  0.00  0.00    -0.075 A 
ATOM      2  C4  UNL d   1       4.212   4.413  -2.581  0.00  0.00     0.002 A 
ATOM      3  C5  UNL d   1       5.453   4.641  -3.176  0.00  0.00     0.002 A 
ATOM      4  C6  UNL d   1       5.717   4.153  -4.453  0.00  0.00    -0.004 A 
ATOM      5  C7  UNL d   1       4.740   3.430  -5.134  0.00  0.00     0.002 A 
ATOM      6  C8  UNL d   1       3.496   3.203  -4.543  0.00  0.00     0.002 A 
ENDROOT
BRANCH   1   7
ATOM      7  C2  UNL d   1       1.860   3.475  -2.637  0.00  0.00     0.056 C 
BRANCH   7   8
ATOM      8  C1  UNL d   1       0.820   4.540  -3.002  0.00  0.00     0.007 C 
ATOM      9  C   UNL d   1       0.941   5.808  -2.168  0.00  0.00     0.009 C 
ENDBRANCH   7   8
ENDBRANCH   1   7
TORSDOF 2
ENDMDL
