MODEL 1
REMARK minimizedAffinity -5.34370708
REMARK minimizedRMSD -1
REMARK  1 active torsions:
REMARK  status: ('A' for Active; 'I' for Inactive)
REMARK    1  A    between atoms: C1_2  and  C2_3 
ROOT
ATOM      1  C2  UNL d   1       1.057  -0.823  -0.004  0.00  0.00    -0.073 A 
ATOM      2  C3  UNL d   1       2.066  -1.792  -0.039  0.00  0.00    -0.002 A 
ATOM      3  C4  UNL d   1       3.392  -1.439   0.216  0.00  0.00     0.004 A 
ATOM      4  C5  UNL d   1       3.721  -0.117   0.514  0.00  0.00    -0.004 A 
ATOM      5  C6  UNL d   1       2.726   0.864   0.565  0.00  0.00    -0.075 A 
ATOM      6  C7  UNL d   1       3.064   2.291   0.882  0.00  0.00     0.076 C 
ATOM      7  C8  UNL d   1       1.397   0.502   0.305  0.00  0.00     0.001 A 
ENDROOT
BRANCH   1   8
ATOM      8  C1  UNL d   1      -0.377  -1.201  -0.272  0.00  0.00     0.053 C 
ATOM      9  C   UNL d   1      -1.279   0.019  -0.367  0.00  0.00     0.018 C 
ENDBRANCH   1   8
TORSDOF 1
ENDMDL
