MODEL 1
REMARK minimizedAffinity 3.47060919
REMARK minimizedRMSD -1
REMARK  1 active torsions:
REMARK  status: ('A' for Active; 'I' for Inactive)
REMARK    1  A    between atoms: N_2  and  C1_3 
ROOT
ATOM      1  C1  UNL d   1      -4.321  -3.318  -4.318  0.00  0.00     0.143 A 
ATOM      2  C2  UNL d   1      -5.390  -3.109  -5.196  0.00  0.00    -0.057 A 
ATOM      3  C3  UNL d   1      -5.891  -4.147  -5.989  0.00  0.00     0.033 A 
ATOM      4  C4  UNL d   1      -5.312  -5.411  -5.940  0.00  0.00    -0.042 A 
ATOM      5  C5  UNL d   1      -4.232  -5.635  -5.093  0.00  0.00     0.033 A 
ATOM      6  C6  UNL d   1      -3.740  -4.596  -4.298  0.00  0.00    -0.057 A 
ENDROOT
BRANCH   1   7
ATOM      7  N   UNL d   1      -3.713  -2.303  -3.575  0.00  0.00    -0.732 N 
ATOM      8  C   UNL d   1      -4.432  -1.638  -2.509  0.00  0.00     0.284 C 
ATOM      9  H3  UNL d   1      -2.742  -2.510  -3.356  0.00  0.00     0.395 HD
ENDBRANCH   1   7
TORSDOF 1
ENDMDL
