MODEL 1
REMARK minimizedAffinity 7.78524446
REMARK minimizedRMSD -1
REMARK  1 active torsions:
REMARK  status: ('A' for Active; 'I' for Inactive)
REMARK    1  A    between atoms: N_2  and  C1_3 
ROOT
ATOM      1  C1  UNL d   1      -2.194   1.673  -0.456  0.00  0.00     0.143 A 
ATOM      2  C2  UNL d   1      -2.178   0.688  -1.450  0.00  0.00    -0.057 A 
ATOM      3  C3  UNL d   1      -2.930   0.827  -2.622  0.00  0.00     0.033 A 
ATOM      4  C4  UNL d   1      -3.737   1.945  -2.810  0.00  0.00    -0.042 A 
ATOM      5  C5  UNL d   1      -3.788   2.924  -1.824  0.00  0.00     0.033 A 
ATOM      6  C6  UNL d   1      -3.030   2.783  -0.658  0.00  0.00    -0.057 A 
ENDROOT
BRANCH   1   7
ATOM      7  N   UNL d   1      -1.546   1.547   0.775  0.00  0.00    -0.732 N 
ATOM      8  C   UNL d   1      -2.211   0.920   1.898  0.00  0.00     0.284 C 
ATOM      9  H3  UNL d   1      -0.567   1.287   0.674  0.00  0.00     0.395 HD
ENDBRANCH   1   7
TORSDOF 1
ENDMDL
