MODEL 1
REMARK minimizedAffinity 7.55830574
REMARK minimizedRMSD -1
REMARK  1 active torsions:
REMARK  status: ('A' for Active; 'I' for Inactive)
REMARK    1  A    between atoms: N_2  and  C1_3 
ROOT
ATOM      1  C1  UNL d   1      -0.063  -2.022   2.164  0.00  0.00     0.143 A 
ATOM      2  C2  UNL d   1      -0.488  -3.355   2.203  0.00  0.00    -0.057 A 
ATOM      3  C3  UNL d   1       0.429  -4.411   2.136  0.00  0.00     0.033 A 
ATOM      4  C4  UNL d   1       1.789  -4.153   1.999  0.00  0.00    -0.042 A 
ATOM      5  C5  UNL d   1       2.231  -2.836   1.933  0.00  0.00     0.033 A 
ATOM      6  C6  UNL d   1       1.312  -1.786   2.007  0.00  0.00    -0.057 A 
ENDROOT
BRANCH   1   7
ATOM      7  N   UNL d   1      -0.933  -0.930   2.127  0.00  0.00    -0.732 N 
ATOM      8  C   UNL d   1      -0.570   0.277   1.415  0.00  0.00     0.284 C 
ATOM      9  H3  UNL d   1      -1.903  -1.210   2.003  0.00  0.00     0.395 HD
ENDBRANCH   1   7
TORSDOF 1
ENDMDL
