MODEL 1
REMARK minimizedAffinity 3.59968281
REMARK minimizedRMSD -1
REMARK  1 active torsions:
REMARK  status: ('A' for Active; 'I' for Inactive)
REMARK    1  A    between atoms: N_2  and  C1_3 
ROOT
ATOM      1  C1  UNL d   1       2.910  -3.088  -0.054  0.00  0.00     0.143 A 
ATOM      2  C2  UNL d   1       2.017  -3.575   0.907  0.00  0.00    -0.057 A 
ATOM      3  C3  UNL d   1       2.297  -4.738   1.634  0.00  0.00     0.033 A 
ATOM      4  C4  UNL d   1       3.465  -5.453   1.392  0.00  0.00    -0.042 A 
ATOM      5  C5  UNL d   1       4.355  -5.002   0.423  0.00  0.00     0.033 A 
ATOM      6  C6  UNL d   1       4.073  -3.836  -0.295  0.00  0.00    -0.057 A 
ENDROOT
BRANCH   1   7
ATOM      7  N   UNL d   1       2.643  -1.992  -0.879  0.00  0.00    -0.732 N 
ATOM      8  C   UNL d   1       1.647  -1.012  -0.503  0.00  0.00     0.284 C 
ATOM      9  H3  UNL d   1       3.489  -1.593  -1.280  0.00  0.00     0.395 HD
ENDBRANCH   1   7
TORSDOF 1
ENDMDL
