MODEL 1
REMARK minimizedAffinity -1.93200648
REMARK minimizedRMSD -1
REMARK  1 active torsions:
REMARK  status: ('A' for Active; 'I' for Inactive)
REMARK    1  A    between atoms: N_2  and  C1_3 
ROOT
ATOM      1  C1  UNL d   1      -0.172  -0.095   0.064  0.00  0.00     0.143 A 
ATOM      2  C2  UNL d   1       0.070   1.239  -0.280  0.00  0.00    -0.057 A 
ATOM      3  C3  UNL d   1       1.140   1.592  -1.111  0.00  0.00     0.033 A 
ATOM      4  C4  UNL d   1       2.008   0.617  -1.591  0.00  0.00    -0.042 A 
ATOM      5  C5  UNL d   1       1.801  -0.713  -1.242  0.00  0.00     0.033 A 
ATOM      6  C6  UNL d   1       0.727  -1.061  -0.417  0.00  0.00    -0.057 A 
ENDROOT
BRANCH   1   7
ATOM      7  N   UNL d   1      -1.160  -0.500   0.965  0.00  0.00    -0.732 N 
ATOM      8  C   UNL d   1      -2.560  -0.425   0.606  0.00  0.00     0.284 C 
ATOM      9  H3  UNL d   1      -0.904  -1.346   1.468  0.00  0.00     0.395 HD
ENDBRANCH   1   7
TORSDOF 1
ENDMDL
