MODEL 1
REMARK minimizedAffinity -3.17203903
REMARK minimizedRMSD -1
REMARK  1 active torsions:
REMARK  status: ('A' for Active; 'I' for Inactive)
REMARK    1  A    between atoms: N_2  and  C1_3 
ROOT
ATOM      1  C1  UNL d   1       0.020  -1.057   1.365  0.00  0.00     0.143 A 
ATOM      2  C2  UNL d   1       0.796  -1.160   0.205  0.00  0.00    -0.057 A 
ATOM      3  C3  UNL d   1       0.299  -0.756  -1.040  0.00  0.00     0.033 A 
ATOM      4  C4  UNL d   1      -0.999  -0.267  -1.151  0.00  0.00    -0.042 A 
ATOM      5  C5  UNL d   1      -1.797  -0.180  -0.016  0.00  0.00     0.033 A 
ATOM      6  C6  UNL d   1      -1.292  -0.579   1.225  0.00  0.00    -0.057 A 
ENDROOT
BRANCH   1   7
ATOM      7  N   UNL d   1       0.423  -1.533   2.615  0.00  0.00    -0.732 N 
ATOM      8  C   UNL d   1       0.635  -2.949   2.831  0.00  0.00     0.284 C 
ATOM      9  H3  UNL d   1       1.122  -0.937   3.051  0.00  0.00     0.395 HD
ENDBRANCH   1   7
TORSDOF 1
ENDMDL
