MODEL 1
REMARK minimizedAffinity 2.28640246
REMARK minimizedRMSD -1
REMARK  1 active torsions:
REMARK  status: ('A' for Active; 'I' for Inactive)
REMARK    1  A    between atoms: N_2  and  C1_3 
ROOT
ATOM      1  C1  UNL d   1       0.134  -0.982   0.586  0.00  0.00     0.143 A 
ATOM      2  C2  UNL d   1      -0.917  -0.478  -0.187  0.00  0.00    -0.057 A 
ATOM      3  C3  UNL d   1      -2.068   0.051   0.409  0.00  0.00     0.033 A 
ATOM      4  C4  UNL d   1      -2.201   0.058   1.794  0.00  0.00    -0.042 A 
ATOM      5  C5  UNL d   1      -1.179  -0.460   2.582  0.00  0.00     0.033 A 
ATOM      6  C6  UNL d   1      -0.029  -0.981   1.980  0.00  0.00    -0.057 A 
ENDROOT
BRANCH   1   7
ATOM      7  N   UNL d   1       1.261  -1.611   0.051  0.00  0.00    -0.732 N 
ATOM      8  C   UNL d   1       1.870  -2.735   0.729  0.00  0.00     0.284 C 
ATOM      9  H3  UNL d   1       1.204  -1.717  -0.959  0.00  0.00     0.395 HD
ENDBRANCH   1   7
TORSDOF 1
ENDMDL
