MODEL 1
REMARK minimizedAffinity -4.60887432
REMARK minimizedRMSD -1
REMARK  1 active torsions:
REMARK  status: ('A' for Active; 'I' for Inactive)
REMARK    1  A    between atoms: N_2  and  C1_3 
ROOT
ATOM      1  C1  UNL d   1       1.660  -1.998   0.927  0.00  0.00     0.143 A 
ATOM      2  C2  UNL d   1       0.873  -1.354  -0.033  0.00  0.00    -0.057 A 
ATOM      3  C3  UNL d   1      -0.271  -0.634   0.330  0.00  0.00     0.033 A 
ATOM      4  C4  UNL d   1      -0.666  -0.570   1.662  0.00  0.00    -0.042 A 
ATOM      5  C5  UNL d   1       0.087  -1.223   2.631  0.00  0.00     0.033 A 
ATOM      6  C6  UNL d   1       1.233  -1.935   2.263  0.00  0.00    -0.057 A 
ENDROOT
BRANCH   1   7
ATOM      7  N   UNL d   1       2.754  -2.811   0.619  0.00  0.00    -0.732 N 
ATOM      8  C   UNL d   1       2.576  -4.229   0.388  0.00  0.00     0.284 C 
ATOM      9  H3  UNL d   1       3.402  -2.363  -0.025  0.00  0.00     0.395 HD
ENDBRANCH   1   7
TORSDOF 1
ENDMDL
