MODEL 1
REMARK minimizedAffinity 2.28155017
REMARK minimizedRMSD -1
REMARK  1 active torsions:
REMARK  status: ('A' for Active; 'I' for Inactive)
REMARK    1  A    between atoms: N_2  and  C1_3 
ROOT
ATOM      1  C1  UNL d   1       1.463  -2.931   1.230  0.00  0.00     0.143 A 
ATOM      2  C2  UNL d   1       0.458  -2.377   2.029  0.00  0.00    -0.057 A 
ATOM      3  C3  UNL d   1      -0.199  -3.140   3.003  0.00  0.00     0.033 A 
ATOM      4  C4  UNL d   1       0.120  -4.482   3.175  0.00  0.00    -0.042 A 
ATOM      5  C5  UNL d   1       1.099  -5.061   2.375  0.00  0.00     0.033 A 
ATOM      6  C6  UNL d   1       1.755  -4.293   1.409  0.00  0.00    -0.057 A 
ENDROOT
BRANCH   1   7
ATOM      7  N   UNL d   1       2.084  -2.252   0.179  0.00  0.00    -0.732 N 
ATOM      8  C   UNL d   1       1.621  -0.943  -0.229  0.00  0.00     0.284 C 
ATOM      9  H3  UNL d   1       3.097  -2.347   0.200  0.00  0.00     0.395 HD
ENDBRANCH   1   7
TORSDOF 1
ENDMDL
