MODEL 1
REMARK minimizedAffinity 5.73296356
REMARK minimizedRMSD -1
REMARK  1 active torsions:
REMARK  status: ('A' for Active; 'I' for Inactive)
REMARK    1  A    between atoms: N_2  and  C1_3 
ROOT
ATOM      1  C1  UNL d   1      -2.691  -0.317   0.837  0.00  0.00     0.143 A 
ATOM      2  C2  UNL d   1      -1.827  -0.651   1.885  0.00  0.00    -0.057 A 
ATOM      3  C3  UNL d   1      -0.459  -0.849   1.664  0.00  0.00     0.033 A 
ATOM      4  C4  UNL d   1       0.067  -0.745   0.380  0.00  0.00    -0.042 A 
ATOM      5  C5  UNL d   1      -0.778  -0.439  -0.681  0.00  0.00     0.033 A 
ATOM      6  C6  UNL d   1      -2.142  -0.235  -0.453  0.00  0.00    -0.057 A 
ENDROOT
BRANCH   1   7
ATOM      7  N   UNL d   1      -4.076  -0.204   0.976  0.00  0.00    -0.732 N 
ATOM      8  C   UNL d   1      -4.647   0.579   2.051  0.00  0.00     0.284 C 
ATOM      9  H3  UNL d   1      -4.548  -0.089   0.082  0.00  0.00     0.395 HD
ENDBRANCH   1   7
TORSDOF 1
ENDMDL
