MODEL 1
REMARK minimizedAffinity -2.05321383
REMARK minimizedRMSD -1
REMARK  0 active torsions:
REMARK  status: ('A' for Active; 'I' for Inactive)
ROOT
ATOM      1  C1  BNZ d   1       0.480  -0.557  -2.202  0.00  0.00     0.000 A 
ATOM      2  C2  BNZ d   1       1.588  -0.925  -1.486  0.00  0.00     0.000 A 
ATOM      3  C3  BNZ d   1       1.616  -0.795  -0.126  0.00  0.00     0.000 A 
ATOM      4  C4  BNZ d   1       0.554  -0.261   0.512  0.00  0.00     0.000 A 
ATOM      5  C5  BNZ d   1      -0.566   0.123  -0.198  0.00  0.00     0.000 A 
ATOM      6  C6  BNZ d   1      -0.606  -0.045  -1.563  0.00  0.00     0.000 A 
ENDROOT
TORSDOF 0
ENDMDL
