MODEL 1
REMARK minimizedAffinity -4.82142448
REMARK minimizedRMSD -1
REMARK  0 active torsions:
REMARK  status: ('A' for Active; 'I' for Inactive)
ROOT
ATOM      1  C1  BNZ d   1      -0.971  -0.450   1.541  0.00  0.00     0.000 A 
ATOM      2  C2  BNZ d   1      -0.245  -0.176   0.412  0.00  0.00     0.000 A 
ATOM      3  C3  BNZ d   1       1.113  -0.329   0.400  0.00  0.00     0.000 A 
ATOM      4  C4  BNZ d   1       1.747  -0.717   1.525  0.00  0.00     0.000 A 
ATOM      5  C5  BNZ d   1       1.030  -0.987   2.674  0.00  0.00     0.000 A 
ATOM      6  C6  BNZ d   1      -0.341  -0.870   2.671  0.00  0.00     0.000 A 
ENDROOT
TORSDOF 0
ENDMDL
