MODEL 1
REMARK minimizedAffinity -3.42029762
REMARK minimizedRMSD -1
REMARK  0 active torsions:
REMARK  status: ('A' for Active; 'I' for Inactive)
ROOT
ATOM      1  C1  BNZ d   1       0.010  -0.828   2.254  0.00  0.00     0.000 A 
ATOM      2  C2  BNZ d   1      -0.819  -0.273   1.316  0.00  0.00     0.000 A 
ATOM      3  C3  BNZ d   1      -0.391  -0.077   0.033  0.00  0.00     0.000 A 
ATOM      4  C4  BNZ d   1       0.875  -0.398  -0.300  0.00  0.00     0.000 A 
ATOM      5  C5  BNZ d   1       1.726  -0.949   0.637  0.00  0.00     0.000 A 
ATOM      6  C6  BNZ d   1       1.280  -1.181   1.918  0.00  0.00     0.000 A 
ENDROOT
TORSDOF 0
ENDMDL
