MODEL 1
REMARK minimizedAffinity -4.97485495
REMARK minimizedRMSD -1
REMARK  0 active torsions:
REMARK  status: ('A' for Active; 'I' for Inactive)
ROOT
ATOM      1  C1  BNZ d   1       0.524  -0.069   0.098  0.00  0.00     0.000 A 
ATOM      2  C2  BNZ d   1      -0.825  -0.306   0.127  0.00  0.00     0.000 A 
ATOM      3  C3  BNZ d   1      -1.426  -0.790   1.255  0.00  0.00     0.000 A 
ATOM      4  C4  BNZ d   1      -0.673  -1.075   2.338  0.00  0.00     0.000 A 
ATOM      5  C5  BNZ d   1       0.689  -0.850   2.320  0.00  0.00     0.000 A 
ATOM      6  C6  BNZ d   1       1.285  -0.326   1.196  0.00  0.00     0.000 A 
ENDROOT
TORSDOF 0
ENDMDL
