MODEL 1
REMARK minimizedAffinity -1.21355355
REMARK minimizedRMSD -1
REMARK  0 active torsions:
REMARK  status: ('A' for Active; 'I' for Inactive)
ROOT
ATOM      1  C1  BNZ d   1      -0.309   0.309  -0.949  0.00  0.00     0.000 A 
ATOM      2  C2  BNZ d   1      -0.953   0.481   0.247  0.00  0.00     0.000 A 
ATOM      3  C3  BNZ d   1      -0.495  -0.129   1.382  0.00  0.00     0.000 A 
ATOM      4  C4  BNZ d   1       0.580  -0.940   1.311  0.00  0.00     0.000 A 
ATOM      5  C5  BNZ d   1       1.235  -1.130   0.111  0.00  0.00     0.000 A 
ATOM      6  C6  BNZ d   1       0.794  -0.484  -1.022  0.00  0.00     0.000 A 
ENDROOT
TORSDOF 0
ENDMDL
