MODEL 1
REMARK minimizedAffinity -4.83001471
REMARK minimizedRMSD -1
REMARK  0 active torsions:
REMARK  status: ('A' for Active; 'I' for Inactive)
ROOT
ATOM      1  C1  BNZ d   1       2.235  -0.307   1.747  0.00  0.00     0.000 A 
ATOM      2  C2  BNZ d   1       1.554   0.427   0.813  0.00  0.00     0.000 A 
ATOM      3  C3  BNZ d   1       0.198   0.576   0.893  0.00  0.00     0.000 A 
ATOM      4  C4  BNZ d   1      -0.480  -0.041   1.882  0.00  0.00     0.000 A 
ATOM      5  C5  BNZ d   1       0.191  -0.792   2.826  0.00  0.00     0.000 A 
ATOM      6  C6  BNZ d   1       1.561  -0.908   2.765  0.00  0.00     0.000 A 
ENDROOT
TORSDOF 0
ENDMDL
