MODEL 1
REMARK minimizedAffinity -2.6503644
REMARK minimizedRMSD -1
REMARK  0 active torsions:
REMARK  status: ('A' for Active; 'I' for Inactive)
ROOT
ATOM      1  C1  BNZ d   1      -1.436   2.797  -2.972  0.00  0.00     0.000 A 
ATOM      2  C2  BNZ d   1      -1.653   1.636  -2.280  0.00  0.00     0.000 A 
ATOM      3  C3  BNZ d   1      -0.607   0.842  -1.900  0.00  0.00     0.000 A 
ATOM      4  C4  BNZ d   1       0.649   1.189  -2.246  0.00  0.00     0.000 A 
ATOM      5  C5  BNZ d   1       0.883   2.352  -2.952  0.00  0.00     0.000 A 
ATOM      6  C6  BNZ d   1      -0.168   3.169  -3.299  0.00  0.00     0.000 A 
ENDROOT
TORSDOF 0
ENDMDL
