MODEL 1
REMARK minimizedAffinity -4.65602875
REMARK minimizedRMSD -1
REMARK  0 active torsions:
REMARK  status: ('A' for Active; 'I' for Inactive)
ROOT
ATOM      1  C1  BNZ d   1       1.133  -0.001   0.787  0.00  0.00     0.000 A 
ATOM      2  C2  BNZ d   1       0.202   0.320  -0.163  0.00  0.00     0.000 A 
ATOM      3  C3  BNZ d   1      -1.125   0.061   0.041  0.00  0.00     0.000 A 
ATOM      4  C4  BNZ d   1      -1.513  -0.554   1.177  0.00  0.00     0.000 A 
ATOM      5  C5  BNZ d   1      -0.585  -0.892   2.141  0.00  0.00     0.000 A 
ATOM      6  C6  BNZ d   1       0.745  -0.595   1.949  0.00  0.00     0.000 A 
ENDROOT
TORSDOF 0
ENDMDL
