MODEL 1
REMARK minimizedAffinity -4.1930728
REMARK minimizedRMSD -1
REMARK  0 active torsions:
REMARK  status: ('A' for Active; 'I' for Inactive)
ROOT
ATOM      1  C1  BNZ d   1      -0.475   0.114  -1.075  0.00  0.00     0.000 A 
ATOM      2  C2  BNZ d   1       0.531  -0.637  -1.622  0.00  0.00     0.000 A 
ATOM      3  C3  BNZ d   1       1.617  -1.002  -0.877  0.00  0.00     0.000 A 
ATOM      4  C4  BNZ d   1       1.715  -0.584   0.402  0.00  0.00     0.000 A 
ATOM      5  C5  BNZ d   1       0.713   0.181   0.965  0.00  0.00     0.000 A 
ATOM      6  C6  BNZ d   1      -0.397   0.515   0.223  0.00  0.00     0.000 A 
ENDROOT
TORSDOF 0
ENDMDL
