MODEL 1
REMARK minimizedAffinity -3.78753257
REMARK minimizedRMSD -1
REMARK  0 active torsions:
REMARK  status: ('A' for Active; 'I' for Inactive)
ROOT
ATOM      1  C   UNL d   1       1.767  -0.306  -0.610  0.00  0.00     0.020 A 
ATOM      2  C1  UNL d   1       1.165   0.943  -0.753  0.00  0.00     0.020 A 
ATOM      3  C2  UNL d   1      -0.030   1.223  -0.087  0.00  0.00     0.034 A 
ATOM      4  C3  UNL d   1      -0.627   0.252   0.726  0.00  0.00     0.017 A 
ATOM      5  C4  UNL d   1      -0.022  -1.002   0.869  0.00  0.00     0.017 A 
ATOM      6  C5  UNL d   1       1.174  -1.277   0.199  0.00  0.00     0.034 A 
ATOM      7 Cl   UNL d   1      -0.699  -2.251   1.853  0.00  0.00    -0.070 Cl
ATOM      8 Cl1  UNL d   1      -2.105   0.667   1.520  0.00  0.00    -0.070 Cl
ENDROOT
TORSDOF 0
ENDMDL
