MODEL 1
REMARK minimizedAffinity -5.11728048
REMARK minimizedRMSD -1
REMARK  0 active torsions:
REMARK  status: ('A' for Active; 'I' for Inactive)
ROOT
ATOM      1  C   UNL d   1      -2.977  -0.838   1.928  0.00  0.00     0.020 A 
ATOM      2  C1  UNL d   1      -2.291  -2.033   2.141  0.00  0.00     0.020 A 
ATOM      3  C2  UNL d   1      -1.026  -2.222   1.582  0.00  0.00     0.034 A 
ATOM      4  C3  UNL d   1      -0.442  -1.214   0.806  0.00  0.00     0.017 A 
ATOM      5  C4  UNL d   1      -1.131  -0.014   0.593  0.00  0.00     0.017 A 
ATOM      6  C5  UNL d   1      -2.397   0.170   1.156  0.00  0.00     0.034 A 
ATOM      7 Cl   UNL d   1      -0.475   1.276  -0.352  0.00  0.00    -0.070 Cl
ATOM      8 Cl1  UNL d   1       1.126  -1.515   0.145  0.00  0.00    -0.070 Cl
ENDROOT
TORSDOF 0
ENDMDL
