MODEL 1
REMARK minimizedAffinity -1.60496271
REMARK minimizedRMSD -1
REMARK  0 active torsions:
REMARK  status: ('A' for Active; 'I' for Inactive)
ROOT
ATOM      1  C   UNL d   1       1.262  -0.213   0.120  0.00  0.00     0.020 A 
ATOM      2  C1  UNL d   1      -0.004  -0.156  -0.460  0.00  0.00     0.020 A 
ATOM      3  C2  UNL d   1      -1.031  -0.970   0.024  0.00  0.00     0.034 A 
ATOM      4  C3  UNL d   1      -0.793  -1.843   1.091  0.00  0.00     0.017 A 
ATOM      5  C4  UNL d   1       0.479  -1.899   1.673  0.00  0.00     0.017 A 
ATOM      6  C5  UNL d   1       1.503  -1.082   1.184  0.00  0.00     0.034 A 
ATOM      7 Cl   UNL d   1       0.848  -2.951   2.993  0.00  0.00    -0.070 Cl
ATOM      8 Cl1  UNL d   1      -2.109  -2.820   1.639  0.00  0.00    -0.070 Cl
ENDROOT
TORSDOF 0
ENDMDL
