MODEL 1
REMARK minimizedAffinity -1.74313605
REMARK minimizedRMSD -1
REMARK  0 active torsions:
REMARK  status: ('A' for Active; 'I' for Inactive)
ROOT
ATOM      1  C   UNL d   1       1.257  -2.888   0.733  0.00  0.00     0.020 A 
ATOM      2  C1  UNL d   1       0.671  -2.707   1.985  0.00  0.00     0.020 A 
ATOM      3  C2  UNL d   1      -0.165  -1.612   2.212  0.00  0.00     0.034 A 
ATOM      4  C3  UNL d   1      -0.417  -0.694   1.186  0.00  0.00     0.017 A 
ATOM      5  C4  UNL d   1       0.172  -0.876  -0.070  0.00  0.00     0.017 A 
ATOM      6  C5  UNL d   1       1.009  -1.975  -0.292  0.00  0.00     0.034 A 
ATOM      7 Cl   UNL d   1      -0.091   0.214  -1.385  0.00  0.00    -0.070 Cl
ATOM      8 Cl1  UNL d   1      -1.461   0.637   1.538  0.00  0.00    -0.070 Cl
ENDROOT
TORSDOF 0
ENDMDL
