MODEL 1
REMARK minimizedAffinity 2.37549353
REMARK minimizedRMSD -1
REMARK  0 active torsions:
REMARK  status: ('A' for Active; 'I' for Inactive)
ROOT
ATOM      1  C   UNL d   1      -0.500   1.330   0.907  0.00  0.00     0.020 A 
ATOM      2  C1  UNL d   1      -0.870  -0.014   0.878  0.00  0.00     0.020 A 
ATOM      3  C2  UNL d   1      -0.769  -0.741  -0.310  0.00  0.00     0.034 A 
ATOM      4  C3  UNL d   1      -0.298  -0.124  -1.475  0.00  0.00     0.017 A 
ATOM      5  C4  UNL d   1       0.074   1.225  -1.445  0.00  0.00     0.017 A 
ATOM      6  C5  UNL d   1      -0.029   1.948  -0.252  0.00  0.00     0.034 A 
ATOM      7 Cl   UNL d   1       0.664   2.055  -2.841  0.00  0.00    -0.070 Cl
ATOM      8 Cl1  UNL d   1      -0.199  -1.083  -2.909  0.00  0.00    -0.070 Cl
ENDROOT
TORSDOF 0
ENDMDL
