MODEL 1
REMARK minimizedAffinity -3.63988996
REMARK minimizedRMSD -1
REMARK  0 active torsions:
REMARK  status: ('A' for Active; 'I' for Inactive)
ROOT
ATOM      1  C   UNL d   1      -1.877  -1.854   1.901  0.00  0.00     0.020 A 
ATOM      2  C1  UNL d   1      -2.366  -0.551   1.816  0.00  0.00     0.020 A 
ATOM      3  C2  UNL d   1      -1.692   0.398   1.044  0.00  0.00     0.034 A 
ATOM      4  C3  UNL d   1      -0.526   0.046   0.355  0.00  0.00     0.017 A 
ATOM      5  C4  UNL d   1      -0.036  -1.262   0.441  0.00  0.00     0.017 A 
ATOM      6  C5  UNL d   1      -0.715  -2.208   1.215  0.00  0.00     0.034 A 
ATOM      7 Cl   UNL d   1       1.396  -1.771  -0.381  0.00  0.00    -0.070 Cl
ATOM      8 Cl1  UNL d   1       0.255   1.271  -0.581  0.00  0.00    -0.070 Cl
ENDROOT
TORSDOF 0
ENDMDL
