MODEL 1
REMARK minimizedAffinity -3.95766306
REMARK minimizedRMSD -1
REMARK  0 active torsions:
REMARK  status: ('A' for Active; 'I' for Inactive)
ROOT
ATOM      1  C   UNL d   1      -0.011  -2.062   0.864  0.00  0.00     0.020 A 
ATOM      2  C1  UNL d   1       0.931  -2.259  -0.144  0.00  0.00     0.020 A 
ATOM      3  C2  UNL d   1       1.371  -1.178  -0.911  0.00  0.00     0.034 A 
ATOM      4  C3  UNL d   1       0.868   0.106  -0.670  0.00  0.00     0.017 A 
ATOM      5  C4  UNL d   1      -0.078   0.303   0.343  0.00  0.00     0.017 A 
ATOM      6  C5  UNL d   1      -0.515  -0.783   1.107  0.00  0.00     0.034 A 
ATOM      7 Cl   UNL d   1      -0.745   1.858   0.698  0.00  0.00    -0.070 Cl
ATOM      8 Cl1  UNL d   1       1.456   1.397  -1.656  0.00  0.00    -0.070 Cl
ENDROOT
TORSDOF 0
ENDMDL
