MODEL 1
REMARK minimizedAffinity -3.02659225
REMARK minimizedRMSD -1
REMARK  0 active torsions:
REMARK  status: ('A' for Active; 'I' for Inactive)
ROOT
ATOM      1  C   UNL d   1       0.121   0.535   0.203  0.00  0.00     0.020 A 
ATOM      2  C1  UNL d   1      -0.562   0.050  -0.911  0.00  0.00     0.020 A 
ATOM      3  C2  UNL d   1      -0.159   0.425  -2.195  0.00  0.00     0.034 A 
ATOM      4  C3  UNL d   1       0.930   1.287  -2.367  0.00  0.00     0.017 A 
ATOM      5  C4  UNL d   1       1.616   1.773  -1.247  0.00  0.00     0.017 A 
ATOM      6  C5  UNL d   1       1.208   1.394   0.036  0.00  0.00     0.034 A 
ATOM      7 Cl   UNL d   1       2.969   2.839  -1.380  0.00  0.00    -0.070 Cl
ATOM      8 Cl1  UNL d   1       1.374   1.709  -3.983  0.00  0.00    -0.070 Cl
ENDROOT
TORSDOF 0
ENDMDL
