MODEL 1
REMARK minimizedAffinity -5.63409472
REMARK minimizedRMSD -1
REMARK  0 active torsions:
REMARK  status: ('A' for Active; 'I' for Inactive)
ROOT
ATOM      1  C   UNL d   1      -2.523  -0.051   1.537  0.00  0.00     0.020 A 
ATOM      2  C1  UNL d   1      -2.174  -1.324   1.986  0.00  0.00     0.020 A 
ATOM      3  C2  UNL d   1      -0.962  -1.896   1.591  0.00  0.00     0.034 A 
ATOM      4  C3  UNL d   1      -0.096  -1.195   0.744  0.00  0.00     0.017 A 
ATOM      5  C4  UNL d   1      -0.447   0.083   0.294  0.00  0.00     0.017 A 
ATOM      6  C5  UNL d   1      -1.662   0.651   0.693  0.00  0.00     0.034 A 
ATOM      7 Cl   UNL d   1       0.570   1.010  -0.752  0.00  0.00    -0.070 Cl
ATOM      8 Cl1  UNL d   1       1.386  -1.962   0.297  0.00  0.00    -0.070 Cl
ENDROOT
TORSDOF 0
ENDMDL
