MODEL 1
REMARK minimizedAffinity -3.72626066
REMARK minimizedRMSD -1
REMARK  0 active torsions:
REMARK  status: ('A' for Active; 'I' for Inactive)
ROOT
ATOM      1  C   UNL d   1       0.831  -2.057   0.283  0.00  0.00     0.020 A 
ATOM      2  C1  UNL d   1      -0.149  -2.628   1.093  0.00  0.00     0.020 A 
ATOM      3  C2  UNL d   1      -1.177  -1.836   1.609  0.00  0.00     0.034 A 
ATOM      4  C3  UNL d   1      -1.227  -0.469   1.315  0.00  0.00     0.017 A 
ATOM      5  C4  UNL d   1      -0.242   0.104   0.502  0.00  0.00     0.017 A 
ATOM      6  C5  UNL d   1       0.785  -0.694  -0.012  0.00  0.00     0.034 A 
ATOM      7 Cl   UNL d   1      -0.237   1.783   0.095  0.00  0.00    -0.070 Cl
ATOM      8 Cl1  UNL d   1      -2.527   0.450   1.986  0.00  0.00    -0.070 Cl
ENDROOT
TORSDOF 0
ENDMDL
