MODEL 1
REMARK minimizedAffinity -4.81463814
REMARK minimizedRMSD -1
REMARK  0 active torsions:
REMARK  status: ('A' for Active; 'I' for Inactive)
ROOT
ATOM      1  C   UNL d   1      -1.351   0.976   0.509  0.00  0.00     0.020 A 
ATOM      2  C1  UNL d   1      -0.059   1.326   0.120  0.00  0.00     0.020 A 
ATOM      3  C2  UNL d   1       0.918   0.339  -0.028  0.00  0.00     0.034 A 
ATOM      4  C3  UNL d   1       0.604  -1.003   0.215  0.00  0.00     0.017 A 
ATOM      5  C4  UNL d   1      -0.693  -1.354   0.606  0.00  0.00     0.017 A 
ATOM      6  C5  UNL d   1      -1.667  -0.361   0.752  0.00  0.00     0.034 A 
ATOM      7 Cl   UNL d   1      -1.155  -2.989   0.923  0.00  0.00    -0.070 Cl
ATOM      8 Cl1  UNL d   1       1.862  -2.171   0.013  0.00  0.00    -0.070 Cl
ENDROOT
TORSDOF 0
ENDMDL
