MODEL 1
REMARK minimizedAffinity -4.95111322
REMARK minimizedRMSD -1
REMARK  0 active torsions:
REMARK  status: ('A' for Active; 'I' for Inactive)
ROOT
ATOM      1  C   UNL d   1      -1.525  -2.784   0.965  0.00  0.00     0.020 A 
ATOM      2  C1  UNL d   1      -2.296  -1.665   0.653  0.00  0.00     0.020 A 
ATOM      3  C2  UNL d   1      -1.675  -0.477   0.261  0.00  0.00     0.034 A 
ATOM      4  C3  UNL d   1      -0.280  -0.406   0.180  0.00  0.00     0.017 A 
ATOM      5  C4  UNL d   1       0.493  -1.530   0.494  0.00  0.00     0.017 A 
ATOM      6  C5  UNL d   1      -0.134  -2.717   0.885  0.00  0.00     0.034 A 
ATOM      7 Cl   UNL d   1       2.220  -1.518   0.417  0.00  0.00    -0.070 Cl
ATOM      8 Cl1  UNL d   1       0.421   1.095  -0.312  0.00  0.00    -0.070 Cl
ENDROOT
TORSDOF 0
ENDMDL
