MODEL 1
REMARK minimizedAffinity -4.29426241
REMARK minimizedRMSD -1
REMARK  0 active torsions:
REMARK  status: ('A' for Active; 'I' for Inactive)
ROOT
ATOM      1  C   UNL d   1      -0.511  -2.915   0.054  0.00  0.00     0.020 A 
ATOM      2  C1  UNL d   1      -1.723  -2.861   0.742  0.00  0.00     0.020 A 
ATOM      3  C2  UNL d   1      -2.229  -1.631   1.168  0.00  0.00     0.034 A 
ATOM      4  C3  UNL d   1      -1.524  -0.451   0.907  0.00  0.00     0.017 A 
ATOM      5  C4  UNL d   1      -0.308  -0.506   0.217  0.00  0.00     0.017 A 
ATOM      6  C5  UNL d   1       0.195  -1.740  -0.208  0.00  0.00     0.034 A 
ATOM      7 Cl   UNL d   1       0.620   0.908  -0.143  0.00  0.00    -0.070 Cl
ATOM      8 Cl1  UNL d   1      -2.210   1.035   1.462  0.00  0.00    -0.070 Cl
ENDROOT
TORSDOF 0
ENDMDL
