MODEL 1
REMARK minimizedAffinity -4.7944293
REMARK minimizedRMSD -1
REMARK  0 active torsions:
REMARK  status: ('A' for Active; 'I' for Inactive)
ROOT
ATOM      1  C   UNL d   1      -2.839  -1.063   1.244  0.00  0.00     0.020 A 
ATOM      2  C1  UNL d   1      -2.167  -2.235   1.591  0.00  0.00     0.020 A 
ATOM      3  C2  UNL d   1      -0.786  -2.329   1.407  0.00  0.00     0.034 A 
ATOM      4  C3  UNL d   1      -0.072  -1.249   0.875  0.00  0.00     0.017 A 
ATOM      5  C4  UNL d   1      -0.747  -0.073   0.527  0.00  0.00     0.017 A 
ATOM      6  C5  UNL d   1      -2.130   0.015   0.714  0.00  0.00     0.034 A 
ATOM      7 Cl   UNL d   1       0.066   1.301  -0.134  0.00  0.00    -0.070 Cl
ATOM      8 Cl1  UNL d   1       1.634  -1.435   0.676  0.00  0.00    -0.070 Cl
ENDROOT
TORSDOF 0
ENDMDL
