MODEL 1
REMARK minimizedAffinity 4.67500591
REMARK minimizedRMSD -1
REMARK  1 active torsions:
REMARK  status: ('A' for Active; 'I' for Inactive)
REMARK    1  A    between atoms: N_2  and  C1_3 
ROOT
ATOM      1  C1  UNL d   1       4.465  -0.062   2.151  0.00  0.00     0.143 A 
ATOM      2  C2  UNL d   1       3.330  -0.598   2.769  0.00  0.00    -0.057 A 
ATOM      3  C3  UNL d   1       2.048  -0.371   2.255  0.00  0.00     0.033 A 
ATOM      4  C4  UNL d   1       1.875   0.422   1.125  0.00  0.00    -0.042 A 
ATOM      5  C5  UNL d   1       2.987   0.985   0.509  0.00  0.00     0.033 A 
ATOM      6  C6  UNL d   1       4.265   0.750   1.023  0.00  0.00    -0.057 A 
ENDROOT
BRANCH   1   7
ATOM      7  N   UNL d   1       5.758  -0.169   2.670  0.00  0.00    -0.732 N 
ATOM      8  C   UNL d   1       6.000   0.003   4.086  0.00  0.00     0.284 C 
ATOM      9  H3  UNL d   1       6.284  -0.931   2.248  0.00  0.00     0.395 HD
ENDBRANCH   1   7
TORSDOF 1
ENDMDL
