MODEL 1
REMARK minimizedAffinity 0.633321524
REMARK minimizedRMSD -1
REMARK  1 active torsions:
REMARK  status: ('A' for Active; 'I' for Inactive)
REMARK    1  A    between atoms: N_2  and  C1_3 
ROOT
ATOM      1  C1  UNL d   1       4.739  -0.175   2.244  0.00  0.00     0.143 A 
ATOM      2  C2  UNL d   1       3.753  -1.079   2.654  0.00  0.00    -0.057 A 
ATOM      3  C3  UNL d   1       2.520  -1.156   1.995  0.00  0.00     0.033 A 
ATOM      4  C4  UNL d   1       2.239  -0.307   0.930  0.00  0.00    -0.042 A 
ATOM      5  C5  UNL d   1       3.195   0.617   0.522  0.00  0.00     0.033 A 
ATOM      6  C6  UNL d   1       4.427   0.684   1.179  0.00  0.00    -0.057 A 
ENDROOT
BRANCH   1   7
ATOM      7  N   UNL d   1       5.946   0.017   2.920  0.00  0.00    -0.732 N 
ATOM      8  C   UNL d   1       6.000   0.829   4.117  0.00  0.00     0.284 C 
ATOM      9  H3  UNL d   1       6.504  -0.832   2.968  0.00  0.00     0.395 HD
ENDBRANCH   1   7
TORSDOF 1
ENDMDL
