MODEL 1
REMARK minimizedAffinity 2.27220893
REMARK minimizedRMSD -1
REMARK  1 active torsions:
REMARK  status: ('A' for Active; 'I' for Inactive)
REMARK    1  A    between atoms: N_2  and  C1_3 
ROOT
ATOM      1  C1  UNL d   1       3.456  -0.188   2.376  0.00  0.00     0.143 A 
ATOM      2  C2  UNL d   1       3.592   0.734   1.332  0.00  0.00    -0.057 A 
ATOM      3  C3  UNL d   1       2.534   0.997   0.453  0.00  0.00     0.033 A 
ATOM      4  C4  UNL d   1       1.327   0.319   0.586  0.00  0.00    -0.042 A 
ATOM      5  C5  UNL d   1       1.177  -0.620   1.601  0.00  0.00     0.033 A 
ATOM      6  C6  UNL d   1       2.235  -0.873   2.479  0.00  0.00    -0.057 A 
ENDROOT
BRANCH   1   7
ATOM      7  N   UNL d   1       4.501  -0.565   3.222  0.00  0.00    -0.732 N 
ATOM      8  C   UNL d   1       5.862  -0.166   2.934  0.00  0.00     0.284 C 
ATOM      9  H3  UNL d   1       4.248  -0.501   4.205  0.00  0.00     0.395 HD
ENDBRANCH   1   7
TORSDOF 1
ENDMDL
