MODEL 1
REMARK minimizedAffinity 3.05935383
REMARK minimizedRMSD -1
REMARK  1 active torsions:
REMARK  status: ('A' for Active; 'I' for Inactive)
REMARK    1  A    between atoms: N_2  and  C1_3 
ROOT
ATOM      1  C1  UNL d   1      -5.776   3.686   4.934  0.00  0.00     0.143 A 
ATOM      2  C2  UNL d   1      -5.727   2.295   5.073  0.00  0.00    -0.057 A 
ATOM      3  C3  UNL d   1      -5.633   1.456   3.956  0.00  0.00     0.033 A 
ATOM      4  C4  UNL d   1      -5.615   1.995   2.673  0.00  0.00    -0.042 A 
ATOM      5  C5  UNL d   1      -5.688   3.374   2.510  0.00  0.00     0.033 A 
ATOM      6  C6  UNL d   1      -5.776   4.206   3.630  0.00  0.00    -0.057 A 
ENDROOT
BRANCH   1   7
ATOM      7  N   UNL d   1      -5.970   4.568   6.000  0.00  0.00    -0.732 N 
ATOM      8  C   UNL d   1      -5.998   5.998   5.778  0.00  0.00     0.284 C 
ATOM      9  H3  UNL d   1      -6.672   4.235   6.657  0.00  0.00     0.395 HD
ENDBRANCH   1   7
TORSDOF 1
ENDMDL
