MODEL 1
REMARK minimizedAffinity 11.8895798
REMARK minimizedRMSD -1
REMARK  1 active torsions:
REMARK  status: ('A' for Active; 'I' for Inactive)
REMARK    1  A    between atoms: N_2  and  C1_3 
ROOT
ATOM      1  C1  UNL d   1      -5.703   2.620   3.944  0.00  0.00     0.143 A 
ATOM      2  C2  UNL d   1      -5.651   1.226   3.836  0.00  0.00    -0.057 A 
ATOM      3  C3  UNL d   1      -5.744   0.590   2.592  0.00  0.00     0.033 A 
ATOM      4  C4  UNL d   1      -5.921   1.339   1.433  0.00  0.00    -0.042 A 
ATOM      5  C5  UNL d   1      -6.000   2.725   1.519  0.00  0.00     0.033 A 
ATOM      6  C6  UNL d   1      -5.900   3.354   2.764  0.00  0.00    -0.057 A 
ENDROOT
BRANCH   1   7
ATOM      7  N   UNL d   1      -5.715   3.306   5.161  0.00  0.00    -0.732 N 
ATOM      8  C   UNL d   1      -4.536   3.340   6.000  0.00  0.00     0.284 C 
ATOM      9  H3  UNL d   1      -6.209   4.193   5.102  0.00  0.00     0.395 HD
ENDBRANCH   1   7
TORSDOF 1
ENDMDL
