MODEL 1
REMARK minimizedAffinity -1.75311244
REMARK minimizedRMSD -1
REMARK  1 active torsions:
REMARK  status: ('A' for Active; 'I' for Inactive)
REMARK    1  A    between atoms: N_2  and  C1_3 
ROOT
ATOM      1  C1  UNL d   1       4.116   0.090   1.827  0.00  0.00     0.143 A 
ATOM      2  C2  UNL d   1       3.431   0.760   0.808  0.00  0.00    -0.057 A 
ATOM      3  C3  UNL d   1       2.114   0.422   0.474  0.00  0.00     0.033 A 
ATOM      4  C4  UNL d   1       1.467  -0.617   1.136  0.00  0.00    -0.042 A 
ATOM      5  C5  UNL d   1       2.137  -1.313   2.135  0.00  0.00     0.033 A 
ATOM      6  C6  UNL d   1       3.450  -0.966   2.469  0.00  0.00    -0.057 A 
ENDROOT
BRANCH   1   7
ATOM      7  N   UNL d   1       5.459   0.314   2.139  0.00  0.00    -0.732 N 
ATOM      8  C   UNL d   1       5.996  -0.093   3.419  0.00  0.00     0.284 C 
ATOM      9  H3  UNL d   1       6.077   0.130   1.351  0.00  0.00     0.395 HD
ENDBRANCH   1   7
TORSDOF 1
ENDMDL
