MODEL 1
REMARK minimizedAffinity 3.29518199
REMARK minimizedRMSD -1
REMARK  1 active torsions:
REMARK  status: ('A' for Active; 'I' for Inactive)
REMARK    1  A    between atoms: N_2  and  C1_3 
ROOT
ATOM      1  C1  UNL d   1       3.853   0.793   0.980  0.00  0.00     0.143 A 
ATOM      2  C2  UNL d   1       4.897   0.186   1.686  0.00  0.00    -0.057 A 
ATOM      3  C3  UNL d   1       4.646  -0.785   2.663  0.00  0.00     0.033 A 
ATOM      4  C4  UNL d   1       3.339  -1.147   2.972  0.00  0.00    -0.042 A 
ATOM      5  C5  UNL d   1       2.284  -0.540   2.300  0.00  0.00     0.033 A 
ATOM      6  C6  UNL d   1       2.542   0.425   1.321  0.00  0.00    -0.057 A 
ENDROOT
BRANCH   1   7
ATOM      7  N   UNL d   1       4.033   1.835   0.067  0.00  0.00    -0.732 N 
ATOM      8  C   UNL d   1       3.220   3.029   0.143  0.00  0.00     0.284 C 
ATOM      9  H3  UNL d   1       5.015   2.013  -0.130  0.00  0.00     0.395 HD
ENDBRANCH   1   7
TORSDOF 1
ENDMDL
