MODEL 1
REMARK minimizedAffinity 4.07678747
REMARK minimizedRMSD -1
REMARK  1 active torsions:
REMARK  status: ('A' for Active; 'I' for Inactive)
REMARK    1  A    between atoms: N_2  and  C1_3 
ROOT
ATOM      1  C1  UNL d   1      -2.492   4.509   5.397  0.00  0.00     0.143 A 
ATOM      2  C2  UNL d   1      -1.458   3.784   5.999  0.00  0.00    -0.057 A 
ATOM      3  C3  UNL d   1      -0.276   3.495   5.307  0.00  0.00     0.033 A 
ATOM      4  C4  UNL d   1      -0.119   3.901   3.986  0.00  0.00    -0.042 A 
ATOM      5  C5  UNL d   1      -1.144   4.600   3.359  0.00  0.00     0.033 A 
ATOM      6  C6  UNL d   1      -2.319   4.892   4.057  0.00  0.00    -0.057 A 
ENDROOT
BRANCH   1   7
ATOM      7  N   UNL d   1      -3.731   4.743   5.999  0.00  0.00    -0.732 N 
ATOM      8  C   UNL d   1      -4.756   3.721   5.999  0.00  0.00     0.284 C 
ATOM      9  H3  UNL d   1      -3.646   5.247   6.879  0.00  0.00     0.395 HD
ENDBRANCH   1   7
TORSDOF 1
ENDMDL
