MODEL 1
REMARK minimizedAffinity 10.8863468
REMARK minimizedRMSD -1
REMARK  1 active torsions:
REMARK  status: ('A' for Active; 'I' for Inactive)
REMARK    1  A    between atoms: N_2  and  C1_3 
ROOT
ATOM      1  C1  UNL d   1       3.190  -0.616   2.651  0.00  0.00     0.143 A 
ATOM      2  C2  UNL d   1       2.893   0.453   1.800  0.00  0.00    -0.057 A 
ATOM      3  C3  UNL d   1       1.694   0.496   1.079  0.00  0.00     0.033 A 
ATOM      4  C4  UNL d   1       0.780  -0.548   1.174  0.00  0.00    -0.042 A 
ATOM      5  C5  UNL d   1       1.065  -1.633   1.995  0.00  0.00     0.033 A 
ATOM      6  C6  UNL d   1       2.261  -1.667   2.718  0.00  0.00    -0.057 A 
ENDROOT
BRANCH   1   7
ATOM      7  N   UNL d   1       4.408  -0.765   3.319  0.00  0.00    -0.732 N 
ATOM      8  C   UNL d   1       5.597  -0.091   2.842  0.00  0.00     0.284 C 
ATOM      9  H3  UNL d   1       4.301  -0.752   4.331  0.00  0.00     0.395 HD
ENDBRANCH   1   7
TORSDOF 1
ENDMDL
