MODEL 1
REMARK minimizedAffinity 4.50855255
REMARK minimizedRMSD -1
REMARK  1 active torsions:
REMARK  status: ('A' for Active; 'I' for Inactive)
REMARK    1  A    between atoms: N_2  and  C1_3 
ROOT
ATOM      1  C1  UNL d   1       2.964  -0.190   2.158  0.00  0.00     0.143 A 
ATOM      2  C2  UNL d   1       2.967   0.865   1.239  0.00  0.00    -0.057 A 
ATOM      3  C3  UNL d   1       4.165   1.421   0.775  0.00  0.00     0.033 A 
ATOM      4  C4  UNL d   1       5.386   0.950   1.246  0.00  0.00    -0.042 A 
ATOM      5  C5  UNL d   1       5.407  -0.081   2.179  0.00  0.00     0.033 A 
ATOM      6  C6  UNL d   1       4.207  -0.637   2.634  0.00  0.00    -0.057 A 
ENDROOT
BRANCH   1   7
ATOM      7  N   UNL d   1       1.806  -0.719   2.731  0.00  0.00    -0.732 N 
ATOM      8  C   UNL d   1       1.813  -2.040   3.323  0.00  0.00     0.284 C 
ATOM      9  H3  UNL d   1       1.286  -0.027   3.266  0.00  0.00     0.395 HD
ENDBRANCH   1   7
TORSDOF 1
ENDMDL
