MODEL 1
REMARK minimizedAffinity 2.74410009
REMARK minimizedRMSD -1
REMARK  1 active torsions:
REMARK  status: ('A' for Active; 'I' for Inactive)
REMARK    1  A    between atoms: N_2  and  C1_3 
ROOT
ATOM      1  C1  UNL d   1      -3.412   4.431   6.000  0.00  0.00     0.143 A 
ATOM      2  C2  UNL d   1      -4.557   5.235   5.982  0.00  0.00    -0.057 A 
ATOM      3  C3  UNL d   1      -5.839   4.673   5.996  0.00  0.00     0.033 A 
ATOM      4  C4  UNL d   1      -5.999   3.291   6.000  0.00  0.00    -0.042 A 
ATOM      5  C5  UNL d   1      -4.875   2.472   5.993  0.00  0.00     0.033 A 
ATOM      6  C6  UNL d   1      -3.597   3.040   5.985  0.00  0.00    -0.057 A 
ENDROOT
BRANCH   1   7
ATOM      7  N   UNL d   1      -2.111   4.928   5.887  0.00  0.00    -0.732 N 
ATOM      8  C   UNL d   1      -1.414   4.887   4.619  0.00  0.00     0.284 C 
ATOM      9  H3  UNL d   1      -1.979   5.793   6.406  0.00  0.00     0.395 HD
ENDBRANCH   1   7
TORSDOF 1
ENDMDL
