MODEL 1
REMARK minimizedAffinity 1.88235211
REMARK minimizedRMSD -1
REMARK  1 active torsions:
REMARK  status: ('A' for Active; 'I' for Inactive)
REMARK    1  A    between atoms: N_2  and  C1_3 
ROOT
ATOM      1  C1  UNL d   1      -3.775  -0.690   5.274  0.00  0.00     0.143 A 
ATOM      2  C2  UNL d   1      -4.087  -0.742   3.911  0.00  0.00    -0.057 A 
ATOM      3  C3  UNL d   1      -4.120  -1.959   3.220  0.00  0.00     0.033 A 
ATOM      4  C4  UNL d   1      -3.813  -3.147   3.876  0.00  0.00    -0.042 A 
ATOM      5  C5  UNL d   1      -3.476  -3.116   5.225  0.00  0.00     0.033 A 
ATOM      6  C6  UNL d   1      -3.451  -1.898   5.911  0.00  0.00    -0.057 A 
ENDROOT
BRANCH   1   7
ATOM      7  N   UNL d   1      -3.629   0.499   5.994  0.00  0.00    -0.732 N 
ATOM      8  C   UNL d   1      -4.680   1.494   5.995  0.00  0.00     0.284 C 
ATOM      9  H3  UNL d   1      -3.195   0.352   6.902  0.00  0.00     0.395 HD
ENDBRANCH   1   7
TORSDOF 1
ENDMDL
