MODEL 1
REMARK minimizedAffinity 12.9359369
REMARK minimizedRMSD -1
REMARK  0 active torsions:
REMARK  status: ('A' for Active; 'I' for Inactive)
ROOT
ATOM      1  C1  DEN d   1       0.498  -3.604   3.442  0.00  0.00     0.130 A 
ATOM      2  C2  DEN d   1       0.011  -3.013   2.199  0.00  0.00    -0.031 A 
ATOM      3  C3  DEN d   1       0.347  -1.575   2.215  0.00  0.00     0.027 A 
ATOM      4  C4  DEN d   1       1.572  -0.215   4.031  0.00  0.00     0.027 A 
ATOM      5  C5  DEN d   1       2.166  -0.279   5.272  0.00  0.00    -0.003 A 
ATOM      6  C6  DEN d   1       2.215  -1.439   5.999  0.00  0.00     0.001 A 
ATOM      7  C7  DEN d   1       1.700  -2.593   5.471  0.00  0.00     0.017 A 
ATOM      8  C8  DEN d   1       1.093  -2.535   4.224  0.00  0.00    -0.094 A 
ATOM      9  C9  DEN d   1       1.064  -1.355   3.499  0.00  0.00    -0.072 A 
ENDROOT
TORSDOF 0
ENDMDL
