MODEL 1
REMARK minimizedAffinity 16.1760674
REMARK minimizedRMSD -1
REMARK  0 active torsions:
REMARK  status: ('A' for Active; 'I' for Inactive)
ROOT
ATOM      1  C1  DEN d   1      -2.258   2.481  -0.483  0.00  0.00     0.130 A 
ATOM      2  C2  DEN d   1      -1.792   1.827   0.736  0.00  0.00    -0.031 A 
ATOM      3  C3  DEN d   1      -1.488   0.419   0.411  0.00  0.00     0.027 A 
ATOM      4  C4  DEN d   1      -1.688  -0.803  -1.852  0.00  0.00     0.027 A 
ATOM      5  C5  DEN d   1      -2.049  -0.666  -3.174  0.00  0.00    -0.003 A 
ATOM      6  C6  DEN d   1      -2.534   0.511  -3.680  0.00  0.00     0.001 A 
ATOM      7  C7  DEN d   1      -2.628   1.611  -2.868  0.00  0.00     0.017 A 
ATOM      8  C8  DEN d   1      -2.272   1.478  -1.533  0.00  0.00    -0.094 A 
ATOM      9  C9  DEN d   1      -1.773   0.283  -1.043  0.00  0.00    -0.072 A 
ENDROOT
TORSDOF 0
ENDMDL
