MODEL 1
REMARK minimizedAffinity 25.8382416
REMARK minimizedRMSD -1
REMARK  0 active torsions:
REMARK  status: ('A' for Active; 'I' for Inactive)
ROOT
ATOM      1  C1  DEN d   1      -3.249   3.532  -4.281  0.00  0.00     0.130 A 
ATOM      2  C2  DEN d   1      -4.146   4.274  -3.399  0.00  0.00    -0.031 A 
ATOM      3  C3  DEN d   1      -4.501   3.395  -2.266  0.00  0.00     0.027 A 
ATOM      4  C4  DEN d   1      -3.751   0.973  -1.793  0.00  0.00     0.027 A 
ATOM      5  C5  DEN d   1      -3.000  -0.081  -2.263  0.00  0.00    -0.003 A 
ATOM      6  C6  DEN d   1      -2.313  -0.018  -3.447  0.00  0.00     0.001 A 
ATOM      7  C7  DEN d   1      -2.326   1.140  -4.178  0.00  0.00     0.017 A 
ATOM      8  C8  DEN d   1      -3.087   2.205  -3.714  0.00  0.00    -0.094 A 
ATOM      9  C9  DEN d   1      -3.764   2.126  -2.509  0.00  0.00    -0.072 A 
ENDROOT
TORSDOF 0
ENDMDL
