MODEL 1
REMARK minimizedAffinity 18.528862
REMARK minimizedRMSD -1
REMARK  0 active torsions:
REMARK  status: ('A' for Active; 'I' for Inactive)
ROOT
ATOM      1  C1  DEN d   1      -3.094   0.244  -1.935  0.00  0.00     0.130 A 
ATOM      2  C2  DEN d   1      -2.527  -0.545  -3.026  0.00  0.00    -0.031 A 
ATOM      3  C3  DEN d   1      -2.475   0.310  -4.229  0.00  0.00     0.027 A 
ATOM      4  C4  DEN d   1      -3.208   2.767  -4.507  0.00  0.00     0.027 A 
ATOM      5  C5  DEN d   1      -3.761   3.853  -3.864  0.00  0.00    -0.003 A 
ATOM      6  C6  DEN d   1      -4.158   3.803  -2.555  0.00  0.00     0.001 A 
ATOM      7  C7  DEN d   1      -3.967   2.655  -1.831  0.00  0.00     0.017 A 
ATOM      8  C8  DEN d   1      -3.417   1.554  -2.474  0.00  0.00    -0.094 A 
ATOM      9  C9  DEN d   1      -3.011   1.628  -3.795  0.00  0.00    -0.072 A 
ENDROOT
TORSDOF 0
ENDMDL
