MODEL 1
REMARK minimizedAffinity -2.70073533
REMARK minimizedRMSD -1
REMARK  0 active torsions:
REMARK  status: ('A' for Active; 'I' for Inactive)
ROOT
ATOM      1  C1  DEN d   1      -0.220  -0.504  -0.227  0.00  0.00     0.130 A 
ATOM      2  C2  DEN d   1       0.092   0.881  -0.568  0.00  0.00    -0.031 A 
ATOM      3  C3  DEN d   1       1.176   1.338   0.326  0.00  0.00     0.027 A 
ATOM      4  C4  DEN d   1       2.396   0.040   2.191  0.00  0.00     0.027 A 
ATOM      5  C5  DEN d   1       2.470  -1.163   2.857  0.00  0.00    -0.003 A 
ATOM      6  C6  DEN d   1       1.637  -2.210   2.568  0.00  0.00     0.001 A 
ATOM      7  C7  DEN d   1       0.722  -2.091   1.556  0.00  0.00     0.017 A 
ATOM      8  C8  DEN d   1       0.636  -0.878   0.884  0.00  0.00    -0.094 A 
ATOM      9  C9  DEN d   1       1.496   0.165   1.183  0.00  0.00    -0.072 A 
ENDROOT
TORSDOF 0
ENDMDL
