MODEL 1
REMARK minimizedAffinity 17.9645252
REMARK minimizedRMSD -1
REMARK  0 active torsions:
REMARK  status: ('A' for Active; 'I' for Inactive)
ROOT
ATOM      1  C1  DEN d   1      -2.965   2.293  -1.587  0.00  0.00     0.130 A 
ATOM      2  C2  DEN d   1      -3.213   3.286  -2.629  0.00  0.00    -0.031 A 
ATOM      3  C3  DEN d   1      -2.956   2.650  -3.937  0.00  0.00     0.027 A 
ATOM      4  C4  DEN d   1      -2.208   0.235  -4.447  0.00  0.00     0.027 A 
ATOM      5  C5  DEN d   1      -1.861  -0.974  -3.888  0.00  0.00    -0.003 A 
ATOM      6  C6  DEN d   1      -1.824  -1.168  -2.532  0.00  0.00     0.001 A 
ATOM      7  C7  DEN d   1      -2.185  -0.149  -1.691  0.00  0.00     0.017 A 
ATOM      8  C8  DEN d   1      -2.529   1.076  -2.248  0.00  0.00    -0.094 A 
ATOM      9  C9  DEN d   1      -2.572   1.248  -3.621  0.00  0.00    -0.072 A 
ENDROOT
TORSDOF 0
ENDMDL
