MODEL 1
REMARK minimizedAffinity 15.2815723
REMARK minimizedRMSD -1
REMARK  0 active torsions:
REMARK  status: ('A' for Active; 'I' for Inactive)
ROOT
ATOM      1  C1  DEN d   1      -2.249  -2.256  -2.303  0.00  0.00     0.130 A 
ATOM      2  C2  DEN d   1      -3.385  -2.811  -3.033  0.00  0.00    -0.031 A 
ATOM      3  C3  DEN d   1      -3.928  -1.752  -3.907  0.00  0.00     0.027 A 
ATOM      4  C4  DEN d   1      -3.121   0.680  -4.202  0.00  0.00     0.027 A 
ATOM      5  C5  DEN d   1      -2.199   1.615  -3.787  0.00  0.00    -0.003 A 
ATOM      6  C6  DEN d   1      -1.259   1.338  -2.831  0.00  0.00     0.001 A 
ATOM      7  C7  DEN d   1      -1.190   0.081  -2.290  0.00  0.00     0.017 A 
ATOM      8  C8  DEN d   1      -2.121  -0.865  -2.699  0.00  0.00    -0.094 A 
ATOM      9  C9  DEN d   1      -3.056  -0.569  -3.676  0.00  0.00    -0.072 A 
ENDROOT
TORSDOF 0
ENDMDL
