MODEL 1
REMARK minimizedAffinity 4.34317589
REMARK minimizedRMSD -1
REMARK  0 active torsions:
REMARK  status: ('A' for Active; 'I' for Inactive)
ROOT
ATOM      1  C1  DEN d   1       2.518   0.729   5.688  0.00  0.00     0.130 A 
ATOM      2  C2  DEN d   1       2.471   2.041   5.048  0.00  0.00    -0.031 A 
ATOM      3  C3  DEN d   1       2.221   1.838   3.607  0.00  0.00     0.027 A 
ATOM      4  C4  DEN d   1       1.898  -0.369   2.311  0.00  0.00     0.027 A 
ATOM      5  C5  DEN d   1       1.865  -1.741   2.423  0.00  0.00    -0.003 A 
ATOM      6  C6  DEN d   1       2.079  -2.383   3.614  0.00  0.00     0.001 A 
ATOM      7  C7  DEN d   1       2.291  -1.649   4.751  0.00  0.00     0.017 A 
ATOM      8  C8  DEN d   1       2.333  -0.265   4.646  0.00  0.00    -0.094 A 
ATOM      9  C9  DEN d   1       2.103   0.365   3.435  0.00  0.00    -0.072 A 
ENDROOT
TORSDOF 0
ENDMDL
