MODEL 1
REMARK minimizedAffinity -4.50748539
REMARK minimizedRMSD -1
REMARK  3 active torsions:
REMARK  status: ('A' for Active; 'I' for Inactive)
REMARK    1  A    between atoms: C3'_2  and  C2'_3 
REMARK    2  A    between atoms: C2'_3  and  C1'_4 
REMARK    3  A    between atoms: C1'_4  and  C1_5 
ROOT
ATOM      1  C1  N4B d   1       0.244   0.457   0.310  0.00  0.00    -0.075 A 
ATOM      2  C2  N4B d   1      -1.127   0.647   0.028  0.00  0.00     0.002 A 
ATOM      3  C3  N4B d   1      -1.802   1.704   0.588  0.00  0.00     0.002 A 
ATOM      4  C4  N4B d   1      -1.136   2.568   1.443  0.00  0.00    -0.004 A 
ATOM      5  C5  N4B d   1       0.195   2.392   1.690  0.00  0.00     0.002 A 
ATOM      6  C6  N4B d   1       0.887   1.337   1.131  0.00  0.00     0.002 A 
ENDROOT
BRANCH   1   7
ATOM      7  C1' N4B d   1       1.004  -0.733  -0.210  0.00  0.00     0.057 C 
BRANCH   7   8
ATOM      8  C2' N4B d   1       0.016  -1.753  -0.768  0.00  0.00     0.009 C 
BRANCH   8   9
ATOM      9  C3' N4B d   1       0.680  -3.089  -1.054  0.00  0.00     0.004 C 
ATOM     10  C4' N4B d   1      -0.308  -4.173  -1.369  0.00  0.00     0.003 C 
ENDBRANCH   8   9
ENDBRANCH   7   8
ENDBRANCH   1   7
TORSDOF 3
ENDMDL
