MODEL 1
REMARK minimizedAffinity -1.11730826
REMARK minimizedRMSD -1
REMARK  3 active torsions:
REMARK  status: ('A' for Active; 'I' for Inactive)
REMARK    1  A    between atoms: C3'_2  and  C2'_3 
REMARK    2  A    between atoms: C2'_3  and  C1'_4 
REMARK    3  A    between atoms: C1'_4  and  C1_5 
ROOT
ATOM      1  C1  N4B d   1       0.385   0.404   0.440  0.00  0.00    -0.075 A 
ATOM      2  C2  N4B d   1       0.627   1.207   1.576  0.00  0.00     0.002 A 
ATOM      3  C3  N4B d   1      -0.128   2.333   1.793  0.00  0.00     0.002 A 
ATOM      4  C4  N4B d   1      -1.113   2.685   0.883  0.00  0.00    -0.004 A 
ATOM      5  C5  N4B d   1      -1.358   1.890  -0.198  0.00  0.00     0.002 A 
ATOM      6  C6  N4B d   1      -0.609   0.753  -0.427  0.00  0.00     0.002 A 
ENDROOT
BRANCH   1   7
ATOM      7  C1' N4B d   1       1.241  -0.790   0.114  0.00  0.00     0.057 C 
BRANCH   7   8
ATOM      8  C2' N4B d   1       0.470  -1.721  -0.816  0.00  0.00     0.009 C 
BRANCH   8   9
ATOM      9  C3' N4B d   1       1.045  -3.127  -0.819  0.00  0.00     0.004 C 
ATOM     10  C4' N4B d   1       0.118  -4.132  -1.434  0.00  0.00     0.003 C 
ENDBRANCH   8   9
ENDBRANCH   7   8
ENDBRANCH   1   7
TORSDOF 3
ENDMDL
