MODEL 1
REMARK minimizedAffinity -5.52675629
REMARK minimizedRMSD -1
REMARK  3 active torsions:
REMARK  status: ('A' for Active; 'I' for Inactive)
REMARK    1  A    between atoms: C3'_2  and  C2'_3 
REMARK    2  A    between atoms: C2'_3  and  C1'_4 
REMARK    3  A    between atoms: C1'_4  and  C1_5 
ROOT
ATOM      1  C1  N4B d   1       0.190   0.302  -0.056  0.00  0.00    -0.075 A 
ATOM      2  C2  N4B d   1      -0.519   1.087  -0.991  0.00  0.00     0.002 A 
ATOM      3  C3  N4B d   1      -1.242   2.175  -0.567  0.00  0.00     0.002 A 
ATOM      4  C4  N4B d   1      -1.288   2.483   0.785  0.00  0.00    -0.004 A 
ATOM      5  C5  N4B d   1      -0.580   1.734   1.679  0.00  0.00     0.002 A 
ATOM      6  C6  N4B d   1       0.155   0.641   1.266  0.00  0.00     0.002 A 
ENDROOT
BRANCH   1   7
ATOM      7  C1' N4B d   1       0.925  -0.946  -0.462  0.00  0.00     0.057 C 
BRANCH   7   8
ATOM      8  C2' N4B d   1      -0.036  -1.878  -1.195  0.00  0.00     0.009 C 
BRANCH   8   9
ATOM      9  C3' N4B d   1       0.212  -3.336  -0.850  0.00  0.00     0.004 C 
ATOM     10  C4' N4B d   1      -0.870  -4.244  -1.352  0.00  0.00     0.003 C 
ENDBRANCH   8   9
ENDBRANCH   7   8
ENDBRANCH   1   7
TORSDOF 3
ENDMDL
