MODEL 1
REMARK minimizedAffinity 6.07111073
REMARK minimizedRMSD -1
REMARK  0 active torsions:
REMARK  status: ('A' for Active; 'I' for Inactive)
ROOT
ATOM      1  C   UNL d   1       3.041   2.020  -0.144  0.00  0.00     0.020 A 
ATOM      2  C1  UNL d   1       3.843   2.044  -1.285  0.00  0.00     0.020 A 
ATOM      3  C2  UNL d   1       3.715   1.042  -2.249  0.00  0.00     0.034 A 
ATOM      4  C3  UNL d   1       2.783   0.013  -2.076  0.00  0.00     0.017 A 
ATOM      5  C4  UNL d   1       1.978  -0.011  -0.931  0.00  0.00     0.017 A 
ATOM      6  C5  UNL d   1       2.110   0.995   0.032  0.00  0.00     0.034 A 
ATOM      7 Cl   UNL d   1       0.806  -1.248  -0.647  0.00  0.00    -0.070 Cl
ATOM      8 Cl1  UNL d   1       2.679  -1.193  -3.309  0.00  0.00    -0.070 Cl
ENDROOT
TORSDOF 0
ENDMDL
