MODEL 1
REMARK minimizedAffinity 1.74669063
REMARK minimizedRMSD -1
REMARK  0 active torsions:
REMARK  status: ('A' for Active; 'I' for Inactive)
ROOT
ATOM      1  C   UNL d   1       2.100  -0.234   0.046  0.00  0.00     0.020 A 
ATOM      2  C1  UNL d   1       1.604   0.793  -0.756  0.00  0.00     0.020 A 
ATOM      3  C2  UNL d   1       2.467   1.774  -1.248  0.00  0.00     0.034 A 
ATOM      4  C3  UNL d   1       3.831   1.731  -0.939  0.00  0.00     0.017 A 
ATOM      5  C4  UNL d   1       4.329   0.700  -0.134  0.00  0.00     0.017 A 
ATOM      6  C5  UNL d   1       3.460  -0.280   0.356  0.00  0.00     0.034 A 
ATOM      7 Cl   UNL d   1       6.000   0.580   0.291  0.00  0.00    -0.070 Cl
ATOM      8 Cl1  UNL d   1       4.841   2.977  -1.582  0.00  0.00    -0.070 Cl
ENDROOT
TORSDOF 0
ENDMDL
