MODEL 1
REMARK minimizedAffinity 3.14211106
REMARK minimizedRMSD -1
REMARK  0 active torsions:
REMARK  status: ('A' for Active; 'I' for Inactive)
ROOT
ATOM      1  C   UNL d   1       1.510  -1.624   1.159  0.00  0.00     0.020 A 
ATOM      2  C1  UNL d   1       1.227  -2.630   0.236  0.00  0.00     0.020 A 
ATOM      3  C2  UNL d   1       1.564  -2.459  -1.109  0.00  0.00     0.034 A 
ATOM      4  C3  UNL d   1       2.186  -1.279  -1.534  0.00  0.00     0.017 A 
ATOM      5  C4  UNL d   1       2.469  -0.270  -0.607  0.00  0.00     0.017 A 
ATOM      6  C5  UNL d   1       2.130  -0.447   0.738  0.00  0.00     0.034 A 
ATOM      7 Cl   UNL d   1       3.234   1.213  -1.056  0.00  0.00    -0.070 Cl
ATOM      8 Cl1  UNL d   1       2.575  -1.136  -3.211  0.00  0.00    -0.070 Cl
ENDROOT
TORSDOF 0
ENDMDL
