MODEL 1
REMARK minimizedAffinity 7.63044262
REMARK minimizedRMSD -1
REMARK  0 active torsions:
REMARK  status: ('A' for Active; 'I' for Inactive)
ROOT
ATOM      1  C   UNL d   1       1.773   1.409   0.075  0.00  0.00     0.020 A 
ATOM      2  C1  UNL d   1       2.403   0.329  -0.543  0.00  0.00     0.020 A 
ATOM      3  C2  UNL d   1       3.707   0.463  -1.023  0.00  0.00     0.034 A 
ATOM      4  C3  UNL d   1       4.387   1.679  -0.885  0.00  0.00     0.017 A 
ATOM      5  C4  UNL d   1       3.754   2.762  -0.264  0.00  0.00     0.017 A 
ATOM      6  C5  UNL d   1       2.448   2.622   0.214  0.00  0.00     0.034 A 
ATOM      7 Cl   UNL d   1       4.529   4.293  -0.058  0.00  0.00    -0.070 Cl
ATOM      8 Cl1  UNL d   1       5.998   1.773  -1.502  0.00  0.00    -0.070 Cl
ENDROOT
TORSDOF 0
ENDMDL
