MODEL 1
REMARK minimizedAffinity 6.81998825
REMARK minimizedRMSD -1
REMARK  0 active torsions:
REMARK  status: ('A' for Active; 'I' for Inactive)
ROOT
ATOM      1  C   UNL d   1      -1.725  -2.458  -0.541  0.00  0.00     0.020 A 
ATOM      2  C1  UNL d   1      -1.234  -1.992  -1.759  0.00  0.00     0.020 A 
ATOM      3  C2  UNL d   1      -0.010  -1.322  -1.808  0.00  0.00     0.034 A 
ATOM      4  C3  UNL d   1       0.727  -1.116  -0.636  0.00  0.00     0.017 A 
ATOM      5  C4  UNL d   1       0.233  -1.584   0.587  0.00  0.00     0.017 A 
ATOM      6  C5  UNL d   1      -0.993  -2.254   0.630  0.00  0.00     0.034 A 
ATOM      7 Cl   UNL d   1       1.085  -1.368   2.075  0.00  0.00    -0.070 Cl
ATOM      8 Cl1  UNL d   1       2.233  -0.279  -0.770  0.00  0.00    -0.070 Cl
ENDROOT
TORSDOF 0
ENDMDL
