MODEL 1
REMARK minimizedAffinity 5.05682039
REMARK minimizedRMSD -1
REMARK  0 active torsions:
REMARK  status: ('A' for Active; 'I' for Inactive)
ROOT
ATOM      1  C   UNL d   1      -3.339   5.227  -3.780  0.00  0.00     0.020 A 
ATOM      2  C1  UNL d   1      -4.699   5.458  -3.982  0.00  0.00     0.020 A 
ATOM      3  C2  UNL d   1      -5.485   4.489  -4.609  0.00  0.00     0.034 A 
ATOM      4  C3  UNL d   1      -4.912   3.286  -5.037  0.00  0.00     0.017 A 
ATOM      5  C4  UNL d   1      -3.547   3.056  -4.834  0.00  0.00     0.017 A 
ATOM      6  C5  UNL d   1      -2.764   4.029  -4.205  0.00  0.00     0.034 A 
ATOM      7 Cl   UNL d   1      -2.769   1.596  -5.335  0.00  0.00    -0.070 Cl
ATOM      8 Cl1  UNL d   1      -5.945   2.133  -5.806  0.00  0.00    -0.070 Cl
ENDROOT
TORSDOF 0
ENDMDL
