MODEL 1
REMARK minimizedAffinity 4.92684698
REMARK minimizedRMSD -1
REMARK  0 active torsions:
REMARK  status: ('A' for Active; 'I' for Inactive)
ROOT
ATOM      1  C   UNL d   1       1.972   1.841   0.051  0.00  0.00     0.020 A 
ATOM      2  C1  UNL d   1       3.168   1.606  -0.625  0.00  0.00     0.020 A 
ATOM      3  C2  UNL d   1       3.394   0.370  -1.236  0.00  0.00     0.034 A 
ATOM      4  C3  UNL d   1       2.422  -0.634  -1.172  0.00  0.00     0.017 A 
ATOM      5  C4  UNL d   1       1.221  -0.397  -0.492  0.00  0.00     0.017 A 
ATOM      6  C5  UNL d   1       1.001   0.841   0.118  0.00  0.00     0.034 A 
ATOM      7 Cl   UNL d   1      -0.026  -1.588  -0.370  0.00  0.00    -0.070 Cl
ATOM      8 Cl1  UNL d   1       2.767  -2.138  -1.951  0.00  0.00    -0.070 Cl
ENDROOT
TORSDOF 0
ENDMDL
