MODEL 1
REMARK minimizedAffinity 8.91308594
REMARK minimizedRMSD -1
REMARK  0 active torsions:
REMARK  status: ('A' for Active; 'I' for Inactive)
ROOT
ATOM      1  C   UNL d   1      -2.235   3.182  -3.647  0.00  0.00     0.020 A 
ATOM      2  C1  UNL d   1      -2.233   2.235  -4.670  0.00  0.00     0.020 A 
ATOM      3  C2  UNL d   1      -3.405   1.976  -5.384  0.00  0.00     0.034 A 
ATOM      4  C3  UNL d   1      -4.584   2.665  -5.075  0.00  0.00     0.017 A 
ATOM      5  C4  UNL d   1      -4.584   3.616  -4.048  0.00  0.00     0.017 A 
ATOM      6  C5  UNL d   1      -3.408   3.871  -3.337  0.00  0.00     0.034 A 
ATOM      7 Cl   UNL d   1      -5.999   4.506  -3.609  0.00  0.00    -0.070 Cl
ATOM      8 Cl1  UNL d   1      -5.997   2.295  -5.999  0.00  0.00    -0.070 Cl
ENDROOT
TORSDOF 0
ENDMDL
