MODEL 1
REMARK minimizedAffinity 4.15909672
REMARK minimizedRMSD -1
REMARK  0 active torsions:
REMARK  status: ('A' for Active; 'I' for Inactive)
ROOT
ATOM      1  C   UNL d   1       2.893   2.033  -0.447  0.00  0.00     0.020 A 
ATOM      2  C1  UNL d   1       3.791   1.861  -1.499  0.00  0.00     0.020 A 
ATOM      3  C2  UNL d   1       3.852   0.639  -2.172  0.00  0.00     0.034 A 
ATOM      4  C3  UNL d   1       3.014  -0.416  -1.793  0.00  0.00     0.017 A 
ATOM      5  C4  UNL d   1       2.113  -0.242  -0.736  0.00  0.00     0.017 A 
ATOM      6  C5  UNL d   1       2.055   0.984  -0.066  0.00  0.00     0.034 A 
ATOM      7 Cl   UNL d   1       1.046  -1.497  -0.212  0.00  0.00    -0.070 Cl
ATOM      8 Cl1  UNL d   1       3.143  -1.900  -2.669  0.00  0.00    -0.070 Cl
ENDROOT
TORSDOF 0
ENDMDL
