MODEL 1
REMARK minimizedAffinity -2.06309462
REMARK minimizedRMSD -1
REMARK  1 active torsions:
REMARK  status: ('A' for Active; 'I' for Inactive)
REMARK    1  A    between atoms: C1_2  and  C2_3 
ROOT
ATOM      1  C2  UNL d   1      -0.073  -0.388  -0.577  0.00  0.00    -0.073 A 
ATOM      2  C3  UNL d   1       1.113  -0.636   0.124  0.00  0.00    -0.002 A 
ATOM      3  C4  UNL d   1       1.209  -0.323   1.480  0.00  0.00     0.004 A 
ATOM      4  C5  UNL d   1       0.119   0.232   2.152  0.00  0.00    -0.004 A 
ATOM      5  C6  UNL d   1      -1.078   0.476   1.472  0.00  0.00    -0.075 A 
ATOM      6  C7  UNL d   1      -2.258   1.075   2.179  0.00  0.00     0.076 C 
ATOM      7  C8  UNL d   1      -1.166   0.162   0.109  0.00  0.00     0.001 A 
ENDROOT
BRANCH   1   8
ATOM      8  C1  UNL d   1      -0.183  -0.729  -2.040  0.00  0.00     0.053 C 
ATOM      9  C   UNL d   1       0.677   0.180  -2.904  0.00  0.00     0.018 C 
ENDBRANCH   1   8
TORSDOF 1
ENDMDL
