MODEL 1
REMARK minimizedAffinity -2.13873768
REMARK minimizedRMSD -1
REMARK  1 active torsions:
REMARK  status: ('A' for Active; 'I' for Inactive)
REMARK    1  A    between atoms: C1_2  and  C2_3 
ROOT
ATOM      1  C2  UNL d   1      -0.184   0.463  -1.223  0.00  0.00    -0.073 A 
ATOM      2  C3  UNL d   1      -0.880   1.648  -1.489  0.00  0.00    -0.002 A 
ATOM      3  C4  UNL d   1      -1.720   2.204  -0.524  0.00  0.00     0.004 A 
ATOM      4  C5  UNL d   1      -1.868   1.587   0.718  0.00  0.00    -0.004 A 
ATOM      5  C6  UNL d   1      -1.172   0.409   1.007  0.00  0.00    -0.075 A 
ATOM      6  C7  UNL d   1      -1.322  -0.269   2.338  0.00  0.00     0.076 C 
ATOM      7  C8  UNL d   1      -0.332  -0.146   0.032  0.00  0.00     0.001 A 
ENDROOT
BRANCH   1   8
ATOM      8  C1  UNL d   1       0.729  -0.138  -2.259  0.00  0.00     0.053 C 
ATOM      9  C   UNL d   1       1.221   0.899  -3.256  0.00  0.00     0.018 C 
ENDBRANCH   1   8
TORSDOF 1
ENDMDL
