MODEL 1
REMARK minimizedAffinity -2.05043387
REMARK minimizedRMSD -1
REMARK  1 active torsions:
REMARK  status: ('A' for Active; 'I' for Inactive)
REMARK    1  A    between atoms: C1_2  and  C2_3 
ROOT
ATOM      1  C2  UNL d   1       0.189   0.789  -1.659  0.00  0.00    -0.073 A 
ATOM      2  C3  UNL d   1       0.879  -0.424  -1.550  0.00  0.00    -0.002 A 
ATOM      3  C4  UNL d   1       0.650  -1.269  -0.463  0.00  0.00     0.004 A 
ATOM      4  C5  UNL d   1      -0.273  -0.915   0.520  0.00  0.00    -0.004 A 
ATOM      5  C6  UNL d   1      -0.981   0.287   0.423  0.00  0.00    -0.075 A 
ATOM      6  C7  UNL d   1      -1.976   0.684   1.473  0.00  0.00     0.076 C 
ATOM      7  C8  UNL d   1      -0.744   1.132  -0.670  0.00  0.00     0.001 A 
ENDROOT
BRANCH   1   8
ATOM      8  C1  UNL d   1       0.428   1.702  -2.833  0.00  0.00     0.053 C 
ATOM      9  C   UNL d   1       1.613   1.253  -3.673  0.00  0.00     0.018 C 
ENDBRANCH   1   8
TORSDOF 1
ENDMDL
