MODEL 1
REMARK minimizedAffinity 0.0952752903
REMARK minimizedRMSD -1
REMARK  1 active torsions:
REMARK  status: ('A' for Active; 'I' for Inactive)
REMARK    1  A    between atoms: C1_2  and  C2_3 
ROOT
ATOM      1  C2  UNL d   1      -0.001  -0.246  -1.207  0.00  0.00    -0.073 A 
ATOM      2  C3  UNL d   1      -1.260   0.252  -0.851  0.00  0.00    -0.002 A 
ATOM      3  C4  UNL d   1      -1.563   0.512   0.486  0.00  0.00     0.004 A 
ATOM      4  C5  UNL d   1      -0.610   0.284   1.479  0.00  0.00    -0.004 A 
ATOM      5  C6  UNL d   1       0.658  -0.202   1.142  0.00  0.00    -0.075 A 
ATOM      6  C7  UNL d   1       1.693  -0.454   2.198  0.00  0.00     0.076 C 
ATOM      7  C8  UNL d   1       0.953  -0.463  -0.203  0.00  0.00     0.001 A 
ENDROOT
BRANCH   1   8
ATOM      8  C1  UNL d   1       0.333  -0.522  -2.650  0.00  0.00     0.053 C 
ATOM      9  C   UNL d   1       0.815   0.726  -3.372  0.00  0.00     0.018 C 
ENDBRANCH   1   8
TORSDOF 1
ENDMDL
