MODEL 1
REMARK minimizedAffinity -3.51106358
REMARK minimizedRMSD -1
REMARK  1 active torsions:
REMARK  status: ('A' for Active; 'I' for Inactive)
REMARK    1  A    between atoms: C1_2  and  C2_3 
ROOT
ATOM      1  C2  UNL d   1       0.469  -0.595  -1.161  0.00  0.00    -0.073 A 
ATOM      2  C3  UNL d   1       1.506  -1.164  -0.413  0.00  0.00    -0.002 A 
ATOM      3  C4  UNL d   1       1.504  -1.069   0.979  0.00  0.00     0.004 A 
ATOM      4  C5  UNL d   1       0.465  -0.411   1.637  0.00  0.00    -0.004 A 
ATOM      5  C6  UNL d   1      -0.586   0.153   0.907  0.00  0.00    -0.075 A 
ATOM      6  C7  UNL d   1      -1.711   0.866   1.600  0.00  0.00     0.076 C 
ATOM      7  C8  UNL d   1      -0.577   0.056  -0.491  0.00  0.00     0.001 A 
ENDROOT
BRANCH   1   8
ATOM      8  C1  UNL d   1       0.463  -0.701  -2.664  0.00  0.00     0.053 C 
ATOM      9  C   UNL d   1       1.343   0.355  -3.314  0.00  0.00     0.018 C 
ENDBRANCH   1   8
TORSDOF 1
ENDMDL
