MODEL 1
REMARK minimizedAffinity -2.52025819
REMARK minimizedRMSD -1
REMARK  1 active torsions:
REMARK  status: ('A' for Active; 'I' for Inactive)
REMARK    1  A    between atoms: C1_2  and  C2_3 
ROOT
ATOM      1  C2  UNL d   1      -1.122   0.678   0.736  0.00  0.00    -0.073 A 
ATOM      2  C3  UNL d   1      -1.243   1.539   1.833  0.00  0.00    -0.002 A 
ATOM      3  C4  UNL d   1      -0.194   1.673   2.743  0.00  0.00     0.004 A 
ATOM      4  C5  UNL d   1       0.988   0.954   2.563  0.00  0.00    -0.004 A 
ATOM      5  C6  UNL d   1       1.132   0.098   1.466  0.00  0.00    -0.075 A 
ATOM      6  C7  UNL d   1       2.396  -0.684   1.259  0.00  0.00     0.076 C 
ATOM      7  C8  UNL d   1       0.073  -0.034   0.558  0.00  0.00     0.001 A 
ENDROOT
BRANCH   1   8
ATOM      8  C1  UNL d   1      -2.250   0.535  -0.253  0.00  0.00     0.053 C 
ATOM      9  C   UNL d   1      -2.508  -0.919  -0.617  0.00  0.00     0.018 C 
ENDBRANCH   1   8
TORSDOF 1
ENDMDL
