MODEL 1
REMARK minimizedAffinity 4.83522511
REMARK minimizedRMSD -1
REMARK  1 active torsions:
REMARK  status: ('A' for Active; 'I' for Inactive)
REMARK    1  A    between atoms: C1_2  and  C2_3 
ROOT
ATOM      1  C2  UNL d   1      -3.197   1.501   0.963  0.00  0.00    -0.073 A 
ATOM      2  C3  UNL d   1      -2.503   2.695   1.188  0.00  0.00    -0.002 A 
ATOM      3  C4  UNL d   1      -1.334   2.698   1.951  0.00  0.00     0.004 A 
ATOM      4  C5  UNL d   1      -0.844   1.509   2.489  0.00  0.00    -0.004 A 
ATOM      5  C6  UNL d   1      -1.516   0.303   2.265  0.00  0.00    -0.075 A 
ATOM      6  C7  UNL d   1      -1.003  -0.985   2.839  0.00  0.00     0.076 C 
ATOM      7  C8  UNL d   1      -2.691   0.308   1.501  0.00  0.00     0.001 A 
ENDROOT
BRANCH   1   8
ATOM      8  C1  UNL d   1      -4.455   1.491   0.135  0.00  0.00     0.053 C 
ATOM      9  C   UNL d   1      -4.429   0.407  -0.931  0.00  0.00     0.018 C 
ENDBRANCH   1   8
TORSDOF 1
ENDMDL
