MODEL 1
REMARK minimizedAffinity 5.49002552
REMARK minimizedRMSD -1
REMARK  1 active torsions:
REMARK  status: ('A' for Active; 'I' for Inactive)
REMARK    1  A    between atoms: N_2  and  C1_3 
ROOT
ATOM      1  C1  UNL d   1      -5.073  -3.903   0.599  0.00  0.00     0.143 A 
ATOM      2  C2  UNL d   1      -5.884  -3.286  -0.360  0.00  0.00    -0.057 A 
ATOM      3  C3  UNL d   1      -5.993  -1.892  -0.431  0.00  0.00     0.033 A 
ATOM      4  C4  UNL d   1      -5.314  -1.088   0.479  0.00  0.00    -0.042 A 
ATOM      5  C5  UNL d   1      -4.522  -1.680   1.456  0.00  0.00     0.033 A 
ATOM      6  C6  UNL d   1      -4.412  -3.072   1.518  0.00  0.00    -0.057 A 
ENDROOT
BRANCH   1   7
ATOM      7  N   UNL d   1      -5.000  -5.285   0.784  0.00  0.00    -0.732 N 
ATOM      8  C   UNL d   1      -3.718  -5.947   0.901  0.00  0.00     0.284 C 
ATOM      9  H3  UNL d   1      -5.706  -5.629   1.431  0.00  0.00     0.395 HD
ENDBRANCH   1   7
TORSDOF 1
ENDMDL
