MODEL 1
REMARK minimizedAffinity -3.05065918
REMARK minimizedRMSD -1
REMARK  1 active torsions:
REMARK  status: ('A' for Active; 'I' for Inactive)
REMARK    1  A    between atoms: N_2  and  C1_3 
ROOT
ATOM      1  C1  UNL d   1      -4.710  -4.182   1.281  0.00  0.00     0.143 A 
ATOM      2  C2  UNL d   1      -4.157  -3.872   0.034  0.00  0.00    -0.057 A 
ATOM      3  C3  UNL d   1      -4.495  -2.691  -0.637  0.00  0.00     0.033 A 
ATOM      4  C4  UNL d   1      -5.418  -1.810  -0.084  0.00  0.00    -0.042 A 
ATOM      5  C5  UNL d   1      -6.000  -2.109   1.143  0.00  0.00     0.033 A 
ATOM      6  C6  UNL d   1      -5.653  -3.287   1.811  0.00  0.00    -0.057 A 
ENDROOT
BRANCH   1   7
ATOM      7  N   UNL d   1      -4.489  -5.387   1.952  0.00  0.00    -0.732 N 
ATOM      8  C   UNL d   1      -5.542  -6.000   2.733  0.00  0.00     0.284 C 
ATOM      9  H3  UNL d   1      -3.945  -6.045   1.399  0.00  0.00     0.395 HD
ENDBRANCH   1   7
TORSDOF 1
ENDMDL
