MODEL 1
REMARK minimizedAffinity 0.609221876
REMARK minimizedRMSD -1
REMARK  1 active torsions:
REMARK  status: ('A' for Active; 'I' for Inactive)
REMARK    1  A    between atoms: N_2  and  C1_3 
ROOT
ATOM      1  C1  UNL d   1      -3.687   0.770   3.663  0.00  0.00     0.143 A 
ATOM      2  C2  UNL d   1      -3.879   1.941   2.923  0.00  0.00    -0.057 A 
ATOM      3  C3  UNL d   1      -3.061   2.252   1.830  0.00  0.00     0.033 A 
ATOM      4  C4  UNL d   1      -2.014   1.407   1.475  0.00  0.00    -0.042 A 
ATOM      5  C5  UNL d   1      -1.789   0.250   2.212  0.00  0.00     0.033 A 
ATOM      6  C6  UNL d   1      -2.614  -0.058   3.298  0.00  0.00    -0.057 A 
ENDROOT
BRANCH   1   7
ATOM      7  N   UNL d   1      -4.405   0.454   4.820  0.00  0.00    -0.732 N 
ATOM      8  C   UNL d   1      -3.991  -0.643   5.667  0.00  0.00     0.284 C 
ATOM      9  H3  UNL d   1      -4.705   1.283   5.329  0.00  0.00     0.395 HD
ENDBRANCH   1   7
TORSDOF 1
ENDMDL
