MODEL 1
REMARK minimizedAffinity 0.629733324
REMARK minimizedRMSD -1
REMARK  1 active torsions:
REMARK  status: ('A' for Active; 'I' for Inactive)
REMARK    1  A    between atoms: N_2  and  C1_3 
ROOT
ATOM      1  C1  UNL d   1      -3.212  -2.542  -5.705  0.00  0.00     0.143 A 
ATOM      2  C2  UNL d   1      -4.018  -1.486  -5.267  0.00  0.00    -0.057 A 
ATOM      3  C3  UNL d   1      -5.397  -1.652  -5.085  0.00  0.00     0.033 A 
ATOM      4  C4  UNL d   1      -5.999  -2.874  -5.367  0.00  0.00    -0.042 A 
ATOM      5  C5  UNL d   1      -5.221  -3.930  -5.827  0.00  0.00     0.033 A 
ATOM      6  C6  UNL d   1      -3.844  -3.760  -6.000  0.00  0.00    -0.057 A 
ENDROOT
BRANCH   1   7
ATOM      7  N   UNL d   1      -1.853  -2.412  -5.999  0.00  0.00    -0.732 N 
ATOM      8  C   UNL d   1      -1.141  -1.195  -5.674  0.00  0.00     0.284 C 
ATOM      9  H3  UNL d   1      -1.330  -3.263  -5.805  0.00  0.00     0.395 HD
ENDBRANCH   1   7
TORSDOF 1
ENDMDL
