MODEL 1
REMARK minimizedAffinity 8.83215714
REMARK minimizedRMSD -1
REMARK  1 active torsions:
REMARK  status: ('A' for Active; 'I' for Inactive)
REMARK    1  A    between atoms: N_2  and  C1_3 
ROOT
ATOM      1  C1  UNL d   1       4.310   4.455  -4.936  0.00  0.00     0.143 A 
ATOM      2  C2  UNL d   1       3.406   4.363  -6.000  0.00  0.00    -0.057 A 
ATOM      3  C3  UNL d   1       2.209   5.090  -6.000  0.00  0.00     0.033 A 
ATOM      4  C4  UNL d   1       1.881   5.902  -4.919  0.00  0.00    -0.042 A 
ATOM      5  C5  UNL d   1       2.753   5.989  -3.840  0.00  0.00     0.033 A 
ATOM      6  C6  UNL d   1       3.950   5.266  -3.848  0.00  0.00    -0.057 A 
ENDROOT
BRANCH   1   7
ATOM      7  N   UNL d   1       5.470   3.683  -4.832  0.00  0.00    -0.732 N 
ATOM      8  C   UNL d   1       5.722   2.602  -5.761  0.00  0.00     0.284 C 
ATOM      9  H3  UNL d   1       6.291   4.243  -4.612  0.00  0.00     0.395 HD
ENDBRANCH   1   7
TORSDOF 1
ENDMDL
