MODEL 1
REMARK minimizedAffinity 6.57640505
REMARK minimizedRMSD -1
REMARK  1 active torsions:
REMARK  status: ('A' for Active; 'I' for Inactive)
REMARK    1  A    between atoms: N_2  and  C1_3 
ROOT
ATOM      1  C1  UNL d   1       2.830   4.602  -3.206  0.00  0.00     0.143 A 
ATOM      2  C2  UNL d   1       4.087   4.351  -3.765  0.00  0.00    -0.057 A 
ATOM      3  C3  UNL d   1       4.299   4.437  -5.146  0.00  0.00     0.033 A 
ATOM      4  C4  UNL d   1       3.245   4.750  -5.999  0.00  0.00    -0.042 A 
ATOM      5  C5  UNL d   1       1.981   4.979  -5.468  0.00  0.00     0.033 A 
ATOM      6  C6  UNL d   1       1.778   4.897  -4.087  0.00  0.00    -0.057 A 
ENDROOT
BRANCH   1   7
ATOM      7  N   UNL d   1       2.533   4.435  -1.851  0.00  0.00    -0.732 N 
ATOM      8  C   UNL d   1       2.252   3.121  -1.314  0.00  0.00     0.284 C 
ATOM      9  H3  UNL d   1       3.117   5.014  -1.252  0.00  0.00     0.395 HD
ENDBRANCH   1   7
TORSDOF 1
ENDMDL
