MODEL 1
REMARK minimizedAffinity 5.16445112
REMARK minimizedRMSD -1
REMARK  1 active torsions:
REMARK  status: ('A' for Active; 'I' for Inactive)
REMARK    1  A    between atoms: N_2  and  C1_3 
ROOT
ATOM      1  C1  UNL d   1      -4.780  -2.958  -5.339  0.00  0.00     0.143 A 
ATOM      2  C2  UNL d   1      -3.703  -2.126  -5.666  0.00  0.00    -0.057 A 
ATOM      3  C3  UNL d   1      -3.525  -0.889  -5.035  0.00  0.00     0.033 A 
ATOM      4  C4  UNL d   1      -4.440  -0.447  -4.085  0.00  0.00    -0.042 A 
ATOM      5  C5  UNL d   1      -5.531  -1.247  -3.762  0.00  0.00     0.033 A 
ATOM      6  C6  UNL d   1      -5.700  -2.484  -4.390  0.00  0.00    -0.057 A 
ENDROOT
BRANCH   1   7
ATOM      7  N   UNL d   1      -5.066  -4.155  -6.000  0.00  0.00    -0.732 N 
ATOM      8  C   UNL d   1      -4.113  -5.244  -6.000  0.00  0.00     0.284 C 
ATOM      9  H3  UNL d   1      -6.032  -4.448  -5.872  0.00  0.00     0.395 HD
ENDBRANCH   1   7
TORSDOF 1
ENDMDL
