MODEL 1
REMARK minimizedAffinity 6.53268719
REMARK minimizedRMSD -1
REMARK  1 active torsions:
REMARK  status: ('A' for Active; 'I' for Inactive)
REMARK    1  A    between atoms: N_2  and  C1_3 
ROOT
ATOM      1  C1  UNL d   1      -0.348  -2.117  -5.520  0.00  0.00     0.143 A 
ATOM      2  C2  UNL d   1      -0.581  -0.814  -5.973  0.00  0.00    -0.057 A 
ATOM      3  C3  UNL d   1       0.059   0.284  -5.385  0.00  0.00     0.033 A 
ATOM      4  C4  UNL d   1       0.924   0.100  -4.312  0.00  0.00    -0.042 A 
ATOM      5  C5  UNL d   1       1.151  -1.184  -3.829  0.00  0.00     0.033 A 
ATOM      6  C6  UNL d   1       0.514  -2.277  -4.424  0.00  0.00    -0.057 A 
ENDROOT
BRANCH   1   7
ATOM      7  N   UNL d   1      -1.029  -3.240  -5.997  0.00  0.00    -0.732 N 
ATOM      8  C   UNL d   1      -2.475  -3.285  -5.987  0.00  0.00     0.284 C 
ATOM      9  H3  UNL d   1      -0.608  -3.619  -6.842  0.00  0.00     0.395 HD
ENDBRANCH   1   7
TORSDOF 1
ENDMDL
