MODEL 1
REMARK minimizedAffinity 6.44280148
REMARK minimizedRMSD -1
REMARK  1 active torsions:
REMARK  status: ('A' for Active; 'I' for Inactive)
REMARK    1  A    between atoms: N_2  and  C1_3 
ROOT
ATOM      1  C1  UNL d   1      -0.252  -2.224  -5.244  0.00  0.00     0.143 A 
ATOM      2  C2  UNL d   1       0.932  -2.240  -4.499  0.00  0.00    -0.057 A 
ATOM      3  C3  UNL d   1       1.561  -1.051  -4.111  0.00  0.00     0.033 A 
ATOM      4  C4  UNL d   1       1.031   0.179  -4.487  0.00  0.00    -0.042 A 
ATOM      5  C5  UNL d   1      -0.131   0.218  -5.249  0.00  0.00     0.033 A 
ATOM      6  C6  UNL d   1      -0.758  -0.972  -5.628  0.00  0.00    -0.057 A 
ENDROOT
BRANCH   1   7
ATOM      7  N   UNL d   1      -0.872  -3.372  -5.745  0.00  0.00    -0.732 N 
ATOM      8  C   UNL d   1      -2.296  -3.389  -5.999  0.00  0.00     0.284 C 
ATOM      9  H3  UNL d   1      -0.316  -3.832  -6.461  0.00  0.00     0.395 HD
ENDBRANCH   1   7
TORSDOF 1
ENDMDL
