MODEL 1
REMARK minimizedAffinity 7.28132296
REMARK minimizedRMSD -1
REMARK  1 active torsions:
REMARK  status: ('A' for Active; 'I' for Inactive)
REMARK    1  A    between atoms: N_2  and  C1_3 
ROOT
ATOM      1  C1  UNL d   1       3.732   0.765   2.092  0.00  0.00     0.143 A 
ATOM      2  C2  UNL d   1       3.157   1.917   1.545  0.00  0.00    -0.057 A 
ATOM      3  C3  UNL d   1       1.898   2.367   1.961  0.00  0.00     0.033 A 
ATOM      4  C4  UNL d   1       1.177   1.654   2.913  0.00  0.00    -0.042 A 
ATOM      5  C5  UNL d   1       1.719   0.492   3.452  0.00  0.00     0.033 A 
ATOM      6  C6  UNL d   1       2.980   0.052   3.038  0.00  0.00    -0.057 A 
ENDROOT
BRANCH   1   7
ATOM      7  N   UNL d   1       4.937   0.213   1.649  0.00  0.00    -0.732 N 
ATOM      8  C   UNL d   1       5.999   1.061   1.154  0.00  0.00     0.284 C 
ATOM      9  H3  UNL d   1       5.256  -0.549   2.243  0.00  0.00     0.395 HD
ENDBRANCH   1   7
TORSDOF 1
ENDMDL
