MODEL 1
REMARK minimizedAffinity 8.51306248
REMARK minimizedRMSD -1
REMARK  1 active torsions:
REMARK  status: ('A' for Active; 'I' for Inactive)
REMARK    1  A    between atoms: N_2  and  C1_3 
ROOT
ATOM      1  C1  UNL d   1      -3.421  -3.681  -6.000  0.00  0.00     0.143 A 
ATOM      2  C2  UNL d   1      -3.235  -2.295  -5.974  0.00  0.00    -0.057 A 
ATOM      3  C3  UNL d   1      -1.952  -1.734  -5.987  0.00  0.00     0.033 A 
ATOM      4  C4  UNL d   1      -0.828  -2.553  -5.997  0.00  0.00    -0.042 A 
ATOM      5  C5  UNL d   1      -0.989  -3.934  -5.998  0.00  0.00     0.033 A 
ATOM      6  C6  UNL d   1      -2.273  -4.488  -5.992  0.00  0.00    -0.057 A 
ENDROOT
BRANCH   1   7
ATOM      7  N   UNL d   1      -4.668  -4.300  -5.889  0.00  0.00    -0.732 N 
ATOM      8  C   UNL d   1      -5.460  -4.153  -4.686  0.00  0.00     0.284 C 
ATOM      9  H3  UNL d   1      -5.207  -4.247  -6.750  0.00  0.00     0.395 HD
ENDBRANCH   1   7
TORSDOF 1
ENDMDL
