MODEL 1
REMARK minimizedAffinity 8.20487595
REMARK minimizedRMSD -1
REMARK  1 active torsions:
REMARK  status: ('A' for Active; 'I' for Inactive)
REMARK    1  A    between atoms: N_2  and  C1_3 
ROOT
ATOM      1  C1  UNL d   1       4.115   2.520  -6.000  0.00  0.00     0.143 A 
ATOM      2  C2  UNL d   1       3.150   3.533  -5.997  0.00  0.00    -0.057 A 
ATOM      3  C3  UNL d   1       3.513   4.881  -5.894  0.00  0.00     0.033 A 
ATOM      4  C4  UNL d   1       4.850   5.240  -5.763  0.00  0.00    -0.042 A 
ATOM      5  C5  UNL d   1       5.825   4.248  -5.738  0.00  0.00     0.033 A 
ATOM      6  C6  UNL d   1       5.456   2.904  -5.847  0.00  0.00    -0.057 A 
ENDROOT
BRANCH   1   7
ATOM      7  N   UNL d   1       3.811   1.156  -6.000  0.00  0.00    -0.732 N 
ATOM      8  C   UNL d   1       3.004   0.581  -4.945  0.00  0.00     0.284 C 
ATOM      9  H3  UNL d   1       3.590   0.808  -6.930  0.00  0.00     0.395 HD
ENDBRANCH   1   7
TORSDOF 1
ENDMDL
