MODEL 1
REMARK minimizedAffinity -0.408709228
REMARK minimizedRMSD -1
REMARK  1 active torsions:
REMARK  status: ('A' for Active; 'I' for Inactive)
REMARK    1  A    between atoms: N_2  and  C1_3 
ROOT
ATOM      1  C1  UNL d   1      -2.447   1.617   4.294  0.00  0.00     0.143 A 
ATOM      2  C2  UNL d   1      -2.522   0.964   3.059  0.00  0.00    -0.057 A 
ATOM      3  C3  UNL d   1      -1.514   1.111   2.098  0.00  0.00     0.033 A 
ATOM      4  C4  UNL d   1      -0.424   1.938   2.345  0.00  0.00    -0.042 A 
ATOM      5  C5  UNL d   1      -0.341   2.617   3.556  0.00  0.00     0.033 A 
ATOM      6  C6  UNL d   1      -1.348   2.461   4.514  0.00  0.00    -0.057 A 
ENDROOT
BRANCH   1   7
ATOM      7  N   UNL d   1      -3.465   1.589   5.251  0.00  0.00    -0.732 N 
ATOM      8  C   UNL d   1      -3.740   0.382   5.999  0.00  0.00     0.284 C 
ATOM      9  H3  UNL d   1      -3.497   2.440   5.808  0.00  0.00     0.395 HD
ENDBRANCH   1   7
TORSDOF 1
ENDMDL
