MODEL 1
REMARK minimizedAffinity -5.60141039
REMARK minimizedRMSD -1
REMARK  0 active torsions:
REMARK  status: ('A' for Active; 'I' for Inactive)
ROOT
ATOM      1  C   UNL d   1      -3.382  -0.627   1.036  0.00  0.00     0.020 A 
ATOM      2  C1  UNL d   1      -2.323  -1.152   1.776  0.00  0.00     0.020 A 
ATOM      3  C2  UNL d   1      -1.038  -1.186   1.230  0.00  0.00     0.034 A 
ATOM      4  C3  UNL d   1      -0.809  -0.694  -0.061  0.00  0.00     0.017 A 
ATOM      5  C4  UNL d   1      -1.873  -0.168  -0.803  0.00  0.00     0.017 A 
ATOM      6  C5  UNL d   1      -3.157  -0.137  -0.251  0.00  0.00     0.034 A 
ATOM      7 Cl   UNL d   1      -1.669   0.456  -2.402  0.00  0.00    -0.070 Cl
ATOM      8 Cl1  UNL d   1       0.804  -0.767  -0.674  0.00  0.00    -0.070 Cl
ENDROOT
TORSDOF 0
ENDMDL
