MODEL 1
REMARK minimizedAffinity -3.19436407
REMARK minimizedRMSD -1
REMARK  0 active torsions:
REMARK  status: ('A' for Active; 'I' for Inactive)
ROOT
ATOM      1  C   UNL d   1      -2.179   0.062  -1.489  0.00  0.00     0.020 A 
ATOM      2  C1  UNL d   1      -0.897   0.603  -1.569  0.00  0.00     0.020 A 
ATOM      3  C2  UNL d   1       0.055   0.291  -0.596  0.00  0.00     0.034 A 
ATOM      4  C3  UNL d   1      -0.275  -0.565   0.461  0.00  0.00     0.017 A 
ATOM      5  C4  UNL d   1      -1.562  -1.108   0.541  0.00  0.00     0.017 A 
ATOM      6  C5  UNL d   1      -2.511  -0.792  -0.436  0.00  0.00     0.034 A 
ATOM      7 Cl   UNL d   1      -2.043  -2.171   1.816  0.00  0.00    -0.070 Cl
ATOM      8 Cl1  UNL d   1       0.952  -0.908   1.629  0.00  0.00    -0.070 Cl
ENDROOT
TORSDOF 0
ENDMDL
