MODEL 1
REMARK minimizedAffinity 2.59582496
REMARK minimizedRMSD -1
REMARK  0 active torsions:
REMARK  status: ('A' for Active; 'I' for Inactive)
ROOT
ATOM      1  C   UNL d   1      -2.245  -1.217  -1.298  0.00  0.00     0.020 A 
ATOM      2  C1  UNL d   1      -2.006  -0.017  -1.966  0.00  0.00     0.020 A 
ATOM      3  C2  UNL d   1      -1.002   0.844  -1.518  0.00  0.00     0.034 A 
ATOM      4  C3  UNL d   1      -0.233   0.505  -0.398  0.00  0.00     0.017 A 
ATOM      5  C4  UNL d   1      -0.474  -0.700   0.271  0.00  0.00     0.017 A 
ATOM      6  C5  UNL d   1      -1.480  -1.558  -0.182  0.00  0.00     0.034 A 
ATOM      7 Cl   UNL d   1       0.434  -1.186   1.660  0.00  0.00    -0.070 Cl
ATOM      8 Cl1  UNL d   1       0.992   1.617   0.100  0.00  0.00    -0.070 Cl
ENDROOT
TORSDOF 0
ENDMDL
