MODEL 1
REMARK minimizedAffinity 1.88775539
REMARK minimizedRMSD -1
REMARK  0 active torsions:
REMARK  status: ('A' for Active; 'I' for Inactive)
ROOT
ATOM      1  C   UNL d   1       0.739  -0.289  -0.296  0.00  0.00     0.020 A 
ATOM      2  C1  UNL d   1       0.267  -0.870   0.880  0.00  0.00     0.020 A 
ATOM      3  C2  UNL d   1       0.480  -0.237   2.106  0.00  0.00     0.034 A 
ATOM      4  C3  UNL d   1       1.166   0.982   2.159  0.00  0.00     0.017 A 
ATOM      5  C4  UNL d   1       1.639   1.565   0.978  0.00  0.00     0.017 A 
ATOM      6  C5  UNL d   1       1.424   0.926  -0.247  0.00  0.00     0.034 A 
ATOM      7 Cl   UNL d   1       2.495   3.067   0.963  0.00  0.00    -0.070 Cl
ATOM      8 Cl1  UNL d   1       1.393   1.709   3.710  0.00  0.00    -0.070 Cl
ENDROOT
TORSDOF 0
ENDMDL
