MODEL 1
REMARK minimizedAffinity -1.52847147
REMARK minimizedRMSD -1
REMARK  0 active torsions:
REMARK  status: ('A' for Active; 'I' for Inactive)
ROOT
ATOM      1  C   UNL d   1      -0.852   1.135  -1.331  0.00  0.00     0.020 A 
ATOM      2  C1  UNL d   1      -0.938  -0.227  -1.617  0.00  0.00     0.020 A 
ATOM      3  C2  UNL d   1      -0.341  -1.158  -0.764  0.00  0.00     0.034 A 
ATOM      4  C3  UNL d   1       0.346  -0.728   0.377  0.00  0.00     0.017 A 
ATOM      5  C4  UNL d   1       0.432   0.639   0.663  0.00  0.00     0.017 A 
ATOM      6  C5  UNL d   1      -0.168   1.567  -0.194  0.00  0.00     0.034 A 
ATOM      7 Cl   UNL d   1       1.261   1.245   2.053  0.00  0.00    -0.070 Cl
ATOM      8 Cl1  UNL d   1       1.060  -1.935   1.387  0.00  0.00    -0.070 Cl
ENDROOT
TORSDOF 0
ENDMDL
