MODEL 1
REMARK minimizedAffinity 1.33099484
REMARK minimizedRMSD -1
REMARK  0 active torsions:
REMARK  status: ('A' for Active; 'I' for Inactive)
ROOT
ATOM      1  C   UNL d   1      -1.175   0.553  -2.198  0.00  0.00     0.020 A 
ATOM      2  C1  UNL d   1      -1.784  -0.588  -1.678  0.00  0.00     0.020 A 
ATOM      3  C2  UNL d   1      -1.230  -1.232  -0.570  0.00  0.00     0.034 A 
ATOM      4  C3  UNL d   1      -0.062  -0.736   0.021  0.00  0.00     0.017 A 
ATOM      5  C4  UNL d   1       0.548   0.410  -0.501  0.00  0.00     0.017 A 
ATOM      6  C5  UNL d   1      -0.011   1.051  -1.610  0.00  0.00     0.034 A 
ATOM      7 Cl   UNL d   1       1.990   1.081   0.175  0.00  0.00    -0.070 Cl
ATOM      8 Cl1  UNL d   1       0.568  -1.583   1.389  0.00  0.00    -0.070 Cl
ENDROOT
TORSDOF 0
ENDMDL
