MODEL 1
REMARK minimizedAffinity 0.4299137
REMARK minimizedRMSD -1
REMARK  0 active torsions:
REMARK  status: ('A' for Active; 'I' for Inactive)
ROOT
ATOM      1  C   UNL d   1       0.338   1.224  -1.275  0.00  0.00     0.020 A 
ATOM      2  C1  UNL d   1       1.189   0.862  -0.231  0.00  0.00     0.020 A 
ATOM      3  C2  UNL d   1       0.886  -0.245   0.565  0.00  0.00     0.034 A 
ATOM      4  C3  UNL d   1      -0.270  -0.994   0.318  0.00  0.00     0.017 A 
ATOM      5  C4  UNL d   1      -1.123  -0.630  -0.730  0.00  0.00     0.017 A 
ATOM      6  C5  UNL d   1      -0.815   0.479  -1.524  0.00  0.00     0.034 A 
ATOM      7 Cl   UNL d   1      -2.568  -1.506  -1.095  0.00  0.00    -0.070 Cl
ATOM      8 Cl1  UNL d   1      -0.582  -2.351   1.342  0.00  0.00    -0.070 Cl
ENDROOT
TORSDOF 0
ENDMDL
