MODEL 1
REMARK minimizedAffinity -2.9814918
REMARK minimizedRMSD -1
REMARK  0 active torsions:
REMARK  status: ('A' for Active; 'I' for Inactive)
ROOT
ATOM      1  C   UNL d   1      -4.485   6.000   2.311  0.00  0.00     0.020 A 
ATOM      2  C1  UNL d   1      -5.614   5.189   2.199  0.00  0.00     0.020 A 
ATOM      3  C2  UNL d   1      -6.000   4.378   3.267  0.00  0.00     0.034 A 
ATOM      4  C3  UNL d   1      -5.257   4.374   4.453  0.00  0.00     0.017 A 
ATOM      5  C4  UNL d   1      -4.124   5.188   4.565  0.00  0.00     0.017 A 
ATOM      6  C5  UNL d   1      -3.741   5.999   3.492  0.00  0.00     0.034 A 
ATOM      7 Cl   UNL d   1      -3.156   5.238   5.997  0.00  0.00    -0.070 Cl
ATOM      8 Cl1  UNL d   1      -5.792   3.346   5.734  0.00  0.00    -0.070 Cl
ENDROOT
TORSDOF 0
ENDMDL
