MODEL 1
REMARK minimizedAffinity 5.57199669
REMARK minimizedRMSD -1
REMARK  0 active torsions:
REMARK  status: ('A' for Active; 'I' for Inactive)
ROOT
ATOM      1  C   UNL d   1       0.666  -1.696   1.443  0.00  0.00     0.020 A 
ATOM      2  C1  UNL d   1      -0.160  -1.642   2.565  0.00  0.00     0.020 A 
ATOM      3  C2  UNL d   1      -1.536  -1.460   2.411  0.00  0.00     0.034 A 
ATOM      4  C3  UNL d   1      -2.090  -1.333   1.132  0.00  0.00     0.017 A 
ATOM      5  C4  UNL d   1      -1.260  -1.388   0.007  0.00  0.00     0.017 A 
ATOM      6  C5  UNL d   1       0.117  -1.570   0.167  0.00  0.00     0.034 A 
ATOM      7 Cl   UNL d   1      -1.871  -1.239  -1.603  0.00  0.00    -0.070 Cl
ATOM      8 Cl1  UNL d   1      -3.800  -1.111   1.016  0.00  0.00    -0.070 Cl
ENDROOT
TORSDOF 0
ENDMDL
