MODEL 1
REMARK minimizedAffinity 2.18334556
REMARK minimizedRMSD -1
REMARK  0 active torsions:
REMARK  status: ('A' for Active; 'I' for Inactive)
ROOT
ATOM      1  C   UNL d   1      -0.072  -1.569   1.553  0.00  0.00     0.020 A 
ATOM      2  C1  UNL d   1       1.096  -1.308   0.837  0.00  0.00     0.020 A 
ATOM      3  C2  UNL d   1       1.653  -0.027   0.854  0.00  0.00     0.034 A 
ATOM      4  C3  UNL d   1       1.043   0.997   1.587  0.00  0.00     0.017 A 
ATOM      5  C4  UNL d   1      -0.129   0.733   2.305  0.00  0.00     0.017 A 
ATOM      6  C5  UNL d   1      -0.683  -0.550   2.286  0.00  0.00     0.034 A 
ATOM      7 Cl   UNL d   1      -0.940   1.946   3.234  0.00  0.00    -0.070 Cl
ATOM      8 Cl1  UNL d   1       1.787   2.556   1.563  0.00  0.00    -0.070 Cl
ENDROOT
TORSDOF 0
ENDMDL
