MODEL 1
REMARK minimizedAffinity 3.35966444
REMARK minimizedRMSD -1
REMARK  0 active torsions:
REMARK  status: ('A' for Active; 'I' for Inactive)
ROOT
ATOM      1  C   UNL d   1      -0.762  -0.378  -1.784  0.00  0.00     0.020 A 
ATOM      2  C1  UNL d   1      -2.037  -0.677  -1.307  0.00  0.00     0.020 A 
ATOM      3  C2  UNL d   1      -2.201  -1.157  -0.006  0.00  0.00     0.034 A 
ATOM      4  C3  UNL d   1      -1.087  -1.339   0.823  0.00  0.00     0.017 A 
ATOM      5  C4  UNL d   1       0.192  -1.038   0.342  0.00  0.00     0.017 A 
ATOM      6  C5  UNL d   1       0.351  -0.558  -0.961  0.00  0.00     0.034 A 
ATOM      7 Cl   UNL d   1       1.614  -1.237   1.305  0.00  0.00    -0.070 Cl
ATOM      8 Cl1  UNL d   1      -1.364  -1.935   2.421  0.00  0.00    -0.070 Cl
ENDROOT
TORSDOF 0
ENDMDL
