MODEL 1
REMARK minimizedAffinity 2.61396456
REMARK minimizedRMSD -1
REMARK  0 active torsions:
REMARK  status: ('A' for Active; 'I' for Inactive)
ROOT
ATOM      1  C   UNL d   1      -0.025  -1.671   1.973  0.00  0.00     0.020 A 
ATOM      2  C1  UNL d   1       1.369  -1.635   1.971  0.00  0.00     0.020 A 
ATOM      3  C2  UNL d   1       2.037  -0.433   2.212  0.00  0.00     0.034 A 
ATOM      4  C3  UNL d   1       1.311   0.738   2.458  0.00  0.00     0.017 A 
ATOM      5  C4  UNL d   1      -0.088   0.701   2.460  0.00  0.00     0.017 A 
ATOM      6  C5  UNL d   1      -0.752  -0.506   2.218  0.00  0.00     0.034 A 
ATOM      7 Cl   UNL d   1      -1.052   2.105   2.755  0.00  0.00    -0.070 Cl
ATOM      8 Cl1  UNL d   1       2.202   2.190   2.750  0.00  0.00    -0.070 Cl
ENDROOT
TORSDOF 0
ENDMDL
