MODEL 1
REMARK minimizedAffinity 2.51238012
REMARK minimizedRMSD -1
REMARK  0 active torsions:
REMARK  status: ('A' for Active; 'I' for Inactive)
ROOT
ATOM      1  C   UNL d   1      -3.599  -1.674   0.452  0.00  0.00     0.020 A 
ATOM      2  C1  UNL d   1      -4.426  -0.626   0.049  0.00  0.00     0.020 A 
ATOM      3  C2  UNL d   1      -3.940   0.352  -0.821  0.00  0.00     0.034 A 
ATOM      4  C3  UNL d   1      -2.623   0.284  -1.292  0.00  0.00     0.017 A 
ATOM      5  C4  UNL d   1      -1.794  -0.768  -0.887  0.00  0.00     0.017 A 
ATOM      6  C5  UNL d   1      -2.286  -1.745  -0.015  0.00  0.00     0.034 A 
ATOM      7 Cl   UNL d   1      -0.159  -0.919  -1.425  0.00  0.00    -0.070 Cl
ATOM      8 Cl1  UNL d   1      -2.089   1.528  -2.366  0.00  0.00    -0.070 Cl
ENDROOT
TORSDOF 0
ENDMDL
