MODEL 1
REMARK minimizedAffinity 2.99273396
REMARK minimizedRMSD -1
REMARK  0 active torsions:
REMARK  status: ('A' for Active; 'I' for Inactive)
ROOT
ATOM      1  C   UNL d   1       3.013   3.045   2.039  0.00  0.00     0.020 A 
ATOM      2  C1  UNL d   1       4.318   2.669   2.353  0.00  0.00     0.020 A 
ATOM      3  C2  UNL d   1       5.178   2.223   1.347  0.00  0.00     0.034 A 
ATOM      4  C3  UNL d   1       4.733   2.151   0.022  0.00  0.00     0.017 A 
ATOM      5  C4  UNL d   1       3.423   2.529  -0.293  0.00  0.00     0.017 A 
ATOM      6  C5  UNL d   1       2.567   2.975   0.719  0.00  0.00     0.034 A 
ATOM      7 Cl   UNL d   1       2.803   2.468  -1.905  0.00  0.00    -0.070 Cl
ATOM      8 Cl1  UNL d   1       5.850   1.590  -1.171  0.00  0.00    -0.070 Cl
ENDROOT
TORSDOF 0
ENDMDL
