MODEL 1
REMARK minimizedAffinity 8.35008335
REMARK minimizedRMSD -1
REMARK  0 active torsions:
REMARK  status: ('A' for Active; 'I' for Inactive)
ROOT
ATOM      1  C   UNL d   1       0.026  -1.103   2.089  0.00  0.00     0.020 A 
ATOM      2  C1  UNL d   1       1.299  -1.030   1.523  0.00  0.00     0.020 A 
ATOM      3  C2  UNL d   1       1.443  -0.936   0.138  0.00  0.00     0.034 A 
ATOM      4  C3  UNL d   1       0.312  -0.915  -0.688  0.00  0.00     0.017 A 
ATOM      5  C4  UNL d   1      -0.965  -0.989  -0.119  0.00  0.00     0.017 A 
ATOM      6  C5  UNL d   1      -1.103  -1.083   1.269  0.00  0.00     0.034 A 
ATOM      7 Cl   UNL d   1      -2.406  -0.969  -1.073  0.00  0.00    -0.070 Cl
ATOM      8 Cl1  UNL d   1       0.565  -0.797  -2.393  0.00  0.00    -0.070 Cl
ENDROOT
TORSDOF 0
ENDMDL
