MODEL 1
REMARK minimizedAffinity 6.94085169
REMARK minimizedRMSD -1
REMARK  0 active torsions:
REMARK  status: ('A' for Active; 'I' for Inactive)
ROOT
ATOM      1  C   UNL d   1      -3.788  -0.742  -0.007  0.00  0.00     0.020 A 
ATOM      2  C1  UNL d   1      -2.938   0.319   0.303  0.00  0.00     0.020 A 
ATOM      3  C2  UNL d   1      -1.819   0.572  -0.493  0.00  0.00     0.034 A 
ATOM      4  C3  UNL d   1      -1.547  -0.237  -1.603  0.00  0.00     0.017 A 
ATOM      5  C4  UNL d   1      -2.400  -1.301  -1.913  0.00  0.00     0.017 A 
ATOM      6  C5  UNL d   1      -3.520  -1.551  -1.113  0.00  0.00     0.034 A 
ATOM      7 Cl   UNL d   1      -2.130  -2.343  -3.265  0.00  0.00    -0.070 Cl
ATOM      8 Cl1  UNL d   1      -0.145   0.135  -2.543  0.00  0.00    -0.070 Cl
ENDROOT
TORSDOF 0
ENDMDL
