MODEL 1
REMARK minimizedAffinity 3.41214943
REMARK minimizedRMSD -1
REMARK  0 active torsions:
REMARK  status: ('A' for Active; 'I' for Inactive)
ROOT
ATOM      1  C   UNL d   1      -2.724   0.046  -1.663  0.00  0.00     0.020 A 
ATOM      2  C1  UNL d   1      -1.457  -0.536  -1.638  0.00  0.00     0.020 A 
ATOM      3  C2  UNL d   1      -0.430  -0.005  -2.422  0.00  0.00     0.034 A 
ATOM      4  C3  UNL d   1      -0.667   1.111  -3.233  0.00  0.00     0.017 A 
ATOM      5  C4  UNL d   1      -1.939   1.694  -3.256  0.00  0.00     0.017 A 
ATOM      6  C5  UNL d   1      -2.964   1.159  -2.470  0.00  0.00     0.034 A 
ATOM      7 Cl   UNL d   1      -2.309   3.073  -4.231  0.00  0.00    -0.070 Cl
ATOM      8 Cl1  UNL d   1       0.649   1.714  -4.175  0.00  0.00    -0.070 Cl
ENDROOT
TORSDOF 0
ENDMDL
