MODEL 1
REMARK minimizedAffinity 5.04229355
REMARK minimizedRMSD -1
REMARK  0 active torsions:
REMARK  status: ('A' for Active; 'I' for Inactive)
ROOT
ATOM      1  C   UNL d   1      -2.407  -1.014  -0.527  0.00  0.00     0.020 A 
ATOM      2  C1  UNL d   1      -3.158   0.112  -0.862  0.00  0.00     0.020 A 
ATOM      3  C2  UNL d   1      -2.643   1.054  -1.755  0.00  0.00     0.034 A 
ATOM      4  C3  UNL d   1      -1.373   0.872  -2.315  0.00  0.00     0.017 A 
ATOM      5  C4  UNL d   1      -0.620  -0.259  -1.978  0.00  0.00     0.017 A 
ATOM      6  C5  UNL d   1      -1.141  -1.199  -1.083  0.00  0.00     0.034 A 
ATOM      7 Cl   UNL d   1       0.954  -0.552  -2.628  0.00  0.00    -0.070 Cl
ATOM      8 Cl1  UNL d   1      -0.798   2.077  -3.412  0.00  0.00    -0.070 Cl
ENDROOT
TORSDOF 0
ENDMDL
