MODEL 1
REMARK minimizedAffinity 0.521518111
REMARK minimizedRMSD -1
REMARK  0 active torsions:
REMARK  status: ('A' for Active; 'I' for Inactive)
ROOT
ATOM      1  C   UNL d   1       5.527   4.577  -3.527  0.00  0.00     0.020 A 
ATOM      2  C1  UNL d   1       4.405   5.195  -2.976  0.00  0.00     0.020 A 
ATOM      3  C2  UNL d   1       3.756   4.618  -1.882  0.00  0.00     0.034 A 
ATOM      4  C3  UNL d   1       4.228   3.419  -1.336  0.00  0.00     0.017 A 
ATOM      5  C4  UNL d   1       5.354   2.799  -1.890  0.00  0.00     0.017 A 
ATOM      6  C5  UNL d   1       6.000   3.381  -2.985  0.00  0.00     0.034 A 
ATOM      7 Cl   UNL d   1       5.994   1.318  -1.271  0.00  0.00    -0.070 Cl
ATOM      8 Cl1  UNL d   1       3.376   2.762   0.016  0.00  0.00    -0.070 Cl
ENDROOT
TORSDOF 0
ENDMDL
