MODEL 1
REMARK minimizedAffinity 6.47289324
REMARK minimizedRMSD -1
REMARK  0 active torsions:
REMARK  status: ('A' for Active; 'I' for Inactive)
ROOT
ATOM      1  C   UNL d   1      -1.435   1.329  -3.082  0.00  0.00     0.020 A 
ATOM      2  C1  UNL d   1      -0.551   0.273  -2.864  0.00  0.00     0.020 A 
ATOM      3  C2  UNL d   1      -0.849  -0.703  -1.912  0.00  0.00     0.034 A 
ATOM      4  C3  UNL d   1      -2.036  -0.626  -1.173  0.00  0.00     0.017 A 
ATOM      5  C4  UNL d   1      -2.923   0.434  -1.392  0.00  0.00     0.017 A 
ATOM      6  C5  UNL d   1      -2.619   1.409  -2.347  0.00  0.00     0.034 A 
ATOM      7 Cl   UNL d   1      -4.406   0.596  -0.519  0.00  0.00    -0.070 Cl
ATOM      8 Cl1  UNL d   1      -2.341  -1.869  -0.012  0.00  0.00    -0.070 Cl
ENDROOT
TORSDOF 0
ENDMDL
