MODEL 1
REMARK minimizedAffinity -5.22483301
REMARK minimizedRMSD -1
REMARK  0 active torsions:
REMARK  status: ('A' for Active; 'I' for Inactive)
ROOT
ATOM      1  C   UNL d   1      -0.421  -0.807   2.893  0.00  0.00     0.078 C 
ATOM      2  C1  UNL d   1      -0.184  -0.240   1.525  0.00  0.00    -0.077 A 
ATOM      3  C2  UNL d   1      -1.208  -0.208   0.571  0.00  0.00    -0.001 A 
ATOM      4  C3  UNL d   1      -0.970   0.314  -0.702  0.00  0.00     0.003 A 
ATOM      5  C4  UNL d   1       0.291   0.806  -1.032  0.00  0.00    -0.005 A 
ATOM      6  C5  UNL d   1       1.317   0.776  -0.090  0.00  0.00     0.003 A 
ATOM      7  C6  UNL d   1       1.081   0.254   1.183  0.00  0.00    -0.001 A 
ENDROOT
TORSDOF 0
ENDMDL
