MODEL 1
REMARK minimizedAffinity -4.36302662
REMARK minimizedRMSD -1
REMARK  0 active torsions:
REMARK  status: ('A' for Active; 'I' for Inactive)
ROOT
ATOM      1  C   UNL d   1      -1.176  -0.684   3.392  0.00  0.00     0.078 C 
ATOM      2  C1  UNL d   1      -0.648  -0.461   2.007  0.00  0.00    -0.077 A 
ATOM      3  C2  UNL d   1      -1.462  -0.657   0.884  0.00  0.00    -0.001 A 
ATOM      4  C3  UNL d   1      -0.954  -0.455  -0.400  0.00  0.00     0.003 A 
ATOM      5  C4  UNL d   1       0.370  -0.056  -0.574  0.00  0.00    -0.005 A 
ATOM      6  C5  UNL d   1       1.188   0.139   0.537  0.00  0.00     0.003 A 
ATOM      7  C6  UNL d   1       0.682  -0.062   1.822  0.00  0.00    -0.001 A 
ENDROOT
TORSDOF 0
ENDMDL
