MODEL 1
REMARK minimizedAffinity -2.60028863
REMARK minimizedRMSD -1
REMARK  0 active torsions:
REMARK  status: ('A' for Active; 'I' for Inactive)
ROOT
ATOM      1  C   UNL d   1      -0.329  -0.062  -1.356  0.00  0.00     0.078 C 
ATOM      2  C1  UNL d   1       0.094   0.048   0.078  0.00  0.00    -0.077 A 
ATOM      3  C2  UNL d   1      -0.819  -0.168   1.118  0.00  0.00    -0.001 A 
ATOM      4  C3  UNL d   1      -0.414  -0.053   2.448  0.00  0.00     0.003 A 
ATOM      5  C4  UNL d   1       0.905   0.281   2.752  0.00  0.00    -0.005 A 
ATOM      6  C5  UNL d   1       1.820   0.500   1.724  0.00  0.00     0.003 A 
ATOM      7  C6  UNL d   1       1.417   0.385   0.393  0.00  0.00    -0.001 A 
ENDROOT
TORSDOF 0
ENDMDL
