MODEL 1
REMARK minimizedAffinity -3.13948178
REMARK minimizedRMSD -1
REMARK  0 active torsions:
REMARK  status: ('A' for Active; 'I' for Inactive)
ROOT
ATOM      1  C   UNL d   1      -0.254  -0.104   3.205  0.00  0.00     0.078 C 
ATOM      2  C1  UNL d   1      -0.075  -0.383   1.743  0.00  0.00    -0.077 A 
ATOM      3  C2  UNL d   1      -0.745   0.377   0.776  0.00  0.00    -0.001 A 
ATOM      4  C3  UNL d   1      -0.576   0.100  -0.581  0.00  0.00     0.003 A 
ATOM      5  C4  UNL d   1       0.262  -0.937  -0.985  0.00  0.00    -0.005 A 
ATOM      6  C5  UNL d   1       0.932  -1.699  -0.030  0.00  0.00     0.003 A 
ATOM      7  C6  UNL d   1       0.764  -1.424   1.328  0.00  0.00    -0.001 A 
ENDROOT
TORSDOF 0
ENDMDL
