MODEL 1
REMARK minimizedAffinity -3.55313087
REMARK minimizedRMSD -1
REMARK  0 active torsions:
REMARK  status: ('A' for Active; 'I' for Inactive)
ROOT
ATOM      1  C   UNL d   1      -1.166  -0.548   3.383  0.00  0.00     0.078 C 
ATOM      2  C1  UNL d   1      -0.343  -0.314   2.152  0.00  0.00    -0.077 A 
ATOM      3  C2  UNL d   1      -0.930  -0.311   0.881  0.00  0.00    -0.001 A 
ATOM      4  C3  UNL d   1      -0.149  -0.101  -0.257  0.00  0.00     0.003 A 
ATOM      5  C4  UNL d   1       1.223   0.106  -0.136  0.00  0.00    -0.005 A 
ATOM      6  C5  UNL d   1       1.817   0.102   1.125  0.00  0.00     0.003 A 
ATOM      7  C6  UNL d   1       1.038  -0.108   2.264  0.00  0.00    -0.001 A 
ENDROOT
TORSDOF 0
ENDMDL
