MODEL 1
REMARK minimizedAffinity -4.56445551
REMARK minimizedRMSD -1
REMARK  0 active torsions:
REMARK  status: ('A' for Active; 'I' for Inactive)
ROOT
ATOM      1  C   UNL d   1       0.253   0.171  -1.087  0.00  0.00     0.078 C 
ATOM      2  C1  UNL d   1       0.072  -0.090   0.379  0.00  0.00    -0.077 A 
ATOM      3  C2  UNL d   1      -1.078  -0.726   0.862  0.00  0.00    -0.001 A 
ATOM      4  C3  UNL d   1      -1.237  -0.953   2.230  0.00  0.00     0.003 A 
ATOM      5  C4  UNL d   1      -0.251  -0.546   3.126  0.00  0.00    -0.005 A 
ATOM      6  C5  UNL d   1       0.896   0.090   2.655  0.00  0.00     0.003 A 
ATOM      7  C6  UNL d   1       1.057   0.318   1.287  0.00  0.00    -0.001 A 
ENDROOT
TORSDOF 0
ENDMDL
