MODEL 1
REMARK minimizedAffinity -5.40111971
REMARK minimizedRMSD -1
REMARK  0 active torsions:
REMARK  status: ('A' for Active; 'I' for Inactive)
ROOT
ATOM      1  C   UNL d   1      -0.873  -1.114   2.550  0.00  0.00     0.078 C 
ATOM      2  C1  UNL d   1      -0.929  -0.511   1.179  0.00  0.00    -0.077 A 
ATOM      3  C2  UNL d   1       0.240  -0.118   0.515  0.00  0.00    -0.001 A 
ATOM      4  C3  UNL d   1       0.172   0.452  -0.757  0.00  0.00     0.003 A 
ATOM      5  C4  UNL d   1      -1.063   0.634  -1.377  0.00  0.00    -0.005 A 
ATOM      6  C5  UNL d   1      -2.232   0.248  -0.724  0.00  0.00     0.003 A 
ATOM      7  C6  UNL d   1      -2.166  -0.321   0.549  0.00  0.00    -0.001 A 
ENDROOT
TORSDOF 0
ENDMDL
