MODEL 1
REMARK minimizedAffinity -4.90741634
REMARK minimizedRMSD -1
REMARK  0 active torsions:
REMARK  status: ('A' for Active; 'I' for Inactive)
ROOT
ATOM      1  C   UNL d   1       0.067   0.155  -1.247  0.00  0.00     0.078 C 
ATOM      2  C1  UNL d   1      -0.296  -0.078   0.189  0.00  0.00    -0.077 A 
ATOM      3  C2  UNL d   1       0.694  -0.217   1.170  0.00  0.00    -0.001 A 
ATOM      4  C3  UNL d   1       0.343  -0.444   2.501  0.00  0.00     0.003 A 
ATOM      5  C4  UNL d   1      -1.000  -0.535   2.864  0.00  0.00    -0.005 A 
ATOM      6  C5  UNL d   1      -1.992  -0.400   1.895  0.00  0.00     0.003 A 
ATOM      7  C6  UNL d   1      -1.642  -0.174   0.563  0.00  0.00    -0.001 A 
ENDROOT
TORSDOF 0
ENDMDL
