MODEL 1
REMARK minimizedAffinity -2.73200727
REMARK minimizedRMSD -1
REMARK  0 active torsions:
REMARK  status: ('A' for Active; 'I' for Inactive)
ROOT
ATOM      1  C   UNL d   1      -0.618  -1.080   3.356  0.00  0.00     0.078 C 
ATOM      2  C1  UNL d   1      -0.340  -0.286   2.115  0.00  0.00    -0.077 A 
ATOM      3  C2  UNL d   1       0.855   0.430   1.970  0.00  0.00    -0.001 A 
ATOM      4  C3  UNL d   1       1.096   1.174   0.813  0.00  0.00     0.003 A 
ATOM      5  C4  UNL d   1       0.147   1.209  -0.207  0.00  0.00    -0.005 A 
ATOM      6  C5  UNL d   1      -1.045   0.501  -0.070  0.00  0.00     0.003 A 
ATOM      7  C6  UNL d   1      -1.289  -0.242   1.085  0.00  0.00    -0.001 A 
ENDROOT
TORSDOF 0
ENDMDL
