MODEL 1
REMARK minimizedAffinity -4.56873226
REMARK minimizedRMSD -1
REMARK  0 active torsions:
REMARK  status: ('A' for Active; 'I' for Inactive)
ROOT
ATOM      1  C   UNL d   1      -0.610  -1.172   3.124  0.00  0.00     0.078 C 
ATOM      2  C1  UNL d   1      -0.420  -0.518   1.788  0.00  0.00    -0.077 A 
ATOM      3  C2  UNL d   1       0.850  -0.117   1.355  0.00  0.00    -0.001 A 
ATOM      4  C3  UNL d   1       1.011   0.500   0.113  0.00  0.00     0.003 A 
ATOM      5  C4  UNL d   1      -0.094   0.722  -0.705  0.00  0.00    -0.005 A 
ATOM      6  C5  UNL d   1      -1.362   0.329  -0.282  0.00  0.00     0.003 A 
ATOM      7  C6  UNL d   1      -1.525  -0.288   0.959  0.00  0.00    -0.001 A 
ENDROOT
TORSDOF 0
ENDMDL
