MODEL 1
REMARK minimizedAffinity -5.29193687
REMARK minimizedRMSD -1
REMARK  0 active torsions:
REMARK  status: ('A' for Active; 'I' for Inactive)
ROOT
ATOM      1  C   UNL d   1      -0.360  -0.953   2.789  0.00  0.00     0.078 C 
ATOM      2  C1  UNL d   1      -0.059  -0.233   1.509  0.00  0.00    -0.077 A 
ATOM      3  C2  UNL d   1      -0.898  -0.359   0.395  0.00  0.00    -0.001 A 
ATOM      4  C3  UNL d   1      -0.600   0.309  -0.793  0.00  0.00     0.003 A 
ATOM      5  C4  UNL d   1       0.539   1.108  -0.880  0.00  0.00    -0.005 A 
ATOM      6  C5  UNL d   1       1.381   1.238   0.222  0.00  0.00     0.003 A 
ATOM      7  C6  UNL d   1       1.085   0.570   1.412  0.00  0.00    -0.001 A 
ENDROOT
TORSDOF 0
ENDMDL
