MODEL 1
REMARK minimizedAffinity -4.48076439
REMARK minimizedRMSD -1
REMARK  0 active torsions:
REMARK  status: ('A' for Active; 'I' for Inactive)
ROOT
ATOM      1  C   UNL d   1      -0.003   0.349  -1.276  0.00  0.00     0.078 C 
ATOM      2  C1  UNL d   1      -0.127   0.027   0.183  0.00  0.00    -0.077 A 
ATOM      3  C2  UNL d   1      -1.210  -0.716   0.668  0.00  0.00    -0.001 A 
ATOM      4  C3  UNL d   1      -1.318  -1.000   2.030  0.00  0.00     0.003 A 
ATOM      5  C4  UNL d   1      -0.347  -0.543   2.919  0.00  0.00    -0.005 A 
ATOM      6  C5  UNL d   1       0.733   0.199   2.446  0.00  0.00     0.003 A 
ATOM      7  C6  UNL d   1       0.843   0.484   1.084  0.00  0.00    -0.001 A 
ENDROOT
TORSDOF 0
ENDMDL
