MODEL 1
REMARK minimizedAffinity -4.47630262
REMARK minimizedRMSD -1
REMARK  0 active torsions:
REMARK  status: ('A' for Active; 'I' for Inactive)
ROOT
ATOM      1  C   UNL d   1      -0.889  -0.849   3.303  0.00  0.00     0.078 C 
ATOM      2  C1  UNL d   1      -0.319  -0.382   1.997  0.00  0.00    -0.077 A 
ATOM      3  C2  UNL d   1      -0.902  -0.757   0.780  0.00  0.00    -0.001 A 
ATOM      4  C3  UNL d   1      -0.355  -0.323  -0.428  0.00  0.00     0.003 A 
ATOM      5  C4  UNL d   1       0.779   0.486  -0.433  0.00  0.00    -0.005 A 
ATOM      6  C5  UNL d   1       1.368   0.862   0.773  0.00  0.00     0.003 A 
ATOM      7  C6  UNL d   1       0.822   0.430   1.982  0.00  0.00    -0.001 A 
ENDROOT
TORSDOF 0
ENDMDL
