MODEL 1
REMARK minimizedAffinity -3.68827868
REMARK minimizedRMSD -1
REMARK  0 active torsions:
REMARK  status: ('A' for Active; 'I' for Inactive)
ROOT
ATOM      1  C   UNL d   1       0.057  -0.734  -1.910  0.00  0.00     0.078 C 
ATOM      2  C1  UNL d   1       0.079  -0.447  -0.438  0.00  0.00    -0.077 A 
ATOM      3  C2  UNL d   1      -0.769  -1.129   0.443  0.00  0.00    -0.001 A 
ATOM      4  C3  UNL d   1      -0.744  -0.845   1.809  0.00  0.00     0.003 A 
ATOM      5  C4  UNL d   1       0.126   0.123   2.307  0.00  0.00    -0.005 A 
ATOM      6  C5  UNL d   1       0.972   0.809   1.438  0.00  0.00     0.003 A 
ATOM      7  C6  UNL d   1       0.949   0.525   0.071  0.00  0.00    -0.001 A 
ENDROOT
TORSDOF 0
ENDMDL
