MODEL 1
REMARK minimizedAffinity -1.91221952
REMARK minimizedRMSD -1
REMARK  0 active torsions:
REMARK  status: ('A' for Active; 'I' for Inactive)
ROOT
ATOM      1  C   UNL d   1      -0.513   0.223   3.202  0.00  0.00     0.078 C 
ATOM      2  C1  UNL d   1      -0.603   0.175   1.706  0.00  0.00    -0.077 A 
ATOM      3  C2  UNL d   1      -1.798   0.485   1.045  0.00  0.00    -0.001 A 
ATOM      4  C3  UNL d   1      -1.871   0.428  -0.347  0.00  0.00     0.003 A 
ATOM      5  C4  UNL d   1      -0.752   0.058  -1.091  0.00  0.00    -0.005 A 
ATOM      6  C5  UNL d   1       0.441  -0.254  -0.443  0.00  0.00     0.003 A 
ATOM      7  C6  UNL d   1       0.515  -0.197   0.949  0.00  0.00    -0.001 A 
ENDROOT
TORSDOF 0
ENDMDL
