MODEL 1
REMARK minimizedAffinity 1.27565897
REMARK minimizedRMSD -1
REMARK  2 active torsions:
REMARK  status: ('A' for Active; 'I' for Inactive)
REMARK    1  A    between atoms: C1_2  and  C2_3 
REMARK    2  A    between atoms: C2_3  and  C3_4 
ROOT
ATOM      1  C3  UNL d   1       4.851   5.684   3.889  0.00  0.00    -0.075 A 
ATOM      2  C4  UNL d   1       3.532   5.997   3.530  0.00  0.00     0.002 A 
ATOM      3  C5  UNL d   1       2.478   5.728   4.404  0.00  0.00     0.002 A 
ATOM      4  C6  UNL d   1       2.727   5.136   5.639  0.00  0.00    -0.004 A 
ATOM      5  C7  UNL d   1       4.031   4.805   6.000  0.00  0.00     0.002 A 
ATOM      6  C8  UNL d   1       5.089   5.077   5.130  0.00  0.00     0.002 A 
ENDROOT
BRANCH   1   7
ATOM      7  C2  UNL d   1       6.000   5.999   2.961  0.00  0.00     0.056 C 
BRANCH   7   8
ATOM      8  C1  UNL d   1       5.633   5.944   1.474  0.00  0.00     0.007 C 
ATOM      9  C   UNL d   1       4.166   5.618   1.229  0.00  0.00     0.009 C 
ENDBRANCH   7   8
ENDBRANCH   1   7
TORSDOF 2
ENDMDL
