MODEL 1
REMARK minimizedAffinity 4.75246096
REMARK minimizedRMSD -1
REMARK  2 active torsions:
REMARK  status: ('A' for Active; 'I' for Inactive)
REMARK    1  A    between atoms: C1_2  and  C2_3 
REMARK    2  A    between atoms: C2_3  and  C3_4 
ROOT
ATOM      1  C3  UNL d   1       3.142  -2.638   1.176  0.00  0.00    -0.075 A 
ATOM      2  C4  UNL d   1       3.826  -1.650   0.453  0.00  0.00     0.002 A 
ATOM      3  C5  UNL d   1       3.205  -0.440   0.143  0.00  0.00     0.002 A 
ATOM      4  C6  UNL d   1       1.891  -0.207   0.543  0.00  0.00    -0.004 A 
ATOM      5  C7  UNL d   1       1.196  -1.187   1.247  0.00  0.00     0.002 A 
ATOM      6  C8  UNL d   1       1.817  -2.397   1.562  0.00  0.00     0.002 A 
ENDROOT
BRANCH   1   7
ATOM      7  C2  UNL d   1       3.819  -3.938   1.539  0.00  0.00     0.056 C 
BRANCH   7   8
ATOM      8  C1  UNL d   1       5.348  -3.888   1.461  0.00  0.00     0.007 C 
ATOM      9  C   UNL d   1       5.950  -5.073   0.717  0.00  0.00     0.009 C 
ENDBRANCH   7   8
ENDBRANCH   1   7
TORSDOF 2
ENDMDL
