MODEL 1
REMARK minimizedAffinity 1.95664001
REMARK minimizedRMSD -1
REMARK  2 active torsions:
REMARK  status: ('A' for Active; 'I' for Inactive)
REMARK    1  A    between atoms: C1_2  and  C2_3 
REMARK    2  A    between atoms: C2_3  and  C3_4 
ROOT
ATOM      1  C3  UNL d   1       3.286   5.406   4.961  0.00  0.00    -0.075 A 
ATOM      2  C4  UNL d   1       3.715   5.754   3.672  0.00  0.00     0.002 A 
ATOM      3  C5  UNL d   1       5.065   5.998   3.417  0.00  0.00     0.002 A 
ATOM      4  C6  UNL d   1       5.999   5.909   4.447  0.00  0.00    -0.004 A 
ATOM      5  C7  UNL d   1       5.581   5.581   5.735  0.00  0.00     0.002 A 
ATOM      6  C8  UNL d   1       4.232   5.331   5.992  0.00  0.00     0.002 A 
ENDROOT
BRANCH   1   7
ATOM      7  C2  UNL d   1       1.831   5.111   5.237  0.00  0.00     0.056 C 
BRANCH   7   8
ATOM      8  C1  UNL d   1       1.030   4.704   3.996  0.00  0.00     0.007 C 
ATOM      9  C   UNL d   1       1.412   3.332   3.458  0.00  0.00     0.009 C 
ENDBRANCH   7   8
ENDBRANCH   1   7
TORSDOF 2
ENDMDL
