MODEL 1
REMARK minimizedAffinity 9.12616825
REMARK minimizedRMSD -1
REMARK  2 active torsions:
REMARK  status: ('A' for Active; 'I' for Inactive)
REMARK    1  A    between atoms: C1_2  and  C2_3 
REMARK    2  A    between atoms: C2_3  and  C3_4 
ROOT
ATOM      1  C3  UNL d   1      -5.042   2.249  -5.254  0.00  0.00    -0.075 A 
ATOM      2  C4  UNL d   1      -3.691   2.624  -5.233  0.00  0.00     0.002 A 
ATOM      3  C5  UNL d   1      -3.311   3.922  -5.579  0.00  0.00     0.002 A 
ATOM      4  C6  UNL d   1      -4.273   4.855  -5.959  0.00  0.00    -0.004 A 
ATOM      5  C7  UNL d   1      -5.617   4.487  -6.000  0.00  0.00     0.002 A 
ATOM      6  C8  UNL d   1      -6.000   3.191  -5.650  0.00  0.00     0.002 A 
ENDROOT
BRANCH   1   7
ATOM      7  C2  UNL d   1      -5.462   0.855  -4.853  0.00  0.00     0.056 C 
BRANCH   7   8
ATOM      8  C1  UNL d   1      -4.877   0.388  -3.516  0.00  0.00     0.007 C 
ATOM      9  C   UNL d   1      -4.142  -0.943  -3.615  0.00  0.00     0.009 C 
ENDBRANCH   7   8
ENDBRANCH   1   7
TORSDOF 2
ENDMDL
