MODEL 1
REMARK minimizedAffinity 7.83120489
REMARK minimizedRMSD -1
REMARK  2 active torsions:
REMARK  status: ('A' for Active; 'I' for Inactive)
REMARK    1  A    between atoms: C1_2  and  C2_3 
REMARK    2  A    between atoms: C2_3  and  C3_4 
ROOT
ATOM      1  C3  UNL d   1      -4.638   2.196  -4.987  0.00  0.00    -0.075 A 
ATOM      2  C4  UNL d   1      -3.587   3.109  -4.819  0.00  0.00     0.002 A 
ATOM      3  C5  UNL d   1      -3.732   4.437  -5.222  0.00  0.00     0.002 A 
ATOM      4  C6  UNL d   1      -4.922   4.866  -5.805  0.00  0.00    -0.004 A 
ATOM      5  C7  UNL d   1      -5.967   3.963  -5.992  0.00  0.00     0.002 A 
ATOM      6  C8  UNL d   1      -5.826   2.635  -5.586  0.00  0.00     0.002 A 
ENDROOT
BRANCH   1   7
ATOM      7  C2  UNL d   1      -4.498   0.765  -4.527  0.00  0.00     0.056 C 
BRANCH   7   8
ATOM      8  C1  UNL d   1      -3.808   0.611  -3.168  0.00  0.00     0.007 C 
ATOM      9  C   UNL d   1      -3.244  -0.785  -2.935  0.00  0.00     0.009 C 
ENDBRANCH   7   8
ENDBRANCH   1   7
TORSDOF 2
ENDMDL
