MODEL 1
REMARK minimizedAffinity 7.2197876
REMARK minimizedRMSD -1
REMARK  2 active torsions:
REMARK  status: ('A' for Active; 'I' for Inactive)
REMARK    1  A    between atoms: C1_2  and  C2_3 
REMARK    2  A    between atoms: C2_3  and  C3_4 
ROOT
ATOM      1  C3  UNL d   1       3.447   5.822   4.033  0.00  0.00    -0.075 A 
ATOM      2  C4  UNL d   1       4.591   5.901   3.226  0.00  0.00     0.002 A 
ATOM      3  C5  UNL d   1       5.859   5.983   3.802  0.00  0.00     0.002 A 
ATOM      4  C6  UNL d   1       5.999   5.999   5.188  0.00  0.00    -0.004 A 
ATOM      5  C7  UNL d   1       4.868   5.938   5.999  0.00  0.00     0.002 A 
ATOM      6  C8  UNL d   1       3.598   5.851   5.426  0.00  0.00     0.002 A 
ENDROOT
BRANCH   1   7
ATOM      7  C2  UNL d   1       2.074   5.703   3.416  0.00  0.00     0.056 C 
BRANCH   7   8
ATOM      8  C1  UNL d   1       1.312   4.439   3.828  0.00  0.00     0.007 C 
ATOM      9  C   UNL d   1       1.329   3.353   2.760  0.00  0.00     0.009 C 
ENDBRANCH   7   8
ENDBRANCH   1   7
TORSDOF 2
ENDMDL
