MODEL 1
REMARK minimizedAffinity 8.61382103
REMARK minimizedRMSD -1
REMARK  2 active torsions:
REMARK  status: ('A' for Active; 'I' for Inactive)
REMARK    1  A    between atoms: C1_2  and  C2_3 
REMARK    2  A    between atoms: C2_3  and  C3_4 
ROOT
ATOM      1  C3  UNL d   1      -3.584   3.638  -5.443  0.00  0.00    -0.075 A 
ATOM      2  C4  UNL d   1      -2.418   4.195  -5.988  0.00  0.00     0.002 A 
ATOM      3  C5  UNL d   1      -1.876   5.364  -5.456  0.00  0.00     0.002 A 
ATOM      4  C6  UNL d   1      -2.495   5.996  -4.380  0.00  0.00    -0.004 A 
ATOM      5  C7  UNL d   1      -3.663   5.461  -3.841  0.00  0.00     0.002 A 
ATOM      6  C8  UNL d   1      -4.206   4.288  -4.369  0.00  0.00     0.002 A 
ENDROOT
BRANCH   1   7
ATOM      7  C2  UNL d   1      -4.159   2.356  -5.996  0.00  0.00     0.056 C 
BRANCH   7   8
ATOM      8  C1  UNL d   1      -5.658   2.180  -5.731  0.00  0.00     0.007 C 
ATOM      9  C   UNL d   1      -5.983   0.928  -4.926  0.00  0.00     0.009 C 
ENDBRANCH   7   8
ENDBRANCH   1   7
TORSDOF 2
ENDMDL
