MODEL 1
REMARK minimizedAffinity -3.56073523
REMARK minimizedRMSD -1
REMARK  1 active torsions:
REMARK  status: ('A' for Active; 'I' for Inactive)
REMARK    1  A    between atoms: C1_2  and  C2_3 
ROOT
ATOM      1  C2  UNL d   1      -1.106  -0.916  -0.879  0.00  0.00    -0.081 A 
ATOM      2  C3  UNL d   1       0.257  -0.646  -0.704  0.00  0.00     0.006 A 
ATOM      3  C4  UNL d   1       0.690   0.160   0.351  0.00  0.00     0.002 A 
ATOM      4  C5  UNL d   1      -0.231   0.702   1.254  0.00  0.00    -0.080 A 
ATOM      5  C6  UNL d   1       0.223   1.544   2.409  0.00  0.00     0.076 C 
ATOM      6  C7  UNL d   1      -1.594   0.446   1.070  0.00  0.00     0.002 A 
ATOM      7  C8  UNL d   1      -2.027  -0.359   0.014  0.00  0.00     0.006 A 
ENDROOT
BRANCH   1   8
ATOM      8  C1  UNL d   1      -1.570  -1.838  -1.978  0.00  0.00     0.054 C 
ATOM      9  C   UNL d   1      -2.684  -1.204  -2.798  0.00  0.00     0.018 C 
ENDBRANCH   1   8
TORSDOF 1
ENDMDL
