MODEL 1
REMARK minimizedAffinity -4.01199293
REMARK minimizedRMSD -1
REMARK  1 active torsions:
REMARK  status: ('A' for Active; 'I' for Inactive)
REMARK    1  A    between atoms: C1_2  and  C2_3 
ROOT
ATOM      1  C2  UNL d   1       0.156   0.908   1.011  0.00  0.00    -0.081 A 
ATOM      2  C3  UNL d   1       0.871  -0.218   0.585  0.00  0.00     0.006 A 
ATOM      3  C4  UNL d   1       0.355  -1.049  -0.412  0.00  0.00     0.002 A 
ATOM      4  C5  UNL d   1      -0.879  -0.764  -1.006  0.00  0.00    -0.080 A 
ATOM      5  C6  UNL d   1      -1.430  -1.631  -2.098  0.00  0.00     0.076 C 
ATOM      6  C7  UNL d   1      -1.602   0.351  -0.568  0.00  0.00     0.002 A 
ATOM      7  C8  UNL d   1      -1.087   1.182   0.430  0.00  0.00     0.006 A 
ENDROOT
BRANCH   1   8
ATOM      8  C1  UNL d   1       0.739   1.842   2.040  0.00  0.00     0.054 C 
ATOM      9  C   UNL d   1       2.216   2.101   1.779  0.00  0.00     0.018 C 
ENDBRANCH   1   8
TORSDOF 1
ENDMDL
