MODEL 1
REMARK minimizedAffinity -4.49812222
REMARK minimizedRMSD -1
REMARK  1 active torsions:
REMARK  status: ('A' for Active; 'I' for Inactive)
REMARK    1  A    between atoms: C1_2  and  C2_3 
ROOT
ATOM      1  C2  UNL d   1      -0.771  -1.093  -0.455  0.00  0.00    -0.081 A 
ATOM      2  C3  UNL d   1      -1.403  -0.359   0.557  0.00  0.00     0.006 A 
ATOM      3  C4  UNL d   1      -0.703   0.623   1.262  0.00  0.00     0.002 A 
ATOM      4  C5  UNL d   1       0.636   0.893   0.962  0.00  0.00    -0.080 A 
ATOM      5  C6  UNL d   1       1.390   1.965   1.691  0.00  0.00     0.076 C 
ATOM      6  C7  UNL d   1       1.273   0.148  -0.037  0.00  0.00     0.002 A 
ATOM      7  C8  UNL d   1       0.573  -0.835  -0.741  0.00  0.00     0.006 A 
ENDROOT
BRANCH   1   8
ATOM      8  C1  UNL d   1      -1.542  -2.108  -1.261  0.00  0.00     0.054 C 
ATOM      9  C   UNL d   1      -1.632  -1.699  -2.724  0.00  0.00     0.018 C 
ENDBRANCH   1   8
TORSDOF 1
ENDMDL
