MODEL 1
REMARK minimizedAffinity -3.99725437
REMARK minimizedRMSD -1
REMARK  1 active torsions:
REMARK  status: ('A' for Active; 'I' for Inactive)
REMARK    1  A    between atoms: C1_2  and  C2_3 
ROOT
ATOM      1  C2  UNL d   1      -0.984  -1.166  -0.477  0.00  0.00    -0.081 A 
ATOM      2  C3  UNL d   1      -1.165  -0.941   0.893  0.00  0.00     0.006 A 
ATOM      3  C4  UNL d   1      -0.425   0.043   1.553  0.00  0.00     0.002 A 
ATOM      4  C5  UNL d   1       0.501   0.823   0.854  0.00  0.00    -0.080 A 
ATOM      5  C6  UNL d   1       1.279   1.904   1.544  0.00  0.00     0.076 C 
ATOM      6  C7  UNL d   1       0.694   0.588  -0.512  0.00  0.00     0.002 A 
ATOM      7  C8  UNL d   1      -0.044  -0.396  -1.172  0.00  0.00     0.006 A 
ENDROOT
BRANCH   1   8
ATOM      8  C1  UNL d   1      -1.827  -2.182  -1.205  0.00  0.00     0.054 C 
ATOM      9  C   UNL d   1      -2.350  -1.625  -2.522  0.00  0.00     0.018 C 
ENDBRANCH   1   8
TORSDOF 1
ENDMDL
