MODEL 1
REMARK minimizedAffinity -3.82688618
REMARK minimizedRMSD -1
REMARK  1 active torsions:
REMARK  status: ('A' for Active; 'I' for Inactive)
REMARK    1  A    between atoms: C1_2  and  C2_3 
ROOT
ATOM      1  C2  UNL d   1      -1.224  -1.227  -1.494  0.00  0.00    -0.081 A 
ATOM      2  C3  UNL d   1      -1.011   0.148  -1.336  0.00  0.00     0.006 A 
ATOM      3  C4  UNL d   1       0.161   0.619  -0.739  0.00  0.00     0.002 A 
ATOM      4  C5  UNL d   1       1.141  -0.276  -0.296  0.00  0.00    -0.080 A 
ATOM      5  C6  UNL d   1       2.416   0.218   0.319  0.00  0.00     0.076 C 
ATOM      6  C7  UNL d   1       0.920  -1.650  -0.438  0.00  0.00     0.002 A 
ATOM      7  C8  UNL d   1      -0.251  -2.121  -1.035  0.00  0.00     0.006 A 
ENDROOT
BRANCH   1   8
ATOM      8  C1  UNL d   1      -2.457  -1.735  -2.197  0.00  0.00     0.054 C 
ATOM      9  C   UNL d   1      -2.604  -1.112  -3.577  0.00  0.00     0.018 C 
ENDBRANCH   1   8
TORSDOF 1
ENDMDL
