MODEL 1
REMARK minimizedAffinity 0.197426915
REMARK minimizedRMSD -1
REMARK  1 active torsions:
REMARK  status: ('A' for Active; 'I' for Inactive)
REMARK    1  A    between atoms: C1_2  and  C2_3 
ROOT
ATOM      1  C2  UNL d   1      -0.915  -0.944  -0.903  0.00  0.00    -0.081 A 
ATOM      2  C3  UNL d   1      -1.755  -0.698   0.190  0.00  0.00     0.006 A 
ATOM      3  C4  UNL d   1      -1.278  -0.011   1.309  0.00  0.00     0.002 A 
ATOM      4  C5  UNL d   1       0.043   0.448   1.350  0.00  0.00    -0.080 A 
ATOM      5  C6  UNL d   1       0.559   1.213   2.532  0.00  0.00     0.076 C 
ATOM      6  C7  UNL d   1       0.887   0.187   0.265  0.00  0.00     0.002 A 
ATOM      7  C8  UNL d   1       0.411  -0.501  -0.853  0.00  0.00     0.006 A 
ENDROOT
BRANCH   1   8
ATOM      8  C1  UNL d   1      -1.445  -1.628  -2.138  0.00  0.00     0.054 C 
ATOM      9  C   UNL d   1      -2.733  -2.383  -1.842  0.00  0.00     0.018 C 
ENDBRANCH   1   8
TORSDOF 1
ENDMDL
