MODEL 1
REMARK minimizedAffinity -2.68094087
REMARK minimizedRMSD -1
REMARK  1 active torsions:
REMARK  status: ('A' for Active; 'I' for Inactive)
REMARK    1  A    between atoms: C1_2  and  C2_3 
ROOT
ATOM      1  C2  UNL d   1      -0.162  -0.642  -0.235  0.00  0.00    -0.081 A 
ATOM      2  C3  UNL d   1      -0.514   0.319   0.720  0.00  0.00     0.006 A 
ATOM      3  C4  UNL d   1       0.472   1.057   1.379  0.00  0.00     0.002 A 
ATOM      4  C5  UNL d   1       1.825   0.852   1.088  0.00  0.00    -0.080 A 
ATOM      5  C6  UNL d   1       2.892   1.659   1.767  0.00  0.00     0.076 C 
ATOM      6  C7  UNL d   1       2.178  -0.121   0.147  0.00  0.00     0.002 A 
ATOM      7  C8  UNL d   1       1.193  -0.859  -0.512  0.00  0.00     0.006 A 
ENDROOT
BRANCH   1   8
ATOM      8  C1  UNL d   1      -1.225  -1.394  -0.994  0.00  0.00     0.054 C 
ATOM      9  C   UNL d   1      -1.537  -0.720  -2.323  0.00  0.00     0.018 C 
ENDBRANCH   1   8
TORSDOF 1
ENDMDL
