MODEL 1
REMARK minimizedAffinity -2.28502631
REMARK minimizedRMSD -1
REMARK  1 active torsions:
REMARK  status: ('A' for Active; 'I' for Inactive)
REMARK    1  A    between atoms: C1_2  and  C2_3 
ROOT
ATOM      1  C2  UNL d   1      -0.374  -1.079  -0.426  0.00  0.00    -0.081 A 
ATOM      2  C3  UNL d   1      -1.017  -0.734   0.769  0.00  0.00     0.006 A 
ATOM      3  C4  UNL d   1      -0.589   0.369   1.511  0.00  0.00     0.002 A 
ATOM      4  C5  UNL d   1       0.482   1.152   1.067  0.00  0.00    -0.080 A 
ATOM      5  C6  UNL d   1       0.931   2.357   1.838  0.00  0.00     0.076 C 
ATOM      6  C7  UNL d   1       1.135   0.798  -0.119  0.00  0.00     0.002 A 
ATOM      7  C8  UNL d   1       0.709  -0.306  -0.860  0.00  0.00     0.006 A 
ENDROOT
BRANCH   1   8
ATOM      8  C1  UNL d   1      -0.873  -2.230  -1.261  0.00  0.00     0.054 C 
ATOM      9  C   UNL d   1      -2.391  -2.218  -1.368  0.00  0.00     0.018 C 
ENDBRANCH   1   8
TORSDOF 1
ENDMDL
