MODEL 1
REMARK minimizedAffinity -0.94266969
REMARK minimizedRMSD -1
REMARK  1 active torsions:
REMARK  status: ('A' for Active; 'I' for Inactive)
REMARK    1  A    between atoms: C1_2  and  C2_3 
ROOT
ATOM      1  C2  UNL d   1       1.505   0.542   0.353  0.00  0.00    -0.081 A 
ATOM      2  C3  UNL d   1       1.462   1.466   1.405  0.00  0.00     0.006 A 
ATOM      3  C4  UNL d   1       0.272   1.690   2.102  0.00  0.00     0.002 A 
ATOM      4  C5  UNL d   1      -0.891   0.990   1.765  0.00  0.00    -0.080 A 
ATOM      5  C6  UNL d   1      -2.167   1.199   2.525  0.00  0.00     0.076 C 
ATOM      6  C7  UNL d   1      -0.852   0.080   0.703  0.00  0.00     0.002 A 
ATOM      7  C8  UNL d   1       0.336  -0.144   0.005  0.00  0.00     0.006 A 
ENDROOT
BRANCH   1   8
ATOM      8  C1  UNL d   1       2.801   0.251  -0.358  0.00  0.00     0.054 C 
ATOM      9  C   UNL d   1       3.998   0.706   0.464  0.00  0.00     0.018 C 
ENDBRANCH   1   8
TORSDOF 1
ENDMDL
