MODEL 1
REMARK minimizedAffinity -4.09942436
REMARK minimizedRMSD -1
REMARK  1 active torsions:
REMARK  status: ('A' for Active; 'I' for Inactive)
REMARK    1  A    between atoms: N_2  and  C1_3 
ROOT
ATOM      1  C1  UNL d   1       1.365  -0.274   0.651  0.00  0.00     0.143 A 
ATOM      2  C2  UNL d   1       2.751  -0.097   0.597  0.00  0.00    -0.057 A 
ATOM      3  C3  UNL d   1       3.615  -0.889   1.362  0.00  0.00     0.033 A 
ATOM      4  C4  UNL d   1       3.104  -1.857   2.220  0.00  0.00    -0.042 A 
ATOM      5  C5  UNL d   1       1.728  -2.035   2.309  0.00  0.00     0.033 A 
ATOM      6  C6  UNL d   1       0.870  -1.245   1.537  0.00  0.00    -0.057 A 
ENDROOT
BRANCH   1   7
ATOM      7  N   UNL d   1       0.449   0.547  -0.011  0.00  0.00    -0.732 N 
ATOM      8  C   UNL d   1      -0.966   0.243   0.012  0.00  0.00     0.284 C 
ATOM      9  H3  UNL d   1       0.663   1.536   0.099  0.00  0.00     0.395 HD
ENDBRANCH   1   7
TORSDOF 1
ENDMDL
