MODEL 1
REMARK minimizedAffinity -4.17758036
REMARK minimizedRMSD -1
REMARK  1 active torsions:
REMARK  status: ('A' for Active; 'I' for Inactive)
REMARK    1  A    between atoms: N_2  and  C1_3 
ROOT
ATOM      1  C1  UNL d   1      -1.811   0.604  -1.225  0.00  0.00     0.143 A 
ATOM      2  C2  UNL d   1      -2.467   1.837  -1.147  0.00  0.00    -0.057 A 
ATOM      3  C3  UNL d   1      -2.982   2.459  -2.291  0.00  0.00     0.033 A 
ATOM      4  C4  UNL d   1      -2.825   1.870  -3.541  0.00  0.00    -0.042 A 
ATOM      5  C5  UNL d   1      -2.155   0.657  -3.646  0.00  0.00     0.033 A 
ATOM      6  C6  UNL d   1      -1.648   0.037  -2.499  0.00  0.00    -0.057 A 
ENDROOT
BRANCH   1   7
ATOM      7  N   UNL d   1      -1.190  -0.018  -0.139  0.00  0.00    -0.732 N 
ATOM      8  C   UNL d   1       0.250  -0.149  -0.089  0.00  0.00     0.284 C 
ATOM      9  H3  UNL d   1      -1.616   0.238   0.749  0.00  0.00     0.395 HD
ENDBRANCH   1   7
TORSDOF 1
ENDMDL
