MODEL 1
REMARK minimizedAffinity -5.23183537
REMARK minimizedRMSD -1
REMARK  1 active torsions:
REMARK  status: ('A' for Active; 'I' for Inactive)
REMARK    1  A    between atoms: N_2  and  C1_3 
ROOT
ATOM      1  C1  UNL d   1       0.182  -0.089   0.185  0.00  0.00     0.143 A 
ATOM      2  C2  UNL d   1       0.566  -1.278   0.814  0.00  0.00    -0.057 A 
ATOM      3  C3  UNL d   1       1.910  -1.543   1.105  0.00  0.00     0.033 A 
ATOM      4  C4  UNL d   1       2.899  -0.634   0.745  0.00  0.00    -0.042 A 
ATOM      5  C5  UNL d   1       2.542   0.544   0.097  0.00  0.00     0.033 A 
ATOM      6  C6  UNL d   1       1.198   0.806  -0.185  0.00  0.00    -0.057 A 
ENDROOT
BRANCH   1   7
ATOM      7  N   UNL d   1      -1.126   0.189  -0.219  0.00  0.00    -0.732 N 
ATOM      8  C   UNL d   1      -1.612  -0.262  -1.506  0.00  0.00     0.284 C 
ATOM      9  H3  UNL d   1      -1.798   0.085   0.538  0.00  0.00     0.395 HD
ENDBRANCH   1   7
TORSDOF 1
ENDMDL
