MODEL 1
REMARK minimizedAffinity -2.85863662
REMARK minimizedRMSD -1
REMARK  1 active torsions:
REMARK  status: ('A' for Active; 'I' for Inactive)
REMARK    1  A    between atoms: N_2  and  C1_3 
ROOT
ATOM      1  C1  UNL d   1      -0.981   1.326   0.746  0.00  0.00     0.143 A 
ATOM      2  C2  UNL d   1       0.270   1.951   0.775  0.00  0.00    -0.057 A 
ATOM      3  C3  UNL d   1       1.441   1.247   0.466  0.00  0.00     0.033 A 
ATOM      4  C4  UNL d   1       1.383  -0.106   0.151  0.00  0.00    -0.042 A 
ATOM      5  C5  UNL d   1       0.153  -0.754   0.140  0.00  0.00     0.033 A 
ATOM      6  C6  UNL d   1      -1.013  -0.044   0.443  0.00  0.00    -0.057 A 
ENDROOT
BRANCH   1   7
ATOM      7  N   UNL d   1      -2.170   1.946   1.139  0.00  0.00    -0.732 N 
ATOM      8  C   UNL d   1      -2.143   3.182   1.892  0.00  0.00     0.284 C 
ATOM      9  H3  UNL d   1      -2.881   1.919   0.411  0.00  0.00     0.395 HD
ENDBRANCH   1   7
TORSDOF 1
ENDMDL
