MODEL 1
REMARK minimizedAffinity 3.63670015
REMARK minimizedRMSD -1
REMARK  2 active torsions:
REMARK  status: ('A' for Active; 'I' for Inactive)
REMARK    1  A    between atoms: C2'_3  and  C1'_4 
REMARK    2  A    between atoms: C1'_4  and  C1_5 
ROOT
ATOM      1  C1  I4B d   1       1.789   2.003  -2.566  0.00  0.00    -0.075 A 
ATOM      2  C2  I4B d   1       2.180   3.016  -1.727  0.00  0.00     0.003 A 
ATOM      3  C3  I4B d   1       2.824   2.719  -0.501  0.00  0.00     0.002 A 
ATOM      4  C4  I4B d   1       3.010   1.402  -0.133  0.00  0.00    -0.004 A 
ATOM      5  C5  I4B d   1       2.634   0.376  -0.995  0.00  0.00     0.002 A 
ATOM      6  C6  I4B d   1       2.031   0.678  -2.225  0.00  0.00     0.003 A 
ENDROOT
BRANCH   1   7
ATOM      7  C1' I4B d   1       1.082   2.351  -3.837  0.00  0.00     0.060 C 
BRANCH   7   8
ATOM      8  C2' I4B d   1       0.219   3.568  -3.572  0.00  0.00    -0.013 C 
ATOM      9  C4' I4B d   1       0.324   4.566  -4.695  0.00  0.00     0.013 C 
ATOM     10  C3' I4B d   1      -1.195   3.102  -3.393  0.00  0.00     0.013 C 
ENDBRANCH   7   8
ENDBRANCH   1   7
TORSDOF 2
ENDMDL
