MODEL 1
REMARK minimizedAffinity 3.04271507
REMARK minimizedRMSD -1
REMARK  2 active torsions:
REMARK  status: ('A' for Active; 'I' for Inactive)
REMARK    1  A    between atoms: C2'_3  and  C1'_4 
REMARK    2  A    between atoms: C1'_4  and  C1_5 
ROOT
ATOM      1  C1  I4B d   1       1.636  -0.204  -0.633  0.00  0.00    -0.075 A 
ATOM      2  C2  I4B d   1       0.899   0.073  -1.758  0.00  0.00     0.003 A 
ATOM      3  C3  I4B d   1       0.880   1.383  -2.293  0.00  0.00     0.002 A 
ATOM      4  C4  I4B d   1       1.566   2.391  -1.646  0.00  0.00    -0.004 A 
ATOM      5  C5  I4B d   1       2.330   2.105  -0.519  0.00  0.00     0.002 A 
ATOM      6  C6  I4B d   1       2.375   0.796  -0.016  0.00  0.00     0.003 A 
ENDROOT
BRANCH   1   7
ATOM      7  C1' I4B d   1       1.607  -1.592  -0.076  0.00  0.00     0.060 C 
BRANCH   7   8
ATOM      8  C2' I4B d   1       2.071  -1.526   1.365  0.00  0.00    -0.013 C 
ATOM      9  C4' I4B d   1       0.912  -1.313   2.302  0.00  0.00     0.013 C 
ATOM     10  C3' I4B d   1       2.792  -2.804   1.678  0.00  0.00     0.013 C 
ENDBRANCH   7   8
ENDBRANCH   1   7
TORSDOF 2
ENDMDL
