MODEL 1
REMARK minimizedAffinity 6.33395195
REMARK minimizedRMSD -1
REMARK  2 active torsions:
REMARK  status: ('A' for Active; 'I' for Inactive)
REMARK    1  A    between atoms: C2'_3  and  C1'_4 
REMARK    2  A    between atoms: C1'_4  and  C1_5 
ROOT
ATOM      1  C1  I4B d   1       2.210  -1.195   0.050  0.00  0.00    -0.075 A 
ATOM      2  C2  I4B d   1       1.139  -1.094  -0.802  0.00  0.00     0.003 A 
ATOM      3  C3  I4B d   1       1.345  -0.821  -2.176  0.00  0.00     0.002 A 
ATOM      4  C4  I4B d   1       2.626  -0.608  -2.643  0.00  0.00    -0.004 A 
ATOM      5  C5  I4B d   1       3.713  -0.734  -1.782  0.00  0.00     0.002 A 
ATOM      6  C6  I4B d   1       3.505  -1.042  -0.429  0.00  0.00     0.003 A 
ENDROOT
BRANCH   1   7
ATOM      7  C1' I4B d   1       1.955  -1.452   1.501  0.00  0.00     0.060 C 
BRANCH   7   8
ATOM      8  C2' I4B d   1       0.458  -1.391   1.729  0.00  0.00    -0.013 C 
ATOM      9  C4' I4B d   1      -0.063  -2.694   2.278  0.00  0.00     0.013 C 
ATOM     10  C3' I4B d   1       0.179  -0.257   2.670  0.00  0.00     0.013 C 
ENDBRANCH   7   8
ENDBRANCH   1   7
TORSDOF 2
ENDMDL
