MODEL 1
REMARK minimizedAffinity -3.50382829
REMARK minimizedRMSD -1
REMARK  1 active torsions:
REMARK  status: ('A' for Active; 'I' for Inactive)
REMARK    1  A    between atoms: C3_4  and  O_7 
ROOT
ATOM      1  C   UNL d   1       0.796  -0.054   0.213  0.00  0.00    -0.033 A 
ATOM      2  C1  UNL d   1      -0.098  -1.125   0.263  0.00  0.00     0.039 A 
ATOM      3  C2  UNL d   1       0.041  -2.195  -0.623  0.00  0.00    -0.080 A 
ATOM      4  C3  UNL d   1       1.077  -2.182  -1.553  0.00  0.00     0.150 A 
ATOM      5  C4  UNL d   1       1.974  -1.120  -1.605  0.00  0.00    -0.007 A 
ATOM      6  C5  UNL d   1       1.833  -0.052  -0.720  0.00  0.00     0.039 A 
ENDROOT
BRANCH   4   7
ATOM      7  O   UNL d   1       1.251  -3.201  -2.441  0.00  0.00    -0.526 OA
ATOM      8  H5  UNL d   1       0.540  -3.850  -2.307  0.00  0.00     0.418 HD
ENDBRANCH   4   7
TORSDOF 1
ENDMDL
