MODEL 1
REMARK minimizedAffinity -2.46614385
REMARK minimizedRMSD -1
REMARK  1 active torsions:
REMARK  status: ('A' for Active; 'I' for Inactive)
REMARK    1  A    between atoms: C3_4  and  O_7 
ROOT
ATOM      1  C   UNL d   1      -2.340   0.445   3.355  0.00  0.00    -0.033 A 
ATOM      2  C1  UNL d   1      -1.624   1.640   3.259  0.00  0.00     0.039 A 
ATOM      3  C2  UNL d   1      -1.135   2.066   2.023  0.00  0.00    -0.080 A 
ATOM      4  C3  UNL d   1      -1.368   1.289   0.892  0.00  0.00     0.150 A 
ATOM      5  C4  UNL d   1      -2.084   0.099   0.979  0.00  0.00    -0.007 A 
ATOM      6  C5  UNL d   1      -2.571  -0.325   2.215  0.00  0.00     0.039 A 
ENDROOT
BRANCH   4   7
ATOM      7  O   UNL d   1      -0.906   1.661  -0.336  0.00  0.00    -0.526 OA
ATOM      8  H5  UNL d   1      -0.406   2.488  -0.238  0.00  0.00     0.418 HD
ENDBRANCH   4   7
TORSDOF 1
ENDMDL
