MODEL 1
REMARK minimizedAffinity -1.95300531
REMARK minimizedRMSD -1
REMARK  1 active torsions:
REMARK  status: ('A' for Active; 'I' for Inactive)
REMARK    1  A    between atoms: C3_4  and  O_7 
ROOT
ATOM      1  C   UNL d   1      -0.548  -0.609   0.344  0.00  0.00    -0.033 A 
ATOM      2  C1  UNL d   1       0.043  -1.874   0.341  0.00  0.00     0.039 A 
ATOM      3  C2  UNL d   1       1.362  -2.030  -0.087  0.00  0.00    -0.080 A 
ATOM      4  C3  UNL d   1       2.080  -0.914  -0.509  0.00  0.00     0.150 A 
ATOM      5  C4  UNL d   1       1.500   0.350  -0.505  0.00  0.00    -0.007 A 
ATOM      6  C5  UNL d   1       0.181   0.503  -0.078  0.00  0.00     0.039 A 
ENDROOT
BRANCH   4   7
ATOM      7  O   UNL d   1       3.369  -1.017  -0.940  0.00  0.00    -0.526 OA
ATOM      8  H5  UNL d   1       3.628  -1.954  -0.915  0.00  0.00     0.418 HD
ENDBRANCH   4   7
TORSDOF 1
ENDMDL
