MODEL 1
REMARK minimizedAffinity -4.26528025
REMARK minimizedRMSD -1
REMARK  1 active torsions:
REMARK  status: ('A' for Active; 'I' for Inactive)
REMARK    1  A    between atoms: C3_4  and  O_7 
ROOT
ATOM      1  C   UNL d   1      -0.391  -0.289  -0.030  0.00  0.00    -0.033 A 
ATOM      2  C1  UNL d   1       0.173  -1.561  -0.145  0.00  0.00     0.039 A 
ATOM      3  C2  UNL d   1       1.493  -1.705  -0.574  0.00  0.00    -0.080 A 
ATOM      4  C3  UNL d   1       2.239  -0.571  -0.883  0.00  0.00     0.150 A 
ATOM      5  C4  UNL d   1       1.685   0.699  -0.767  0.00  0.00    -0.007 A 
ATOM      6  C5  UNL d   1       0.366   0.841  -0.339  0.00  0.00     0.039 A 
ENDROOT
BRANCH   4   7
ATOM      7  O   UNL d   1       3.530  -0.662  -1.311  0.00  0.00    -0.526 OA
ATOM      8  H5  UNL d   1       3.769  -1.602  -1.370  0.00  0.00     0.418 HD
ENDBRANCH   4   7
TORSDOF 1
ENDMDL
