MODEL 1
REMARK minimizedAffinity -4.31393623
REMARK minimizedRMSD -1
REMARK  1 active torsions:
REMARK  status: ('A' for Active; 'I' for Inactive)
REMARK    1  A    between atoms: C3_4  and  O_7 
ROOT
ATOM      1  C   UNL d   1      -0.396   0.205  -0.099  0.00  0.00    -0.033 A 
ATOM      2  C1  UNL d   1       0.549   1.140  -0.524  0.00  0.00     0.039 A 
ATOM      3  C2  UNL d   1       1.810   0.717  -0.951  0.00  0.00    -0.080 A 
ATOM      4  C3  UNL d   1       2.111  -0.642  -0.949  0.00  0.00     0.150 A 
ATOM      5  C4  UNL d   1       1.172  -1.580  -0.531  0.00  0.00    -0.007 A 
ATOM      6  C5  UNL d   1      -0.085  -1.155  -0.104  0.00  0.00     0.039 A 
ENDROOT
BRANCH   4   7
ATOM      7  O   UNL d   1       3.329  -1.102  -1.352  0.00  0.00    -0.526 OA
ATOM      8  H5  UNL d   1       3.884  -0.340  -1.586  0.00  0.00     0.418 HD
ENDBRANCH   4   7
TORSDOF 1
ENDMDL
