MODEL 1
REMARK minimizedAffinity -3.89899206
REMARK minimizedRMSD -1
REMARK  1 active torsions:
REMARK  status: ('A' for Active; 'I' for Inactive)
REMARK    1  A    between atoms: C3_4  and  O_7 
ROOT
ATOM      1  C   UNL d   1      -0.247  -0.578   0.303  0.00  0.00    -0.033 A 
ATOM      2  C1  UNL d   1       0.357   0.624  -0.071  0.00  0.00     0.039 A 
ATOM      3  C2  UNL d   1       1.638   0.622  -0.626  0.00  0.00    -0.080 A 
ATOM      4  C3  UNL d   1       2.304  -0.588  -0.802  0.00  0.00     0.150 A 
ATOM      5  C4  UNL d   1       1.707  -1.790  -0.435  0.00  0.00    -0.007 A 
ATOM      6  C5  UNL d   1       0.428  -1.785   0.120  0.00  0.00     0.039 A 
ENDROOT
BRANCH   4   7
ATOM      7  O   UNL d   1       3.557  -0.641  -1.334  0.00  0.00    -0.526 OA
ATOM      8  H5  UNL d   1       3.854   0.267  -1.513  0.00  0.00     0.418 HD
ENDBRANCH   4   7
TORSDOF 1
ENDMDL
