MODEL 1
REMARK minimizedAffinity -2.59364891
REMARK minimizedRMSD -1
REMARK  1 active torsions:
REMARK  status: ('A' for Active; 'I' for Inactive)
REMARK    1  A    between atoms: C3_4  and  O_7 
ROOT
ATOM      1  C   UNL d   1      -1.240  -0.025   0.360  0.00  0.00    -0.033 A 
ATOM      2  C1  UNL d   1      -0.285   0.938   0.029  0.00  0.00     0.039 A 
ATOM      3  C2  UNL d   1       0.980   0.547  -0.413  0.00  0.00    -0.080 A 
ATOM      4  C3  UNL d   1       1.277  -0.809  -0.522  0.00  0.00     0.150 A 
ATOM      5  C4  UNL d   1       0.329  -1.774  -0.198  0.00  0.00    -0.007 A 
ATOM      6  C5  UNL d   1      -0.934  -1.381   0.245  0.00  0.00     0.039 A 
ENDROOT
BRANCH   4   7
ATOM      7  O   UNL d   1       2.499  -1.239  -0.945  0.00  0.00    -0.526 OA
ATOM      8  H5  UNL d   1       3.061  -0.462  -1.105  0.00  0.00     0.418 HD
ENDBRANCH   4   7
TORSDOF 1
ENDMDL
