MODEL 1
REMARK minimizedAffinity -3.16172576
REMARK minimizedRMSD -1
REMARK  1 active torsions:
REMARK  status: ('A' for Active; 'I' for Inactive)
REMARK    1  A    between atoms: C3_4  and  O_7 
ROOT
ATOM      1  C   UNL d   1      -0.277   1.246  -0.268  0.00  0.00    -0.033 A 
ATOM      2  C1  UNL d   1       0.082   0.070   0.395  0.00  0.00     0.039 A 
ATOM      3  C2  UNL d   1       1.299  -0.550   0.109  0.00  0.00    -0.080 A 
ATOM      4  C3  UNL d   1       2.148   0.014  -0.840  0.00  0.00     0.150 A 
ATOM      5  C4  UNL d   1       1.798   1.187  -1.501  0.00  0.00    -0.007 A 
ATOM      6  C5  UNL d   1       0.581   1.805  -1.214  0.00  0.00     0.039 A 
ENDROOT
BRANCH   4   7
ATOM      7  O   UNL d   1       3.344  -0.558  -1.156  0.00  0.00    -0.526 OA
ATOM      8  H5  UNL d   1       3.439  -1.377  -0.642  0.00  0.00     0.418 HD
ENDBRANCH   4   7
TORSDOF 1
ENDMDL
