MODEL 1
REMARK minimizedAffinity -3.01892185
REMARK minimizedRMSD -1
REMARK  1 active torsions:
REMARK  status: ('A' for Active; 'I' for Inactive)
REMARK    1  A    between atoms: C3_4  and  O_7 
ROOT
ATOM      1  C   UNL d   1      -1.263   0.746  -0.207  0.00  0.00    -0.033 A 
ATOM      2  C1  UNL d   1      -0.493  -0.368   0.133  0.00  0.00     0.039 A 
ATOM      3  C2  UNL d   1       0.854  -0.426  -0.233  0.00  0.00    -0.080 A 
ATOM      4  C3  UNL d   1       1.417   0.635  -0.936  0.00  0.00     0.150 A 
ATOM      5  C4  UNL d   1       0.657   1.750  -1.275  0.00  0.00    -0.007 A 
ATOM      6  C5  UNL d   1      -0.688   1.805  -0.910  0.00  0.00     0.039 A 
ENDROOT
BRANCH   4   7
ATOM      7  O   UNL d   1       2.725   0.622  -1.319  0.00  0.00    -0.526 OA
ATOM      8  H5  UNL d   1       3.118  -0.223  -1.042  0.00  0.00     0.418 HD
ENDBRANCH   4   7
TORSDOF 1
ENDMDL
