MODEL 1
REMARK minimizedAffinity -4.93023968
REMARK minimizedRMSD -1
REMARK  1 active torsions:
REMARK  status: ('A' for Active; 'I' for Inactive)
REMARK    1  A    between atoms: C3_4  and  O_7 
ROOT
ATOM      1  C   UNL d   1       1.352  -0.775   0.028  0.00  0.00    -0.033 A 
ATOM      2  C1  UNL d   1      -0.040  -0.669   0.045  0.00  0.00     0.039 A 
ATOM      3  C2  UNL d   1      -0.674   0.343  -0.679  0.00  0.00    -0.080 A 
ATOM      4  C3  UNL d   1       0.095   1.240  -1.415  0.00  0.00     0.150 A 
ATOM      5  C4  UNL d   1       1.482   1.138  -1.439  0.00  0.00    -0.007 A 
ATOM      6  C5  UNL d   1       2.113   0.127  -0.715  0.00  0.00     0.039 A 
ENDROOT
BRANCH   4   7
ATOM      7  O   UNL d   1      -0.478   2.247  -2.133  0.00  0.00    -0.526 OA
ATOM      8  H5  UNL d   1      -1.440   2.212  -1.999  0.00  0.00     0.418 HD
ENDBRANCH   4   7
TORSDOF 1
ENDMDL
