MODEL 1
REMARK minimizedAffinity -5.11205101
REMARK minimizedRMSD -1
REMARK  1 active torsions:
REMARK  status: ('A' for Active; 'I' for Inactive)
REMARK    1  A    between atoms: C3_4  and  O_7 
ROOT
ATOM      1  C   UNL d   1      -0.398  -0.416  -0.043  0.00  0.00    -0.033 A 
ATOM      2  C1  UNL d   1       0.179   0.738  -0.578  0.00  0.00     0.039 A 
ATOM      3  C2  UNL d   1       1.445   0.681  -1.162  0.00  0.00    -0.080 A 
ATOM      4  C3  UNL d   1       2.123  -0.534  -1.207  0.00  0.00     0.150 A 
ATOM      5  C4  UNL d   1       1.553  -1.688  -0.680  0.00  0.00    -0.007 A 
ATOM      6  C5  UNL d   1       0.289  -1.629  -0.095  0.00  0.00     0.039 A 
ENDROOT
BRANCH   4   7
ATOM      7  O   UNL d   1       3.364  -0.638  -1.763  0.00  0.00    -0.526 OA
ATOM      8  H5  UNL d   1       3.643   0.245  -2.060  0.00  0.00     0.418 HD
ENDBRANCH   4   7
TORSDOF 1
ENDMDL
