MODEL 1
REMARK minimizedAffinity -5.61373854
REMARK minimizedRMSD -1
REMARK  1 active torsions:
REMARK  status: ('A' for Active; 'I' for Inactive)
REMARK    1  A    between atoms: C3_4  and  O_7 
ROOT
ATOM      1  C   UNL d   1      -0.490  -0.015   0.002  0.00  0.00    -0.033 A 
ATOM      2  C1  UNL d   1       0.200   1.091  -0.498  0.00  0.00     0.039 A 
ATOM      3  C2  UNL d   1       1.513   0.950  -0.953  0.00  0.00    -0.080 A 
ATOM      4  C3  UNL d   1       2.123  -0.301  -0.903  0.00  0.00     0.150 A 
ATOM      5  C4  UNL d   1       1.440  -1.408  -0.410  0.00  0.00    -0.007 A 
ATOM      6  C5  UNL d   1       0.129  -1.265   0.045  0.00  0.00     0.039 A 
ENDROOT
BRANCH   4   7
ATOM      7  O   UNL d   1       3.404  -0.486  -1.331  0.00  0.00    -0.526 OA
ATOM      8  H5  UNL d   1       3.760   0.371  -1.618  0.00  0.00     0.418 HD
ENDBRANCH   4   7
TORSDOF 1
ENDMDL
