MODEL 1
REMARK minimizedAffinity -3.87504888
REMARK minimizedRMSD -1
REMARK  1 active torsions:
REMARK  status: ('A' for Active; 'I' for Inactive)
REMARK    1  A    between atoms: C3_4  and  O_7 
ROOT
ATOM      1  C   UNL d   1       2.636  -0.248  -2.117  0.00  0.00    -0.033 A 
ATOM      2  C1  UNL d   1       2.239  -1.348  -1.355  0.00  0.00     0.039 A 
ATOM      3  C2  UNL d   1       1.168  -1.235  -0.467  0.00  0.00    -0.080 A 
ATOM      4  C3  UNL d   1       0.503  -0.018  -0.350  0.00  0.00     0.150 A 
ATOM      5  C4  UNL d   1       0.891   1.082  -1.109  0.00  0.00    -0.007 A 
ATOM      6  C5  UNL d   1       1.961   0.967  -1.995  0.00  0.00     0.039 A 
ENDROOT
BRANCH   4   7
ATOM      7  O   UNL d   1      -0.545   0.143   0.507  0.00  0.00    -0.526 OA
ATOM      8  H5  UNL d   1      -0.682  -0.692   0.985  0.00  0.00     0.418 HD
ENDBRANCH   4   7
TORSDOF 1
ENDMDL
