MODEL 1
REMARK minimizedAffinity -3.06201792
REMARK minimizedRMSD -1
REMARK  1 active torsions:
REMARK  status: ('A' for Active; 'I' for Inactive)
REMARK    1  A    between atoms: C3_4  and  O_7 
ROOT
ATOM      1  C   UNL d   1       1.619  -1.576  -1.162  0.00  0.00    -0.033 A 
ATOM      2  C1  UNL d   1       1.609  -0.194  -1.357  0.00  0.00     0.039 A 
ATOM      3  C2  UNL d   1       0.634   0.593  -0.741  0.00  0.00    -0.080 A 
ATOM      4  C3  UNL d   1      -0.324  -0.013   0.067  0.00  0.00     0.150 A 
ATOM      5  C4  UNL d   1      -0.318  -1.390   0.269  0.00  0.00    -0.007 A 
ATOM      6  C5  UNL d   1       0.656  -2.174  -0.348  0.00  0.00     0.039 A 
ENDROOT
BRANCH   4   7
ATOM      7  O   UNL d   1      -1.298   0.713   0.685  0.00  0.00    -0.526 OA
ATOM      8  H5  UNL d   1      -1.195   1.645   0.431  0.00  0.00     0.418 HD
ENDBRANCH   4   7
TORSDOF 1
ENDMDL
