MODEL 1
REMARK minimizedAffinity -4.63171291
REMARK minimizedRMSD -1
REMARK  1 active torsions:
REMARK  status: ('A' for Active; 'I' for Inactive)
REMARK    1  A    between atoms: C3_4  and  O_7 
ROOT
ATOM      1  C   UNL d   1      -0.707  -0.143  -0.011  0.00  0.00    -0.033 A 
ATOM      2  C1  UNL d   1       0.108   0.878  -0.505  0.00  0.00     0.039 A 
ATOM      3  C2  UNL d   1       1.414   0.598  -0.909  0.00  0.00    -0.080 A 
ATOM      4  C3  UNL d   1       1.893  -0.706  -0.815  0.00  0.00     0.150 A 
ATOM      5  C4  UNL d   1       1.086  -1.729  -0.328  0.00  0.00    -0.007 A 
ATOM      6  C5  UNL d   1      -0.218  -1.447   0.076  0.00  0.00     0.039 A 
ENDROOT
BRANCH   4   7
ATOM      7  O   UNL d   1       3.163  -1.028  -1.193  0.00  0.00    -0.526 OA
ATOM      8  H5  UNL d   1       3.613  -0.216  -1.482  0.00  0.00     0.418 HD
ENDBRANCH   4   7
TORSDOF 1
ENDMDL
