MODEL 1
REMARK minimizedAffinity -3.38169312
REMARK minimizedRMSD -1
REMARK  1 active torsions:
REMARK  status: ('A' for Active; 'I' for Inactive)
REMARK    1  A    between atoms: C3_4  and  O_7 
ROOT
ATOM      1  C   UNL d   1      -0.638   0.740   0.245  0.00  0.00    -0.033 A 
ATOM      2  C1  UNL d   1       0.116   1.283  -0.797  0.00  0.00     0.039 A 
ATOM      3  C2  UNL d   1       1.097   0.513  -1.426  0.00  0.00    -0.080 A 
ATOM      4  C3  UNL d   1       1.312  -0.796  -1.005  0.00  0.00     0.150 A 
ATOM      5  C4  UNL d   1       0.562  -1.345   0.030  0.00  0.00    -0.007 A 
ATOM      6  C5  UNL d   1      -0.416  -0.574   0.657  0.00  0.00     0.039 A 
ENDROOT
BRANCH   4   7
ATOM      7  O   UNL d   1       2.261  -1.584  -1.586  0.00  0.00    -0.526 OA
ATOM      8  H5  UNL d   1       2.720  -1.063  -2.266  0.00  0.00     0.418 HD
ENDBRANCH   4   7
TORSDOF 1
ENDMDL
