MODEL 1
REMARK minimizedAffinity -4.30355835
REMARK minimizedRMSD -1
REMARK  1 active torsions:
REMARK  status: ('A' for Active; 'I' for Inactive)
REMARK    1  A    between atoms: C3_4  and  O_7 
ROOT
ATOM      1  C   UNL d   1      -0.584   1.102  -0.418  0.00  0.00    -0.033 A 
ATOM      2  C1  UNL d   1      -0.111   0.037   0.350  0.00  0.00     0.039 A 
ATOM      3  C2  UNL d   1       1.126  -0.542   0.057  0.00  0.00    -0.080 A 
ATOM      4  C3  UNL d   1       1.878  -0.046  -1.005  0.00  0.00     0.150 A 
ATOM      5  C4  UNL d   1       1.414   1.017  -1.772  0.00  0.00    -0.007 A 
ATOM      6  C5  UNL d   1       0.179   1.593  -1.478  0.00  0.00     0.039 A 
ENDROOT
BRANCH   4   7
ATOM      7  O   UNL d   1       3.088  -0.582  -1.332  0.00  0.00    -0.526 OA
ATOM      8  H5  UNL d   1       3.266  -1.327  -0.734  0.00  0.00     0.418 HD
ENDBRANCH   4   7
TORSDOF 1
ENDMDL
