MODEL 1
REMARK minimizedAffinity 8.4603548
REMARK minimizedRMSD -1
REMARK  0 active torsions:
REMARK  status: ('A' for Active; 'I' for Inactive)
ROOT
ATOM      1  C   UNL d   1       1.829   2.372   1.500  0.00  0.00     0.023 A 
ATOM      2  C1  UNL d   1       1.053   1.768   2.490  0.00  0.00     0.003 A 
ATOM      3  C2  UNL d   1      -0.340   1.841   2.429  0.00  0.00     0.048 A 
ATOM      4  C3  UNL d   1      -0.951   2.518   1.374  0.00  0.00     0.023 A 
ATOM      5  C4  UNL d   1      -0.180   3.122   0.380  0.00  0.00     0.048 A 
ATOM      6  C5  UNL d   1       1.213   3.047   0.446  0.00  0.00     0.003 A 
ATOM      7  I   UNL d   1      -3.025   2.627   1.281  0.00  0.00    -0.146 I 
ENDROOT
TORSDOF 0
ENDMDL
