MODEL 1
REMARK minimizedAffinity 6.04903603
REMARK minimizedRMSD -1
REMARK  0 active torsions:
REMARK  status: ('A' for Active; 'I' for Inactive)
ROOT
ATOM      1  C   UNL d   1       0.789   2.581   1.750  0.00  0.00     0.023 A 
ATOM      2  C1  UNL d   1       0.051   3.365   0.863  0.00  0.00     0.003 A 
ATOM      3  C2  UNL d   1      -1.344   3.320   0.883  0.00  0.00     0.048 A 
ATOM      4  C3  UNL d   1      -1.996   2.490   1.795  0.00  0.00     0.023 A 
ATOM      5  C4  UNL d   1      -1.262   1.705   2.686  0.00  0.00     0.048 A 
ATOM      6  C5  UNL d   1       0.133   1.753   2.661  0.00  0.00     0.003 A 
ATOM      7  I   UNL d   1      -4.073   2.422   1.828  0.00  0.00    -0.146 I 
ENDROOT
TORSDOF 0
ENDMDL
