MODEL 1
REMARK minimizedAffinity 1.66978455
REMARK minimizedRMSD -1
REMARK  0 active torsions:
REMARK  status: ('A' for Active; 'I' for Inactive)
ROOT
ATOM      1  C   UNL d   1       1.735  -2.892  -0.448  0.00  0.00     0.023 A 
ATOM      2  C1  UNL d   1       0.499  -2.371  -0.831  0.00  0.00     0.003 A 
ATOM      3  C2  UNL d   1       0.247  -1.003  -0.705  0.00  0.00     0.048 A 
ATOM      4  C3  UNL d   1       1.237  -0.162  -0.198  0.00  0.00     0.023 A 
ATOM      5  C4  UNL d   1       2.475  -0.679   0.186  0.00  0.00     0.048 A 
ATOM      6  C5  UNL d   1       2.722  -2.047   0.060  0.00  0.00     0.003 A 
ATOM      7  I   UNL d   1       0.865   1.875  -0.011  0.00  0.00    -0.146 I 
ENDROOT
TORSDOF 0
ENDMDL
