MODEL 1
REMARK minimizedAffinity 3.92140818
REMARK minimizedRMSD -1
REMARK  0 active torsions:
REMARK  status: ('A' for Active; 'I' for Inactive)
ROOT
ATOM      1  C   UNL d   1       3.804   2.018   3.758  0.00  0.00     0.023 A 
ATOM      2  C1  UNL d   1       2.560   1.388   3.729  0.00  0.00     0.003 A 
ATOM      3  C2  UNL d   1       1.675   1.636   2.678  0.00  0.00     0.048 A 
ATOM      4  C3  UNL d   1       2.040   2.515   1.659  0.00  0.00     0.023 A 
ATOM      5  C4  UNL d   1       3.285   3.147   1.684  0.00  0.00     0.048 A 
ATOM      6  C5  UNL d   1       4.166   2.896   2.737  0.00  0.00     0.003 A 
ATOM      7  I   UNL d   1       0.724   2.886   0.094  0.00  0.00    -0.146 I 
ENDROOT
TORSDOF 0
ENDMDL
