MODEL 1
REMARK minimizedAffinity 5.27411938
REMARK minimizedRMSD -1
REMARK  0 active torsions:
REMARK  status: ('A' for Active; 'I' for Inactive)
ROOT
ATOM      1  C   UNL d   1       1.460  -2.774  -0.891  0.00  0.00     0.023 A 
ATOM      2  C1  UNL d   1       0.213  -2.147  -0.913  0.00  0.00     0.003 A 
ATOM      3  C2  UNL d   1       0.109  -0.787  -0.616  0.00  0.00     0.048 A 
ATOM      4  C3  UNL d   1       1.255  -0.059  -0.298  0.00  0.00     0.023 A 
ATOM      5  C4  UNL d   1       2.504  -0.681  -0.276  0.00  0.00     0.048 A 
ATOM      6  C5  UNL d   1       2.604  -2.042  -0.573  0.00  0.00     0.003 A 
ATOM      7  I   UNL d   1       1.103   1.966   0.145  0.00  0.00    -0.146 I 
ENDROOT
TORSDOF 0
ENDMDL
