MODEL 1
REMARK minimizedAffinity 4.89029312
REMARK minimizedRMSD -1
REMARK  0 active torsions:
REMARK  status: ('A' for Active; 'I' for Inactive)
ROOT
ATOM      1  C   UNL d   1       0.353   2.655   1.788  0.00  0.00     0.023 A 
ATOM      2  C1  UNL d   1      -0.498   2.191   2.791  0.00  0.00     0.003 A 
ATOM      3  C2  UNL d   1      -1.846   1.957   2.512  0.00  0.00     0.048 A 
ATOM      4  C3  UNL d   1      -2.336   2.189   1.227  0.00  0.00     0.023 A 
ATOM      5  C4  UNL d   1      -1.488   2.653   0.220  0.00  0.00     0.048 A 
ATOM      6  C5  UNL d   1      -0.141   2.886   0.504  0.00  0.00     0.003 A 
ATOM      7  I   UNL d   1      -4.342   1.842   0.809  0.00  0.00    -0.146 I 
ENDROOT
TORSDOF 0
ENDMDL
