MODEL 1
REMARK minimizedAffinity 3.45323038
REMARK minimizedRMSD -1
REMARK  0 active torsions:
REMARK  status: ('A' for Active; 'I' for Inactive)
ROOT
ATOM      1  C   UNL d   1       0.588   2.222   1.550  0.00  0.00     0.023 A 
ATOM      2  C1  UNL d   1      -0.280   2.258   2.641  0.00  0.00     0.003 A 
ATOM      3  C2  UNL d   1      -1.659   2.333   2.435  0.00  0.00     0.048 A 
ATOM      4  C3  UNL d   1      -2.164   2.370   1.136  0.00  0.00     0.023 A 
ATOM      5  C4  UNL d   1      -1.298   2.334   0.041  0.00  0.00     0.048 A 
ATOM      6  C5  UNL d   1       0.080   2.260   0.252  0.00  0.00     0.003 A 
ATOM      7  I   UNL d   1      -4.216   2.481   0.827  0.00  0.00    -0.146 I 
ENDROOT
TORSDOF 0
ENDMDL
