MODEL 1
REMARK minimizedAffinity 7.62997246
REMARK minimizedRMSD -1
REMARK  0 active torsions:
REMARK  status: ('A' for Active; 'I' for Inactive)
ROOT
ATOM      1  C   UNL d   1       0.527   2.462   2.432  0.00  0.00     0.023 A 
ATOM      2  C1  UNL d   1       0.079   2.872   1.176  0.00  0.00     0.003 A 
ATOM      3  C2  UNL d   1      -1.184   2.487   0.724  0.00  0.00     0.048 A 
ATOM      4  C3  UNL d   1      -1.995   1.692   1.533  0.00  0.00     0.023 A 
ATOM      5  C4  UNL d   1      -1.552   1.280   2.791  0.00  0.00     0.048 A 
ATOM      6  C5  UNL d   1      -0.287   1.666   3.238  0.00  0.00     0.003 A 
ATOM      7  I   UNL d   1      -3.877   1.118   0.863  0.00  0.00    -0.146 I 
ENDROOT
TORSDOF 0
ENDMDL
