MODEL 1
REMARK minimizedAffinity 4.74529219
REMARK minimizedRMSD -1
REMARK  0 active torsions:
REMARK  status: ('A' for Active; 'I' for Inactive)
ROOT
ATOM      1  C   UNL d   1      -0.465   1.954   1.961  0.00  0.00     0.023 A 
ATOM      2  C1  UNL d   1       0.233   0.903   2.554  0.00  0.00     0.003 A 
ATOM      3  C2  UNL d   1       1.087   0.109   1.785  0.00  0.00     0.048 A 
ATOM      4  C3  UNL d   1       1.238   0.373   0.424  0.00  0.00     0.023 A 
ATOM      5  C4  UNL d   1       0.542   1.425  -0.173  0.00  0.00     0.048 A 
ATOM      6  C5  UNL d   1      -0.311   2.215   0.600  0.00  0.00     0.003 A 
ATOM      7  I   UNL d   1       2.509  -0.806  -0.722  0.00  0.00    -0.146 I 
ENDROOT
TORSDOF 0
ENDMDL
