MODEL 1
REMARK minimizedAffinity -2.44423723
REMARK minimizedRMSD -1
REMARK  0 active torsions:
REMARK  status: ('A' for Active; 'I' for Inactive)
ROOT
ATOM      1  C   UNL d   1      -2.626   2.275  -2.128  0.00  0.00     0.023 A 
ATOM      2  C1  UNL d   1      -2.676   2.286  -0.734  0.00  0.00     0.003 A 
ATOM      3  C2  UNL d   1      -1.672   1.660   0.007  0.00  0.00     0.048 A 
ATOM      4  C3  UNL d   1      -0.619   1.026  -0.652  0.00  0.00     0.023 A 
ATOM      5  C4  UNL d   1      -0.564   1.013  -2.047  0.00  0.00     0.048 A 
ATOM      6  C5  UNL d   1      -1.571   1.639  -2.784  0.00  0.00     0.003 A 
ATOM      7  I   UNL d   1       0.877   0.094   0.449  0.00  0.00    -0.146 I 
ENDROOT
TORSDOF 0
ENDMDL
