MODEL 1
REMARK minimizedAffinity -0.750459194
REMARK minimizedRMSD -1
REMARK  0 active torsions:
REMARK  status: ('A' for Active; 'I' for Inactive)
ROOT
ATOM      1  C   UNL d   1      -2.282   1.261  -0.928  0.00  0.00     0.023 A 
ATOM      2  C1  UNL d   1      -2.561   1.621   0.391  0.00  0.00     0.003 A 
ATOM      3  C2  UNL d   1      -1.561   1.546   1.363  0.00  0.00     0.048 A 
ATOM      4  C3  UNL d   1      -0.284   1.112   1.009  0.00  0.00     0.023 A 
ATOM      5  C4  UNL d   1      -0.000   0.751  -0.309  0.00  0.00     0.048 A 
ATOM      6  C5  UNL d   1      -1.003   0.826  -1.277  0.00  0.00     0.003 A 
ATOM      7  I   UNL d   1       1.206   1.000   2.454  0.00  0.00    -0.146 I 
ENDROOT
TORSDOF 0
ENDMDL
