MODEL 1
REMARK minimizedAffinity 6.7312355
REMARK minimizedRMSD -1
REMARK  0 active torsions:
REMARK  status: ('A' for Active; 'I' for Inactive)
ROOT
ATOM      1  C   UNL d   1       0.770   0.236  -2.108  0.00  0.00     0.023 A 
ATOM      2  C1  UNL d   1       1.680  -0.601  -1.463  0.00  0.00     0.003 A 
ATOM      3  C2  UNL d   1       1.587  -0.805  -0.084  0.00  0.00     0.048 A 
ATOM      4  C3  UNL d   1       0.581  -0.169   0.642  0.00  0.00     0.023 A 
ATOM      5  C4  UNL d   1      -0.332   0.669   0.001  0.00  0.00     0.048 A 
ATOM      6  C5  UNL d   1      -0.235   0.871  -1.377  0.00  0.00     0.003 A 
ATOM      7  I   UNL d   1       0.441  -0.471   2.694  0.00  0.00    -0.146 I 
ENDROOT
TORSDOF 0
ENDMDL
