MODEL 1
REMARK minimizedAffinity 6.33672714
REMARK minimizedRMSD -1
REMARK  0 active torsions:
REMARK  status: ('A' for Active; 'I' for Inactive)
ROOT
ATOM      1  C   UNL d   1      -0.298   0.397   2.012  0.00  0.00     0.023 A 
ATOM      2  C1  UNL d   1       0.628  -0.646   2.035  0.00  0.00     0.003 A 
ATOM      3  C2  UNL d   1       1.322  -0.991   0.874  0.00  0.00     0.048 A 
ATOM      4  C3  UNL d   1       1.085  -0.289  -0.307  0.00  0.00     0.023 A 
ATOM      5  C4  UNL d   1       0.160   0.756  -0.335  0.00  0.00     0.048 A 
ATOM      6  C5  UNL d   1      -0.532   1.097   0.829  0.00  0.00     0.003 A 
ATOM      7  I   UNL d   1       2.117  -0.801  -2.037  0.00  0.00    -0.146 I 
ENDROOT
TORSDOF 0
ENDMDL
