MODEL 1
REMARK minimizedAffinity 9.54426098
REMARK minimizedRMSD -1
REMARK  0 active torsions:
REMARK  status: ('A' for Active; 'I' for Inactive)
ROOT
ATOM      1  C   UNL d   1      -1.477   3.043   2.277  0.00  0.00     0.023 A 
ATOM      2  C1  UNL d   1      -2.438   2.892   1.277  0.00  0.00     0.003 A 
ATOM      3  C2  UNL d   1      -2.074   2.382   0.029  0.00  0.00     0.048 A 
ATOM      4  C3  UNL d   1      -0.747   2.024  -0.211  0.00  0.00     0.023 A 
ATOM      5  C4  UNL d   1       0.217   2.173   0.787  0.00  0.00     0.048 A 
ATOM      6  C5  UNL d   1      -0.152   2.684   2.033  0.00  0.00     0.003 A 
ATOM      7  I   UNL d   1      -0.203   1.264  -2.068  0.00  0.00    -0.146 I 
ENDROOT
TORSDOF 0
ENDMDL
