MODEL 1
REMARK minimizedAffinity 4.08694887
REMARK minimizedRMSD -1
REMARK  0 active torsions:
REMARK  status: ('A' for Active; 'I' for Inactive)
ROOT
ATOM      1  C   UNL d   1       0.565   1.970   0.697  0.00  0.00     0.023 A 
ATOM      2  C1  UNL d   1      -0.342   2.132   1.744  0.00  0.00     0.003 A 
ATOM      3  C2  UNL d   1      -0.285   1.288   2.855  0.00  0.00     0.048 A 
ATOM      4  C3  UNL d   1       0.683   0.286   2.914  0.00  0.00     0.023 A 
ATOM      5  C4  UNL d   1       1.593   0.121   1.869  0.00  0.00     0.048 A 
ATOM      6  C5  UNL d   1       1.531   0.966   0.759  0.00  0.00     0.003 A 
ATOM      7  I   UNL d   1       0.770  -0.970   4.568  0.00  0.00    -0.146 I 
ENDROOT
TORSDOF 0
ENDMDL
