MODEL 1
REMARK minimizedAffinity 5.13842201
REMARK minimizedRMSD -1
REMARK  0 active torsions:
REMARK  status: ('A' for Active; 'I' for Inactive)
ROOT
ATOM      1  C   UNL d   1       2.298  -5.719  -4.018  0.00  0.00     0.023 A 
ATOM      2  C1  UNL d   1       2.055  -4.503  -4.657  0.00  0.00     0.003 A 
ATOM      3  C2  UNL d   1       2.010  -3.320  -3.917  0.00  0.00     0.048 A 
ATOM      4  C3  UNL d   1       2.209  -3.360  -2.537  0.00  0.00     0.023 A 
ATOM      5  C4  UNL d   1       2.453  -4.574  -1.893  0.00  0.00     0.048 A 
ATOM      6  C5  UNL d   1       2.496  -5.754  -2.637  0.00  0.00     0.003 A 
ATOM      7  I   UNL d   1       2.143  -1.600  -1.433  0.00  0.00    -0.146 I 
ENDROOT
TORSDOF 0
ENDMDL
