MODEL 1
REMARK minimizedAffinity -0.404154718
REMARK minimizedRMSD -1
REMARK  0 active torsions:
REMARK  status: ('A' for Active; 'I' for Inactive)
ROOT
ATOM      1  C   UNL d   1       0.624   3.946   1.474  0.00  0.00     0.023 A 
ATOM      2  C1  UNL d   1       0.573   4.335   0.135  0.00  0.00     0.003 A 
ATOM      3  C2  UNL d   1       0.395   3.378  -0.865  0.00  0.00     0.048 A 
ATOM      4  C3  UNL d   1       0.267   2.033  -0.520  0.00  0.00     0.023 A 
ATOM      5  C4  UNL d   1       0.317   1.639   0.818  0.00  0.00     0.048 A 
ATOM      6  C5  UNL d   1       0.496   2.600   1.815  0.00  0.00     0.003 A 
ATOM      7  I   UNL d   1       0.002   0.605  -2.007  0.00  0.00    -0.146 I 
ENDROOT
TORSDOF 0
ENDMDL
