MODEL 1
REMARK minimizedAffinity -3.3889401
REMARK minimizedRMSD -1
REMARK  0 active torsions:
REMARK  status: ('A' for Active; 'I' for Inactive)
ROOT
ATOM      1  C   UNL d   1       0.065   3.916   0.724  0.00  0.00     0.023 A 
ATOM      2  C1  UNL d   1      -0.225   3.464  -0.563  0.00  0.00     0.003 A 
ATOM      3  C2  UNL d   1      -0.290   2.094  -0.826  0.00  0.00     0.048 A 
ATOM      4  C3  UNL d   1      -0.065   1.181   0.204  0.00  0.00     0.023 A 
ATOM      5  C4  UNL d   1       0.224   1.629   1.494  0.00  0.00     0.048 A 
ATOM      6  C5  UNL d   1       0.289   3.000   1.752  0.00  0.00     0.003 A 
ATOM      7  I   UNL d   1      -0.161  -0.858  -0.184  0.00  0.00    -0.146 I 
ENDROOT
TORSDOF 0
ENDMDL
