MODEL 1
REMARK minimizedAffinity -4.97809267
REMARK minimizedRMSD -1
REMARK  0 active torsions:
REMARK  status: ('A' for Active; 'I' for Inactive)
ROOT
ATOM      1  N1  IND d   1      -0.736   0.181   1.177  0.00  0.00    -0.196 N 
ATOM      2  C2  IND d   1      -0.009  -0.868   0.685  0.00  0.00     0.054 A 
ATOM      3  C3  IND d   1       0.924  -0.425  -0.187  0.00  0.00    -0.031 A 
ATOM      4  C4  IND d   1       1.503   1.985  -0.880  0.00  0.00     0.051 A 
ATOM      5  C5  IND d   1       1.091   3.279  -0.725  0.00  0.00    -0.031 A 
ATOM      6  C6  IND d   1       0.029   3.613   0.090  0.00  0.00     0.015 A 
ATOM      7  C7  IND d   1      -0.656   2.663   0.793  0.00  0.00    -0.016 A 
ATOM      8  C8  IND d   1      -0.245   1.348   0.633  0.00  0.00    -0.047 A 
ATOM      9  C9  IND d   1       0.805   0.998  -0.226  0.00  0.00    -0.096 A 
ATOM     10  HN1 IND d   1      -1.390   0.122   1.732  0.00  0.00     0.298 HD
ENDROOT
TORSDOF 0
ENDMDL
