MODEL 1
REMARK minimizedAffinity 0.807988942
REMARK minimizedRMSD -1
REMARK  0 active torsions:
REMARK  status: ('A' for Active; 'I' for Inactive)
ROOT
ATOM      1  N1  IND d   1       1.263  -1.616   0.432  0.00  0.00    -0.196 N 
ATOM      2  C2  IND d   1      -0.069  -1.924   0.451  0.00  0.00     0.054 A 
ATOM      3  C3  IND d   1      -0.812  -0.813   0.249  0.00  0.00    -0.031 A 
ATOM      4  C4  IND d   1      -0.050   1.598  -0.235  0.00  0.00     0.051 A 
ATOM      5  C5  IND d   1       1.069   2.378  -0.315  0.00  0.00    -0.031 A 
ATOM      6  C6  IND d   1       2.336   1.856  -0.150  0.00  0.00     0.015 A 
ATOM      7  C7  IND d   1       2.532   0.526   0.092  0.00  0.00    -0.016 A 
ATOM      8  C8  IND d   1       1.397  -0.268   0.181  0.00  0.00    -0.047 A 
ATOM      9  C9  IND d   1       0.107   0.263   0.056  0.00  0.00    -0.096 A 
ATOM     10  HN1 IND d   1       1.908  -2.171   0.556  0.00  0.00     0.298 HD
ENDROOT
TORSDOF 0
ENDMDL
