MODEL 1
REMARK minimizedAffinity -0.404588014
REMARK minimizedRMSD -1
REMARK  0 active torsions:
REMARK  status: ('A' for Active; 'I' for Inactive)
ROOT
ATOM      1  N1  IND d   1       2.616   0.680   0.233  0.00  0.00    -0.196 N 
ATOM      2  C2  IND d   1       2.439   1.821  -0.498  0.00  0.00     0.054 A 
ATOM      3  C3  IND d   1       1.314   1.733  -1.242  0.00  0.00    -0.031 A 
ATOM      4  C4  IND d   1      -0.441  -0.149  -1.338  0.00  0.00     0.051 A 
ATOM      5  C5  IND d   1      -0.694  -1.409  -0.875  0.00  0.00    -0.031 A 
ATOM      6  C6  IND d   1       0.158  -2.050   0.001  0.00  0.00     0.015 A 
ATOM      7  C7  IND d   1       1.296  -1.447   0.457  0.00  0.00    -0.016 A 
ATOM      8  C8  IND d   1       1.560  -0.169  -0.016  0.00  0.00    -0.047 A 
ATOM      9  C9  IND d   1       0.721   0.469  -0.938  0.00  0.00    -0.096 A 
ATOM     10  HN1 IND d   1       3.276   0.519   0.760  0.00  0.00     0.298 HD
ENDROOT
TORSDOF 0
ENDMDL
