MODEL 1
REMARK minimizedAffinity 1.28202379
REMARK minimizedRMSD -1
REMARK  0 active torsions:
REMARK  status: ('A' for Active; 'I' for Inactive)
ROOT
ATOM      1  N1  IND d   1       1.626  -1.703  -0.810  0.00  0.00    -0.196 N 
ATOM      2  C2  IND d   1       1.055  -1.298   0.364  0.00  0.00     0.054 A 
ATOM      3  C3  IND d   1      -0.180  -1.834   0.495  0.00  0.00    -0.031 A 
ATOM      4  C4  IND d   1      -1.421  -3.481  -1.046  0.00  0.00     0.051 A 
ATOM      5  C5  IND d   1      -1.319  -4.110  -2.255  0.00  0.00    -0.031 A 
ATOM      6  C6  IND d   1      -0.206  -3.969  -3.059  0.00  0.00     0.015 A 
ATOM      7  C7  IND d   1       0.855  -3.198  -2.677  0.00  0.00    -0.016 A 
ATOM      8  C8  IND d   1       0.752  -2.552  -1.454  0.00  0.00    -0.047 A 
ATOM      9  C9  IND d   1      -0.392  -2.657  -0.652  0.00  0.00    -0.096 A 
ATOM     10  HN1 IND d   1       2.401  -1.467  -1.099  0.00  0.00     0.298 HD
ENDROOT
TORSDOF 0
ENDMDL
