MODEL 1
REMARK minimizedAffinity -1.7789712
REMARK minimizedRMSD -1
REMARK  0 active torsions:
REMARK  status: ('A' for Active; 'I' for Inactive)
ROOT
ATOM      1  N1  IND d   1       1.551  -0.152  -0.091  0.00  0.00    -0.196 N 
ATOM      2  C2  IND d   1       0.939  -1.368   0.028  0.00  0.00     0.054 A 
ATOM      3  C3  IND d   1      -0.354  -1.211   0.389  0.00  0.00    -0.031 A 
ATOM      4  C4  IND d   1      -1.703   0.953   0.737  0.00  0.00     0.051 A 
ATOM      5  C5  IND d   1      -1.568   2.313   0.776  0.00  0.00    -0.031 A 
ATOM      6  C6  IND d   1      -0.362   2.933   0.520  0.00  0.00     0.015 A 
ATOM      7  C7  IND d   1       0.756   2.214   0.203  0.00  0.00    -0.016 A 
ATOM      8  C8  IND d   1       0.623   0.833   0.169  0.00  0.00    -0.047 A 
ATOM      9  C9  IND d   1      -0.588   0.196   0.470  0.00  0.00    -0.096 A 
ATOM     10  HN1 IND d   1       2.376  -0.023  -0.295  0.00  0.00     0.298 HD
ENDROOT
TORSDOF 0
ENDMDL
