MODEL 1
REMARK minimizedAffinity -5.24799776
REMARK minimizedRMSD -1
REMARK  0 active torsions:
REMARK  status: ('A' for Active; 'I' for Inactive)
ROOT
ATOM      1  N1  IND d   1       0.527  -0.641   0.547  0.00  0.00    -0.196 N 
ATOM      2  C2  IND d   1       1.858  -0.457   0.298  0.00  0.00     0.054 A 
ATOM      3  C3  IND d   1       2.130   0.858   0.141  0.00  0.00    -0.031 A 
ATOM      4  C4  IND d   1       0.562   2.889   0.353  0.00  0.00     0.051 A 
ATOM      5  C5  IND d   1      -0.751   3.221   0.533  0.00  0.00    -0.031 A 
ATOM      6  C6  IND d   1      -1.725   2.264   0.734  0.00  0.00     0.015 A 
ATOM      7  C7  IND d   1      -1.418   0.934   0.773  0.00  0.00    -0.016 A 
ATOM      8  C8  IND d   1      -0.087   0.592   0.584  0.00  0.00    -0.047 A 
ATOM      9  C9  IND d   1       0.899   1.556   0.337  0.00  0.00    -0.096 A 
ATOM     10  HN1 IND d   1       0.138  -1.399   0.661  0.00  0.00     0.298 HD
ENDROOT
TORSDOF 0
ENDMDL
