MODEL 1
REMARK minimizedAffinity -0.212585136
REMARK minimizedRMSD -1
REMARK  0 active torsions:
REMARK  status: ('A' for Active; 'I' for Inactive)
ROOT
ATOM      1  N1  IND d   1      -0.731  -2.778  -3.157  0.00  0.00    -0.196 N 
ATOM      2  C2  IND d   1      -0.784  -4.042  -2.638  0.00  0.00     0.054 A 
ATOM      3  C3  IND d   1      -0.693  -4.001  -1.290  0.00  0.00    -0.031 A 
ATOM      4  C4  IND d   1      -0.553  -1.965   0.279  0.00  0.00     0.051 A 
ATOM      5  C5  IND d   1      -0.438  -0.604   0.269  0.00  0.00    -0.031 A 
ATOM      6  C6  IND d   1      -0.417   0.118  -0.907  0.00  0.00     0.015 A 
ATOM      7  C7  IND d   1      -0.522  -0.498  -2.122  0.00  0.00    -0.016 A 
ATOM      8  C8  IND d   1      -0.632  -1.881  -2.116  0.00  0.00    -0.047 A 
ATOM      9  C9  IND d   1      -0.612  -2.622  -0.927  0.00  0.00    -0.096 A 
ATOM     10  HN1 IND d   1      -0.756  -2.577  -3.993  0.00  0.00     0.298 HD
ENDROOT
TORSDOF 0
ENDMDL
