MODEL 1
REMARK minimizedAffinity -4.94498682
REMARK minimizedRMSD -1
REMARK  0 active torsions:
REMARK  status: ('A' for Active; 'I' for Inactive)
ROOT
ATOM      1  N1  IND d   1       0.452   3.739   0.145  0.00  0.00    -0.196 N 
ATOM      2  C2  IND d   1       1.345   3.494  -0.861  0.00  0.00     0.054 A 
ATOM      3  C3  IND d   1       1.330   2.185  -1.196  0.00  0.00    -0.031 A 
ATOM      4  C4  IND d   1      -0.153   0.283  -0.294  0.00  0.00     0.051 A 
ATOM      5  C5  IND d   1      -1.095   0.011   0.658  0.00  0.00    -0.031 A 
ATOM      6  C6  IND d   1      -1.581   0.988   1.503  0.00  0.00     0.015 A 
ATOM      7  C7  IND d   1      -1.149   2.281   1.419  0.00  0.00    -0.016 A 
ATOM      8  C8  IND d   1      -0.188   2.560   0.458  0.00  0.00    -0.047 A 
ATOM      9  C9  IND d   1       0.340   1.564  -0.373  0.00  0.00    -0.096 A 
ATOM     10  HN1 IND d   1       0.314   4.501   0.519  0.00  0.00     0.298 HD
ENDROOT
TORSDOF 0
ENDMDL
