MODEL 1
REMARK minimizedAffinity -4.64124823
REMARK minimizedRMSD -1
REMARK  0 active torsions:
REMARK  status: ('A' for Active; 'I' for Inactive)
ROOT
ATOM      1  N1  IND d   1       0.991  -0.961  -0.226  0.00  0.00    -0.196 N 
ATOM      2  C2  IND d   1      -0.190  -1.643  -0.133  0.00  0.00     0.054 A 
ATOM      3  C3  IND d   1      -1.215  -0.782   0.061  0.00  0.00    -0.031 A 
ATOM      4  C4  IND d   1      -1.196   1.790   0.155  0.00  0.00     0.051 A 
ATOM      5  C5  IND d   1      -0.348   2.862   0.155  0.00  0.00    -0.031 A 
ATOM      6  C6  IND d   1       1.018   2.711   0.023  0.00  0.00     0.015 A 
ATOM      7  C7  IND d   1       1.587   1.478  -0.127  0.00  0.00    -0.016 A 
ATOM      8  C8  IND d   1       0.729   0.387  -0.120  0.00  0.00    -0.047 A 
ATOM      9  C9  IND d   1      -0.653   0.531   0.056  0.00  0.00    -0.096 A 
ATOM     10  HN1 IND d   1       1.767  -1.315  -0.333  0.00  0.00     0.298 HD
ENDROOT
TORSDOF 0
ENDMDL
