MODEL 1
REMARK minimizedAffinity 0.910996795
REMARK minimizedRMSD -1
REMARK  0 active torsions:
REMARK  status: ('A' for Active; 'I' for Inactive)
ROOT
ATOM      1  N1  IND d   1       0.395  -3.573  -0.391  0.00  0.00    -0.196 N 
ATOM      2  C2  IND d   1      -0.806  -3.825  -0.993  0.00  0.00     0.054 A 
ATOM      3  C3  IND d   1      -1.503  -2.678  -1.151  0.00  0.00    -0.031 A 
ATOM      4  C4  IND d   1      -0.821  -0.260  -0.588  0.00  0.00     0.051 A 
ATOM      5  C5  IND d   1       0.168   0.469   0.010  0.00  0.00    -0.031 A 
ATOM      6  C6  IND d   1       1.309  -0.124   0.512  0.00  0.00     0.015 A 
ATOM      7  C7  IND d   1       1.507  -1.473   0.425  0.00  0.00    -0.016 A 
ATOM      8  C8  IND d   1       0.501  -2.217  -0.175  0.00  0.00    -0.047 A 
ATOM      9  C9  IND d   1      -0.677  -1.626  -0.649  0.00  0.00    -0.096 A 
ATOM     10  HN1 IND d   1       0.985  -4.163  -0.182  0.00  0.00     0.298 HD
ENDROOT
TORSDOF 0
ENDMDL
