MODEL 1
REMARK minimizedAffinity -3.67295527
REMARK minimizedRMSD -1
REMARK  0 active torsions:
REMARK  status: ('A' for Active; 'I' for Inactive)
ROOT
ATOM      1  N1  IND d   1      -0.804  -0.757   0.788  0.00  0.00    -0.196 N 
ATOM      2  C2  IND d   1       0.161  -1.552   0.235  0.00  0.00     0.054 A 
ATOM      3  C3  IND d   1       1.035  -0.804  -0.475  0.00  0.00    -0.031 A 
ATOM      4  C4  IND d   1       1.133   1.751  -0.779  0.00  0.00     0.051 A 
ATOM      5  C5  IND d   1       0.445   2.897  -0.493  0.00  0.00    -0.031 A 
ATOM      6  C6  IND d   1      -0.716   2.883   0.251  0.00  0.00     0.015 A 
ATOM      7  C7  IND d   1      -1.230   1.719   0.750  0.00  0.00    -0.016 A 
ATOM      8  C8  IND d   1      -0.537   0.553   0.456  0.00  0.00    -0.047 A 
ATOM      9  C9  IND d   1       0.619   0.555  -0.335  0.00  0.00    -0.096 A 
ATOM     10  HN1 IND d   1      -1.467  -1.030   1.264  0.00  0.00     0.298 HD
ENDROOT
TORSDOF 0
ENDMDL
