MODEL 1
REMARK minimizedAffinity -0.607478976
REMARK minimizedRMSD -1
REMARK  0 active torsions:
REMARK  status: ('A' for Active; 'I' for Inactive)
ROOT
ATOM      1  N1  IND d   1       0.828  -0.334  -0.361  0.00  0.00    -0.196 N 
ATOM      2  C2  IND d   1       0.033  -1.427  -0.157  0.00  0.00     0.054 A 
ATOM      3  C3  IND d   1      -1.059  -1.086   0.563  0.00  0.00    -0.031 A 
ATOM      4  C4  IND d   1      -1.795   1.227   1.422  0.00  0.00     0.051 A 
ATOM      5  C5  IND d   1      -1.377   2.525   1.513  0.00  0.00    -0.031 A 
ATOM      6  C6  IND d   1      -0.180   2.946   0.970  0.00  0.00     0.015 A 
ATOM      7  C7  IND d   1       0.643   2.082   0.304  0.00  0.00    -0.016 A 
ATOM      8  C8  IND d   1       0.225   0.762   0.216  0.00  0.00    -0.047 A 
ATOM      9  C9  IND d   1      -0.969   0.320   0.801  0.00  0.00    -0.096 A 
ATOM     10  HN1 IND d   1       1.579  -0.332  -0.780  0.00  0.00     0.298 HD
ENDROOT
TORSDOF 0
ENDMDL
