MODEL 1
REMARK minimizedAffinity -4.51349783
REMARK minimizedRMSD -1
REMARK  0 active torsions:
REMARK  status: ('A' for Active; 'I' for Inactive)
ROOT
ATOM      1  N1  IND d   1       0.642  -0.380  -0.426  0.00  0.00    -0.196 N 
ATOM      2  C2  IND d   1      -0.396  -1.156   0.009  0.00  0.00     0.054 A 
ATOM      3  C3  IND d   1      -1.364  -0.385   0.552  0.00  0.00    -0.031 A 
ATOM      4  C4  IND d   1      -1.500   2.179   0.740  0.00  0.00     0.051 A 
ATOM      5  C5  IND d   1      -0.775   3.315   0.516  0.00  0.00    -0.031 A 
ATOM      6  C6  IND d   1       0.484   3.277  -0.048  0.00  0.00     0.015 A 
ATOM      7  C7  IND d   1       1.062   2.097  -0.420  0.00  0.00    -0.016 A 
ATOM      8  C8  IND d   1       0.332   0.940  -0.187  0.00  0.00    -0.047 A 
ATOM      9  C9  IND d   1      -0.928   0.969   0.423  0.00  0.00    -0.096 A 
ATOM     10  HN1 IND d   1       1.367  -0.669  -0.788  0.00  0.00     0.298 HD
ENDROOT
TORSDOF 0
ENDMDL
