MODEL 1
REMARK minimizedAffinity 0.678719521
REMARK minimizedRMSD -1
REMARK  0 active torsions:
REMARK  status: ('A' for Active; 'I' for Inactive)
ROOT
ATOM      1  N1  IND d   1      -3.344  -3.920  -1.794  0.00  0.00    -0.196 N 
ATOM      2  C2  IND d   1      -3.748  -4.235  -0.527  0.00  0.00     0.054 A 
ATOM      3  C3  IND d   1      -2.774  -3.939   0.364  0.00  0.00    -0.031 A 
ATOM      4  C4  IND d   1      -0.480  -2.838  -0.027  0.00  0.00     0.051 A 
ATOM      5  C5  IND d   1       0.350  -2.403  -1.021  0.00  0.00    -0.031 A 
ATOM      6  C6  IND d   1      -0.016  -2.450  -2.350  0.00  0.00     0.015 A 
ATOM      7  C7  IND d   1      -1.238  -2.925  -2.736  0.00  0.00    -0.016 A 
ATOM      8  C8  IND d   1      -2.081  -3.374  -1.730  0.00  0.00    -0.047 A 
ATOM      9  C9  IND d   1      -1.698  -3.369  -0.382  0.00  0.00    -0.096 A 
ATOM     10  HN1 IND d   1      -3.803  -4.043  -2.512  0.00  0.00     0.298 HD
ENDROOT
TORSDOF 0
ENDMDL
