MODEL 1
REMARK minimizedAffinity -1.75003004
REMARK minimizedRMSD -1
REMARK  0 active torsions:
REMARK  status: ('A' for Active; 'I' for Inactive)
ROOT
ATOM      1  N1  IND d   1      -1.634   1.767   3.197  0.00  0.00    -0.196 N 
ATOM      2  C2  IND d   1      -1.217   2.991   3.643  0.00  0.00     0.054 A 
ATOM      3  C3  IND d   1      -0.432   3.587   2.718  0.00  0.00    -0.031 A 
ATOM      4  C4  IND d   1       0.218   2.781   0.361  0.00  0.00     0.051 A 
ATOM      5  C5  IND d   1       0.109   1.708  -0.479  0.00  0.00    -0.031 A 
ATOM      6  C6  IND d   1      -0.603   0.579  -0.130  0.00  0.00     0.015 A 
ATOM      7  C7  IND d   1      -1.245   0.484   1.072  0.00  0.00    -0.016 A 
ATOM      8  C8  IND d   1      -1.131   1.569   1.930  0.00  0.00    -0.047 A 
ATOM      9  C9  IND d   1      -0.374   2.700   1.599  0.00  0.00    -0.096 A 
ATOM     10  HN1 IND d   1      -2.126   1.215   3.634  0.00  0.00     0.298 HD
ENDROOT
TORSDOF 0
ENDMDL
