MODEL 1
REMARK minimizedAffinity -5.59488964
REMARK minimizedRMSD -1
REMARK  0 active torsions:
REMARK  status: ('A' for Active; 'I' for Inactive)
ROOT
ATOM      1  N1  IND d   1       2.574   1.032   0.988  0.00  0.00    -0.196 N 
ATOM      2  C2  IND d   1       2.799   2.323   1.377  0.00  0.00     0.054 A 
ATOM      3  C3  IND d   1       1.645   3.026   1.364  0.00  0.00    -0.031 A 
ATOM      4  C4  IND d   1      -0.747   2.234   0.838  0.00  0.00     0.051 A 
ATOM      5  C5  IND d   1      -1.450   1.148   0.398  0.00  0.00    -0.031 A 
ATOM      6  C6  IND d   1      -0.836  -0.058   0.130  0.00  0.00     0.015 A 
ATOM      7  C7  IND d   1       0.509  -0.226   0.303  0.00  0.00    -0.016 A 
ATOM      8  C8  IND d   1       1.227   0.877   0.743  0.00  0.00    -0.047 A 
ATOM      9  C9  IND d   1       0.615   2.115   0.976  0.00  0.00    -0.096 A 
ATOM     10  HN1 IND d   1       3.172   0.419   0.911  0.00  0.00     0.298 HD
ENDROOT
TORSDOF 0
ENDMDL
