MODEL 1
REMARK minimizedAffinity -2.67230821
REMARK minimizedRMSD -1
REMARK  0 active torsions:
REMARK  status: ('A' for Active; 'I' for Inactive)
ROOT
ATOM      1  N1  IND d   1       0.779  -1.027  -0.853  0.00  0.00    -0.196 N 
ATOM      2  C2  IND d   1       0.016  -0.202  -0.074  0.00  0.00     0.054 A 
ATOM      3  C3  IND d   1      -1.169  -0.788   0.212  0.00  0.00    -0.031 A 
ATOM      4  C4  IND d   1      -2.025  -3.134  -0.411  0.00  0.00     0.051 A 
ATOM      5  C5  IND d   1      -1.700  -4.240  -1.144  0.00  0.00    -0.031 A 
ATOM      6  C6  IND d   1      -0.506  -4.335  -1.830  0.00  0.00     0.015 A 
ATOM      7  C7  IND d   1       0.416  -3.327  -1.798  0.00  0.00    -0.016 A 
ATOM      8  C8  IND d   1       0.085  -2.199  -1.060  0.00  0.00    -0.047 A 
ATOM      9  C9  IND d   1      -1.143  -2.080  -0.397  0.00  0.00    -0.096 A 
ATOM     10  HN1 IND d   1       1.560  -0.844  -1.162  0.00  0.00     0.298 HD
ENDROOT
TORSDOF 0
ENDMDL
