MODEL 1
REMARK minimizedAffinity -4.15177441
REMARK minimizedRMSD -1
REMARK  0 active torsions:
REMARK  status: ('A' for Active; 'I' for Inactive)
ROOT
ATOM      1  N1  IND d   1       2.418   0.800   1.046  0.00  0.00    -0.196 N 
ATOM      2  C2  IND d   1       2.871   1.989   1.546  0.00  0.00     0.054 A 
ATOM      3  C3  IND d   1       1.860   2.882   1.625  0.00  0.00    -0.031 A 
ATOM      4  C4  IND d   1      -0.639   2.577   1.084  0.00  0.00     0.051 A 
ATOM      5  C5  IND d   1      -1.525   1.677   0.562  0.00  0.00    -0.031 A 
ATOM      6  C6  IND d   1      -1.136   0.413   0.169  0.00  0.00     0.015 A 
ATOM      7  C7  IND d   1       0.159  -0.004   0.295  0.00  0.00    -0.016 A 
ATOM      8  C8  IND d   1       1.064   0.909   0.818  0.00  0.00    -0.047 A 
ATOM      9  C9  IND d   1       0.682   2.207   1.179  0.00  0.00    -0.096 A 
ATOM     10  HN1 IND d   1       2.898   0.103   0.898  0.00  0.00     0.298 HD
ENDROOT
TORSDOF 0
ENDMDL
