MODEL 1
REMARK minimizedAffinity -5.43985605
REMARK minimizedRMSD -1
REMARK  0 active torsions:
REMARK  status: ('A' for Active; 'I' for Inactive)
ROOT
ATOM      1  N1  IND d   1       1.094  -1.230  -0.193  0.00  0.00    -0.196 N 
ATOM      2  C2  IND d   1       0.073  -1.915  -0.789  0.00  0.00     0.054 A 
ATOM      3  C3  IND d   1      -0.946  -1.078  -1.085  0.00  0.00    -0.031 A 
ATOM      4  C4  IND d   1      -1.110   1.473  -0.773  0.00  0.00     0.051 A 
ATOM      5  C5  IND d   1      -0.441   2.537  -0.238  0.00  0.00    -0.031 A 
ATOM      6  C6  IND d   1       0.800   2.399   0.349  0.00  0.00     0.015 A 
ATOM      7  C7  IND d   1       1.426   1.186   0.413  0.00  0.00    -0.016 A 
ATOM      8  C8  IND d   1       0.747   0.101  -0.124  0.00  0.00    -0.047 A 
ATOM      9  C9  IND d   1      -0.531   0.229  -0.683  0.00  0.00    -0.096 A 
ATOM     10  HN1 IND d   1       1.830  -1.573   0.090  0.00  0.00     0.298 HD
ENDROOT
TORSDOF 0
ENDMDL
