MODEL 1
REMARK minimizedAffinity -4.79039049
REMARK minimizedRMSD -1
REMARK  1 active torsions:
REMARK  status: ('A' for Active; 'I' for Inactive)
REMARK    1  A    between atoms: C1_2  and  C2_3 
ROOT
ATOM      1  C2  UNL d   1       0.349   0.268   3.745  0.00  0.00    -0.076 A 
ATOM      2  C3  UNL d   1       0.263  -0.115   2.395  0.00  0.00     0.004 A 
ATOM      3  C4  UNL d   1      -0.843   0.229   1.620  0.00  0.00    -0.003 A 
ATOM      4  C5  UNL d   1      -1.882   0.962   2.183  0.00  0.00     0.000 A 
ATOM      5  C6  UNL d   1      -1.806   1.365   3.516  0.00  0.00     0.000 A 
ATOM      6  C7  UNL d   1      -0.690   1.041   4.306  0.00  0.00    -0.073 A 
ATOM      7  C8  UNL d   1      -0.663   1.496   5.739  0.00  0.00     0.078 C 
ENDROOT
BRANCH   1   8
ATOM      8  C1  UNL d   1       1.561  -0.157   4.543  0.00  0.00     0.053 C 
ATOM      9  C   UNL d   1       1.776  -1.663   4.518  0.00  0.00     0.018 C 
ENDBRANCH   1   8
TORSDOF 1
ENDMDL
