MODEL 1
REMARK minimizedAffinity -0.380678654
REMARK minimizedRMSD -1
REMARK  1 active torsions:
REMARK  status: ('A' for Active; 'I' for Inactive)
REMARK    1  A    between atoms: C1_2  and  C2_3 
ROOT
ATOM      1  C2  UNL d   1      -1.092   0.351   1.340  0.00  0.00    -0.076 A 
ATOM      2  C3  UNL d   1      -1.769   0.125   2.551  0.00  0.00     0.004 A 
ATOM      3  C4  UNL d   1      -1.138  -0.512   3.618  0.00  0.00    -0.003 A 
ATOM      4  C5  UNL d   1       0.182  -0.933   3.492  0.00  0.00     0.000 A 
ATOM      5  C6  UNL d   1       0.874  -0.701   2.304  0.00  0.00     0.000 A 
ATOM      6  C7  UNL d   1       0.258  -0.045   1.224  0.00  0.00    -0.073 A 
ATOM      7  C8  UNL d   1       1.050   0.173  -0.035  0.00  0.00     0.078 C 
ENDROOT
BRANCH   1   8
ATOM      8  C1  UNL d   1      -1.836   1.023   0.209  0.00  0.00     0.053 C 
ATOM      9  C   UNL d   1      -3.016   0.198  -0.282  0.00  0.00     0.018 C 
ENDBRANCH   1   8
TORSDOF 1
ENDMDL
