MODEL 1
REMARK minimizedAffinity 9.87434006
REMARK minimizedRMSD -1
REMARK  1 active torsions:
REMARK  status: ('A' for Active; 'I' for Inactive)
REMARK    1  A    between atoms: C1_2  and  C2_3 
ROOT
ATOM      1  C2  UNL d   1      -0.682  -0.085   1.283  0.00  0.00    -0.076 A 
ATOM      2  C3  UNL d   1      -1.345   0.348   0.121  0.00  0.00     0.004 A 
ATOM      3  C4  UNL d   1      -2.736   0.405   0.069  0.00  0.00    -0.003 A 
ATOM      4  C5  UNL d   1      -3.488   0.031   1.178  0.00  0.00     0.000 A 
ATOM      5  C6  UNL d   1      -2.846  -0.384   2.344  0.00  0.00     0.000 A 
ATOM      6  C7  UNL d   1      -1.443  -0.431   2.419  0.00  0.00    -0.073 A 
ATOM      7  C8  UNL d   1      -0.804  -0.892   3.700  0.00  0.00     0.078 C 
ENDROOT
BRANCH   1   8
ATOM      8  C1  UNL d   1       0.829  -0.152   1.272  0.00  0.00     0.053 C 
ATOM      9  C   UNL d   1       1.402  -0.157  -0.137  0.00  0.00     0.018 C 
ENDBRANCH   1   8
TORSDOF 1
ENDMDL
