MODEL 1
REMARK minimizedAffinity 7.50058222
REMARK minimizedRMSD -1
REMARK  1 active torsions:
REMARK  status: ('A' for Active; 'I' for Inactive)
REMARK    1  A    between atoms: C1_2  and  C2_3 
ROOT
ATOM      1  C2  UNL d   1      -0.720  -0.361   1.896  0.00  0.00    -0.076 A 
ATOM      2  C3  UNL d   1      -1.995  -0.120   2.438  0.00  0.00     0.004 A 
ATOM      3  C4  UNL d   1      -3.070   0.223   1.619  0.00  0.00    -0.003 A 
ATOM      4  C5  UNL d   1      -2.887   0.331   0.245  0.00  0.00     0.000 A 
ATOM      5  C6  UNL d   1      -1.634   0.079  -0.312  0.00  0.00     0.000 A 
ATOM      6  C7  UNL d   1      -0.544  -0.284   0.498  0.00  0.00    -0.073 A 
ATOM      7  C8  UNL d   1       0.787  -0.539  -0.155  0.00  0.00     0.078 C 
ENDROOT
BRANCH   1   8
ATOM      8  C1  UNL d   1       0.414  -0.703   2.836  0.00  0.00     0.053 C 
ATOM      9  C   UNL d   1      -0.078  -1.244   4.169  0.00  0.00     0.018 C 
ENDBRANCH   1   8
TORSDOF 1
ENDMDL
