MODEL 1
REMARK minimizedAffinity 6.30747843
REMARK minimizedRMSD -1
REMARK  1 active torsions:
REMARK  status: ('A' for Active; 'I' for Inactive)
REMARK    1  A    between atoms: C1_2  and  C2_3 
ROOT
ATOM      1  C2  UNL d   1       1.358   1.203  -1.108  0.00  0.00    -0.076 A 
ATOM      2  C3  UNL d   1       1.662   1.410  -2.464  0.00  0.00     0.004 A 
ATOM      3  C4  UNL d   1       0.904   0.811  -3.469  0.00  0.00    -0.003 A 
ATOM      4  C5  UNL d   1      -0.171  -0.004  -3.134  0.00  0.00     0.000 A 
ATOM      5  C6  UNL d   1      -0.498  -0.207  -1.793  0.00  0.00     0.000 A 
ATOM      6  C7  UNL d   1       0.246   0.403  -0.768  0.00  0.00    -0.073 A 
ATOM      7  C8  UNL d   1      -0.147   0.145   0.661  0.00  0.00     0.078 C 
ENDROOT
BRANCH   1   8
ATOM      8  C1  UNL d   1       2.232   1.857  -0.062  0.00  0.00     0.053 C 
ATOM      9  C   UNL d   1       3.030   3.027  -0.617  0.00  0.00     0.018 C 
ENDBRANCH   1   8
TORSDOF 1
ENDMDL
