MODEL 1
REMARK minimizedAffinity 1.45441222
REMARK minimizedRMSD -1
REMARK  1 active torsions:
REMARK  status: ('A' for Active; 'I' for Inactive)
REMARK    1  A    between atoms: C1_2  and  C2_3 
ROOT
ATOM      1  C2  UNL d   1      -1.269   0.191   1.290  0.00  0.00    -0.076 A 
ATOM      2  C3  UNL d   1      -2.033   0.143   2.469  0.00  0.00     0.004 A 
ATOM      3  C4  UNL d   1      -1.491  -0.349   3.655  0.00  0.00    -0.003 A 
ATOM      4  C5  UNL d   1      -0.177  -0.802   3.681  0.00  0.00     0.000 A 
ATOM      5  C6  UNL d   1       0.601  -0.746   2.525  0.00  0.00     0.000 A 
ATOM      6  C7  UNL d   1       0.075  -0.237   1.325  0.00  0.00    -0.073 A 
ATOM      7  C8  UNL d   1       0.957  -0.206   0.107  0.00  0.00     0.078 C 
ENDROOT
BRANCH   1   8
ATOM      8  C1  UNL d   1      -1.918   0.710   0.027  0.00  0.00     0.053 C 
ATOM      9  C   UNL d   1      -3.202  -0.031  -0.315  0.00  0.00     0.018 C 
ENDBRANCH   1   8
TORSDOF 1
ENDMDL
