MODEL 1
REMARK minimizedAffinity -0.55965662
REMARK minimizedRMSD -1
REMARK  1 active torsions:
REMARK  status: ('A' for Active; 'I' for Inactive)
REMARK    1  A    between atoms: C1_2  and  C2_3 
ROOT
ATOM      1  C2  UNL d   1      -1.081  -0.591   2.495  0.00  0.00    -0.076 A 
ATOM      2  C3  UNL d   1      -2.474  -0.578   2.311  0.00  0.00     0.004 A 
ATOM      3  C4  UNL d   1      -3.323  -1.219   3.212  0.00  0.00    -0.003 A 
ATOM      4  C5  UNL d   1      -2.791  -1.884   4.312  0.00  0.00     0.000 A 
ATOM      5  C6  UNL d   1      -1.412  -1.893   4.519  0.00  0.00     0.000 A 
ATOM      6  C7  UNL d   1      -0.544  -1.237   3.629  0.00  0.00    -0.073 A 
ATOM      7  C8  UNL d   1       0.935  -1.284   3.898  0.00  0.00     0.078 C 
ENDROOT
BRANCH   1   8
ATOM      8  C1  UNL d   1      -0.209   0.098   1.470  0.00  0.00     0.053 C 
ATOM      9  C   UNL d   1      -0.705  -0.109   0.048  0.00  0.00     0.018 C 
ENDBRANCH   1   8
TORSDOF 1
ENDMDL
