MODEL 1
REMARK minimizedAffinity 1.81364846
REMARK minimizedRMSD -1
REMARK  1 active torsions:
REMARK  status: ('A' for Active; 'I' for Inactive)
REMARK    1  A    between atoms: C1_2  and  C2_3 
ROOT
ATOM      1  C2  UNL d   1      -1.706   0.329   1.928  0.00  0.00    -0.076 A 
ATOM      2  C3  UNL d   1      -2.770   0.129   2.824  0.00  0.00     0.004 A 
ATOM      3  C4  UNL d   1      -2.549  -0.399   4.095  0.00  0.00    -0.003 A 
ATOM      4  C5  UNL d   1      -1.259  -0.735   4.491  0.00  0.00     0.000 A 
ATOM      5  C6  UNL d   1      -0.189  -0.527   3.621  0.00  0.00     0.000 A 
ATOM      6  C7  UNL d   1      -0.393   0.020   2.343  0.00  0.00    -0.073 A 
ATOM      7  C8  UNL d   1       0.797   0.218   1.444  0.00  0.00     0.078 C 
ENDROOT
BRANCH   1   8
ATOM      8  C1  UNL d   1      -2.010   0.880   0.553  0.00  0.00     0.053 C 
ATOM      9  C   UNL d   1      -2.734  -0.125  -0.330  0.00  0.00     0.018 C 
ENDBRANCH   1   8
TORSDOF 1
ENDMDL
