MODEL 1
REMARK minimizedAffinity 0.850836813
REMARK minimizedRMSD -1
REMARK  1 active torsions:
REMARK  status: ('A' for Active; 'I' for Inactive)
REMARK    1  A    between atoms: N_2  and  C1_3 
ROOT
ATOM      1  C1  UNL d   1      -4.970   1.007  -3.015  0.00  0.00     0.143 A 
ATOM      2  C2  UNL d   1      -5.596   1.944  -3.843  0.00  0.00    -0.057 A 
ATOM      3  C3  UNL d   1      -4.884   2.621  -4.841  0.00  0.00     0.033 A 
ATOM      4  C4  UNL d   1      -3.522   2.394  -5.008  0.00  0.00    -0.042 A 
ATOM      5  C5  UNL d   1      -2.874   1.485  -4.179  0.00  0.00     0.033 A 
ATOM      6  C6  UNL d   1      -3.591   0.807  -3.190  0.00  0.00    -0.057 A 
ENDROOT
BRANCH   1   7
ATOM      7  N   UNL d   1      -5.601   0.373  -1.941  0.00  0.00    -0.732 N 
ATOM      8  C   UNL d   1      -5.170   0.622  -0.582  0.00  0.00     0.284 C 
ATOM      9  H3  UNL d   1      -6.611   0.329  -2.056  0.00  0.00     0.395 HD
ENDBRANCH   1   7
TORSDOF 1
ENDMDL
