MODEL 1
REMARK minimizedAffinity 13.2469835
REMARK minimizedRMSD -1
REMARK  1 active torsions:
REMARK  status: ('A' for Active; 'I' for Inactive)
REMARK    1  A    between atoms: N_2  and  C1_3 
ROOT
ATOM      1  C1  UNL d   1       0.011   2.500   1.451  0.00  0.00     0.143 A 
ATOM      2  C2  UNL d   1      -1.342   2.853   1.508  0.00  0.00    -0.057 A 
ATOM      3  C3  UNL d   1      -2.178   2.364   2.520  0.00  0.00     0.033 A 
ATOM      4  C4  UNL d   1      -1.680   1.488   3.479  0.00  0.00    -0.042 A 
ATOM      5  C5  UNL d   1      -0.345   1.104   3.427  0.00  0.00     0.033 A 
ATOM      6  C6  UNL d   1       0.486   1.601   2.419  0.00  0.00    -0.057 A 
ENDROOT
BRANCH   1   7
ATOM      7  N   UNL d   1       0.869   2.874   0.414  0.00  0.00    -0.732 N 
ATOM      8  C   UNL d   1       2.160   2.238   0.261  0.00  0.00     0.284 C 
ATOM      9  H3  UNL d   1       0.376   3.029  -0.462  0.00  0.00     0.395 HD
ENDBRANCH   1   7
TORSDOF 1
ENDMDL
