MODEL 1
REMARK minimizedAffinity 2.87380815
REMARK minimizedRMSD -1
REMARK  1 active torsions:
REMARK  status: ('A' for Active; 'I' for Inactive)
REMARK    1  A    between atoms: N_2  and  C1_3 
ROOT
ATOM      1  C1  UNL d   1       2.580  -0.555  -0.114  0.00  0.00     0.143 A 
ATOM      2  C2  UNL d   1       2.970  -1.339   0.977  0.00  0.00    -0.057 A 
ATOM      3  C3  UNL d   1       2.457  -2.628   1.166  0.00  0.00     0.033 A 
ATOM      4  C4  UNL d   1       1.519  -3.146   0.280  0.00  0.00    -0.042 A 
ATOM      5  C5  UNL d   1       1.097  -2.375  -0.798  0.00  0.00     0.033 A 
ATOM      6  C6  UNL d   1       1.618  -1.092  -0.985  0.00  0.00    -0.057 A 
ENDROOT
BRANCH   1   7
ATOM      7  N   UNL d   1       2.979   0.770  -0.302  0.00  0.00    -0.732 N 
ATOM      8  C   UNL d   1       2.183   1.861   0.217  0.00  0.00     0.284 C 
ATOM      9  H3  UNL d   1       3.982   0.894  -0.184  0.00  0.00     0.395 HD
ENDBRANCH   1   7
TORSDOF 1
ENDMDL
