MODEL 1
REMARK minimizedAffinity 8.18382263
REMARK minimizedRMSD -1
REMARK  0 active torsions:
REMARK  status: ('A' for Active; 'I' for Inactive)
ROOT
ATOM      1  O1  BZF d   1       1.753   0.309   1.871  0.00  0.00    -0.204 OA
ATOM      2  C2  BZF d   1       2.129  -0.971   1.510  0.00  0.00     0.174 A 
ATOM      3  C3  BZF d   1       1.728  -1.251   0.253  0.00  0.00    -0.012 A 
ATOM      4  C3A BZF d   1       1.139  -0.040  -0.233  0.00  0.00    -0.107 A 
ATOM      5  C4  BZF d   1       0.572   0.316  -1.423  0.00  0.00     0.055 A 
ATOM      6  C5  BZF d   1       0.026   1.554  -1.549  0.00  0.00    -0.016 A 
ATOM      7  C6  BZF d   1       0.026   2.458  -0.507  0.00  0.00     0.022 A 
ATOM      8  C7  BZF d   1       0.582   2.152   0.690  0.00  0.00     0.029 A 
ATOM      9  C7A BZF d   1       1.163   0.913   0.811  0.00  0.00     0.058 A 
ENDROOT
TORSDOF 0
ENDMDL
