MODEL 1
REMARK minimizedAffinity 3.48903489
REMARK minimizedRMSD -1
REMARK  0 active torsions:
REMARK  status: ('A' for Active; 'I' for Inactive)
ROOT
ATOM      1  O1  BZF d   1       0.547  -0.624  -2.589  0.00  0.00    -0.204 OA
ATOM      2  C2  BZF d   1      -0.453  -0.021  -3.326  0.00  0.00     0.174 A 
ATOM      3  C3  BZF d   1      -0.956   1.044  -2.669  0.00  0.00    -0.012 A 
ATOM      4  C3A BZF d   1      -0.160   1.166  -1.486  0.00  0.00    -0.107 A 
ATOM      5  C4  BZF d   1      -0.162   2.043  -0.439  0.00  0.00     0.055 A 
ATOM      6  C5  BZF d   1       0.698   1.841   0.594  0.00  0.00    -0.016 A 
ATOM      7  C6  BZF d   1       1.568   0.771   0.615  0.00  0.00     0.022 A 
ATOM      8  C7  BZF d   1       1.610  -0.123  -0.403  0.00  0.00     0.029 A 
ATOM      9  C7A BZF d   1       0.765   0.097  -1.463  0.00  0.00     0.058 A 
ENDROOT
TORSDOF 0
ENDMDL
