MODEL 1
REMARK minimizedAffinity 11.0899267
REMARK minimizedRMSD -1
REMARK  0 active torsions:
REMARK  status: ('A' for Active; 'I' for Inactive)
ROOT
ATOM      1  O1  BZF d   1       2.108   4.718   0.088  0.00  0.00    -0.204 OA
ATOM      2  C2  BZF d   1       1.385   5.547  -0.748  0.00  0.00     0.174 A 
ATOM      3  C3  BZF d   1       0.295   4.911  -1.225  0.00  0.00    -0.012 A 
ATOM      4  C3A BZF d   1       0.291   3.635  -0.579  0.00  0.00    -0.107 A 
ATOM      5  C4  BZF d   1      -0.550   2.560  -0.630  0.00  0.00     0.055 A 
ATOM      6  C5  BZF d   1      -0.231   1.439   0.069  0.00  0.00    -0.016 A 
ATOM      7  C6  BZF d   1       0.921   1.356   0.822  0.00  0.00     0.022 A 
ATOM      8  C7  BZF d   1       1.783   2.398   0.907  0.00  0.00     0.029 A 
ATOM      9  C7A BZF d   1       1.447   3.544   0.229  0.00  0.00     0.058 A 
ENDROOT
TORSDOF 0
ENDMDL
