MODEL 1
REMARK minimizedAffinity 1.73428309
REMARK minimizedRMSD -1
REMARK  0 active torsions:
REMARK  status: ('A' for Active; 'I' for Inactive)
ROOT
ATOM      1  O1  BZF d   1      -3.758   5.341   1.420  0.00  0.00    -0.204 OA
ATOM      2  C2  BZF d   1      -4.937   5.997   1.719  0.00  0.00     0.174 A 
ATOM      3  C3  BZF d   1      -6.000   5.201   1.485  0.00  0.00    -0.012 A 
ATOM      4  C3A BZF d   1      -5.447   3.940   1.096  0.00  0.00    -0.107 A 
ATOM      5  C4  BZF d   1      -5.999   2.739   0.750  0.00  0.00     0.055 A 
ATOM      6  C5  BZF d   1      -5.184   1.728   0.353  0.00  0.00    -0.016 A 
ATOM      7  C6  BZF d   1      -3.815   1.883   0.285  0.00  0.00     0.022 A 
ATOM      8  C7  BZF d   1      -3.221   3.053   0.623  0.00  0.00     0.029 A 
ATOM      9  C7A BZF d   1      -4.040   4.067   1.057  0.00  0.00     0.058 A 
ENDROOT
TORSDOF 0
ENDMDL
