MODEL 1
REMARK minimizedAffinity -1.35808146
REMARK minimizedRMSD -1
REMARK  0 active torsions:
REMARK  status: ('A' for Active; 'I' for Inactive)
ROOT
ATOM      1  O1  BZF d   1      -3.996   5.104  -5.072  0.00  0.00    -0.204 OA
ATOM      2  C2  BZF d   1      -5.027   5.455  -5.922  0.00  0.00     0.174 A 
ATOM      3  C3  BZF d   1      -5.943   4.468  -5.996  0.00  0.00    -0.012 A 
ATOM      4  C3A BZF d   1      -5.501   3.473  -5.067  0.00  0.00    -0.107 A 
ATOM      5  C4  BZF d   1      -6.000   2.263  -4.679  0.00  0.00     0.055 A 
ATOM      6  C5  BZF d   1      -5.287   1.504  -3.805  0.00  0.00    -0.016 A 
ATOM      7  C6  BZF d   1      -4.071   1.922  -3.305  0.00  0.00     0.022 A 
ATOM      8  C7  BZF d   1      -3.538   3.117  -3.657  0.00  0.00     0.029 A 
ATOM      9  C7A BZF d   1      -4.271   3.901  -4.514  0.00  0.00     0.058 A 
ENDROOT
TORSDOF 0
ENDMDL
