MODEL 1
REMARK minimizedAffinity 2.94286299
REMARK minimizedRMSD -1
REMARK  0 active torsions:
REMARK  status: ('A' for Active; 'I' for Inactive)
ROOT
ATOM      1  O1  BZF d   1      -3.837   2.607  -3.513  0.00  0.00    -0.204 OA
ATOM      2  C2  BZF d   1      -2.542   3.022  -3.269  0.00  0.00     0.174 A 
ATOM      3  C3  BZF d   1      -2.255   4.134  -3.975  0.00  0.00    -0.012 A 
ATOM      4  C3A BZF d   1      -3.474   4.486  -4.635  0.00  0.00    -0.107 A 
ATOM      5  C4  BZF d   1      -3.829   5.507  -5.470  0.00  0.00     0.055 A 
ATOM      6  C5  BZF d   1      -5.080   5.522  -6.000  0.00  0.00    -0.016 A 
ATOM      7  C6  BZF d   1      -5.999   4.532  -5.720  0.00  0.00     0.022 A 
ATOM      8  C7  BZF d   1      -5.695   3.502  -4.894  0.00  0.00     0.029 A 
ATOM      9  C7A BZF d   1      -4.442   3.501  -4.331  0.00  0.00     0.058 A 
ENDROOT
TORSDOF 0
ENDMDL
