MODEL 1
REMARK minimizedAffinity 13.807642
REMARK minimizedRMSD -1
REMARK  0 active torsions:
REMARK  status: ('A' for Active; 'I' for Inactive)
ROOT
ATOM      1  O1  BZF d   1       1.502   2.874   0.324  0.00  0.00    -0.204 OA
ATOM      2  C2  BZF d   1       0.382   2.174   0.729  0.00  0.00     0.174 A 
ATOM      3  C3  BZF d   1      -0.744   2.835   0.389  0.00  0.00    -0.012 A 
ATOM      4  C3A BZF d   1      -0.301   3.977  -0.351  0.00  0.00    -0.107 A 
ATOM      5  C4  BZF d   1      -0.952   5.006  -0.968  0.00  0.00     0.055 A 
ATOM      6  C5  BZF d   1      -0.223   6.000  -1.541  0.00  0.00    -0.016 A 
ATOM      7  C6  BZF d   1       1.156   5.999  -1.510  0.00  0.00     0.022 A 
ATOM      8  C7  BZF d   1       1.846   4.997  -0.914  0.00  0.00     0.029 A 
ATOM      9  C7A BZF d   1       1.113   3.974  -0.363  0.00  0.00     0.058 A 
ENDROOT
TORSDOF 0
ENDMDL
