MODEL 1
REMARK minimizedAffinity 10.551446
REMARK minimizedRMSD -1
REMARK  0 active torsions:
REMARK  status: ('A' for Active; 'I' for Inactive)
ROOT
ATOM      1  O1  BZF d   1       3.187  -2.003   1.253  0.00  0.00    -0.204 OA
ATOM      2  C2  BZF d   1       2.141  -1.122   1.054  0.00  0.00     0.174 A 
ATOM      3  C3  BZF d   1       1.855  -0.454   2.191  0.00  0.00    -0.012 A 
ATOM      4  C3A BZF d   1       2.840  -0.882   3.136  0.00  0.00    -0.107 A 
ATOM      5  C4  BZF d   1       3.091  -0.561   4.440  0.00  0.00     0.055 A 
ATOM      6  C5  BZF d   1       4.085  -1.212   5.100  0.00  0.00    -0.016 A 
ATOM      7  C6  BZF d   1       4.842  -2.191   4.490  0.00  0.00     0.022 A 
ATOM      8  C7  BZF d   1       4.634  -2.539   3.197  0.00  0.00     0.029 A 
ATOM      9  C7A BZF d   1       3.652  -1.860   2.518  0.00  0.00     0.058 A 
ENDROOT
TORSDOF 0
ENDMDL
