MODEL 1
REMARK minimizedAffinity 5.82671738
REMARK minimizedRMSD -1
REMARK  0 active torsions:
REMARK  status: ('A' for Active; 'I' for Inactive)
ROOT
ATOM      1  O1  BZF d   1      -1.783   3.013  -6.000  0.00  0.00    -0.204 OA
ATOM      2  C2  BZF d   1      -2.688   3.873  -5.408  0.00  0.00     0.174 A 
ATOM      3  C3  BZF d   1      -2.874   3.554  -4.111  0.00  0.00    -0.012 A 
ATOM      4  C3A BZF d   1      -1.963   2.480  -3.854  0.00  0.00    -0.107 A 
ATOM      5  C4  BZF d   1      -1.669   1.745  -2.741  0.00  0.00     0.055 A 
ATOM      6  C5  BZF d   1      -0.783   0.720  -2.843  0.00  0.00    -0.016 A 
ATOM      7  C6  BZF d   1      -0.177   0.400  -4.040  0.00  0.00     0.022 A 
ATOM      8  C7  BZF d   1      -0.433   1.104  -5.169  0.00  0.00     0.029 A 
ATOM      9  C7A BZF d   1      -1.303   2.161  -5.063  0.00  0.00     0.058 A 
ENDROOT
TORSDOF 0
ENDMDL
