MODEL 1
REMARK minimizedAffinity 6.7921977
REMARK minimizedRMSD -1
REMARK  0 active torsions:
REMARK  status: ('A' for Active; 'I' for Inactive)
ROOT
ATOM      1  O1  BZF d   1       0.350   2.191   1.167  0.00  0.00    -0.204 OA
ATOM      2  C2  BZF d   1       0.007   2.986   0.090  0.00  0.00     0.174 A 
ATOM      3  C3  BZF d   1       0.276   2.359  -1.073  0.00  0.00    -0.012 A 
ATOM      4  C3A BZF d   1       0.735   1.056  -0.701  0.00  0.00    -0.107 A 
ATOM      5  C4  BZF d   1       1.140  -0.036  -1.414  0.00  0.00     0.055 A 
ATOM      6  C5  BZF d   1       1.597  -1.128  -0.747  0.00  0.00    -0.016 A 
ATOM      7  C6  BZF d   1       1.666  -1.161   0.631  0.00  0.00     0.022 A 
ATOM      8  C7  BZF d   1       1.270  -0.104   1.381  0.00  0.00     0.029 A 
ATOM      9  C7A BZF d   1       0.778   0.989   0.711  0.00  0.00     0.058 A 
ENDROOT
TORSDOF 0
ENDMDL
