MODEL 1
REMARK minimizedAffinity 8.0367918
REMARK minimizedRMSD -1
REMARK  0 active torsions:
REMARK  status: ('A' for Active; 'I' for Inactive)
ROOT
ATOM      1  O1  BZF d   1      -4.328   4.529  -4.482  0.00  0.00    -0.204 OA
ATOM      2  C2  BZF d   1      -3.472   5.555  -4.832  0.00  0.00     0.174 A 
ATOM      3  C3  BZF d   1      -2.221   5.089  -5.027  0.00  0.00    -0.012 A 
ATOM      4  C3A BZF d   1      -2.321   3.670  -4.874  0.00  0.00    -0.107 A 
ATOM      5  C4  BZF d   1      -1.418   2.650  -4.966  0.00  0.00     0.055 A 
ATOM      6  C5  BZF d   1      -1.822   1.382  -4.687  0.00  0.00    -0.016 A 
ATOM      7  C6  BZF d   1      -3.118   1.100  -4.310  0.00  0.00     0.022 A 
ATOM      8  C7  BZF d   1      -4.051   2.078  -4.210  0.00  0.00     0.029 A 
ATOM      9  C7A BZF d   1      -3.654   3.355  -4.523  0.00  0.00     0.058 A 
ENDROOT
TORSDOF 0
ENDMDL
