MODEL 1
REMARK minimizedAffinity -3.54715037
REMARK minimizedRMSD -1
REMARK  2 active torsions:
REMARK  status: ('A' for Active; 'I' for Inactive)
REMARK    1  A    between atoms: C2'_3  and  C1'_4 
REMARK    2  A    between atoms: C1'_4  and  C1_5 
ROOT
ATOM      1  C1  I4B d   1       0.164  -0.060   0.046  0.00  0.00    -0.075 A 
ATOM      2  C2  I4B d   1       0.997   0.472   0.999  0.00  0.00     0.003 A 
ATOM      3  C3  I4B d   1       0.459   1.176   2.103  0.00  0.00     0.002 A 
ATOM      4  C4  I4B d   1      -0.905   1.368   2.187  0.00  0.00    -0.004 A 
ATOM      5  C5  I4B d   1      -1.749   0.809   1.232  0.00  0.00     0.002 A 
ATOM      6  C6  I4B d   1      -1.213   0.080   0.161  0.00  0.00     0.003 A 
ENDROOT
BRANCH   1   7
ATOM      7  C1' I4B d   1       0.768  -0.769  -1.124  0.00  0.00     0.060 C 
BRANCH   7   8
ATOM      8  C2' I4B d   1       0.697   0.158  -2.321  0.00  0.00    -0.013 C 
ATOM      9  C4' I4B d   1       2.052   0.725  -2.653  0.00  0.00     0.013 C 
ATOM     10  C3' I4B d   1       0.137  -0.618  -3.475  0.00  0.00     0.013 C 
ENDBRANCH   7   8
ENDBRANCH   1   7
TORSDOF 2
ENDMDL
