MODEL 1
REMARK minimizedAffinity -2.37355924
REMARK minimizedRMSD -1
REMARK  2 active torsions:
REMARK  status: ('A' for Active; 'I' for Inactive)
REMARK    1  A    between atoms: C2'_3  and  C1'_4 
REMARK    2  A    between atoms: C1'_4  and  C1_5 
ROOT
ATOM      1  C1  I4B d   1      -0.782   0.492   0.580  0.00  0.00    -0.075 A 
ATOM      2  C2  I4B d   1      -1.486   0.071   1.680  0.00  0.00     0.003 A 
ATOM      3  C3  I4B d   1      -1.383   0.776   2.904  0.00  0.00     0.002 A 
ATOM      4  C4  I4B d   1      -0.531   1.858   2.996  0.00  0.00    -0.004 A 
ATOM      5  C5  I4B d   1       0.164   2.297   1.873  0.00  0.00     0.002 A 
ATOM      6  C6  I4B d   1       0.029   1.617   0.653  0.00  0.00     0.003 A 
ENDROOT
BRANCH   1   7
ATOM      7  C1' I4B d   1      -0.888  -0.295  -0.688  0.00  0.00     0.060 C 
BRANCH   7   8
ATOM      8  C2' I4B d   1       0.500  -0.410  -1.284  0.00  0.00    -0.013 C 
ATOM      9  C4' I4B d   1       1.351  -1.376  -0.503  0.00  0.00     0.013 C 
ATOM     10  C3' I4B d   1       0.356  -0.847  -2.712  0.00  0.00     0.013 C 
ENDBRANCH   7   8
ENDBRANCH   1   7
TORSDOF 2
ENDMDL
