MODEL 1
REMARK minimizedAffinity -2.95403719
REMARK minimizedRMSD -1
REMARK  2 active torsions:
REMARK  status: ('A' for Active; 'I' for Inactive)
REMARK    1  A    between atoms: C2'_3  and  C1'_4 
REMARK    2  A    between atoms: C1'_4  and  C1_5 
ROOT
ATOM      1  C1  I4B d   1       0.067  -0.015  -0.424  0.00  0.00    -0.075 A 
ATOM      2  C2  I4B d   1      -1.141  -0.633  -0.211  0.00  0.00     0.003 A 
ATOM      3  C3  I4B d   1      -1.897  -0.339   0.950  0.00  0.00     0.002 A 
ATOM      4  C4  I4B d   1      -1.388   0.534   1.890  0.00  0.00    -0.004 A 
ATOM      5  C5  I4B d   1      -0.175   1.176   1.661  0.00  0.00     0.002 A 
ATOM      6  C6  I4B d   1       0.552   0.910   0.492  0.00  0.00     0.003 A 
ENDROOT
BRANCH   1   7
ATOM      7  C1' I4B d   1       0.854  -0.373  -1.644  0.00  0.00     0.060 C 
BRANCH   7   8
ATOM      8  C2' I4B d   1       1.131   0.904  -2.412  0.00  0.00    -0.013 C 
ATOM      9  C4' I4B d   1       2.611   1.151  -2.542  0.00  0.00     0.013 C 
ATOM     10  C3' I4B d   1       0.482   0.785  -3.758  0.00  0.00     0.013 C 
ENDBRANCH   7   8
ENDBRANCH   1   7
TORSDOF 2
ENDMDL
