MODEL 1
REMARK minimizedAffinity -3.99267602
REMARK minimizedRMSD -1
REMARK  2 active torsions:
REMARK  status: ('A' for Active; 'I' for Inactive)
REMARK    1  A    between atoms: C2'_3  and  C1'_4 
REMARK    2  A    between atoms: C1'_4  and  C1_5 
ROOT
ATOM      1  C1  I4B d   1       0.164   0.012  -0.165  0.00  0.00    -0.075 A 
ATOM      2  C2  I4B d   1      -1.161  -0.255   0.074  0.00  0.00     0.003 A 
ATOM      3  C3  I4B d   1      -1.825   0.351   1.168  0.00  0.00     0.002 A 
ATOM      4  C4  I4B d   1      -1.117   1.172   2.022  0.00  0.00    -0.004 A 
ATOM      5  C5  I4B d   1       0.220   1.460   1.766  0.00  0.00     0.002 A 
ATOM      6  C6  I4B d   1       0.862   0.886   0.658  0.00  0.00     0.003 A 
ENDROOT
BRANCH   1   7
ATOM      7  C1' I4B d   1       0.842  -0.670  -1.310  0.00  0.00     0.060 C 
BRANCH   7   8
ATOM      8  C2' I4B d   1       1.240   0.391  -2.316  0.00  0.00    -0.013 C 
ATOM      9  C4' I4B d   1       2.738   0.511  -2.418  0.00  0.00     0.013 C 
ATOM     10  C3' I4B d   1       0.635   0.025  -3.638  0.00  0.00     0.013 C 
ENDBRANCH   7   8
ENDBRANCH   1   7
TORSDOF 2
ENDMDL
