MODEL 1
REMARK minimizedAffinity -5.25911188
REMARK minimizedRMSD -1
REMARK  2 active torsions:
REMARK  status: ('A' for Active; 'I' for Inactive)
REMARK    1  A    between atoms: C2'_3  and  C1'_4 
REMARK    2  A    between atoms: C1'_4  and  C1_5 
ROOT
ATOM      1  C1  I4B d   1       0.998  -0.523  -1.859  0.00  0.00    -0.075 A 
ATOM      2  C2  I4B d   1       0.439  -1.195  -2.918  0.00  0.00     0.003 A 
ATOM      3  C3  I4B d   1       0.819  -0.878  -4.244  0.00  0.00     0.002 A 
ATOM      4  C4  I4B d   1       1.717   0.146  -4.468  0.00  0.00    -0.004 A 
ATOM      5  C5  I4B d   1       2.299   0.811  -3.393  0.00  0.00     0.002 A 
ATOM      6  C6  I4B d   1       1.947   0.466  -2.080  0.00  0.00     0.003 A 
ENDROOT
BRANCH   1   7
ATOM      7  C1' I4B d   1       0.550  -0.862  -0.473  0.00  0.00     0.060 C 
BRANCH   7   8
ATOM      8  C2' I4B d   1      -0.562   0.096  -0.095  0.00  0.00    -0.013 C 
ATOM      9  C4' I4B d   1      -1.891  -0.611  -0.032  0.00  0.00     0.013 C 
ATOM     10  C3' I4B d   1      -0.213   0.713   1.226  0.00  0.00     0.013 C 
ENDBRANCH   7   8
ENDBRANCH   1   7
TORSDOF 2
ENDMDL
