MODEL 1
REMARK minimizedAffinity -3.38124132
REMARK minimizedRMSD -1
REMARK  2 active torsions:
REMARK  status: ('A' for Active; 'I' for Inactive)
REMARK    1  A    between atoms: C2'_3  and  C1'_4 
REMARK    2  A    between atoms: C1'_4  and  C1_5 
ROOT
ATOM      1  C1  I4B d   1       0.331   0.727   1.041  0.00  0.00    -0.075 A 
ATOM      2  C2  I4B d   1       1.394   0.299   1.795  0.00  0.00     0.003 A 
ATOM      3  C3  I4B d   1       2.167  -0.810   1.374  0.00  0.00     0.002 A 
ATOM      4  C4  I4B d   1       1.812  -1.489   0.226  0.00  0.00    -0.004 A 
ATOM      5  C5  I4B d   1       0.747  -1.040  -0.550  0.00  0.00     0.002 A 
ATOM      6  C6  I4B d   1       0.009   0.082  -0.147  0.00  0.00     0.003 A 
ENDROOT
BRANCH   1   7
ATOM      7  C1' I4B d   1      -0.484   1.881   1.532  0.00  0.00     0.060 C 
BRANCH   7   8
ATOM      8  C2' I4B d   1      -1.829   1.346   1.981  0.00  0.00    -0.013 C 
ATOM      9  C4' I4B d   1      -2.630   0.835   0.813  0.00  0.00     0.013 C 
ATOM     10  C3' I4B d   1      -1.583   0.260   2.986  0.00  0.00     0.013 C 
ENDBRANCH   7   8
ENDBRANCH   1   7
TORSDOF 2
ENDMDL
