MODEL 1
REMARK minimizedAffinity -2.19309974
REMARK minimizedRMSD -1
REMARK  1 active torsions:
REMARK  status: ('A' for Active; 'I' for Inactive)
REMARK    1  A    between atoms: C1_2  and  C2_3 
ROOT
ATOM      1  C2  UNL d   1       0.287  -0.147   0.707  0.00  0.00    -0.076 A 
ATOM      2  C3  UNL d   1       1.426   0.661   0.863  0.00  0.00     0.004 A 
ATOM      3  C4  UNL d   1       2.486   0.589  -0.040  0.00  0.00    -0.003 A 
ATOM      4  C5  UNL d   1       2.423  -0.293  -1.113  0.00  0.00     0.000 A 
ATOM      5  C6  UNL d   1       1.293  -1.091  -1.292  0.00  0.00     0.000 A 
ATOM      6  C7  UNL d   1       0.209  -1.018  -0.401  0.00  0.00    -0.073 A 
ATOM      7  C8  UNL d   1      -0.982  -1.905  -0.639  0.00  0.00     0.078 C 
ENDROOT
BRANCH   1   8
ATOM      8  C1  UNL d   1      -0.820  -0.045   1.733  0.00  0.00     0.053 C 
ATOM      9  C   UNL d   1      -0.857   1.314   2.416  0.00  0.00     0.018 C 
ENDBRANCH   1   8
TORSDOF 1
ENDMDL
