MODEL 1
REMARK minimizedAffinity -2.93574572
REMARK minimizedRMSD -1
REMARK  1 active torsions:
REMARK  status: ('A' for Active; 'I' for Inactive)
REMARK    1  A    between atoms: C1_2  and  C2_3 
ROOT
ATOM      1  C2  UNL d   1       0.304  -0.073  -0.045  0.00  0.00    -0.076 A 
ATOM      2  C3  UNL d   1       1.271   0.947  -0.098  0.00  0.00     0.004 A 
ATOM      3  C4  UNL d   1       2.538   0.708  -0.628  0.00  0.00    -0.003 A 
ATOM      4  C5  UNL d   1       2.859  -0.555  -1.115  0.00  0.00     0.000 A 
ATOM      5  C6  UNL d   1       1.906  -1.573  -1.087  0.00  0.00     0.000 A 
ATOM      6  C7  UNL d   1       0.619  -1.344  -0.571  0.00  0.00    -0.073 A 
ATOM      7  C8  UNL d   1      -0.366  -2.481  -0.559  0.00  0.00     0.078 C 
ENDROOT
BRANCH   1   8
ATOM      8  C1  UNL d   1      -1.043   0.238   0.565  0.00  0.00     0.053 C 
ATOM      9  C   UNL d   1      -1.024   0.170   2.085  0.00  0.00     0.018 C 
ENDBRANCH   1   8
TORSDOF 1
ENDMDL
