MODEL 1
REMARK minimizedAffinity -2.06493974
REMARK minimizedRMSD -1
REMARK  1 active torsions:
REMARK  status: ('A' for Active; 'I' for Inactive)
REMARK    1  A    between atoms: C1_2  and  C2_3 
ROOT
ATOM      1  C2  UNL d   1       1.053  -1.181  -0.964  0.00  0.00    -0.076 A 
ATOM      2  C3  UNL d   1      -0.300  -1.474  -0.717  0.00  0.00     0.004 A 
ATOM      3  C4  UNL d   1      -1.093  -0.613   0.040  0.00  0.00    -0.003 A 
ATOM      4  C5  UNL d   1      -0.548   0.555   0.561  0.00  0.00     0.000 A 
ATOM      5  C6  UNL d   1       0.787   0.870   0.310  0.00  0.00     0.000 A 
ATOM      6  C7  UNL d   1       1.597   0.021  -0.464  0.00  0.00    -0.073 A 
ATOM      7  C8  UNL d   1       3.032   0.407  -0.698  0.00  0.00     0.078 C 
ENDROOT
BRANCH   1   8
ATOM      8  C1  UNL d   1       1.871  -2.166  -1.768  0.00  0.00     0.053 C 
ATOM      9  C   UNL d   1       1.478  -2.187  -3.238  0.00  0.00     0.018 C 
ENDBRANCH   1   8
TORSDOF 1
ENDMDL
