MODEL 1
REMARK minimizedAffinity -2.30845881
REMARK minimizedRMSD -1
REMARK  1 active torsions:
REMARK  status: ('A' for Active; 'I' for Inactive)
REMARK    1  A    between atoms: C1_2  and  C2_3 
ROOT
ATOM      1  C2  UNL d   1      -2.848   4.021   4.400  0.00  0.00    -0.076 A 
ATOM      2  C3  UNL d   1      -3.340   4.080   5.715  0.00  0.00     0.004 A 
ATOM      3  C4  UNL d   1      -4.556   4.700   5.999  0.00  0.00    -0.003 A 
ATOM      4  C5  UNL d   1      -5.300   5.269   4.972  0.00  0.00     0.000 A 
ATOM      5  C6  UNL d   1      -4.835   5.204   3.658  0.00  0.00     0.000 A 
ATOM      6  C7  UNL d   1      -3.619   4.569   3.353  0.00  0.00    -0.073 A 
ATOM      7  C8  UNL d   1      -3.163   4.533   1.920  0.00  0.00     0.078 C 
ENDROOT
BRANCH   1   8
ATOM      8  C1  UNL d   1      -1.510   3.360   4.157  0.00  0.00     0.053 C 
ATOM      9  C   UNL d   1      -1.639   2.040   3.412  0.00  0.00     0.018 C 
ENDBRANCH   1   8
TORSDOF 1
ENDMDL
