MODEL 1
REMARK minimizedAffinity -4.40039349
REMARK minimizedRMSD -1
REMARK  1 active torsions:
REMARK  status: ('A' for Active; 'I' for Inactive)
REMARK    1  A    between atoms: C1_2  and  C2_3 
ROOT
ATOM      1  C2  UNL d   1      -0.191  -0.084   0.329  0.00  0.00    -0.076 A 
ATOM      2  C3  UNL d   1       0.643   1.021   0.087  0.00  0.00     0.004 A 
ATOM      3  C4  UNL d   1       1.851   0.873  -0.593  0.00  0.00    -0.003 A 
ATOM      4  C5  UNL d   1       2.245  -0.382  -1.042  0.00  0.00     0.000 A 
ATOM      5  C6  UNL d   1       1.422  -1.487  -0.826  0.00  0.00     0.000 A 
ATOM      6  C7  UNL d   1       0.193  -1.353  -0.157  0.00  0.00    -0.073 A 
ATOM      7  C8  UNL d   1      -0.652  -2.579   0.054  0.00  0.00     0.078 C 
ENDROOT
BRANCH   1   8
ATOM      8  C1  UNL d   1      -1.476   0.132   1.095  0.00  0.00     0.053 C 
ATOM      9  C   UNL d   1      -1.286   1.021   2.314  0.00  0.00     0.018 C 
ENDBRANCH   1   8
TORSDOF 1
ENDMDL
