MODEL 1
REMARK minimizedAffinity -5.11219549
REMARK minimizedRMSD -1
REMARK  1 active torsions:
REMARK  status: ('A' for Active; 'I' for Inactive)
REMARK    1  A    between atoms: C1_2  and  C2_3 
ROOT
ATOM      1  C2  UNL d   1       0.245   0.365  -0.357  0.00  0.00    -0.076 A 
ATOM      2  C3  UNL d   1       1.325  -0.520  -0.196  0.00  0.00     0.004 A 
ATOM      3  C4  UNL d   1       2.523  -0.321  -0.880  0.00  0.00    -0.003 A 
ATOM      4  C5  UNL d   1       2.661   0.766  -1.736  0.00  0.00     0.000 A 
ATOM      5  C6  UNL d   1       1.605   1.664  -1.894  0.00  0.00     0.000 A 
ATOM      6  C7  UNL d   1       0.397   1.487  -1.199  0.00  0.00    -0.073 A 
ATOM      7  C8  UNL d   1      -0.710   2.483  -1.412  0.00  0.00     0.078 C 
ENDROOT
BRANCH   1   8
ATOM      8  C1  UNL d   1      -1.039   0.083   0.390  0.00  0.00     0.053 C 
ATOM      9  C   UNL d   1      -1.028   0.651   1.802  0.00  0.00     0.018 C 
ENDBRANCH   1   8
TORSDOF 1
ENDMDL
