MODEL 1
REMARK minimizedAffinity -3.75372386
REMARK minimizedRMSD -1
REMARK  1 active torsions:
REMARK  status: ('A' for Active; 'I' for Inactive)
REMARK    1  A    between atoms: C1_2  and  C2_3 
ROOT
ATOM      1  C2  UNL d   1      -0.184   0.069  -0.323  0.00  0.00    -0.076 A 
ATOM      2  C3  UNL d   1       0.708   1.065  -0.758  0.00  0.00     0.004 A 
ATOM      3  C4  UNL d   1       1.961   0.732  -1.270  0.00  0.00    -0.003 A 
ATOM      4  C5  UNL d   1       2.342  -0.602  -1.357  0.00  0.00     0.000 A 
ATOM      5  C6  UNL d   1       1.463  -1.604  -0.946  0.00  0.00     0.000 A 
ATOM      6  C7  UNL d   1       0.190  -1.287  -0.443  0.00  0.00    -0.073 A 
ATOM      7  C8  UNL d   1      -0.714  -2.407  -0.009  0.00  0.00     0.078 C 
ENDROOT
BRANCH   1   8
ATOM      8  C1  UNL d   1      -1.518   0.491   0.249  0.00  0.00     0.053 C 
ATOM      9  C   UNL d   1      -1.446   0.789   1.739  0.00  0.00     0.018 C 
ENDBRANCH   1   8
TORSDOF 1
ENDMDL
