MODEL 1
REMARK minimizedAffinity -4.913661
REMARK minimizedRMSD -1
REMARK  1 active torsions:
REMARK  status: ('A' for Active; 'I' for Inactive)
REMARK    1  A    between atoms: C1_2  and  C2_3 
ROOT
ATOM      1  C2  UNL d   1       0.178   0.181   0.215  0.00  0.00    -0.076 A 
ATOM      2  C3  UNL d   1       1.075   1.206  -0.135  0.00  0.00     0.004 A 
ATOM      3  C4  UNL d   1       2.175   0.949  -0.952  0.00  0.00    -0.003 A 
ATOM      4  C5  UNL d   1       2.396  -0.337  -1.433  0.00  0.00     0.000 A 
ATOM      5  C6  UNL d   1       1.507  -1.362  -1.110  0.00  0.00     0.000 A 
ATOM      6  C7  UNL d   1       0.384  -1.116  -0.301  0.00  0.00    -0.073 A 
ATOM      7  C8  UNL d   1      -0.538  -2.260   0.020  0.00  0.00     0.078 C 
ENDROOT
BRANCH   1   8
ATOM      8  C1  UNL d   1      -0.982   0.513   1.126  0.00  0.00     0.053 C 
ATOM      9  C   UNL d   1      -0.798   1.843   1.842  0.00  0.00     0.018 C 
ENDBRANCH   1   8
TORSDOF 1
ENDMDL
