MODEL 1
REMARK minimizedAffinity -3.51353288
REMARK minimizedRMSD -1
REMARK  1 active torsions:
REMARK  status: ('A' for Active; 'I' for Inactive)
REMARK    1  A    between atoms: C1_2  and  C2_3 
ROOT
ATOM      1  C2  UNL d   1       0.622  -0.312  -1.349  0.00  0.00    -0.076 A 
ATOM      2  C3  UNL d   1       0.744   1.056  -1.651  0.00  0.00     0.004 A 
ATOM      3  C4  UNL d   1      -0.331   1.927  -1.482  0.00  0.00    -0.003 A 
ATOM      4  C5  UNL d   1      -1.545   1.445  -1.007  0.00  0.00     0.000 A 
ATOM      5  C6  UNL d   1      -1.679   0.095  -0.685  0.00  0.00     0.000 A 
ATOM      6  C7  UNL d   1      -0.601  -0.794  -0.835  0.00  0.00    -0.073 A 
ATOM      7  C8  UNL d   1      -0.803  -2.241  -0.478  0.00  0.00     0.078 C 
ENDROOT
BRANCH   1   8
ATOM      8  C1  UNL d   1       1.814  -1.214  -1.578  0.00  0.00     0.053 C 
ATOM      9  C   UNL d   1       3.128  -0.550  -1.197  0.00  0.00     0.018 C 
ENDBRANCH   1   8
TORSDOF 1
ENDMDL
