MODEL 1
REMARK minimizedAffinity -0.18463631
REMARK minimizedRMSD -1
REMARK  1 active torsions:
REMARK  status: ('A' for Active; 'I' for Inactive)
REMARK    1  A    between atoms: C1_2  and  C2_3 
ROOT
ATOM      1  C2  UNL d   1      -1.577   0.589   1.540  0.00  0.00    -0.076 A 
ATOM      2  C3  UNL d   1      -0.917   1.768   1.929  0.00  0.00     0.004 A 
ATOM      3  C4  UNL d   1      -1.053   2.274   3.220  0.00  0.00    -0.003 A 
ATOM      4  C5  UNL d   1      -1.852   1.609   4.145  0.00  0.00     0.000 A 
ATOM      5  C6  UNL d   1      -2.500   0.429   3.782  0.00  0.00     0.000 A 
ATOM      6  C7  UNL d   1      -2.360  -0.104   2.489  0.00  0.00    -0.073 A 
ATOM      7  C8  UNL d   1      -3.087  -1.376   2.150  0.00  0.00     0.078 C 
ENDROOT
BRANCH   1   8
ATOM      8  C1  UNL d   1      -1.414   0.103   0.118  0.00  0.00     0.053 C 
ATOM      9  C   UNL d   1       0.039  -0.160  -0.245  0.00  0.00     0.018 C 
ENDBRANCH   1   8
TORSDOF 1
ENDMDL
