MODEL 1
REMARK minimizedAffinity -4.20888567
REMARK minimizedRMSD -1
REMARK  1 active torsions:
REMARK  status: ('A' for Active; 'I' for Inactive)
REMARK    1  A    between atoms: C1_2  and  C2_3 
ROOT
ATOM      1  C2  UNL d   1       0.254  -0.009  -0.272  0.00  0.00    -0.076 A 
ATOM      2  C3  UNL d   1       1.069   1.009  -0.796  0.00  0.00     0.004 A 
ATOM      3  C4  UNL d   1       2.326   0.722  -1.324  0.00  0.00    -0.003 A 
ATOM      4  C5  UNL d   1       2.789  -0.589  -1.338  0.00  0.00     0.000 A 
ATOM      5  C6  UNL d   1       1.987  -1.615  -0.838  0.00  0.00     0.000 A 
ATOM      6  C7  UNL d   1       0.710  -1.344  -0.317  0.00  0.00    -0.073 A 
ATOM      7  C8  UNL d   1      -0.110  -2.488   0.214  0.00  0.00     0.078 C 
ENDROOT
BRANCH   1   8
ATOM      8  C1  UNL d   1      -1.089   0.366   0.312  0.00  0.00     0.053 C 
ATOM      9  C   UNL d   1      -1.818   1.406  -0.524  0.00  0.00     0.018 C 
ENDBRANCH   1   8
TORSDOF 1
ENDMDL
