MODEL 1
REMARK minimizedAffinity 16.5958614
REMARK minimizedRMSD -1
REMARK  0 active torsions:
REMARK  status: ('A' for Active; 'I' for Inactive)
ROOT
ATOM      1  C4' PXY d   1       0.630  -2.171  -0.844  0.00  0.00     0.077 C 
ATOM      2  C1' PXY d   1       3.784  -3.089   3.913  0.00  0.00     0.077 C 
ATOM      3  C1  PXY d   1       2.963  -2.836   2.664  0.00  0.00    -0.082 A 
ATOM      4  C2  PXY d   1       1.827  -3.491   2.485  0.00  0.00     0.003 A 
ATOM      5  C3  PXY d   1       1.087  -3.299   1.347  0.00  0.00     0.003 A 
ATOM      6  C4  PXY d   1       1.488  -2.387   0.406  0.00  0.00    -0.082 A 
ATOM      7  C5  PXY d   1       2.640  -1.707   0.587  0.00  0.00     0.003 A 
ATOM      8  C6  PXY d   1       3.397  -1.947   1.730  0.00  0.00     0.003 A 
ENDROOT
TORSDOF 0
ENDMDL
