MODEL 1
REMARK minimizedAffinity 7.01602077
REMARK minimizedRMSD -1
REMARK  0 active torsions:
REMARK  status: ('A' for Active; 'I' for Inactive)
ROOT
ATOM      1  C4' PXY d   1      -2.473  -1.907   1.154  0.00  0.00     0.077 C 
ATOM      2  C1' PXY d   1       1.689  -2.647  -2.789  0.00  0.00     0.077 C 
ATOM      3  C1  PXY d   1       0.601  -2.464  -1.749  0.00  0.00    -0.082 A 
ATOM      4  C2  PXY d   1      -0.482  -1.767  -2.051  0.00  0.00     0.003 A 
ATOM      5  C3  PXY d   1      -1.461  -1.565  -1.112  0.00  0.00     0.003 A 
ATOM      6  C4  PXY d   1      -1.354  -2.126   0.132  0.00  0.00    -0.082 A 
ATOM      7  C5  PXY d   1      -0.256  -2.847   0.444  0.00  0.00     0.003 A 
ATOM      8  C6  PXY d   1       0.745  -3.006  -0.510  0.00  0.00     0.003 A 
ENDROOT
TORSDOF 0
ENDMDL
