MODEL 1
REMARK minimizedAffinity 7.19170952
REMARK minimizedRMSD -1
REMARK  0 active torsions:
REMARK  status: ('A' for Active; 'I' for Inactive)
ROOT
ATOM      1  C4' PXY d   1      -2.622  -1.177  -0.548  0.00  0.00     0.077 C 
ATOM      2  C1' PXY d   1      -1.322  -2.631  -5.990  0.00  0.00     0.077 C 
ATOM      3  C1  PXY d   1      -1.651  -2.253  -4.559  0.00  0.00    -0.082 A 
ATOM      4  C2  PXY d   1      -2.908  -2.278  -4.148  0.00  0.00     0.003 A 
ATOM      5  C3  PXY d   1      -3.227  -1.908  -2.867  0.00  0.00     0.003 A 
ATOM      6  C4  PXY d   1      -2.243  -1.560  -1.981  0.00  0.00    -0.082 A 
ATOM      7  C5  PXY d   1      -0.956  -1.542  -2.389  0.00  0.00     0.003 A 
ATOM      8  C6  PXY d   1      -0.658  -1.881  -3.706  0.00  0.00     0.003 A 
ENDROOT
TORSDOF 0
ENDMDL
