MODEL 1
REMARK minimizedAffinity 13.1854553
REMARK minimizedRMSD -1
REMARK  0 active torsions:
REMARK  status: ('A' for Active; 'I' for Inactive)
ROOT
ATOM      1  C4' PXY d   1      -1.923  -3.733  -6.000  0.00  0.00     0.077 C 
ATOM      2  C1' PXY d   1      -1.260  -1.539  -0.693  0.00  0.00     0.077 C 
ATOM      3  C1  PXY d   1      -1.445  -2.120  -2.081  0.00  0.00    -0.082 A 
ATOM      4  C2  PXY d   1      -0.394  -2.280  -2.869  0.00  0.00     0.003 A 
ATOM      5  C3  PXY d   1      -0.547  -2.774  -4.139  0.00  0.00     0.003 A 
ATOM      6  C4  PXY d   1      -1.782  -3.159  -4.588  0.00  0.00    -0.082 A 
ATOM      7  C5  PXY d   1      -2.858  -3.010  -3.786  0.00  0.00     0.003 A 
ATOM      8  C6  PXY d   1      -2.687  -2.467  -2.515  0.00  0.00     0.003 A 
ENDROOT
TORSDOF 0
ENDMDL
