MODEL 1
REMARK minimizedAffinity 11.9504786
REMARK minimizedRMSD -1
REMARK  0 active torsions:
REMARK  status: ('A' for Active; 'I' for Inactive)
ROOT
ATOM      1  C4' PXY d   1      -1.737  -2.483  -3.608  0.00  0.00     0.077 C 
ATOM      2  C1' PXY d   1       0.565  -3.189   1.648  0.00  0.00     0.077 C 
ATOM      3  C1  PXY d   1      -0.050  -3.002   0.275  0.00  0.00    -0.082 A 
ATOM      4  C2  PXY d   1       0.565  -3.491  -0.789  0.00  0.00     0.003 A 
ATOM      5  C3  PXY d   1       0.039  -3.304  -2.042  0.00  0.00     0.003 A 
ATOM      6  C4  PXY d   1      -1.157  -2.656  -2.201  0.00  0.00    -0.082 A 
ATOM      7  C5  PXY d   1      -1.796  -2.164  -1.119  0.00  0.00     0.003 A 
ATOM      8  C6  PXY d   1      -1.225  -2.328   0.140  0.00  0.00     0.003 A 
ENDROOT
TORSDOF 0
ENDMDL
