MODEL 1
REMARK minimizedAffinity 15.1914654
REMARK minimizedRMSD -1
REMARK  0 active torsions:
REMARK  status: ('A' for Active; 'I' for Inactive)
ROOT
ATOM      1  C4' PXY d   1      -1.862  -2.464   2.264  0.00  0.00     0.077 C 
ATOM      2  C1' PXY d   1      -0.352  -2.333  -3.314  0.00  0.00     0.077 C 
ATOM      3  C1  PXY d   1      -0.743  -2.356  -1.850  0.00  0.00    -0.082 A 
ATOM      4  C2  PXY d   1      -0.897  -3.515  -1.231  0.00  0.00     0.003 A 
ATOM      5  C3  PXY d   1      -1.282  -3.554   0.084  0.00  0.00     0.003 A 
ATOM      6  C4  PXY d   1      -1.459  -2.394   0.789  0.00  0.00    -0.082 A 
ATOM      7  C5  PXY d   1      -1.294  -1.207   0.168  0.00  0.00     0.003 A 
ATOM      8  C6  PXY d   1      -0.943  -1.189  -1.179  0.00  0.00     0.003 A 
ENDROOT
TORSDOF 0
ENDMDL
