MODEL 1
REMARK minimizedAffinity 18.0116158
REMARK minimizedRMSD -1
REMARK  0 active torsions:
REMARK  status: ('A' for Active; 'I' for Inactive)
ROOT
ATOM      1  C4' PXY d   1       1.861  -3.820  -3.745  0.00  0.00     0.077 C 
ATOM      2  C1' PXY d   1      -2.049  -0.974  -0.577  0.00  0.00     0.077 C 
ATOM      3  C1  PXY d   1      -1.032  -1.721  -1.418  0.00  0.00    -0.082 A 
ATOM      4  C2  PXY d   1      -0.085  -2.429  -0.824  0.00  0.00     0.003 A 
ATOM      5  C3  PXY d   1       0.862  -3.084  -1.568  0.00  0.00     0.003 A 
ATOM      6  C4  PXY d   1       0.807  -3.058  -2.936  0.00  0.00    -0.082 A 
ATOM      7  C5  PXY d   1      -0.162  -2.347  -3.550  0.00  0.00     0.003 A 
ATOM      8  C6  PXY d   1      -1.089  -1.655  -2.776  0.00  0.00     0.003 A 
ENDROOT
TORSDOF 0
ENDMDL
