MODEL 1
REMARK minimizedAffinity 11.0695314
REMARK minimizedRMSD -1
REMARK  0 active torsions:
REMARK  status: ('A' for Active; 'I' for Inactive)
ROOT
ATOM      1  C4' PXY d   1       2.928  -1.644   3.521  0.00  0.00     0.077 C 
ATOM      2  C1' PXY d   1       5.810  -5.999   6.000  0.00  0.00     0.077 C 
ATOM      3  C1  PXY d   1       5.053  -4.851   5.361  0.00  0.00    -0.082 A 
ATOM      4  C2  PXY d   1       4.460  -5.029   4.192  0.00  0.00     0.003 A 
ATOM      5  C3  PXY d   1       3.798  -3.993   3.585  0.00  0.00     0.003 A 
ATOM      6  C4  PXY d   1       3.696  -2.777   4.207  0.00  0.00    -0.082 A 
ATOM      7  C5  PXY d   1       4.289  -2.591   5.405  0.00  0.00     0.003 A 
ATOM      8  C6  PXY d   1       4.991  -3.644   5.985  0.00  0.00     0.003 A 
ENDROOT
TORSDOF 0
ENDMDL
