MODEL 1
REMARK minimizedAffinity 11.1345663
REMARK minimizedRMSD -1
REMARK  0 active torsions:
REMARK  status: ('A' for Active; 'I' for Inactive)
ROOT
ATOM      1  C4' PXY d   1       0.483  -2.992   0.881  0.00  0.00     0.077 C 
ATOM      2  C1' PXY d   1      -2.025  -2.641  -4.315  0.00  0.00     0.077 C 
ATOM      3  C1  PXY d   1      -1.373  -2.722  -2.949  0.00  0.00    -0.082 A 
ATOM      4  C2  PXY d   1      -0.264  -3.428  -2.794  0.00  0.00     0.003 A 
ATOM      5  C3  PXY d   1       0.321  -3.537  -1.558  0.00  0.00     0.003 A 
ATOM      6  C4  PXY d   1      -0.204  -2.875  -0.482  0.00  0.00    -0.082 A 
ATOM      7  C5  PXY d   1      -1.329  -2.144  -0.634  0.00  0.00     0.003 A 
ATOM      8  C6  PXY d   1      -1.931  -2.078  -1.887  0.00  0.00     0.003 A 
ENDROOT
TORSDOF 0
ENDMDL
