MODEL 1
REMARK minimizedAffinity 0.37378943
REMARK minimizedRMSD -1
REMARK  0 active torsions:
REMARK  status: ('A' for Active; 'I' for Inactive)
ROOT
ATOM      1  C4' PXY d   1       5.999   3.239  -5.969  0.00  0.00     0.077 C 
ATOM      2  C1' PXY d   1       5.972   5.981  -0.880  0.00  0.00     0.077 C 
ATOM      3  C1  PXY d   1       5.974   5.273  -2.220  0.00  0.00    -0.082 A 
ATOM      4  C2  PXY d   1       5.961   3.950  -2.261  0.00  0.00     0.003 A 
ATOM      5  C3  PXY d   1       5.994   3.293  -3.464  0.00  0.00     0.003 A 
ATOM      6  C4  PXY d   1       5.988   3.997  -4.638  0.00  0.00    -0.082 A 
ATOM      7  C5  PXY d   1       5.992   5.347  -4.605  0.00  0.00     0.003 A 
ATOM      8  C6  PXY d   1       5.999   5.995  -3.373  0.00  0.00     0.003 A 
ENDROOT
TORSDOF 0
ENDMDL
