MODEL 1
REMARK minimizedAffinity 5.34605789
REMARK minimizedRMSD -1
REMARK  0 active torsions:
REMARK  status: ('A' for Active; 'I' for Inactive)
ROOT
ATOM      1  C4' PXY d   1       5.997   3.096  -5.833  0.00  0.00     0.077 C 
ATOM      2  C1' PXY d   1       5.977   6.000  -0.835  0.00  0.00     0.077 C 
ATOM      3  C1  PXY d   1       5.977   5.249  -2.151  0.00  0.00    -0.082 A 
ATOM      4  C2  PXY d   1       5.968   3.926  -2.150  0.00  0.00     0.003 A 
ATOM      5  C3  PXY d   1       6.000   3.230  -3.331  0.00  0.00     0.003 A 
ATOM      6  C4  PXY d   1       5.988   3.896  -4.527  0.00  0.00    -0.082 A 
ATOM      7  C5  PXY d   1       5.987   5.246  -4.538  0.00  0.00     0.003 A 
ATOM      8  C6  PXY d   1       5.996   5.933  -3.327  0.00  0.00     0.003 A 
ENDROOT
TORSDOF 0
ENDMDL
