MODEL 1
REMARK minimizedAffinity 10.0967817
REMARK minimizedRMSD -1
REMARK  0 active torsions:
REMARK  status: ('A' for Active; 'I' for Inactive)
ROOT
ATOM      1  C4' PXY d   1       3.044  -1.496   3.523  0.00  0.00     0.077 C 
ATOM      2  C1' PXY d   1       5.997  -5.804   6.000  0.00  0.00     0.077 C 
ATOM      3  C1  PXY d   1       5.225  -4.679   5.338  0.00  0.00    -0.082 A 
ATOM      4  C2  PXY d   1       5.105  -3.516   5.957  0.00  0.00     0.003 A 
ATOM      5  C3  PXY d   1       4.383  -2.499   5.388  0.00  0.00     0.003 A 
ATOM      6  C4  PXY d   1       3.823  -2.656   4.148  0.00  0.00    -0.082 A 
ATOM      7  C5  PXY d   1       3.950  -3.837   3.506  0.00  0.00     0.003 A 
ATOM      8  C6  PXY d   1       4.651  -4.870   4.119  0.00  0.00     0.003 A 
ENDROOT
TORSDOF 0
ENDMDL
