MODEL 1
REMARK minimizedAffinity 14.1310339
REMARK minimizedRMSD -1
REMARK  0 active torsions:
REMARK  status: ('A' for Active; 'I' for Inactive)
ROOT
ATOM      1  C4' PXY d   1       4.753   4.783  -2.254  0.00  0.00     0.077 C 
ATOM      2  C1' PXY d   1      -0.179   3.514   0.482  0.00  0.00     0.077 C 
ATOM      3  C1  PXY d   1       1.108   3.849  -0.247  0.00  0.00    -0.082 A 
ATOM      4  C2  PXY d   1       2.261   3.398   0.221  0.00  0.00     0.003 A 
ATOM      5  C3  PXY d   1       3.437   3.718  -0.408  0.00  0.00     0.003 A 
ATOM      6  C4  PXY d   1       3.428   4.462  -1.557  0.00  0.00    -0.082 A 
ATOM      7  C5  PXY d   1       2.255   4.917  -2.046  0.00  0.00     0.003 A 
ATOM      8  C6  PXY d   1       1.076   4.616  -1.370  0.00  0.00     0.003 A 
ENDROOT
TORSDOF 0
ENDMDL
