MODEL 1
REMARK minimizedAffinity 16.4069958
REMARK minimizedRMSD -1
REMARK  0 active torsions:
REMARK  status: ('A' for Active; 'I' for Inactive)
ROOT
ATOM      1  C4' PXY d   1      -3.377   2.278   0.671  0.00  0.00     0.077 C 
ATOM      2  C1' PXY d   1      -0.812  -2.726  -0.668  0.00  0.00     0.077 C 
ATOM      3  C1  PXY d   1      -1.496  -1.420  -0.316  0.00  0.00    -0.082 A 
ATOM      4  C2  PXY d   1      -0.961  -0.275  -0.708  0.00  0.00     0.003 A 
ATOM      5  C3  PXY d   1      -1.550   0.917  -0.370  0.00  0.00     0.003 A 
ATOM      6  C4  PXY d   1      -2.726   0.935   0.330  0.00  0.00    -0.082 A 
ATOM      7  C5  PXY d   1      -3.284  -0.230   0.724  0.00  0.00     0.003 A 
ATOM      8  C6  PXY d   1      -2.649  -1.427   0.407  0.00  0.00     0.003 A 
ENDROOT
TORSDOF 0
ENDMDL
