MODEL 1
REMARK minimizedAffinity 20.1984615
REMARK minimizedRMSD -1
REMARK  0 active torsions:
REMARK  status: ('A' for Active; 'I' for Inactive)
ROOT
ATOM      1  C4' PXY d   1      -1.406  -2.033   3.465  0.00  0.00     0.077 C 
ATOM      2  C1' PXY d   1      -4.209   2.345   5.992  0.00  0.00     0.077 C 
ATOM      3  C1  PXY d   1      -3.472   1.191   5.341  0.00  0.00    -0.082 A 
ATOM      4  C2  PXY d   1      -2.913   1.359   4.154  0.00  0.00     0.003 A 
ATOM      5  C3  PXY d   1      -2.270   0.317   3.537  0.00  0.00     0.003 A 
ATOM      6  C4  PXY d   1      -2.152  -0.894   4.165  0.00  0.00    -0.082 A 
ATOM      7  C5  PXY d   1      -2.711  -1.070   5.381  0.00  0.00     0.003 A 
ATOM      8  C6  PXY d   1      -3.395  -0.011   5.972  0.00  0.00     0.003 A 
ENDROOT
TORSDOF 0
ENDMDL
