MODEL 1
REMARK minimizedAffinity 17.1170158
REMARK minimizedRMSD -1
REMARK  0 active torsions:
REMARK  status: ('A' for Active; 'I' for Inactive)
ROOT
ATOM      1  C4' PXY d   1       2.403  -3.744  -3.479  0.00  0.00     0.077 C 
ATOM      2  C1' PXY d   1      -1.481  -1.004  -0.191  0.00  0.00     0.077 C 
ATOM      3  C1  PXY d   1      -0.472  -1.729  -1.060  0.00  0.00    -0.082 A 
ATOM      4  C2  PXY d   1       0.762  -1.909  -0.617  0.00  0.00     0.003 A 
ATOM      5  C3  PXY d   1       1.696  -2.534  -1.403  0.00  0.00     0.003 A 
ATOM      6  C4  PXY d   1       1.349  -3.027  -2.633  0.00  0.00    -0.082 A 
ATOM      7  C5  PXY d   1       0.089  -2.856  -3.086  0.00  0.00     0.003 A 
ATOM      8  C6  PXY d   1      -0.833  -2.183  -2.290  0.00  0.00     0.003 A 
ENDROOT
TORSDOF 0
ENDMDL
