MODEL 1
REMARK minimizedAffinity 7.53254318
REMARK minimizedRMSD -1
REMARK  0 active torsions:
REMARK  status: ('A' for Active; 'I' for Inactive)
ROOT
ATOM      1  C4' PXY d   1       5.988   2.084  -5.708  0.00  0.00     0.077 C 
ATOM      2  C1' PXY d   1       5.975   5.998  -1.455  0.00  0.00     0.077 C 
ATOM      3  C1  PXY d   1       5.973   4.981  -2.578  0.00  0.00    -0.082 A 
ATOM      4  C2  PXY d   1       5.969   3.689  -2.291  0.00  0.00     0.003 A 
ATOM      5  C3  PXY d   1       6.000   2.755  -3.295  0.00  0.00     0.003 A 
ATOM      6  C4  PXY d   1       5.980   3.147  -4.606  0.00  0.00    -0.082 A 
ATOM      7  C5  PXY d   1       5.974   4.463  -4.908  0.00  0.00     0.003 A 
ATOM      8  C6  PXY d   1       5.984   5.395  -3.874  0.00  0.00     0.003 A 
ENDROOT
TORSDOF 0
ENDMDL
