MODEL 1
REMARK minimizedAffinity 7.78976631
REMARK minimizedRMSD -1
REMARK  0 active torsions:
REMARK  status: ('A' for Active; 'I' for Inactive)
ROOT
ATOM      1  C4' PXY d   1       1.823   5.553  -4.876  0.00  0.00     0.077 C 
ATOM      2  C1' PXY d   1       5.999   5.990  -0.903  0.00  0.00     0.077 C 
ATOM      3  C1  PXY d   1       4.897   5.868  -1.936  0.00  0.00    -0.082 A 
ATOM      4  C2  PXY d   1       5.187   6.000  -3.221  0.00  0.00     0.003 A 
ATOM      5  C3  PXY d   1       4.197   5.924  -4.167  0.00  0.00     0.003 A 
ATOM      6  C4  PXY d   1       2.905   5.659  -3.798  0.00  0.00    -0.082 A 
ATOM      7  C5  PXY d   1       2.603   5.513  -2.491  0.00  0.00     0.003 A 
ATOM      8  C6  PXY d   1       3.615   5.634  -1.543  0.00  0.00     0.003 A 
ENDROOT
TORSDOF 0
ENDMDL
