MODEL 1
REMARK minimizedAffinity 5.91916513
REMARK minimizedRMSD -1
REMARK  0 active torsions:
REMARK  status: ('A' for Active; 'I' for Inactive)
ROOT
ATOM      1  O1  BZF d   1      -3.379   2.381  -4.792  0.00  0.00    -0.204 OA
ATOM      2  C2  BZF d   1      -3.617   3.443  -3.942  0.00  0.00     0.174 A 
ATOM      3  C3  BZF d   1      -3.437   3.077  -2.656  0.00  0.00    -0.012 A 
ATOM      4  C3A BZF d   1      -2.972   1.725  -2.712  0.00  0.00    -0.107 A 
ATOM      5  C4  BZF d   1      -2.604   0.819  -1.759  0.00  0.00     0.055 A 
ATOM      6  C5  BZF d   1      -2.269  -0.442  -2.141  0.00  0.00    -0.016 A 
ATOM      7  C6  BZF d   1      -2.297  -0.832  -3.464  0.00  0.00     0.022 A 
ATOM      8  C7  BZF d   1      -2.651   0.033  -4.445  0.00  0.00     0.029 A 
ATOM      9  C7A BZF d   1      -2.958   1.317  -4.066  0.00  0.00     0.058 A 
ENDROOT
TORSDOF 0
ENDMDL
