MODEL 1
REMARK minimizedAffinity 10.5875044
REMARK minimizedRMSD -1
REMARK  0 active torsions:
REMARK  status: ('A' for Active; 'I' for Inactive)
ROOT
ATOM      1  O1  BZF d   1      -2.331  -1.994   0.251  0.00  0.00    -0.204 OA
ATOM      2  C2  BZF d   1      -2.054  -1.075   1.244  0.00  0.00     0.174 A 
ATOM      3  C3  BZF d   1      -1.849   0.150   0.719  0.00  0.00    -0.012 A 
ATOM      4  C3A BZF d   1      -2.098   0.005  -0.682  0.00  0.00    -0.107 A 
ATOM      5  C4  BZF d   1      -2.072   0.874  -1.735  0.00  0.00     0.055 A 
ATOM      6  C5  BZF d   1      -2.292   0.400  -2.989  0.00  0.00    -0.016 A 
ATOM      7  C6  BZF d   1      -2.536  -0.937  -3.227  0.00  0.00     0.022 A 
ATOM      8  C7  BZF d   1      -2.577  -1.837  -2.214  0.00  0.00     0.029 A 
ATOM      9  C7A BZF d   1      -2.387  -1.354  -0.942  0.00  0.00     0.058 A 
ENDROOT
TORSDOF 0
ENDMDL
