MODEL 1
REMARK minimizedAffinity 24.6406116
REMARK minimizedRMSD -1
REMARK  0 active torsions:
REMARK  status: ('A' for Active; 'I' for Inactive)
ROOT
ATOM      1  O1  BZF d   1      -3.170   3.389  -4.356  0.00  0.00    -0.204 OA
ATOM      2  C2  BZF d   1      -3.966   4.185  -3.555  0.00  0.00     0.174 A 
ATOM      3  C3  BZF d   1      -4.387   3.502  -2.470  0.00  0.00    -0.012 A 
ATOM      4  C3A BZF d   1      -3.742   2.228  -2.554  0.00  0.00    -0.107 A 
ATOM      5  C4  BZF d   1      -3.750   1.117  -1.759  0.00  0.00     0.055 A 
ATOM      6  C5  BZF d   1      -3.071   0.012  -2.162  0.00  0.00    -0.016 A 
ATOM      7  C6  BZF d   1      -2.378  -0.020  -3.354  0.00  0.00     0.022 A 
ATOM      8  C7  BZF d   1      -2.337   1.058  -4.174  0.00  0.00     0.029 A 
ATOM      9  C7A BZF d   1      -2.995   2.188  -3.754  0.00  0.00     0.058 A 
ENDROOT
TORSDOF 0
ENDMDL
