MODEL 1
REMARK minimizedAffinity 15.5433159
REMARK minimizedRMSD -1
REMARK  0 active torsions:
REMARK  status: ('A' for Active; 'I' for Inactive)
ROOT
ATOM      1  O1  BZF d   1       2.412   3.760  -0.090  0.00  0.00    -0.204 OA
ATOM      2  C2  BZF d   1       3.063   4.942  -0.385  0.00  0.00     0.174 A 
ATOM      3  C3  BZF d   1       2.250   5.999  -0.184  0.00  0.00    -0.012 A 
ATOM      4  C3A BZF d   1       1.043   5.449   0.352  0.00  0.00    -0.107 A 
ATOM      5  C4  BZF d   1      -0.135   5.999   0.770  0.00  0.00     0.055 A 
ATOM      6  C5  BZF d   1      -1.141   5.179   1.172  0.00  0.00    -0.016 A 
ATOM      7  C6  BZF d   1      -1.005   3.806   1.165  0.00  0.00     0.022 A 
ATOM      8  C7  BZF d   1       0.146   3.214   0.764  0.00  0.00     0.029 A 
ATOM      9  C7A BZF d   1       1.176   4.041   0.388  0.00  0.00     0.058 A 
ENDROOT
TORSDOF 0
ENDMDL
