MODEL 1
REMARK minimizedAffinity 15.3115969
REMARK minimizedRMSD -1
REMARK  0 active torsions:
REMARK  status: ('A' for Active; 'I' for Inactive)
ROOT
ATOM      1  O1  BZF d   1      -2.470  -2.480  -2.305  0.00  0.00    -0.204 OA
ATOM      2  C2  BZF d   1      -3.350  -2.819  -3.315  0.00  0.00     0.174 A 
ATOM      3  C3  BZF d   1      -3.655  -1.740  -4.065  0.00  0.00    -0.012 A 
ATOM      4  C3A BZF d   1      -2.850  -0.679  -3.543  0.00  0.00    -0.107 A 
ATOM      5  C4  BZF d   1      -2.696   0.636  -3.880  0.00  0.00     0.055 A 
ATOM      6  C5  BZF d   1      -1.884   1.420  -3.124  0.00  0.00    -0.016 A 
ATOM      7  C6  BZF d   1      -1.216   0.926  -2.023  0.00  0.00     0.022 A 
ATOM      8  C7  BZF d   1      -1.333  -0.373  -1.653  0.00  0.00     0.029 A 
ATOM      9  C7A BZF d   1      -2.127  -1.176  -2.434  0.00  0.00     0.058 A 
ENDROOT
TORSDOF 0
ENDMDL
