MODEL 1
REMARK minimizedAffinity 13.9565296
REMARK minimizedRMSD -1
REMARK  0 active torsions:
REMARK  status: ('A' for Active; 'I' for Inactive)
ROOT
ATOM      1  O1  BZF d   1      -2.188  -2.229  -2.301  0.00  0.00    -0.204 OA
ATOM      2  C2  BZF d   1      -3.233  -2.808  -2.994  0.00  0.00     0.174 A 
ATOM      3  C3  BZF d   1      -3.835  -1.904  -3.794  0.00  0.00    -0.012 A 
ATOM      4  C3A BZF d   1      -3.063  -0.707  -3.657  0.00  0.00    -0.107 A 
ATOM      5  C4  BZF d   1      -3.153   0.536  -4.214  0.00  0.00     0.055 A 
ATOM      6  C5  BZF d   1      -2.286   1.503  -3.813  0.00  0.00    -0.016 A 
ATOM      7  C6  BZF d   1      -1.323   1.263  -2.856  0.00  0.00     0.022 A 
ATOM      8  C7  BZF d   1      -1.192   0.044  -2.278  0.00  0.00     0.029 A 
ATOM      9  C7A BZF d   1      -2.045  -0.944  -2.705  0.00  0.00     0.058 A 
ENDROOT
TORSDOF 0
ENDMDL
