MODEL 1
REMARK minimizedAffinity 17.2116566
REMARK minimizedRMSD -1
REMARK  0 active torsions:
REMARK  status: ('A' for Active; 'I' for Inactive)
ROOT
ATOM      1  O1  BZF d   1      -2.848   2.499  -3.998  0.00  0.00    -0.204 OA
ATOM      2  C2  BZF d   1      -3.119   3.201  -2.840  0.00  0.00     0.174 A 
ATOM      3  C3  BZF d   1      -3.015   2.401  -1.759  0.00  0.00    -0.012 A 
ATOM      4  C3A BZF d   1      -2.565   1.141  -2.267  0.00  0.00    -0.107 A 
ATOM      5  C4  BZF d   1      -2.260  -0.053  -1.678  0.00  0.00     0.055 A 
ATOM      6  C5  BZF d   1      -1.921  -1.109  -2.464  0.00  0.00    -0.016 A 
ATOM      7  C6  BZF d   1      -1.880  -1.007  -3.839  0.00  0.00     0.022 A 
ATOM      8  C7  BZF d   1      -2.169   0.159  -4.468  0.00  0.00     0.029 A 
ATOM      9  C7A BZF d   1      -2.480   1.236  -3.675  0.00  0.00     0.058 A 
ENDROOT
TORSDOF 0
ENDMDL
