MODEL 1
REMARK minimizedAffinity 3.39921808
REMARK minimizedRMSD -1
REMARK  0 active torsions:
REMARK  status: ('A' for Active; 'I' for Inactive)
ROOT
ATOM      1  O1  BZF d   1       2.188   1.725   3.382  0.00  0.00    -0.204 OA
ATOM      2  C2  BZF d   1       2.407   2.105   4.692  0.00  0.00     0.174 A 
ATOM      3  C3  BZF d   1       2.432   1.029   5.504  0.00  0.00    -0.012 A 
ATOM      4  C3A BZF d   1       2.307  -0.101   4.636  0.00  0.00    -0.107 A 
ATOM      5  C4  BZF d   1       2.283  -1.450   4.849  0.00  0.00     0.055 A 
ATOM      6  C5  BZF d   1       2.075  -2.281   3.794  0.00  0.00    -0.016 A 
ATOM      7  C6  BZF d   1       1.882  -1.798   2.516  0.00  0.00     0.022 A 
ATOM      8  C7  BZF d   1       1.903  -0.468   2.255  0.00  0.00     0.029 A 
ATOM      9  C7A BZF d   1       2.146   0.372   3.314  0.00  0.00     0.058 A 
ENDROOT
TORSDOF 0
ENDMDL
