MODEL 1
REMARK minimizedAffinity 3.89359713
REMARK minimizedRMSD -1
REMARK  1 active torsions:
REMARK  status: ('A' for Active; 'I' for Inactive)
REMARK    1  A    between atoms: N_2  and  C1_3 
ROOT
ATOM      1  C1  UNL d   1      -3.319   1.969  -2.808  0.00  0.00     0.143 A 
ATOM      2  C2  UNL d   1      -3.773   2.494  -1.593  0.00  0.00    -0.057 A 
ATOM      3  C3  UNL d   1      -4.568   3.647  -1.552  0.00  0.00     0.033 A 
ATOM      4  C4  UNL d   1      -4.898   4.313  -2.728  0.00  0.00    -0.042 A 
ATOM      5  C5  UNL d   1      -4.436   3.824  -3.945  0.00  0.00     0.033 A 
ATOM      6  C6  UNL d   1      -3.649   2.669  -3.979  0.00  0.00    -0.057 A 
ENDROOT
BRANCH   1   7
ATOM      7  N   UNL d   1      -2.445   0.884  -2.908  0.00  0.00    -0.732 N 
ATOM      8  C   UNL d   1      -2.860  -0.340  -3.559  0.00  0.00     0.284 C 
ATOM      9  H3  UNL d   1      -1.494   1.170  -3.129  0.00  0.00     0.395 HD
ENDBRANCH   1   7
TORSDOF 1
ENDMDL
