MODEL 1
REMARK minimizedAffinity 6.6159091
REMARK minimizedRMSD -1
REMARK  1 active torsions:
REMARK  status: ('A' for Active; 'I' for Inactive)
REMARK    1  A    between atoms: N_2  and  C1_3 
ROOT
ATOM      1  C1  UNL d   1       1.490  -0.791   1.661  0.00  0.00     0.143 A 
ATOM      2  C2  UNL d   1       1.988  -1.312   0.462  0.00  0.00    -0.057 A 
ATOM      3  C3  UNL d   1       1.130  -1.684  -0.580  0.00  0.00     0.033 A 
ATOM      4  C4  UNL d   1      -0.248  -1.568  -0.430  0.00  0.00    -0.042 A 
ATOM      5  C5  UNL d   1      -0.766  -1.077   0.763  0.00  0.00     0.033 A 
ATOM      6  C6  UNL d   1       0.096  -0.701   1.798  0.00  0.00    -0.057 A 
ENDROOT
BRANCH   1   7
ATOM      7  N   UNL d   1       2.286  -0.496   2.771  0.00  0.00    -0.732 N 
ATOM      8  C   UNL d   1       1.982  -1.063   4.067  0.00  0.00     0.284 C 
ATOM      9  H3  UNL d   1       3.278  -0.483   2.545  0.00  0.00     0.395 HD
ENDBRANCH   1   7
TORSDOF 1
ENDMDL
