MODEL 1
REMARK minimizedAffinity 11.3952827
REMARK minimizedRMSD -1
REMARK  1 active torsions:
REMARK  status: ('A' for Active; 'I' for Inactive)
REMARK    1  A    between atoms: N_2  and  C1_3 
ROOT
ATOM      1  C1  UNL d   1       2.272  -0.012   2.365  0.00  0.00     0.143 A 
ATOM      2  C2  UNL d   1       2.911  -0.168   1.130  0.00  0.00    -0.057 A 
ATOM      3  C3  UNL d   1       3.473   0.925   0.460  0.00  0.00     0.033 A 
ATOM      4  C4  UNL d   1       3.381   2.203   1.001  0.00  0.00    -0.042 A 
ATOM      5  C5  UNL d   1       2.728   2.386   2.215  0.00  0.00     0.033 A 
ATOM      6  C6  UNL d   1       2.175   1.289   2.883  0.00  0.00    -0.057 A 
ENDROOT
BRANCH   1   7
ATOM      7  N   UNL d   1       1.608  -1.043   3.033  0.00  0.00    -0.732 N 
ATOM      8  C   UNL d   1       2.318  -1.899   3.959  0.00  0.00     0.284 C 
ATOM      9  H3  UNL d   1       0.681  -0.767   3.349  0.00  0.00     0.395 HD
ENDBRANCH   1   7
TORSDOF 1
ENDMDL
