MODEL 1
REMARK minimizedAffinity 7.12318707
REMARK minimizedRMSD -1
REMARK  1 active torsions:
REMARK  status: ('A' for Active; 'I' for Inactive)
REMARK    1  A    between atoms: N_2  and  C1_3 
ROOT
ATOM      1  C1  UNL d   1       4.005  -1.126   2.585  0.00  0.00     0.143 A 
ATOM      2  C2  UNL d   1       3.392  -0.158   1.782  0.00  0.00    -0.057 A 
ATOM      3  C3  UNL d   1       2.001   0.002   1.772  0.00  0.00     0.033 A 
ATOM      4  C4  UNL d   1       1.194  -0.826   2.546  0.00  0.00    -0.042 A 
ATOM      5  C5  UNL d   1       1.780  -1.811   3.332  0.00  0.00     0.033 A 
ATOM      6  C6  UNL d   1       3.170  -1.961   3.343  0.00  0.00    -0.057 A 
ENDROOT
BRANCH   1   7
ATOM      7  N   UNL d   1       5.375  -1.399   2.564  0.00  0.00    -0.732 N 
ATOM      8  C   UNL d   1       5.993  -2.152   3.635  0.00  0.00     0.284 C 
ATOM      9  H3  UNL d   1       5.707  -1.649   1.636  0.00  0.00     0.395 HD
ENDBRANCH   1   7
TORSDOF 1
ENDMDL
