MODEL 1
REMARK minimizedAffinity 6.65689468
REMARK minimizedRMSD -1
REMARK  1 active torsions:
REMARK  status: ('A' for Active; 'I' for Inactive)
REMARK    1  A    between atoms: N_2  and  C1_3 
ROOT
ATOM      1  C1  UNL d   1       2.671   0.089   2.357  0.00  0.00     0.143 A 
ATOM      2  C2  UNL d   1       3.651  -0.910   2.364  0.00  0.00    -0.057 A 
ATOM      3  C3  UNL d   1       3.519  -2.050   3.165  0.00  0.00     0.033 A 
ATOM      4  C4  UNL d   1       2.414  -2.199   3.998  0.00  0.00    -0.042 A 
ATOM      5  C5  UNL d   1       1.440  -1.207   4.025  0.00  0.00     0.033 A 
ATOM      6  C6  UNL d   1       1.575  -0.073   3.218  0.00  0.00    -0.057 A 
ENDROOT
BRANCH   1   7
ATOM      7  N   UNL d   1       2.793   1.292   1.657  0.00  0.00    -0.732 N 
ATOM      8  C   UNL d   1       3.626   1.378   0.477  0.00  0.00     0.284 C 
ATOM      9  H3  UNL d   1       1.907   1.786   1.577  0.00  0.00     0.395 HD
ENDBRANCH   1   7
TORSDOF 1
ENDMDL
