MODEL 1
REMARK minimizedAffinity 8.85912514
REMARK minimizedRMSD -1
REMARK  1 active torsions:
REMARK  status: ('A' for Active; 'I' for Inactive)
REMARK    1  A    between atoms: N_2  and  C1_3 
ROOT
ATOM      1  C1  UNL d   1       2.508  -1.635   3.807  0.00  0.00     0.143 A 
ATOM      2  C2  UNL d   1       1.948  -2.871   4.147  0.00  0.00    -0.057 A 
ATOM      3  C3  UNL d   1       2.702  -3.854   4.800  0.00  0.00     0.033 A 
ATOM      4  C4  UNL d   1       4.042  -3.628   5.098  0.00  0.00    -0.042 A 
ATOM      5  C5  UNL d   1       4.625  -2.416   4.747  0.00  0.00     0.033 A 
ATOM      6  C6  UNL d   1       3.866  -1.436   4.102  0.00  0.00    -0.057 A 
ENDROOT
BRANCH   1   7
ATOM      7  N   UNL d   1       1.838  -0.655   3.070  0.00  0.00    -0.732 N 
ATOM      8  C   UNL d   1       2.544   0.511   2.582  0.00  0.00     0.284 C 
ATOM      9  H3  UNL d   1       1.181  -1.052   2.403  0.00  0.00     0.395 HD
ENDBRANCH   1   7
TORSDOF 1
ENDMDL
