MODEL 1
REMARK minimizedAffinity 3.7816186
REMARK minimizedRMSD -1
REMARK  1 active torsions:
REMARK  status: ('A' for Active; 'I' for Inactive)
REMARK    1  A    between atoms: N_2  and  C1_3 
ROOT
ATOM      1  C1  UNL d   1      -5.983   0.990  -3.226  0.00  0.00     0.143 A 
ATOM      2  C2  UNL d   1      -5.941   2.306  -3.697  0.00  0.00    -0.057 A 
ATOM      3  C3  UNL d   1      -5.956   2.587  -5.069  0.00  0.00     0.033 A 
ATOM      4  C4  UNL d   1      -5.983   1.552  -5.997  0.00  0.00    -0.042 A 
ATOM      5  C5  UNL d   1      -6.000   0.235  -5.552  0.00  0.00     0.033 A 
ATOM      6  C6  UNL d   1      -5.992  -0.039  -4.180  0.00  0.00    -0.057 A 
ENDROOT
BRANCH   1   7
ATOM      7  N   UNL d   1      -5.872   0.642  -1.877  0.00  0.00    -0.732 N 
ATOM      8  C   UNL d   1      -5.976   1.651  -0.845  0.00  0.00     0.284 C 
ATOM      9  H3  UNL d   1      -6.353  -0.227  -1.659  0.00  0.00     0.395 HD
ENDBRANCH   1   7
TORSDOF 1
ENDMDL
