MODEL 1
REMARK minimizedAffinity 6.77087355
REMARK minimizedRMSD -1
REMARK  1 active torsions:
REMARK  status: ('A' for Active; 'I' for Inactive)
REMARK    1  A    between atoms: N_2  and  C1_3 
ROOT
ATOM      1  C1  UNL d   1       1.999  -2.344   4.475  0.00  0.00     0.143 A 
ATOM      2  C2  UNL d   1       1.195  -3.271   5.149  0.00  0.00    -0.057 A 
ATOM      3  C3  UNL d   1       1.705  -4.506   5.566  0.00  0.00     0.033 A 
ATOM      4  C4  UNL d   1       3.025  -4.850   5.291  0.00  0.00    -0.042 A 
ATOM      5  C5  UNL d   1       3.835  -3.955   4.600  0.00  0.00     0.033 A 
ATOM      6  C6  UNL d   1       3.322  -2.720   4.192  0.00  0.00    -0.057 A 
ENDROOT
BRANCH   1   7
ATOM      7  N   UNL d   1       1.524  -1.141   3.948  0.00  0.00    -0.732 N 
ATOM      8  C   UNL d   1       1.863  -0.742   2.599  0.00  0.00     0.284 C 
ATOM      9  H3  UNL d   1       0.556  -0.960   4.204  0.00  0.00     0.395 HD
ENDBRANCH   1   7
TORSDOF 1
ENDMDL
