MODEL 1
REMARK minimizedAffinity 5.47512484
REMARK minimizedRMSD -1
REMARK  2 active torsions:
REMARK  status: ('A' for Active; 'I' for Inactive)
REMARK    1  A    between atoms: C2'_3  and  C1'_4 
REMARK    2  A    between atoms: C1'_4  and  C1_5 
ROOT
ATOM      1  C1  I4B d   1      -2.979   1.818   2.707  0.00  0.00    -0.075 A 
ATOM      2  C2  I4B d   1      -2.038   2.634   2.129  0.00  0.00     0.003 A 
ATOM      3  C3  I4B d   1      -0.825   2.089   1.641  0.00  0.00     0.002 A 
ATOM      4  C4  I4B d   1      -0.575   0.741   1.796  0.00  0.00    -0.004 A 
ATOM      5  C5  I4B d   1      -1.540  -0.088   2.362  0.00  0.00     0.002 A 
ATOM      6  C6  I4B d   1      -2.755   0.451   2.809  0.00  0.00     0.003 A 
ENDROOT
BRANCH   1   7
ATOM      7  C1' I4B d   1      -4.234   2.432   3.241  0.00  0.00     0.060 C 
BRANCH   7   8
ATOM      8  C2' I4B d   1      -4.571   1.742   4.547  0.00  0.00    -0.013 C 
ATOM      9  C4' I4B d   1      -4.862   2.744   5.634  0.00  0.00     0.013 C 
ATOM     10  C3' I4B d   1      -5.750   0.847   4.307  0.00  0.00     0.013 C 
ENDBRANCH   7   8
ENDBRANCH   1   7
TORSDOF 2
ENDMDL
