MODEL 1
REMARK minimizedAffinity 8.85519409
REMARK minimizedRMSD -1
REMARK  2 active torsions:
REMARK  status: ('A' for Active; 'I' for Inactive)
REMARK    1  A    between atoms: C2'_3  and  C1'_4 
REMARK    2  A    between atoms: C1'_4  and  C1_5 
ROOT
ATOM      1  C1  I4B d   1      -0.587   0.578   1.517  0.00  0.00    -0.075 A 
ATOM      2  C2  I4B d   1       0.778   0.509   1.638  0.00  0.00     0.003 A 
ATOM      3  C3  I4B d   1       1.380  -0.584   2.307  0.00  0.00     0.002 A 
ATOM      4  C4  I4B d   1       0.582  -1.553   2.880  0.00  0.00    -0.004 A 
ATOM      5  C5  I4B d   1      -0.801  -1.494   2.736  0.00  0.00     0.002 A 
ATOM      6  C6  I4B d   1      -1.389  -0.428   2.040  0.00  0.00     0.003 A 
ENDROOT
BRANCH   1   7
ATOM      7  C1' I4B d   1      -1.191   1.763   0.832  0.00  0.00     0.060 C 
BRANCH   7   8
ATOM      8  C2' I4B d   1      -1.361   2.861   1.863  0.00  0.00    -0.013 C 
ATOM      9  C4' I4B d   1      -2.428   2.507   2.865  0.00  0.00     0.013 C 
ATOM     10  C3' I4B d   1      -0.037   3.074   2.534  0.00  0.00     0.013 C 
ENDBRANCH   7   8
ENDBRANCH   1   7
TORSDOF 2
ENDMDL
