MODEL 1
REMARK minimizedAffinity -1.6600709
REMARK minimizedRMSD -1
REMARK  2 active torsions:
REMARK  status: ('A' for Active; 'I' for Inactive)
REMARK    1  A    between atoms: C2'_3  and  C1'_4 
REMARK    2  A    between atoms: C1'_4  and  C1_5 
ROOT
ATOM      1  C1  I4B d   1       1.794   0.414   0.436  0.00  0.00    -0.075 A 
ATOM      2  C2  I4B d   1       2.604  -0.693   0.408  0.00  0.00     0.003 A 
ATOM      3  C3  I4B d   1       3.498  -0.896  -0.671  0.00  0.00     0.002 A 
ATOM      4  C4  I4B d   1       3.512   0.001  -1.719  0.00  0.00    -0.004 A 
ATOM      5  C5  I4B d   1       2.707   1.135  -1.679  0.00  0.00     0.002 A 
ATOM      6  C6  I4B d   1       1.851   1.350  -0.589  0.00  0.00     0.003 A 
ENDROOT
BRANCH   1   7
ATOM      7  C1' I4B d   1       0.838   0.580   1.574  0.00  0.00     0.060 C 
BRANCH   7   8
ATOM      8  C2' I4B d   1      -0.507   0.976   1.001  0.00  0.00    -0.013 C 
ATOM      9  C4' I4B d   1      -1.570  -0.028   1.362  0.00  0.00     0.013 C 
ATOM     10  C3' I4B d   1      -0.850   2.339   1.523  0.00  0.00     0.013 C 
ENDBRANCH   7   8
ENDBRANCH   1   7
TORSDOF 2
ENDMDL
