MODEL 1
REMARK minimizedAffinity 2.42224121
REMARK minimizedRMSD -1
REMARK  2 active torsions:
REMARK  status: ('A' for Active; 'I' for Inactive)
REMARK    1  A    between atoms: C2'_3  and  C1'_4 
REMARK    2  A    between atoms: C1'_4  and  C1_5 
ROOT
ATOM      1  C1  I4B d   1       2.165   1.099  -0.215  0.00  0.00    -0.075 A 
ATOM      2  C2  I4B d   1       2.718  -0.122   0.080  0.00  0.00     0.003 A 
ATOM      3  C3  I4B d   1       3.553  -0.773  -0.860  0.00  0.00     0.002 A 
ATOM      4  C4  I4B d   1       3.766  -0.195  -2.095  0.00  0.00    -0.004 A 
ATOM      5  C5  I4B d   1       3.223   1.054  -2.384  0.00  0.00     0.002 A 
ATOM      6  C6  I4B d   1       2.427   1.711  -1.434  0.00  0.00     0.003 A 
ENDROOT
BRANCH   1   7
ATOM      7  C1' I4B d   1       1.261   1.743   0.788  0.00  0.00     0.060 C 
BRANCH   7   8
ATOM      8  C2' I4B d   1      -0.070   1.021   0.747  0.00  0.00    -0.013 C 
ATOM      9  C4' I4B d   1      -0.143  -0.048   1.805  0.00  0.00     0.013 C 
ATOM     10  C3' I4B d   1      -1.155   2.040   0.932  0.00  0.00     0.013 C 
ENDBRANCH   7   8
ENDBRANCH   1   7
TORSDOF 2
ENDMDL
