MODEL 1
REMARK minimizedAffinity 6.13101149
REMARK minimizedRMSD -1
REMARK  2 active torsions:
REMARK  status: ('A' for Active; 'I' for Inactive)
REMARK    1  A    between atoms: C2'_3  and  C1'_4 
REMARK    2  A    between atoms: C1'_4  and  C1_5 
ROOT
ATOM      1  C1  I4B d   1       0.736   0.509   1.537  0.00  0.00    -0.075 A 
ATOM      2  C2  I4B d   1      -0.472  -0.125   1.384  0.00  0.00     0.003 A 
ATOM      3  C3  I4B d   1      -1.680   0.582   1.599  0.00  0.00     0.002 A 
ATOM      4  C4  I4B d   1      -1.633   1.898   2.012  0.00  0.00    -0.004 A 
ATOM      5  C5  I4B d   1      -0.409   2.545   2.144  0.00  0.00     0.002 A 
ATOM      6  C6  I4B d   1       0.784   1.851   1.893  0.00  0.00     0.003 A 
ENDROOT
BRANCH   1   7
ATOM      7  C1' I4B d   1       1.993  -0.276   1.334  0.00  0.00     0.060 C 
BRANCH   7   8
ATOM      8  C2' I4B d   1       2.820  -0.168   2.598  0.00  0.00    -0.013 C 
ATOM      9  C4' I4B d   1       2.173  -0.910   3.738  0.00  0.00     0.013 C 
ATOM     10  C3' I4B d   1       4.187  -0.711   2.305  0.00  0.00     0.013 C 
ENDBRANCH   7   8
ENDBRANCH   1   7
TORSDOF 2
ENDMDL
