MODEL 1
REMARK minimizedAffinity 0.616737604
REMARK minimizedRMSD -1
REMARK  2 active torsions:
REMARK  status: ('A' for Active; 'I' for Inactive)
REMARK    1  A    between atoms: C2'_3  and  C1'_4 
REMARK    2  A    between atoms: C1'_4  and  C1_5 
ROOT
ATOM      1  C1  I4B d   1      -1.061  -0.188   1.285  0.00  0.00    -0.075 A 
ATOM      2  C2  I4B d   1      -1.374   1.124   1.537  0.00  0.00     0.003 A 
ATOM      3  C3  I4B d   1      -0.433   2.146   1.267  0.00  0.00     0.002 A 
ATOM      4  C4  I4B d   1       0.819   1.810   0.795  0.00  0.00    -0.004 A 
ATOM      5  C5  I4B d   1       1.127   0.481   0.518  0.00  0.00     0.002 A 
ATOM      6  C6  I4B d   1       0.177  -0.524   0.753  0.00  0.00     0.003 A 
ENDROOT
BRANCH   1   7
ATOM      7  C1' I4B d   1      -2.066  -1.246   1.613  0.00  0.00     0.060 C 
BRANCH   7   8
ATOM      8  C2' I4B d   1      -2.120  -1.387   3.121  0.00  0.00    -0.013 C 
ATOM      9  C4' I4B d   1      -3.473  -1.866   3.576  0.00  0.00     0.013 C 
ATOM     10  C3' I4B d   1      -1.040  -2.342   3.535  0.00  0.00     0.013 C 
ENDBRANCH   7   8
ENDBRANCH   1   7
TORSDOF 2
ENDMDL
