MODEL 1
REMARK minimizedAffinity 6.44775009
REMARK minimizedRMSD -1
REMARK  2 active torsions:
REMARK  status: ('A' for Active; 'I' for Inactive)
REMARK    1  A    between atoms: C2'_3  and  C1'_4 
REMARK    2  A    between atoms: C1'_4  and  C1_5 
ROOT
ATOM      1  C1  I4B d   1      -0.416  -0.667   2.222  0.00  0.00    -0.075 A 
ATOM      2  C2  I4B d   1      -0.028  -1.359   3.343  0.00  0.00     0.003 A 
ATOM      3  C3  I4B d   1      -0.983  -2.072   4.107  0.00  0.00     0.002 A 
ATOM      4  C4  I4B d   1      -2.314  -2.026   3.745  0.00  0.00    -0.004 A 
ATOM      5  C5  I4B d   1      -2.702  -1.343   2.596  0.00  0.00     0.002 A 
ATOM      6  C6  I4B d   1      -1.746  -0.669   1.823  0.00  0.00     0.003 A 
ENDROOT
BRANCH   1   7
ATOM      7  C1' I4B d   1       0.614   0.102   1.458  0.00  0.00     0.060 C 
BRANCH   7   8
ATOM      8  C2' I4B d   1      -0.077   1.278   0.798  0.00  0.00    -0.013 C 
ATOM      9  C4' I4B d   1      -0.814   2.116   1.810  0.00  0.00     0.013 C 
ATOM     10  C3' I4B d   1       0.965   2.086   0.083  0.00  0.00     0.013 C 
ENDBRANCH   7   8
ENDBRANCH   1   7
TORSDOF 2
ENDMDL
