MODEL 1
REMARK minimizedAffinity 6.18069124
REMARK minimizedRMSD -1
REMARK  2 active torsions:
REMARK  status: ('A' for Active; 'I' for Inactive)
REMARK    1  A    between atoms: C2'_3  and  C1'_4 
REMARK    2  A    between atoms: C1'_4  and  C1_5 
ROOT
ATOM      1  C1  I4B d   1       0.797   1.915   0.759  0.00  0.00    -0.075 A 
ATOM      2  C2  I4B d   1      -0.272   2.704   0.416  0.00  0.00     0.003 A 
ATOM      3  C3  I4B d   1      -1.527   2.518   1.047  0.00  0.00     0.002 A 
ATOM      4  C4  I4B d   1      -1.679   1.505   1.971  0.00  0.00    -0.004 A 
ATOM      5  C5  I4B d   1      -0.588   0.721   2.334  0.00  0.00     0.002 A 
ATOM      6  C6  I4B d   1       0.661   0.935   1.733  0.00  0.00     0.003 A 
ENDROOT
BRANCH   1   7
ATOM      7  C1' I4B d   1       2.098   2.116   0.049  0.00  0.00     0.060 C 
BRANCH   7   8
ATOM      8  C2' I4B d   1       2.361   0.890  -0.801  0.00  0.00    -0.013 C 
ATOM      9  C4' I4B d   1       3.037   1.259  -2.095  0.00  0.00     0.013 C 
ATOM     10  C3' I4B d   1       3.205  -0.056  -0.000  0.00  0.00     0.013 C 
ENDBRANCH   7   8
ENDBRANCH   1   7
TORSDOF 2
ENDMDL
