MODEL 1
REMARK minimizedAffinity -0.323662728
REMARK minimizedRMSD -1
REMARK  2 active torsions:
REMARK  status: ('A' for Active; 'I' for Inactive)
REMARK    1  A    between atoms: C2'_3  and  C1'_4 
REMARK    2  A    between atoms: C1'_4  and  C1_5 
ROOT
ATOM      1  C1  I4B d   1       0.360   0.688   1.043  0.00  0.00    -0.075 A 
ATOM      2  C2  I4B d   1       0.124  -0.608   1.428  0.00  0.00     0.003 A 
ATOM      3  C3  I4B d   1      -1.170  -1.002   1.848  0.00  0.00     0.002 A 
ATOM      4  C4  I4B d   1      -2.178  -0.062   1.917  0.00  0.00    -0.004 A 
ATOM      5  C5  I4B d   1      -1.942   1.247   1.506  0.00  0.00     0.002 A 
ATOM      6  C6  I4B d   1      -0.668   1.622   1.054  0.00  0.00     0.003 A 
ENDROOT
BRANCH   1   7
ATOM      7  C1' I4B d   1       1.746   1.078   0.636  0.00  0.00     0.060 C 
BRANCH   7   8
ATOM      8  C2' I4B d   1       2.377  -0.108  -0.064  0.00  0.00    -0.013 C 
ATOM      9  C4' I4B d   1       2.567   0.163  -1.533  0.00  0.00     0.013 C 
ATOM     10  C3' I4B d   1       3.687  -0.398   0.607  0.00  0.00     0.013 C 
ENDBRANCH   7   8
ENDBRANCH   1   7
TORSDOF 2
ENDMDL
