MODEL 1
REMARK minimizedAffinity 11.8490181
REMARK minimizedRMSD -1
REMARK  2 active torsions:
REMARK  status: ('A' for Active; 'I' for Inactive)
REMARK    1  A    between atoms: C2'_3  and  C1'_4 
REMARK    2  A    between atoms: C1'_4  and  C1_5 
ROOT
ATOM      1  C1  I4B d   1      -3.659  -3.622  -0.816  0.00  0.00    -0.075 A 
ATOM      2  C2  I4B d   1      -4.093  -4.813  -1.344  0.00  0.00     0.003 A 
ATOM      3  C3  I4B d   1      -3.349  -5.999  -1.132  0.00  0.00     0.002 A 
ATOM      4  C4  I4B d   1      -2.160  -5.940  -0.434  0.00  0.00    -0.004 A 
ATOM      5  C5  I4B d   1      -1.734  -4.736   0.120  0.00  0.00     0.002 A 
ATOM      6  C6  I4B d   1      -2.495  -3.572  -0.061  0.00  0.00     0.003 A 
ENDROOT
BRANCH   1   7
ATOM      7  C1' I4B d   1      -4.452  -2.383  -1.087  0.00  0.00     0.060 C 
BRANCH   7   8
ATOM      8  C2' I4B d   1      -3.603  -1.464  -1.942  0.00  0.00    -0.013 C 
ATOM      9  C4' I4B d   1      -3.404  -2.032  -3.322  0.00  0.00     0.013 C 
ATOM     10  C3' I4B d   1      -4.282  -0.128  -1.999  0.00  0.00     0.013 C 
ENDBRANCH   7   8
ENDBRANCH   1   7
TORSDOF 2
ENDMDL
