MODEL 1
REMARK minimizedAffinity -4.90252686
REMARK minimizedRMSD -1
REMARK  2 active torsions:
REMARK  status: ('A' for Active; 'I' for Inactive)
REMARK    1  A    between atoms: C1_2  and  C2_3 
REMARK    2  A    between atoms: C2_3  and  C3_4 
ROOT
ATOM      1  C3  UNL d   1      -0.716   0.398   0.144  0.00  0.00    -0.075 A 
ATOM      2  C4  UNL d   1       0.592   0.479  -0.357  0.00  0.00     0.002 A 
ATOM      3  C5  UNL d   1       1.469  -0.598  -0.223  0.00  0.00     0.002 A 
ATOM      4  C6  UNL d   1       1.056  -1.761   0.421  0.00  0.00    -0.004 A 
ATOM      5  C7  UNL d   1      -0.235  -1.846   0.938  0.00  0.00     0.002 A 
ATOM      6  C8  UNL d   1      -1.117  -0.773   0.801  0.00  0.00     0.002 A 
ENDROOT
BRANCH   1   7
ATOM      7  C2  UNL d   1      -1.680   1.549  -0.023  0.00  0.00     0.056 C 
BRANCH   7   8
ATOM      8  C1  UNL d   1      -1.805   2.052  -1.465  0.00  0.00     0.007 C 
ATOM      9  C   UNL d   1      -3.145   1.712  -2.105  0.00  0.00     0.009 C 
ENDBRANCH   7   8
ENDBRANCH   1   7
TORSDOF 2
ENDMDL
