MODEL 1
REMARK minimizedAffinity -2.51817942
REMARK minimizedRMSD -1
REMARK  2 active torsions:
REMARK  status: ('A' for Active; 'I' for Inactive)
REMARK    1  A    between atoms: C1_2  and  C2_3 
REMARK    2  A    between atoms: C2_3  and  C3_4 
ROOT
ATOM      1  C3  UNL d   1       0.029   1.087  -0.612  0.00  0.00    -0.075 A 
ATOM      2  C4  UNL d   1      -0.811   0.202   0.079  0.00  0.00     0.002 A 
ATOM      3  C5  UNL d   1      -2.142   0.041  -0.308  0.00  0.00     0.002 A 
ATOM      4  C6  UNL d   1      -2.651   0.768  -1.382  0.00  0.00    -0.004 A 
ATOM      5  C7  UNL d   1      -1.830   1.662  -2.065  0.00  0.00     0.002 A 
ATOM      6  C8  UNL d   1      -0.497   1.822  -1.683  0.00  0.00     0.002 A 
ENDROOT
BRANCH   1   7
ATOM      7  C2  UNL d   1       1.478   1.244  -0.217  0.00  0.00     0.056 C 
BRANCH   7   8
ATOM      8  C1  UNL d   1       2.375   0.084  -0.661  0.00  0.00     0.007 C 
ATOM      9  C   UNL d   1       2.430  -1.054   0.350  0.00  0.00     0.009 C 
ENDBRANCH   7   8
ENDBRANCH   1   7
TORSDOF 2
ENDMDL
