MODEL 1
REMARK minimizedAffinity -5.07885551
REMARK minimizedRMSD -1
REMARK  2 active torsions:
REMARK  status: ('A' for Active; 'I' for Inactive)
REMARK    1  A    between atoms: C1_2  and  C2_3 
REMARK    2  A    between atoms: C2_3  and  C3_4 
ROOT
ATOM      1  C3  UNL d   1      -0.682   0.129  -0.091  0.00  0.00    -0.075 A 
ATOM      2  C4  UNL d   1      -0.528  -0.658   1.059  0.00  0.00     0.002 A 
ATOM      3  C5  UNL d   1       0.655  -1.365   1.281  0.00  0.00     0.002 A 
ATOM      4  C6  UNL d   1       1.692  -1.302   0.354  0.00  0.00    -0.004 A 
ATOM      5  C7  UNL d   1       1.544  -0.536  -0.801  0.00  0.00     0.002 A 
ATOM      6  C8  UNL d   1       0.363   0.176  -1.023  0.00  0.00     0.002 A 
ENDROOT
BRANCH   1   7
ATOM      7  C2  UNL d   1      -1.947   0.920  -0.322  0.00  0.00     0.056 C 
BRANCH   7   8
ATOM      8  C1  UNL d   1      -1.975   1.676  -1.655  0.00  0.00     0.007 C 
ATOM      9  C   UNL d   1      -3.176   1.320  -2.522  0.00  0.00     0.009 C 
ENDBRANCH   7   8
ENDBRANCH   1   7
TORSDOF 2
ENDMDL
