MODEL 1
REMARK minimizedAffinity -5.41912222
REMARK minimizedRMSD -1
REMARK  2 active torsions:
REMARK  status: ('A' for Active; 'I' for Inactive)
REMARK    1  A    between atoms: C1_2  and  C2_3 
REMARK    2  A    between atoms: C2_3  and  C3_4 
ROOT
ATOM      1  C3  UNL d   1      -0.448   0.236   0.434  0.00  0.00    -0.075 A 
ATOM      2  C4  UNL d   1      -1.136  -0.083   1.614  0.00  0.00     0.002 A 
ATOM      3  C5  UNL d   1      -0.567  -0.942   2.555  0.00  0.00     0.002 A 
ATOM      4  C6  UNL d   1       0.688  -1.500   2.324  0.00  0.00    -0.004 A 
ATOM      5  C7  UNL d   1       1.373  -1.203   1.148  0.00  0.00     0.002 A 
ATOM      6  C8  UNL d   1       0.809  -0.340   0.207  0.00  0.00     0.002 A 
ENDROOT
BRANCH   1   7
ATOM      7  C2  UNL d   1      -1.045   1.189  -0.574  0.00  0.00     0.056 C 
BRANCH   7   8
ATOM      8  C1  UNL d   1      -2.092   0.549  -1.492  0.00  0.00     0.007 C 
ATOM      9  C   UNL d   1      -2.079   1.117  -2.905  0.00  0.00     0.009 C 
ENDBRANCH   7   8
ENDBRANCH   1   7
TORSDOF 2
ENDMDL
