MODEL 1
REMARK minimizedAffinity -5.2175312
REMARK minimizedRMSD -1
REMARK  2 active torsions:
REMARK  status: ('A' for Active; 'I' for Inactive)
REMARK    1  A    between atoms: C1_2  and  C2_3 
REMARK    2  A    between atoms: C2_3  and  C3_4 
ROOT
ATOM      1  C3  UNL d   1       0.276   0.051  -0.156  0.00  0.00    -0.075 A 
ATOM      2  C4  UNL d   1       1.620  -0.271  -0.390  0.00  0.00     0.002 A 
ATOM      3  C5  UNL d   1       2.294  -1.155   0.453  0.00  0.00     0.002 A 
ATOM      4  C6  UNL d   1       1.637  -1.719   1.545  0.00  0.00    -0.004 A 
ATOM      5  C7  UNL d   1       0.306  -1.392   1.797  0.00  0.00     0.002 A 
ATOM      6  C8  UNL d   1      -0.372  -0.512   0.952  0.00  0.00     0.002 A 
ENDROOT
BRANCH   1   7
ATOM      7  C2  UNL d   1      -0.468   0.984  -1.082  0.00  0.00     0.056 C 
BRANCH   7   8
ATOM      8  C1  UNL d   1      -1.375   0.271  -2.090  0.00  0.00     0.007 C 
ATOM      9  C   UNL d   1      -1.917   1.197  -3.170  0.00  0.00     0.009 C 
ENDBRANCH   7   8
ENDBRANCH   1   7
TORSDOF 2
ENDMDL
