MODEL 1
REMARK minimizedAffinity -2.08663082
REMARK minimizedRMSD -1
REMARK  2 active torsions:
REMARK  status: ('A' for Active; 'I' for Inactive)
REMARK    1  A    between atoms: C1_2  and  C2_3 
REMARK    2  A    between atoms: C2_3  and  C3_4 
ROOT
ATOM      1  C3  UNL d   1      -0.889   0.486  -0.829  0.00  0.00    -0.075 A 
ATOM      2  C4  UNL d   1      -2.050  -0.297  -0.905  0.00  0.00     0.002 A 
ATOM      3  C5  UNL d   1      -2.930  -0.156  -1.979  0.00  0.00     0.002 A 
ATOM      4  C6  UNL d   1      -2.667   0.774  -2.982  0.00  0.00    -0.004 A 
ATOM      5  C7  UNL d   1      -1.525   1.569  -2.908  0.00  0.00     0.002 A 
ATOM      6  C8  UNL d   1      -0.640   1.427  -1.837  0.00  0.00     0.002 A 
ENDROOT
BRANCH   1   7
ATOM      7  C2  UNL d   1       0.083   0.318   0.314  0.00  0.00     0.056 C 
BRANCH   7   8
ATOM      8  C1  UNL d   1       1.505  -0.049  -0.124  0.00  0.00     0.007 C 
ATOM      9  C   UNL d   1       2.096  -1.209   0.666  0.00  0.00     0.009 C 
ENDBRANCH   7   8
ENDBRANCH   1   7
TORSDOF 2
ENDMDL
