MODEL 1
REMARK minimizedAffinity 3.66683316
REMARK minimizedRMSD -1
REMARK  2 active torsions:
REMARK  status: ('A' for Active; 'I' for Inactive)
REMARK    1  A    between atoms: C1_2  and  C2_3 
REMARK    2  A    between atoms: C2_3  and  C3_4 
ROOT
ATOM      1  C3  UNL d   1       0.463   0.065   0.684  0.00  0.00    -0.075 A 
ATOM      2  C4  UNL d   1       0.885   1.278   0.120  0.00  0.00     0.002 A 
ATOM      3  C5  UNL d   1       2.193   1.427  -0.342  0.00  0.00     0.002 A 
ATOM      4  C6  UNL d   1       3.096   0.372  -0.237  0.00  0.00    -0.004 A 
ATOM      5  C7  UNL d   1       2.693  -0.832   0.336  0.00  0.00     0.002 A 
ATOM      6  C8  UNL d   1       1.383  -0.986   0.795  0.00  0.00     0.002 A 
ENDROOT
BRANCH   1   7
ATOM      7  C2  UNL d   1      -0.960  -0.113   1.159  0.00  0.00     0.056 C 
BRANCH   7   8
ATOM      8  C1  UNL d   1      -1.769  -1.123   0.339  0.00  0.00     0.007 C 
ATOM      9  C   UNL d   1      -3.126  -0.590  -0.100  0.00  0.00     0.009 C 
ENDBRANCH   7   8
ENDBRANCH   1   7
TORSDOF 2
ENDMDL
