MODEL 1
REMARK minimizedAffinity 4.46835613
REMARK minimizedRMSD -1
REMARK  2 active torsions:
REMARK  status: ('A' for Active; 'I' for Inactive)
REMARK    1  A    between atoms: C1_2  and  C2_3 
REMARK    2  A    between atoms: C2_3  and  C3_4 
ROOT
ATOM      1  C3  UNL d   1      -3.997  -4.640  -0.125  0.00  0.00    -0.075 A 
ATOM      2  C4  UNL d   1      -3.881  -4.638  -1.522  0.00  0.00     0.002 A 
ATOM      3  C5  UNL d   1      -4.822  -5.297  -2.313  0.00  0.00     0.002 A 
ATOM      4  C6  UNL d   1      -5.883  -5.976  -1.718  0.00  0.00    -0.004 A 
ATOM      5  C7  UNL d   1      -6.000  -5.999  -0.330  0.00  0.00     0.002 A 
ATOM      6  C8  UNL d   1      -5.062  -5.336   0.463  0.00  0.00     0.002 A 
ENDROOT
BRANCH   1   7
ATOM      7  C2  UNL d   1      -2.999  -3.903   0.736  0.00  0.00     0.056 C 
BRANCH   7   8
ATOM      8  C1  UNL d   1      -2.369  -2.684   0.054  0.00  0.00     0.007 C 
ATOM      9  C   UNL d   1      -2.683  -1.372   0.761  0.00  0.00     0.009 C 
ENDBRANCH   7   8
ENDBRANCH   1   7
TORSDOF 2
ENDMDL
