MODEL 1
REMARK minimizedAffinity 5.70903444
REMARK minimizedRMSD -1
REMARK  2 active torsions:
REMARK  status: ('A' for Active; 'I' for Inactive)
REMARK    1  A    between atoms: C1_2  and  C2_3 
REMARK    2  A    between atoms: C2_3  and  C3_4 
ROOT
ATOM      1  C3  UNL d   1      -0.948  -2.239   0.533  0.00  0.00    -0.075 A 
ATOM      2  C4  UNL d   1      -2.027  -2.414   1.412  0.00  0.00     0.002 A 
ATOM      3  C5  UNL d   1      -2.788  -3.582   1.376  0.00  0.00     0.002 A 
ATOM      4  C6  UNL d   1      -2.488  -4.585   0.456  0.00  0.00    -0.004 A 
ATOM      5  C7  UNL d   1      -1.429  -4.415  -0.433  0.00  0.00     0.002 A 
ATOM      6  C8  UNL d   1      -0.663  -3.248  -0.397  0.00  0.00     0.002 A 
ENDROOT
BRANCH   1   7
ATOM      7  C2  UNL d   1      -0.102  -0.989   0.587  0.00  0.00     0.056 C 
BRANCH   7   8
ATOM      8  C1  UNL d   1       1.320  -1.175   0.047  0.00  0.00     0.007 C 
ATOM      9  C   UNL d   1       1.883   0.080  -0.606  0.00  0.00     0.009 C 
ENDBRANCH   7   8
ENDBRANCH   1   7
TORSDOF 2
ENDMDL
