MODEL 1
REMARK minimizedAffinity 2.72899127
REMARK minimizedRMSD -1
REMARK  2 active torsions:
REMARK  status: ('A' for Active; 'I' for Inactive)
REMARK    1  A    between atoms: C1_2  and  C2_3 
REMARK    2  A    between atoms: C2_3  and  C3_4 
ROOT
ATOM      1  C3  UNL d   1       2.009  -1.277   1.626  0.00  0.00    -0.075 A 
ATOM      2  C4  UNL d   1       0.799  -0.588   1.451  0.00  0.00     0.002 A 
ATOM      3  C5  UNL d   1       0.620   0.260   0.358  0.00  0.00     0.002 A 
ATOM      4  C6  UNL d   1       1.647   0.439  -0.566  0.00  0.00    -0.004 A 
ATOM      5  C7  UNL d   1       2.859  -0.227  -0.392  0.00  0.00     0.002 A 
ATOM      6  C8  UNL d   1       3.040  -1.080   0.698  0.00  0.00     0.002 A 
ENDROOT
BRANCH   1   7
ATOM      7  C2  UNL d   1       2.199  -2.219   2.790  0.00  0.00     0.056 C 
BRANCH   7   8
ATOM      8  C1  UNL d   1       1.945  -1.579   4.159  0.00  0.00     0.007 C 
ATOM      9  C   UNL d   1       0.579  -1.921   4.738  0.00  0.00     0.009 C 
ENDBRANCH   7   8
ENDBRANCH   1   7
TORSDOF 2
ENDMDL
