MODEL 1
REMARK minimizedAffinity -6.44996929
REMARK minimizedRMSD -1
REMARK  2 active torsions:
REMARK  status: ('A' for Active; 'I' for Inactive)
REMARK    1  A    between atoms: C1_2  and  C2_3 
REMARK    2  A    between atoms: C2_3  and  C3_4 
ROOT
ATOM      1  C3  UNL d   1      -0.386  -1.387   0.288  0.00  0.00    -0.075 A 
ATOM      2  C4  UNL d   1       0.749  -2.124  -0.081  0.00  0.00     0.002 A 
ATOM      3  C5  UNL d   1       1.489  -2.813   0.880  0.00  0.00     0.002 A 
ATOM      4  C6  UNL d   1       1.112  -2.766   2.220  0.00  0.00    -0.004 A 
ATOM      5  C7  UNL d   1      -0.004  -2.024   2.600  0.00  0.00     0.002 A 
ATOM      6  C8  UNL d   1      -0.750  -1.337   1.640  0.00  0.00     0.002 A 
ENDROOT
BRANCH   1   7
ATOM      7  C2  UNL d   1      -1.209  -0.663  -0.751  0.00  0.00     0.056 C 
BRANCH   7   8
ATOM      8  C1  UNL d   1      -1.786   0.672  -0.270  0.00  0.00     0.007 C 
ATOM      9  C   UNL d   1      -2.897   1.203  -1.166  0.00  0.00     0.009 C 
ENDBRANCH   7   8
ENDBRANCH   1   7
TORSDOF 2
ENDMDL
