MODEL 1
REMARK minimizedAffinity 0.0399550796
REMARK minimizedRMSD -1
REMARK  2 active torsions:
REMARK  status: ('A' for Active; 'I' for Inactive)
REMARK    1  A    between atoms: C1_2  and  C2_3 
REMARK    2  A    between atoms: C2_3  and  C3_4 
ROOT
ATOM      1  C3  UNL d   1      -0.629   1.210  -0.857  0.00  0.00    -0.075 A 
ATOM      2  C4  UNL d   1      -1.351   0.508  -1.834  0.00  0.00     0.002 A 
ATOM      3  C5  UNL d   1      -1.881   1.176  -2.939  0.00  0.00     0.002 A 
ATOM      4  C6  UNL d   1      -1.705   2.551  -3.076  0.00  0.00    -0.004 A 
ATOM      5  C7  UNL d   1      -1.004   3.260  -2.103  0.00  0.00     0.002 A 
ATOM      6  C8  UNL d   1      -0.469   2.595  -0.999  0.00  0.00     0.002 A 
ENDROOT
BRANCH   1   7
ATOM      7  C2  UNL d   1      -0.028   0.489   0.326  0.00  0.00     0.056 C 
BRANCH   7   8
ATOM      8  C1  UNL d   1       1.467   0.189   0.179  0.00  0.00     0.007 C 
ATOM      9  C   UNL d   1       1.917  -1.027   0.977  0.00  0.00     0.009 C 
ENDBRANCH   7   8
ENDBRANCH   1   7
TORSDOF 2
ENDMDL
