MODEL 1
REMARK minimizedAffinity -0.805168688
REMARK minimizedRMSD -1
REMARK  1 active torsions:
REMARK  status: ('A' for Active; 'I' for Inactive)
REMARK    1  A    between atoms: N_2  and  C1_3 
ROOT
ATOM      1  C1  UNL d   1       5.086   1.375   3.809  0.00  0.00     0.143 A 
ATOM      2  C2  UNL d   1       4.144   1.924   2.933  0.00  0.00    -0.057 A 
ATOM      3  C3  UNL d   1       4.143   3.292   2.631  0.00  0.00     0.033 A 
ATOM      4  C4  UNL d   1       5.070   4.142   3.226  0.00  0.00    -0.042 A 
ATOM      5  C5  UNL d   1       6.000   3.622   4.119  0.00  0.00     0.033 A 
ATOM      6  C6  UNL d   1       6.000   2.255   4.411  0.00  0.00    -0.057 A 
ENDROOT
BRANCH   1   7
ATOM      7  N   UNL d   1       5.077   0.042   4.225  0.00  0.00    -0.732 N 
ATOM      8  C   UNL d   1       5.994  -0.419   5.245  0.00  0.00     0.284 C 
ATOM      9  H3  UNL d   1       4.134  -0.331   4.315  0.00  0.00     0.395 HD
ENDBRANCH   1   7
TORSDOF 1
ENDMDL
