MODEL 1
REMARK minimizedAffinity 1.3726362
REMARK minimizedRMSD -1
REMARK  1 active torsions:
REMARK  status: ('A' for Active; 'I' for Inactive)
REMARK    1  A    between atoms: N_2  and  C1_3 
ROOT
ATOM      1  C1  UNL d   1       5.996   3.972   3.774  0.00  0.00     0.143 A 
ATOM      2  C2  UNL d   1       5.982   3.368   5.035  0.00  0.00    -0.057 A 
ATOM      3  C3  UNL d   1       5.997   1.974   5.172  0.00  0.00     0.033 A 
ATOM      4  C4  UNL d   1       5.997   1.158   4.046  0.00  0.00    -0.042 A 
ATOM      5  C5  UNL d   1       5.986   1.737   2.782  0.00  0.00     0.033 A 
ATOM      6  C6  UNL d   1       5.978   3.129   2.651  0.00  0.00    -0.057 A 
ENDROOT
BRANCH   1   7
ATOM      7  N   UNL d   1       5.883   5.350   3.570  0.00  0.00    -0.732 N 
ATOM      8  C   UNL d   1       5.996   5.910   2.240  0.00  0.00     0.284 C 
ATOM      9  H3  UNL d   1       5.148   5.767   4.136  0.00  0.00     0.395 HD
ENDBRANCH   1   7
TORSDOF 1
ENDMDL
