MODEL 1
REMARK minimizedAffinity 6.57639074
REMARK minimizedRMSD -1
REMARK  1 active torsions:
REMARK  status: ('A' for Active; 'I' for Inactive)
REMARK    1  A    between atoms: N_2  and  C1_3 
ROOT
ATOM      1  C1  UNL d   1       5.991   1.124   2.925  0.00  0.00     0.143 A 
ATOM      2  C2  UNL d   1       5.955   2.094   1.918  0.00  0.00    -0.057 A 
ATOM      3  C3  UNL d   1       5.965   3.460   2.225  0.00  0.00     0.033 A 
ATOM      4  C4  UNL d   1       5.982   3.881   3.551  0.00  0.00    -0.042 A 
ATOM      5  C5  UNL d   1       5.993   2.934   4.569  0.00  0.00     0.033 A 
ATOM      6  C6  UNL d   1       5.989   1.571   4.255  0.00  0.00    -0.057 A 
ENDROOT
BRANCH   1   7
ATOM      7  N   UNL d   1       5.883  -0.249   2.686  0.00  0.00    -0.732 N 
ATOM      8  C   UNL d   1       5.999  -1.197   3.773  0.00  0.00     0.284 C 
ATOM      9  H3  UNL d   1       5.149  -0.470   2.018  0.00  0.00     0.395 HD
ENDBRANCH   1   7
TORSDOF 1
ENDMDL
