MODEL 1
REMARK minimizedAffinity -2.17396331
REMARK minimizedRMSD -1
REMARK  1 active torsions:
REMARK  status: ('A' for Active; 'I' for Inactive)
REMARK    1  A    between atoms: N_2  and  C1_3 
ROOT
ATOM      1  C1  UNL d   1       5.264   2.835   3.780  0.00  0.00     0.143 A 
ATOM      2  C2  UNL d   1       4.518   1.900   3.053  0.00  0.00    -0.057 A 
ATOM      3  C3  UNL d   1       4.471   0.554   3.435  0.00  0.00     0.033 A 
ATOM      4  C4  UNL d   1       5.194   0.112   4.538  0.00  0.00    -0.042 A 
ATOM      5  C5  UNL d   1       5.962   1.018   5.260  0.00  0.00     0.033 A 
ATOM      6  C6  UNL d   1       6.000   2.362   4.878  0.00  0.00    -0.057 A 
ENDROOT
BRANCH   1   7
ATOM      7  N   UNL d   1       5.430   4.167   3.394  0.00  0.00    -0.732 N 
ATOM      8  C   UNL d   1       5.953   4.495   2.085  0.00  0.00     0.284 C 
ATOM      9  H3  UNL d   1       4.657   4.757   3.693  0.00  0.00     0.395 HD
ENDBRANCH   1   7
TORSDOF 1
ENDMDL
