MODEL 1
REMARK minimizedAffinity -2.66987538
REMARK minimizedRMSD -1
REMARK  1 active torsions:
REMARK  status: ('A' for Active; 'I' for Inactive)
REMARK    1  A    between atoms: N_2  and  C1_3 
ROOT
ATOM      1  C1  UNL d   1       5.237   1.147   4.015  0.00  0.00     0.143 A 
ATOM      2  C2  UNL d   1       4.496   2.162   4.630  0.00  0.00    -0.057 A 
ATOM      3  C3  UNL d   1       4.478   3.463   4.114  0.00  0.00     0.033 A 
ATOM      4  C4  UNL d   1       5.228   3.781   2.987  0.00  0.00    -0.042 A 
ATOM      5  C5  UNL d   1       5.992   2.794   2.373  0.00  0.00     0.033 A 
ATOM      6  C6  UNL d   1       6.000   1.495   2.889  0.00  0.00    -0.057 A 
ENDROOT
BRANCH   1   7
ATOM      7  N   UNL d   1       5.373  -0.142   4.536  0.00  0.00    -0.732 N 
ATOM      8  C   UNL d   1       5.587  -0.346   5.953  0.00  0.00     0.284 C 
ATOM      9  H3  UNL d   1       4.723  -0.802   4.115  0.00  0.00     0.395 HD
ENDBRANCH   1   7
TORSDOF 1
ENDMDL
