MODEL 1
REMARK minimizedAffinity -2.18395805
REMARK minimizedRMSD -1
REMARK  1 active torsions:
REMARK  status: ('A' for Active; 'I' for Inactive)
REMARK    1  A    between atoms: N_2  and  C1_3 
ROOT
ATOM      1  C1  UNL d   1       5.986  -0.071   4.399  0.00  0.00     0.143 A 
ATOM      2  C2  UNL d   1       5.956   0.501   3.123  0.00  0.00    -0.057 A 
ATOM      3  C3  UNL d   1       5.968   1.890   2.949  0.00  0.00     0.033 A 
ATOM      4  C4  UNL d   1       5.979   2.735   4.054  0.00  0.00    -0.042 A 
ATOM      5  C5  UNL d   1       5.984   2.189   5.332  0.00  0.00     0.033 A 
ATOM      6  C6  UNL d   1       5.979   0.801   5.499  0.00  0.00    -0.057 A 
ENDROOT
BRANCH   1   7
ATOM      7  N   UNL d   1       5.877  -1.443   4.639  0.00  0.00    -0.732 N 
ATOM      8  C   UNL d   1       5.837  -1.953   5.993  0.00  0.00     0.284 C 
ATOM      9  H3  UNL d   1       5.225  -1.898   4.004  0.00  0.00     0.395 HD
ENDBRANCH   1   7
TORSDOF 1
ENDMDL
