MODEL 1
REMARK minimizedAffinity 11.2838659
REMARK minimizedRMSD -1
REMARK  1 active torsions:
REMARK  status: ('A' for Active; 'I' for Inactive)
REMARK    1  A    between atoms: N_2  and  C1_3 
ROOT
ATOM      1  C1  UNL d   1      -1.485   4.396   3.567  0.00  0.00     0.143 A 
ATOM      2  C2  UNL d   1      -0.104   4.260   3.389  0.00  0.00    -0.057 A 
ATOM      3  C3  UNL d   1       0.423   3.597   2.275  0.00  0.00     0.033 A 
ATOM      4  C4  UNL d   1      -0.426   3.030   1.329  0.00  0.00    -0.042 A 
ATOM      5  C5  UNL d   1      -1.802   3.132   1.498  0.00  0.00     0.033 A 
ATOM      6  C6  UNL d   1      -2.323   3.801   2.610  0.00  0.00    -0.057 A 
ENDROOT
BRANCH   1   7
ATOM      7  N   UNL d   1      -2.072   4.958   4.703  0.00  0.00    -0.732 N 
ATOM      8  C   UNL d   1      -3.435   4.635   5.066  0.00  0.00     0.284 C 
ATOM      9  H3  UNL d   1      -1.430   4.998   5.492  0.00  0.00     0.395 HD
ENDBRANCH   1   7
TORSDOF 1
ENDMDL
