MODEL 1
REMARK minimizedAffinity 5.38903236
REMARK minimizedRMSD -1
REMARK  1 active torsions:
REMARK  status: ('A' for Active; 'I' for Inactive)
REMARK    1  A    between atoms: N_2  and  C1_3 
ROOT
ATOM      1  C1  UNL d   1      -1.059   0.934   3.371  0.00  0.00     0.143 A 
ATOM      2  C2  UNL d   1      -0.500   1.494   2.217  0.00  0.00    -0.057 A 
ATOM      3  C3  UNL d   1      -0.382   2.881   2.067  0.00  0.00     0.033 A 
ATOM      4  C4  UNL d   1      -0.850   3.736   3.059  0.00  0.00    -0.042 A 
ATOM      5  C5  UNL d   1      -1.432   3.203   4.203  0.00  0.00     0.033 A 
ATOM      6  C6  UNL d   1      -1.541   1.816   4.350  0.00  0.00    -0.057 A 
ENDROOT
BRANCH   1   7
ATOM      7  N   UNL d   1      -1.293  -0.433   3.537  0.00  0.00    -0.732 N 
ATOM      8  C   UNL d   1      -2.630  -0.927   3.792  0.00  0.00     0.284 C 
ATOM      9  H3  UNL d   1      -0.758  -1.001   2.885  0.00  0.00     0.395 HD
ENDBRANCH   1   7
TORSDOF 1
ENDMDL
