MODEL 1
REMARK minimizedAffinity -1.10168028
REMARK minimizedRMSD -1
REMARK  1 active torsions:
REMARK  status: ('A' for Active; 'I' for Inactive)
REMARK    1  A    between atoms: N_2  and  C1_3 
ROOT
ATOM      1  C1  UNL d   1       5.640   0.685   4.989  0.00  0.00     0.143 A 
ATOM      2  C2  UNL d   1       5.240   0.725   3.649  0.00  0.00    -0.057 A 
ATOM      3  C3  UNL d   1       5.245   1.924   2.926  0.00  0.00     0.033 A 
ATOM      4  C4  UNL d   1       5.623   3.113   3.541  0.00  0.00    -0.042 A 
ATOM      5  C5  UNL d   1       6.000   3.101   4.879  0.00  0.00     0.033 A 
ATOM      6  C6  UNL d   1       6.000   1.899   5.594  0.00  0.00    -0.057 A 
ENDROOT
BRANCH   1   7
ATOM      7  N   UNL d   1       5.564  -0.457   5.790  0.00  0.00    -0.732 N 
ATOM      8  C   UNL d   1       5.880  -1.761   5.246  0.00  0.00     0.284 C 
ATOM      9  H3  UNL d   1       5.925  -0.299   6.728  0.00  0.00     0.395 HD
ENDBRANCH   1   7
TORSDOF 1
ENDMDL
