MODEL 1
REMARK minimizedAffinity -0.680708647
REMARK minimizedRMSD -1
REMARK  1 active torsions:
REMARK  status: ('A' for Active; 'I' for Inactive)
REMARK    1  A    between atoms: N_2  and  C1_3 
ROOT
ATOM      1  C1  UNL d   1       5.914   2.879   4.530  0.00  0.00     0.143 A 
ATOM      2  C2  UNL d   1       5.928   3.783   5.598  0.00  0.00    -0.057 A 
ATOM      3  C3  UNL d   1       5.945   5.166   5.379  0.00  0.00     0.033 A 
ATOM      4  C4  UNL d   1       5.980   5.670   4.083  0.00  0.00    -0.042 A 
ATOM      5  C5  UNL d   1       5.993   4.790   3.007  0.00  0.00     0.033 A 
ATOM      6  C6  UNL d   1       5.968   3.411   3.232  0.00  0.00    -0.057 A 
ENDROOT
BRANCH   1   7
ATOM      7  N   UNL d   1       5.996   1.493   4.683  0.00  0.00    -0.732 N 
ATOM      8  C   UNL d   1       5.915   0.618   3.533  0.00  0.00     0.284 C 
ATOM      9  H3  UNL d   1       6.699   1.218   5.365  0.00  0.00     0.395 HD
ENDBRANCH   1   7
TORSDOF 1
ENDMDL
