MODEL 1
REMARK minimizedAffinity 11.1956482
REMARK minimizedRMSD -1
REMARK  1 active torsions:
REMARK  status: ('A' for Active; 'I' for Inactive)
REMARK    1  A    between atoms: N_2  and  C1_3 
ROOT
ATOM      1  C1  UNL d   1      -3.404  -3.245   0.676  0.00  0.00     0.143 A 
ATOM      2  C2  UNL d   1      -3.116  -1.957   0.211  0.00  0.00    -0.057 A 
ATOM      3  C3  UNL d   1      -1.798  -1.548  -0.024  0.00  0.00     0.033 A 
ATOM      4  C4  UNL d   1      -0.739  -2.413   0.231  0.00  0.00    -0.042 A 
ATOM      5  C5  UNL d   1      -1.000  -3.689   0.717  0.00  0.00     0.033 A 
ATOM      6  C6  UNL d   1      -2.319  -4.094   0.943  0.00  0.00    -0.057 A 
ENDROOT
BRANCH   1   7
ATOM      7  N   UNL d   1      -4.687  -3.678   1.023  0.00  0.00    -0.732 N 
ATOM      8  C   UNL d   1      -5.824  -2.792   0.893  0.00  0.00     0.284 C 
ATOM      9  H3  UNL d   1      -4.868  -4.633   0.724  0.00  0.00     0.395 HD
ENDBRANCH   1   7
TORSDOF 1
ENDMDL
