MODEL 1
REMARK minimizedAffinity 11.3350573
REMARK minimizedRMSD -1
REMARK  1 active torsions:
REMARK  status: ('A' for Active; 'I' for Inactive)
REMARK    1  A    between atoms: N_2  and  C1_3 
ROOT
ATOM      1  C1  UNL d   1       3.535   2.478   2.808  0.00  0.00     0.143 A 
ATOM      2  C2  UNL d   1       4.753   1.820   2.604  0.00  0.00    -0.057 A 
ATOM      3  C3  UNL d   1       5.237   1.572   1.313  0.00  0.00     0.033 A 
ATOM      4  C4  UNL d   1       4.495   1.954   0.201  0.00  0.00    -0.042 A 
ATOM      5  C5  UNL d   1       3.270   2.588   0.380  0.00  0.00     0.033 A 
ATOM      6  C6  UNL d   1       2.795   2.838   1.671  0.00  0.00    -0.057 A 
ENDROOT
BRANCH   1   7
ATOM      7  N   UNL d   1       2.954   2.666   4.064  0.00  0.00    -0.732 N 
ATOM      8  C   UNL d   1       3.694   3.306   5.131  0.00  0.00     0.284 C 
ATOM      9  H3  UNL d   1       1.980   2.955   4.002  0.00  0.00     0.395 HD
ENDBRANCH   1   7
TORSDOF 1
ENDMDL
