MODEL 1
REMARK minimizedAffinity 12.6528025
REMARK minimizedRMSD -1
REMARK  1 active torsions:
REMARK  status: ('A' for Active; 'I' for Inactive)
REMARK    1  A    between atoms: N_2  and  C1_3 
ROOT
ATOM      1  C1  UNL d   1      -2.194  -1.399  -1.522  0.00  0.00     0.143 A 
ATOM      2  C2  UNL d   1      -3.004  -0.847  -0.524  0.00  0.00    -0.057 A 
ATOM      3  C3  UNL d   1      -2.996  -1.354   0.781  0.00  0.00     0.033 A 
ATOM      4  C4  UNL d   1      -2.197  -2.446   1.105  0.00  0.00    -0.042 A 
ATOM      5  C5  UNL d   1      -1.402  -3.027   0.123  0.00  0.00     0.033 A 
ATOM      6  C6  UNL d   1      -1.409  -2.511  -1.177  0.00  0.00    -0.057 A 
ENDROOT
BRANCH   1   7
ATOM      7  N   UNL d   1      -2.230  -1.003  -2.861  0.00  0.00    -0.732 N 
ATOM      8  C   UNL d   1      -1.830  -1.915  -3.911  0.00  0.00     0.284 C 
ATOM      9  H3  UNL d   1      -3.057  -0.453  -3.081  0.00  0.00     0.395 HD
ENDBRANCH   1   7
TORSDOF 1
ENDMDL
