MODEL 1
REMARK minimizedAffinity 5.31663084
REMARK minimizedRMSD -1
REMARK  1 active torsions:
REMARK  status: ('A' for Active; 'I' for Inactive)
REMARK    1  A    between atoms: N_2  and  C1_3 
ROOT
ATOM      1  C1  UNL d   1      -0.947  -3.808   0.687  0.00  0.00     0.143 A 
ATOM      2  C2  UNL d   1      -1.955  -3.464   1.594  0.00  0.00    -0.057 A 
ATOM      3  C3  UNL d   1      -2.722  -2.306   1.423  0.00  0.00     0.033 A 
ATOM      4  C4  UNL d   1      -2.475  -1.452   0.353  0.00  0.00    -0.042 A 
ATOM      5  C5  UNL d   1      -1.461  -1.760  -0.547  0.00  0.00     0.033 A 
ATOM      6  C6  UNL d   1      -0.703  -2.922  -0.375  0.00  0.00    -0.057 A 
ENDROOT
BRANCH   1   7
ATOM      7  N   UNL d   1      -0.084  -4.893   0.856  0.00  0.00    -0.732 N 
ATOM      8  C   UNL d   1      -0.450  -5.997   1.718  0.00  0.00     0.284 C 
ATOM      9  H3  UNL d   1       0.361  -5.175  -0.014  0.00  0.00     0.395 HD
ENDBRANCH   1   7
TORSDOF 1
ENDMDL
