MODEL 1
REMARK minimizedAffinity 4.48764372
REMARK minimizedRMSD -1
REMARK  1 active torsions:
REMARK  status: ('A' for Active; 'I' for Inactive)
REMARK    1  A    between atoms: N_2  and  C1_3 
ROOT
ATOM      1  C1  UNL d   1      -0.888  -3.203   0.391  0.00  0.00     0.143 A 
ATOM      2  C2  UNL d   1      -0.957  -2.568  -0.854  0.00  0.00    -0.057 A 
ATOM      3  C3  UNL d   1      -1.868  -1.532  -1.090  0.00  0.00     0.033 A 
ATOM      4  C4  UNL d   1      -2.750  -1.131  -0.092  0.00  0.00    -0.042 A 
ATOM      5  C5  UNL d   1      -2.717  -1.766   1.145  0.00  0.00     0.033 A 
ATOM      6  C6  UNL d   1      -1.800  -2.795   1.377  0.00  0.00    -0.057 A 
ENDROOT
BRANCH   1   7
ATOM      7  N   UNL d   1      -0.072  -4.305   0.657  0.00  0.00    -0.732 N 
ATOM      8  C   UNL d   1      -0.640  -5.630   0.785  0.00  0.00     0.284 C 
ATOM      9  H3  UNL d   1       0.802  -4.276   0.137  0.00  0.00     0.395 HD
ENDBRANCH   1   7
TORSDOF 1
ENDMDL
