MODEL 1
REMARK minimizedAffinity 9.23784065
REMARK minimizedRMSD -1
REMARK  1 active torsions:
REMARK  status: ('A' for Active; 'I' for Inactive)
REMARK    1  A    between atoms: N_2  and  C1_3 
ROOT
ATOM      1  C1  UNL d   1      -2.843  -0.180   5.988  0.00  0.00     0.143 A 
ATOM      2  C2  UNL d   1      -2.664   1.207   5.951  0.00  0.00    -0.057 A 
ATOM      3  C3  UNL d   1      -3.757   2.082   5.966  0.00  0.00     0.033 A 
ATOM      4  C4  UNL d   1      -5.055   1.582   5.988  0.00  0.00    -0.042 A 
ATOM      5  C5  UNL d   1      -5.258   0.206   6.000  0.00  0.00     0.033 A 
ATOM      6  C6  UNL d   1      -4.162  -0.662   5.992  0.00  0.00    -0.057 A 
ENDROOT
BRANCH   1   7
ATOM      7  N   UNL d   1      -1.800  -1.102   5.877  0.00  0.00    -0.732 N 
ATOM      8  C   UNL d   1      -2.020  -2.393   5.260  0.00  0.00     0.284 C 
ATOM      9  H3  UNL d   1      -0.919  -0.663   5.619  0.00  0.00     0.395 HD
ENDBRANCH   1   7
TORSDOF 1
ENDMDL
