MODEL 1
REMARK minimizedAffinity 9.07631969
REMARK minimizedRMSD -1
REMARK  1 active torsions:
REMARK  status: ('A' for Active; 'I' for Inactive)
REMARK    1  A    between atoms: N_2  and  C1_3 
ROOT
ATOM      1  C1  UNL d   1       4.145   3.368   0.033  0.00  0.00     0.143 A 
ATOM      2  C2  UNL d   1       4.167   2.575   1.185  0.00  0.00    -0.057 A 
ATOM      3  C3  UNL d   1       3.413   1.398   1.272  0.00  0.00     0.033 A 
ATOM      4  C4  UNL d   1       2.597   1.009   0.214  0.00  0.00    -0.042 A 
ATOM      5  C5  UNL d   1       2.540   1.795  -0.931  0.00  0.00     0.033 A 
ATOM      6  C6  UNL d   1       3.301   2.965  -1.014  0.00  0.00    -0.057 A 
ENDROOT
BRANCH   1   7
ATOM      7  N   UNL d   1       4.796   4.599  -0.077  0.00  0.00    -0.732 N 
ATOM      8  C   UNL d   1       4.880   5.492   1.059  0.00  0.00     0.284 C 
ATOM      9  H3  UNL d   1       5.652   4.538  -0.622  0.00  0.00     0.395 HD
ENDBRANCH   1   7
TORSDOF 1
ENDMDL
