MODEL 1
REMARK minimizedAffinity 7.66801548
REMARK minimizedRMSD -1
REMARK  1 active torsions:
REMARK  status: ('A' for Active; 'I' for Inactive)
REMARK    1  A    between atoms: N_2  and  C1_3 
ROOT
ATOM      1  C1  UNL d   1      -4.006   3.504   5.999  0.00  0.00     0.143 A 
ATOM      2  C2  UNL d   1      -5.365   3.174   5.981  0.00  0.00    -0.057 A 
ATOM      3  C3  UNL d   1      -5.788   1.839   5.971  0.00  0.00     0.033 A 
ATOM      4  C4  UNL d   1      -4.855   0.808   5.951  0.00  0.00    -0.042 A 
ATOM      5  C5  UNL d   1      -3.499   1.113   5.943  0.00  0.00     0.033 A 
ATOM      6  C6  UNL d   1      -3.083   2.448   5.960  0.00  0.00    -0.057 A 
ENDROOT
BRANCH   1   7
ATOM      7  N   UNL d   1      -3.522   4.812   5.910  0.00  0.00    -0.732 N 
ATOM      8  C   UNL d   1      -4.429   5.938   5.952  0.00  0.00     0.284 C 
ATOM      9  H3  UNL d   1      -2.667   4.947   6.445  0.00  0.00     0.395 HD
ENDBRANCH   1   7
TORSDOF 1
ENDMDL
