MODEL 1
REMARK minimizedAffinity 8.34557533
REMARK minimizedRMSD -1
REMARK  1 active torsions:
REMARK  status: ('A' for Active; 'I' for Inactive)
REMARK    1  A    between atoms: N_2  and  C1_3 
ROOT
ATOM      1  C1  UNL d   1      -2.595  -0.004   5.938  0.00  0.00     0.143 A 
ATOM      2  C2  UNL d   1      -3.464  -1.071   5.687  0.00  0.00    -0.057 A 
ATOM      3  C3  UNL d   1      -2.986  -2.380   5.551  0.00  0.00     0.033 A 
ATOM      4  C4  UNL d   1      -1.623  -2.642   5.634  0.00  0.00    -0.042 A 
ATOM      5  C5  UNL d   1      -0.738  -1.593   5.858  0.00  0.00     0.033 A 
ATOM      6  C6  UNL d   1      -1.221  -0.289   6.000  0.00  0.00    -0.057 A 
ENDROOT
BRANCH   1   7
ATOM      7  N   UNL d   1      -2.998   1.333   5.985  0.00  0.00    -0.732 N 
ATOM      8  C   UNL d   1      -4.403   1.679   6.000  0.00  0.00     0.284 C 
ATOM      9  H3  UNL d   1      -2.426   1.889   6.617  0.00  0.00     0.395 HD
ENDBRANCH   1   7
TORSDOF 1
ENDMDL
