MODEL 1
REMARK minimizedAffinity 7.20909166
REMARK minimizedRMSD -1
REMARK  1 active torsions:
REMARK  status: ('A' for Active; 'I' for Inactive)
REMARK    1  A    between atoms: N_2  and  C1_3 
ROOT
ATOM      1  C1  UNL d   1      -2.898  -0.457   5.713  0.00  0.00     0.143 A 
ATOM      2  C2  UNL d   1      -2.731   0.917   5.507  0.00  0.00    -0.057 A 
ATOM      3  C3  UNL d   1      -3.818   1.798   5.572  0.00  0.00     0.033 A 
ATOM      4  C4  UNL d   1      -5.099   1.315   5.817  0.00  0.00    -0.042 A 
ATOM      5  C5  UNL d   1      -5.292  -0.050   6.000  0.00  0.00     0.033 A 
ATOM      6  C6  UNL d   1      -4.202  -0.924   5.940  0.00  0.00    -0.057 A 
ENDROOT
BRANCH   1   7
ATOM      7  N   UNL d   1      -1.874  -1.396   5.563  0.00  0.00    -0.732 N 
ATOM      8  C   UNL d   1      -2.032  -2.522   4.668  0.00  0.00     0.284 C 
ATOM      9  H3  UNL d   1      -0.953  -0.964   5.531  0.00  0.00     0.395 HD
ENDBRANCH   1   7
TORSDOF 1
ENDMDL
