MODEL 1
REMARK minimizedAffinity 2.80234838
REMARK minimizedRMSD -1
REMARK  1 active torsions:
REMARK  status: ('A' for Active; 'I' for Inactive)
REMARK    1  A    between atoms: N_2  and  C1_3 
ROOT
ATOM      1  C1  UNL d   1      -3.711   3.739  -5.160  0.00  0.00     0.143 A 
ATOM      2  C2  UNL d   1      -4.915   3.509  -5.833  0.00  0.00    -0.057 A 
ATOM      3  C3  UNL d   1      -5.886   4.512  -5.947  0.00  0.00     0.033 A 
ATOM      4  C4  UNL d   1      -5.681   5.757  -5.361  0.00  0.00    -0.042 A 
ATOM      5  C5  UNL d   1      -4.501   5.999  -4.665  0.00  0.00     0.033 A 
ATOM      6  C6  UNL d   1      -3.533   4.996  -4.562  0.00  0.00    -0.057 A 
ENDROOT
BRANCH   1   7
ATOM      7  N   UNL d   1      -2.749   2.752  -4.929  0.00  0.00    -0.732 N 
ATOM      8  C   UNL d   1      -1.354   3.104  -4.773  0.00  0.00     0.284 C 
ATOM      9  H3  UNL d   1      -3.073   2.039  -4.279  0.00  0.00     0.395 HD
ENDBRANCH   1   7
TORSDOF 1
ENDMDL
