MODEL 1
REMARK minimizedAffinity 3.35599685
REMARK minimizedRMSD -1
REMARK  1 active torsions:
REMARK  status: ('A' for Active; 'I' for Inactive)
REMARK    1  A    between atoms: N_2  and  C1_3 
ROOT
ATOM      1  C1  UNL d   1      -4.487   5.678  -1.124  0.00  0.00     0.143 A 
ATOM      2  C2  UNL d   1      -3.478   5.321  -0.223  0.00  0.00    -0.057 A 
ATOM      3  C3  UNL d   1      -3.728   5.242   1.152  0.00  0.00     0.033 A 
ATOM      4  C4  UNL d   1      -4.988   5.548   1.655  0.00  0.00    -0.042 A 
ATOM      5  C5  UNL d   1      -5.999   5.930   0.781  0.00  0.00     0.033 A 
ATOM      6  C6  UNL d   1      -5.745   6.000  -0.592  0.00  0.00    -0.057 A 
ENDROOT
BRANCH   1   7
ATOM      7  N   UNL d   1      -4.276   5.869  -2.492  0.00  0.00    -0.732 N 
ATOM      8  C   UNL d   1      -5.396   5.991  -3.400  0.00  0.00     0.284 C 
ATOM      9  H3  UNL d   1      -3.515   6.518  -2.681  0.00  0.00     0.395 HD
ENDBRANCH   1   7
TORSDOF 1
ENDMDL
