MODEL 1
REMARK minimizedAffinity 17.6245098
REMARK minimizedRMSD -1
REMARK  1 active torsions:
REMARK  status: ('A' for Active; 'I' for Inactive)
REMARK    1  A    between atoms: N_2  and  C1_3 
ROOT
ATOM      1  C1  UNL d   1      -2.649  -1.288  -0.040  0.00  0.00     0.143 A 
ATOM      2  C2  UNL d   1      -1.429  -1.927   0.209  0.00  0.00    -0.057 A 
ATOM      3  C3  UNL d   1      -0.496  -2.135  -0.814  0.00  0.00     0.033 A 
ATOM      4  C4  UNL d   1      -0.780  -1.733  -2.114  0.00  0.00    -0.042 A 
ATOM      5  C5  UNL d   1      -1.996  -1.118  -2.391  0.00  0.00     0.033 A 
ATOM      6  C6  UNL d   1      -2.921  -0.907  -1.364  0.00  0.00    -0.057 A 
ENDROOT
BRANCH   1   7
ATOM      7  N   UNL d   1      -3.659  -1.140   0.914  0.00  0.00    -0.732 N 
ATOM      8  C   UNL d   1      -5.052  -1.227   0.532  0.00  0.00     0.284 C 
ATOM      9  H3  UNL d   1      -3.438  -1.609   1.789  0.00  0.00     0.395 HD
ENDBRANCH   1   7
TORSDOF 1
ENDMDL
