MODEL 1
REMARK minimizedAffinity -5.10418797
REMARK minimizedRMSD -1
REMARK  0 active torsions:
REMARK  status: ('A' for Active; 'I' for Inactive)
ROOT
ATOM      1  C   UNL d   1      -2.216   2.160   1.257  0.00  0.00     0.078 C 
ATOM      2  C1  UNL d   1      -1.242   1.401   0.407  0.00  0.00    -0.077 A 
ATOM      3  C2  UNL d   1      -0.562   2.027  -0.644  0.00  0.00    -0.001 A 
ATOM      4  C3  UNL d   1       0.335   1.305  -1.434  0.00  0.00     0.003 A 
ATOM      5  C4  UNL d   1       0.558  -0.047  -1.180  0.00  0.00    -0.005 A 
ATOM      6  C5  UNL d   1      -0.116  -0.679  -0.138  0.00  0.00     0.003 A 
ATOM      7  C6  UNL d   1      -1.013   0.041   0.653  0.00  0.00    -0.001 A 
ENDROOT
TORSDOF 0
ENDMDL
