MODEL 1
REMARK minimizedAffinity -4.96191072
REMARK minimizedRMSD -1
REMARK  0 active torsions:
REMARK  status: ('A' for Active; 'I' for Inactive)
ROOT
ATOM      1  C   UNL d   1       0.345  -1.449  -0.389  0.00  0.00     0.078 C 
ATOM      2  C1  UNL d   1      -0.327  -0.300   0.300  0.00  0.00    -0.077 A 
ATOM      3  C2  UNL d   1      -0.203  -0.116   1.683  0.00  0.00    -0.001 A 
ATOM      4  C3  UNL d   1      -0.842   0.953   2.313  0.00  0.00     0.003 A 
ATOM      5  C4  UNL d   1      -1.610   1.846   1.568  0.00  0.00    -0.005 A 
ATOM      6  C5  UNL d   1      -1.741   1.670   0.192  0.00  0.00     0.003 A 
ATOM      7  C6  UNL d   1      -1.103   0.602  -0.439  0.00  0.00    -0.001 A 
ENDROOT
TORSDOF 0
ENDMDL
