MODEL 1
REMARK minimizedAffinity -3.63662696
REMARK minimizedRMSD -1
REMARK  0 active torsions:
REMARK  status: ('A' for Active; 'I' for Inactive)
ROOT
ATOM      1  C   UNL d   1       1.829  -1.424  -0.653  0.00  0.00     0.078 C 
ATOM      2  C1  UNL d   1       0.895  -0.279  -0.397  0.00  0.00    -0.077 A 
ATOM      3  C2  UNL d   1       0.872   0.836  -1.244  0.00  0.00    -0.001 A 
ATOM      4  C3  UNL d   1       0.004   1.899  -0.988  0.00  0.00     0.003 A 
ATOM      5  C4  UNL d   1      -0.847   1.858   0.115  0.00  0.00    -0.005 A 
ATOM      6  C5  UNL d   1      -0.829   0.753   0.965  0.00  0.00     0.003 A 
ATOM      7  C6  UNL d   1       0.038  -0.310   0.711  0.00  0.00    -0.001 A 
ENDROOT
TORSDOF 0
ENDMDL
