MODEL 1
REMARK minimizedAffinity -4.90611219
REMARK minimizedRMSD -1
REMARK  0 active torsions:
REMARK  status: ('A' for Active; 'I' for Inactive)
ROOT
ATOM      1  C   UNL d   1      -2.204   1.865   1.846  0.00  0.00     0.078 C 
ATOM      2  C1  UNL d   1      -1.186   1.064   1.091  0.00  0.00    -0.077 A 
ATOM      3  C2  UNL d   1      -0.619  -0.090   1.647  0.00  0.00    -0.001 A 
ATOM      4  C3  UNL d   1       0.335  -0.821   0.936  0.00  0.00     0.003 A 
ATOM      5  C4  UNL d   1       0.731  -0.406  -0.334  0.00  0.00    -0.005 A 
ATOM      6  C5  UNL d   1       0.174   0.742  -0.894  0.00  0.00     0.003 A 
ATOM      7  C6  UNL d   1      -0.780   1.474  -0.185  0.00  0.00    -0.001 A 
ENDROOT
TORSDOF 0
ENDMDL
