MODEL 1
REMARK minimizedAffinity -4.97009897
REMARK minimizedRMSD -1
REMARK  0 active torsions:
REMARK  status: ('A' for Active; 'I' for Inactive)
ROOT
ATOM      1  C   UNL d   1       0.919  -0.629  -0.894  0.00  0.00     0.078 C 
ATOM      2  C1  UNL d   1       0.036   0.159   0.026  0.00  0.00    -0.077 A 
ATOM      3  C2  UNL d   1      -0.110  -0.203   1.371  0.00  0.00    -0.001 A 
ATOM      4  C3  UNL d   1      -0.943   0.534   2.214  0.00  0.00     0.003 A 
ATOM      5  C4  UNL d   1      -1.639   1.636   1.722  0.00  0.00    -0.005 A 
ATOM      6  C5  UNL d   1      -1.502   2.002   0.384  0.00  0.00     0.003 A 
ATOM      7  C6  UNL d   1      -0.669   1.267  -0.460  0.00  0.00    -0.001 A 
ENDROOT
TORSDOF 0
ENDMDL
