MODEL 1
REMARK minimizedAffinity -5.17485142
REMARK minimizedRMSD -1
REMARK  0 active torsions:
REMARK  status: ('A' for Active; 'I' for Inactive)
ROOT
ATOM      1  C   UNL d   1      -2.285   2.259   1.139  0.00  0.00     0.078 C 
ATOM      2  C1  UNL d   1      -1.207   1.273   0.805  0.00  0.00    -0.077 A 
ATOM      3  C2  UNL d   1      -0.445   1.406  -0.363  0.00  0.00    -0.001 A 
ATOM      4  C3  UNL d   1       0.550   0.474  -0.666  0.00  0.00     0.003 A 
ATOM      5  C4  UNL d   1       0.791  -0.597   0.192  0.00  0.00    -0.005 A 
ATOM      6  C5  UNL d   1       0.036  -0.739   1.354  0.00  0.00     0.003 A 
ATOM      7  C6  UNL d   1      -0.959   0.192   1.660  0.00  0.00    -0.001 A 
ENDROOT
TORSDOF 0
ENDMDL
