MODEL 1
REMARK minimizedAffinity -4.58906698
REMARK minimizedRMSD -1
REMARK  0 active torsions:
REMARK  status: ('A' for Active; 'I' for Inactive)
ROOT
ATOM      1  C   UNL d   1       0.597  -1.351  -0.645  0.00  0.00     0.078 C 
ATOM      2  C1  UNL d   1      -0.173  -0.360   0.176  0.00  0.00    -0.077 A 
ATOM      3  C2  UNL d   1      -0.591  -0.671   1.476  0.00  0.00    -0.001 A 
ATOM      4  C3  UNL d   1      -1.315   0.258   2.226  0.00  0.00     0.003 A 
ATOM      5  C4  UNL d   1      -1.628   1.503   1.684  0.00  0.00    -0.005 A 
ATOM      6  C5  UNL d   1      -1.218   1.820   0.391  0.00  0.00     0.003 A 
ATOM      7  C6  UNL d   1      -0.494   0.893  -0.360  0.00  0.00    -0.001 A 
ENDROOT
TORSDOF 0
ENDMDL
