MODEL 1
REMARK minimizedAffinity -5.41122961
REMARK minimizedRMSD -1
REMARK  0 active torsions:
REMARK  status: ('A' for Active; 'I' for Inactive)
ROOT
ATOM      1  C   UNL d   1       0.773  -0.857  -0.502  0.00  0.00     0.078 C 
ATOM      2  C1  UNL d   1      -0.162   0.063   0.225  0.00  0.00    -0.077 A 
ATOM      3  C2  UNL d   1      -0.199   0.095   1.624  0.00  0.00    -0.001 A 
ATOM      4  C3  UNL d   1      -1.081   0.949   2.288  0.00  0.00     0.003 A 
ATOM      5  C4  UNL d   1      -1.933   1.777   1.561  0.00  0.00    -0.005 A 
ATOM      6  C5  UNL d   1      -1.905   1.751   0.168  0.00  0.00     0.003 A 
ATOM      7  C6  UNL d   1      -1.023   0.898  -0.498  0.00  0.00    -0.001 A 
ENDROOT
TORSDOF 0
ENDMDL
