MODEL 1
REMARK minimizedAffinity -3.37309813
REMARK minimizedRMSD -1
REMARK  0 active torsions:
REMARK  status: ('A' for Active; 'I' for Inactive)
ROOT
ATOM      1  C   UNL d   1       1.040  -1.206  -0.417  0.00  0.00     0.078 C 
ATOM      2  C1  UNL d   1       0.394   0.140  -0.552  0.00  0.00    -0.077 A 
ATOM      3  C2  UNL d   1       0.797   1.036  -1.550  0.00  0.00    -0.001 A 
ATOM      4  C3  UNL d   1       0.193   2.290  -1.657  0.00  0.00     0.003 A 
ATOM      5  C4  UNL d   1      -0.815   2.660  -0.770  0.00  0.00    -0.005 A 
ATOM      6  C5  UNL d   1      -1.221   1.776   0.228  0.00  0.00     0.003 A 
ATOM      7  C6  UNL d   1      -0.618   0.522   0.337  0.00  0.00    -0.001 A 
ENDROOT
TORSDOF 0
ENDMDL
