MODEL 1
REMARK minimizedAffinity 0.890434146
REMARK minimizedRMSD -1
REMARK  1 active torsions:
REMARK  status: ('A' for Active; 'I' for Inactive)
REMARK    1  A    between atoms: C1_2  and  C2_3 
ROOT
ATOM      1  C2  UNL d   1      -0.270  -1.185  -3.498  0.00  0.00    -0.077 A 
ATOM      2  C3  UNL d   1      -0.812   0.106  -3.428  0.00  0.00     0.002 A 
ATOM      3  C4  UNL d   1      -0.981   0.864  -4.588  0.00  0.00     0.002 A 
ATOM      4  C5  UNL d   1      -0.616   0.339  -5.826  0.00  0.00    -0.004 A 
ATOM      5  C6  UNL d   1      -0.074  -0.943  -5.905  0.00  0.00     0.002 A 
ATOM      6  C7  UNL d   1       0.098  -1.702  -4.747  0.00  0.00     0.002 A 
ENDROOT
BRANCH   1   7
ATOM      7  C1  UNL d   1      -0.132  -2.023  -2.254  0.00  0.00     0.055 C 
ATOM      8  C   UNL d   1      -1.044  -1.521  -1.144  0.00  0.00     0.019 C 
ENDBRANCH   1   7
TORSDOF 1
ENDMDL
