MODEL 1
REMARK minimizedAffinity 4.70940685
REMARK minimizedRMSD -1
REMARK  1 active torsions:
REMARK  status: ('A' for Active; 'I' for Inactive)
REMARK    1  A    between atoms: C1_2  and  C2_3 
ROOT
ATOM      1  C2  UNL d   1      -1.987  -1.353   0.721  0.00  0.00    -0.077 A 
ATOM      2  C3  UNL d   1      -3.266  -1.924   0.682  0.00  0.00     0.002 A 
ATOM      3  C4  UNL d   1      -3.449  -3.215   0.181  0.00  0.00     0.002 A 
ATOM      4  C5  UNL d   1      -2.356  -3.945  -0.281  0.00  0.00    -0.004 A 
ATOM      5  C6  UNL d   1      -1.080  -3.385  -0.249  0.00  0.00     0.002 A 
ATOM      6  C7  UNL d   1      -0.896  -2.095   0.251  0.00  0.00     0.002 A 
ENDROOT
BRANCH   1   7
ATOM      7  C1  UNL d   1      -1.781   0.020   1.307  0.00  0.00     0.055 C 
ATOM      8  C   UNL d   1      -1.045  -0.051   2.637  0.00  0.00     0.019 C 
ENDBRANCH   1   7
TORSDOF 1
ENDMDL
