MODEL 1
REMARK minimizedAffinity -3.0140574
REMARK minimizedRMSD -1
REMARK  1 active torsions:
REMARK  status: ('A' for Active; 'I' for Inactive)
REMARK    1  A    between atoms: C1_2  and  C2_3 
ROOT
ATOM      1  C2  UNL d   1      -0.775  -1.649  -3.753  0.00  0.00    -0.077 A 
ATOM      2  C3  UNL d   1      -0.201  -1.755  -5.027  0.00  0.00     0.002 A 
ATOM      3  C4  UNL d   1      -0.157  -0.647  -5.876  0.00  0.00     0.002 A 
ATOM      4  C5  UNL d   1      -0.681   0.574  -5.458  0.00  0.00    -0.004 A 
ATOM      5  C6  UNL d   1      -1.256   0.689  -4.194  0.00  0.00     0.002 A 
ATOM      6  C7  UNL d   1      -1.302  -0.417  -3.344  0.00  0.00     0.002 A 
ENDROOT
BRANCH   1   7
ATOM      7  C1  UNL d   1      -0.780  -2.829  -2.817  0.00  0.00     0.055 C 
ATOM      8  C   UNL d   1      -1.396  -2.468  -1.473  0.00  0.00     0.019 C 
ENDBRANCH   1   7
TORSDOF 1
ENDMDL
