MODEL 1
REMARK minimizedAffinity 3.65947247
REMARK minimizedRMSD -1
REMARK  1 active torsions:
REMARK  status: ('A' for Active; 'I' for Inactive)
REMARK    1  A    between atoms: C1_2  and  C2_3 
ROOT
ATOM      1  C2  UNL d   1      -1.260  -0.362  -4.445  0.00  0.00    -0.077 A 
ATOM      2  C3  UNL d   1      -0.392  -1.242  -5.107  0.00  0.00     0.002 A 
ATOM      3  C4  UNL d   1       0.286  -2.233  -4.395  0.00  0.00     0.002 A 
ATOM      4  C5  UNL d   1       0.100  -2.357  -3.020  0.00  0.00    -0.004 A 
ATOM      5  C6  UNL d   1      -0.759  -1.485  -2.352  0.00  0.00     0.002 A 
ATOM      6  C7  UNL d   1      -1.437  -0.493  -3.061  0.00  0.00     0.002 A 
ENDROOT
BRANCH   1   7
ATOM      7  C1  UNL d   1      -2.030   0.676  -5.218  0.00  0.00     0.055 C 
ATOM      8  C   UNL d   1      -3.446   0.206  -5.518  0.00  0.00     0.019 C 
ENDBRANCH   1   7
TORSDOF 1
ENDMDL
