MODEL 1
REMARK minimizedAffinity 4.83257389
REMARK minimizedRMSD -1
REMARK  0 active torsions:
REMARK  status: ('A' for Active; 'I' for Inactive)
ROOT
ATOM      1  O1  BZF d   1      -0.937   0.099  -4.011  0.00  0.00    -0.204 OA
ATOM      2  C2  BZF d   1      -0.815  -0.743  -2.923  0.00  0.00     0.174 A 
ATOM      3  C3  BZF d   1      -2.021  -0.992  -2.373  0.00  0.00    -0.012 A 
ATOM      4  C3A BZF d   1      -2.965  -0.334  -3.223  0.00  0.00    -0.107 A 
ATOM      5  C4  BZF d   1      -4.327  -0.228  -3.210  0.00  0.00     0.055 A 
ATOM      6  C5  BZF d   1      -4.938   0.549  -4.142  0.00  0.00    -0.016 A 
ATOM      7  C6  BZF d   1      -4.219   1.237  -5.098  0.00  0.00     0.022 A 
ATOM      8  C7  BZF d   1      -2.868   1.159  -5.155  0.00  0.00     0.029 A 
ATOM      9  C7A BZF d   1      -2.249   0.349  -4.234  0.00  0.00     0.058 A 
ENDROOT
TORSDOF 0
ENDMDL
