MODEL 1
REMARK minimizedAffinity 7.43398571
REMARK minimizedRMSD -1
REMARK  0 active torsions:
REMARK  status: ('A' for Active; 'I' for Inactive)
ROOT
ATOM      1  O1  BZF d   1       0.539  -0.390  -1.308  0.00  0.00    -0.204 OA
ATOM      2  C2  BZF d   1       1.701   0.137  -0.779  0.00  0.00     0.174 A 
ATOM      3  C3  BZF d   1       2.298  -0.751   0.042  0.00  0.00    -0.012 A 
ATOM      4  C3A BZF d   1       1.505  -1.939  -0.047  0.00  0.00    -0.107 A 
ATOM      5  C4  BZF d   1       1.598  -3.175   0.525  0.00  0.00     0.055 A 
ATOM      6  C5  BZF d   1       0.621  -4.088   0.287  0.00  0.00    -0.016 A 
ATOM      7  C6  BZF d   1      -0.465  -3.798  -0.513  0.00  0.00     0.022 A 
ATOM      8  C7  BZF d   1      -0.598  -2.587  -1.107  0.00  0.00     0.029 A 
ATOM      9  C7A BZF d   1       0.405  -1.673  -0.895  0.00  0.00     0.058 A 
ENDROOT
TORSDOF 0
ENDMDL
