MODEL 1
REMARK minimizedAffinity 2.58222723
REMARK minimizedRMSD -1
REMARK  0 active torsions:
REMARK  status: ('A' for Active; 'I' for Inactive)
ROOT
ATOM      1  O1  BZF d   1      -0.341  -3.822   3.226  0.00  0.00    -0.204 OA
ATOM      2  C2  BZF d   1       0.116  -3.361   4.446  0.00  0.00     0.174 A 
ATOM      3  C3  BZF d   1       1.353  -2.837   4.327  0.00  0.00    -0.012 A 
ATOM      4  C3A BZF d   1       1.653  -2.896   2.929  0.00  0.00    -0.107 A 
ATOM      5  C4  BZF d   1       2.731  -2.511   2.183  0.00  0.00     0.055 A 
ATOM      6  C5  BZF d   1       2.740  -2.775   0.850  0.00  0.00    -0.016 A 
ATOM      7  C6  BZF d   1       1.693  -3.426   0.232  0.00  0.00     0.022 A 
ATOM      8  C7  BZF d   1       0.601  -3.823   0.929  0.00  0.00     0.029 A 
ATOM      9  C7A BZF d   1       0.574  -3.528   2.270  0.00  0.00     0.058 A 
ENDROOT
TORSDOF 0
ENDMDL
