MODEL 1
REMARK minimizedAffinity 12.6000662
REMARK minimizedRMSD -1
REMARK  0 active torsions:
REMARK  status: ('A' for Active; 'I' for Inactive)
ROOT
ATOM      1  O1  BZF d   1       0.151   0.604  -0.682  0.00  0.00    -0.204 OA
ATOM      2  C2  BZF d   1       0.276   1.809  -0.018  0.00  0.00     0.174 A 
ATOM      3  C3  BZF d   1       1.329   1.785   0.823  0.00  0.00    -0.012 A 
ATOM      4  C3A BZF d   1       1.954   0.516   0.608  0.00  0.00    -0.107 A 
ATOM      5  C4  BZF d   1       3.057  -0.090   1.138  0.00  0.00     0.055 A 
ATOM      6  C5  BZF d   1       3.354  -1.363   0.767  0.00  0.00    -0.016 A 
ATOM      7  C6  BZF d   1       2.568  -2.061  -0.126  0.00  0.00     0.022 A 
ATOM      8  C7  BZF d   1       1.466  -1.501  -0.682  0.00  0.00     0.029 A 
ATOM      9  C7A BZF d   1       1.182  -0.203  -0.335  0.00  0.00     0.058 A 
ENDROOT
TORSDOF 0
ENDMDL
