MODEL 1
REMARK minimizedAffinity 12.7332935
REMARK minimizedRMSD -1
REMARK  0 active torsions:
REMARK  status: ('A' for Active; 'I' for Inactive)
ROOT
ATOM      1  O1  BZF d   1      -2.299   0.980  -4.310  0.00  0.00    -0.204 OA
ATOM      2  C2  BZF d   1      -2.166  -0.386  -4.159  0.00  0.00     0.174 A 
ATOM      3  C3  BZF d   1      -3.295  -1.021  -4.535  0.00  0.00    -0.012 A 
ATOM      4  C3A BZF d   1      -4.156   0.006  -5.034  0.00  0.00    -0.107 A 
ATOM      5  C4  BZF d   1      -5.413   0.001  -5.567  0.00  0.00     0.055 A 
ATOM      6  C5  BZF d   1      -6.000   1.184  -5.888  0.00  0.00    -0.016 A 
ATOM      7  C6  BZF d   1      -5.361   2.390  -5.684  0.00  0.00     0.022 A 
ATOM      8  C7  BZF d   1      -4.112   2.446  -5.162  0.00  0.00     0.029 A 
ATOM      9  C7A BZF d   1      -3.503   1.250  -4.868  0.00  0.00     0.058 A 
ENDROOT
TORSDOF 0
ENDMDL
