MODEL 1
REMARK minimizedAffinity 8.98994541
REMARK minimizedRMSD -1
REMARK  0 active torsions:
REMARK  status: ('A' for Active; 'I' for Inactive)
ROOT
ATOM      1  O1  BZF d   1       4.336  -0.006   0.760  0.00  0.00    -0.204 OA
ATOM      2  C2  BZF d   1       3.769  -1.263   0.840  0.00  0.00     0.174 A 
ATOM      3  C3  BZF d   1       2.428  -1.177   0.956  0.00  0.00    -0.012 A 
ATOM      4  C3A BZF d   1       2.130   0.219   0.856  0.00  0.00    -0.107 A 
ATOM      5  C4  BZF d   1       0.968   0.936   0.883  0.00  0.00     0.055 A 
ATOM      6  C5  BZF d   1       1.028   2.292   0.833  0.00  0.00    -0.016 A 
ATOM      7  C6  BZF d   1       2.231   2.964   0.762  0.00  0.00     0.022 A 
ATOM      8  C7  BZF d   1       3.409   2.296   0.728  0.00  0.00     0.029 A 
ATOM      9  C7A BZF d   1       3.351   0.924   0.744  0.00  0.00     0.058 A 
ENDROOT
TORSDOF 0
ENDMDL
