MODEL 1
REMARK minimizedAffinity 6.15116024
REMARK minimizedRMSD -1
REMARK  0 active torsions:
REMARK  status: ('A' for Active; 'I' for Inactive)
ROOT
ATOM      1  O1  BZF d   1       1.169   0.812  -0.633  0.00  0.00    -0.204 OA
ATOM      2  C2  BZF d   1       1.355   1.878   0.226  0.00  0.00     0.174 A 
ATOM      3  C3  BZF d   1       2.171   1.536   1.244  0.00  0.00    -0.012 A 
ATOM      4  C3A BZF d   1       2.591   0.198   0.956  0.00  0.00    -0.107 A 
ATOM      5  C4  BZF d   1       3.420  -0.682   1.590  0.00  0.00     0.055 A 
ATOM      6  C5  BZF d   1       3.561  -1.937   1.087  0.00  0.00    -0.016 A 
ATOM      7  C6  BZF d   1       2.884  -2.345  -0.044  0.00  0.00     0.022 A 
ATOM      8  C7  BZF d   1       2.054  -1.506  -0.710  0.00  0.00     0.029 A 
ATOM      9  C7A BZF d   1       1.935  -0.227  -0.222  0.00  0.00     0.058 A 
ENDROOT
TORSDOF 0
ENDMDL
