MODEL 1
REMARK minimizedAffinity 7.57811403
REMARK minimizedRMSD -1
REMARK  0 active torsions:
REMARK  status: ('A' for Active; 'I' for Inactive)
ROOT
ATOM      1  O1  BZF d   1      -4.784   1.306  -5.830  0.00  0.00    -0.204 OA
ATOM      2  C2  BZF d   1      -3.691   1.951  -5.284  0.00  0.00     0.174 A 
ATOM      3  C3  BZF d   1      -3.239   1.292  -4.199  0.00  0.00    -0.012 A 
ATOM      4  C3A BZF d   1      -4.045   0.114  -4.111  0.00  0.00    -0.107 A 
ATOM      5  C4  BZF d   1      -4.068  -0.947  -3.250  0.00  0.00     0.055 A 
ATOM      6  C5  BZF d   1      -5.029  -1.896  -3.397  0.00  0.00    -0.016 A 
ATOM      7  C6  BZF d   1      -5.985  -1.814  -4.388  0.00  0.00     0.022 A 
ATOM      8  C7  BZF d   1      -6.000  -0.784  -5.268  0.00  0.00     0.029 A 
ATOM      9  C7A BZF d   1      -5.010   0.160  -5.143  0.00  0.00     0.058 A 
ENDROOT
TORSDOF 0
ENDMDL
