MODEL 1
REMARK minimizedAffinity 6.91793442
REMARK minimizedRMSD -1
REMARK  0 active torsions:
REMARK  status: ('A' for Active; 'I' for Inactive)
ROOT
ATOM      1  O1  BZF d   1       1.206   1.705  -0.782  0.00  0.00    -0.204 OA
ATOM      2  C2  BZF d   1       1.842   2.173   0.352  0.00  0.00     0.174 A 
ATOM      3  C3  BZF d   1       2.413   1.158   1.033  0.00  0.00    -0.012 A 
ATOM      4  C3A BZF d   1       2.194  -0.005   0.228  0.00  0.00    -0.107 A 
ATOM      5  C4  BZF d   1       2.540  -1.319   0.364  0.00  0.00     0.055 A 
ATOM      6  C5  BZF d   1       2.110  -2.214  -0.563  0.00  0.00    -0.016 A 
ATOM      7  C6  BZF d   1       1.330  -1.832  -1.635  0.00  0.00     0.022 A 
ATOM      8  C7  BZF d   1       0.966  -0.539  -1.815  0.00  0.00     0.029 A 
ATOM      9  C7A BZF d   1       1.426   0.374  -0.897  0.00  0.00     0.058 A 
ENDROOT
TORSDOF 0
ENDMDL
