MODEL 1
REMARK minimizedAffinity 1.56616533
REMARK minimizedRMSD -1
REMARK  0 active torsions:
REMARK  status: ('A' for Active; 'I' for Inactive)
ROOT
ATOM      1  O1  BZF d   1       0.053   1.246  -0.281  0.00  0.00    -0.204 OA
ATOM      2  C2  BZF d   1       0.861   2.270   0.176  0.00  0.00     0.174 A 
ATOM      3  C3  BZF d   1       2.112   1.824   0.409  0.00  0.00    -0.012 A 
ATOM      4  C3A BZF d   1       2.109   0.456  -0.011  0.00  0.00    -0.107 A 
ATOM      5  C4  BZF d   1       3.065  -0.518  -0.042  0.00  0.00     0.055 A 
ATOM      6  C5  BZF d   1       2.719  -1.770  -0.441  0.00  0.00    -0.016 A 
ATOM      7  C6  BZF d   1       1.427  -2.084  -0.810  0.00  0.00     0.022 A 
ATOM      8  C7  BZF d   1       0.445  -1.149  -0.799  0.00  0.00     0.029 A 
ATOM      9  C7A BZF d   1       0.799   0.125  -0.428  0.00  0.00     0.058 A 
ENDROOT
TORSDOF 0
ENDMDL
