MODEL 1
REMARK minimizedAffinity -3.92094445
REMARK minimizedRMSD -1
REMARK  1 active torsions:
REMARK  status: ('A' for Active; 'I' for Inactive)
REMARK    1  A    between atoms: C1_2  and  C2_3 
ROOT
ATOM      1  C2  UNL d   1      -0.828  -0.169   0.979  0.00  0.00    -0.076 A 
ATOM      2  C3  UNL d   1      -0.098   0.030  -0.206  0.00  0.00     0.004 A 
ATOM      3  C4  UNL d   1       1.294   0.095  -0.189  0.00  0.00    -0.003 A 
ATOM      4  C5  UNL d   1       1.979  -0.038   1.014  0.00  0.00     0.000 A 
ATOM      5  C6  UNL d   1       1.273  -0.253   2.197  0.00  0.00     0.000 A 
ATOM      6  C7  UNL d   1      -0.130  -0.338   2.195  0.00  0.00    -0.073 A 
ATOM      7  C8  UNL d   1      -0.842  -0.566   3.500  0.00  0.00     0.078 C 
ENDROOT
BRANCH   1   8
ATOM      8  C1  UNL d   1      -2.338  -0.204   0.903  0.00  0.00     0.053 C 
ATOM      9  C   UNL d   1      -2.878   0.558  -0.297  0.00  0.00     0.018 C 
ENDBRANCH   1   8
TORSDOF 1
ENDMDL
