MODEL 1
REMARK minimizedAffinity -6.19997311
REMARK minimizedRMSD -1
REMARK  1 active torsions:
REMARK  status: ('A' for Active; 'I' for Inactive)
REMARK    1  A    between atoms: C1_2  and  C2_3 
ROOT
ATOM      1  C2  UNL d   1       0.351   0.165   0.643  0.00  0.00    -0.076 A 
ATOM      2  C3  UNL d   1      -1.021  -0.131   0.713  0.00  0.00     0.004 A 
ATOM      3  C4  UNL d   1      -1.550  -0.831   1.796  0.00  0.00    -0.003 A 
ATOM      4  C5  UNL d   1      -0.715  -1.245   2.828  0.00  0.00     0.000 A 
ATOM      5  C6  UNL d   1       0.646  -0.944   2.784  0.00  0.00     0.000 A 
ATOM      6  C7  UNL d   1       1.192  -0.225   1.706  0.00  0.00    -0.073 A 
ATOM      7  C8  UNL d   1       2.668   0.067   1.707  0.00  0.00     0.078 C 
ENDROOT
BRANCH   1   8
ATOM      8  C1  UNL d   1       0.872   0.903  -0.570  0.00  0.00     0.053 C 
ATOM      9  C   UNL d   1       0.875   0.038  -1.821  0.00  0.00     0.018 C 
ENDBRANCH   1   8
TORSDOF 1
ENDMDL
