MODEL 1
REMARK minimizedAffinity 0.6057989
REMARK minimizedRMSD -1
REMARK  1 active torsions:
REMARK  status: ('A' for Active; 'I' for Inactive)
REMARK    1  A    between atoms: C1_2  and  C2_3 
ROOT
ATOM      1  C2  UNL d   1       0.218  -1.423  -4.561  0.00  0.00    -0.076 A 
ATOM      2  C3  UNL d   1       1.011  -0.320  -4.920  0.00  0.00     0.004 A 
ATOM      3  C4  UNL d   1       2.270  -0.126  -4.353  0.00  0.00    -0.003 A 
ATOM      4  C5  UNL d   1       2.755  -1.032  -3.417  0.00  0.00     0.000 A 
ATOM      5  C6  UNL d   1       1.989  -2.142  -3.061  0.00  0.00     0.000 A 
ATOM      6  C7  UNL d   1       0.725  -2.361  -3.636  0.00  0.00    -0.073 A 
ATOM      7  C8  UNL d   1      -0.061  -3.571  -3.211  0.00  0.00     0.078 C 
ENDROOT
BRANCH   1   8
ATOM      8  C1  UNL d   1      -1.150  -1.567  -5.189  0.00  0.00     0.053 C 
ATOM      9  C   UNL d   1      -1.833  -0.226  -5.410  0.00  0.00     0.018 C 
ENDBRANCH   1   8
TORSDOF 1
ENDMDL
