MODEL 1
REMARK minimizedAffinity 0.0142833563
REMARK minimizedRMSD -1
REMARK  1 active torsions:
REMARK  status: ('A' for Active; 'I' for Inactive)
REMARK    1  A    between atoms: C1_2  and  C2_3 
ROOT
ATOM      1  C2  UNL d   1      -0.188  -0.135   0.150  0.00  0.00    -0.076 A 
ATOM      2  C3  UNL d   1      -0.570   0.526  -1.031  0.00  0.00     0.004 A 
ATOM      3  C4  UNL d   1      -1.905   0.571  -1.427  0.00  0.00    -0.003 A 
ATOM      4  C5  UNL d   1      -2.881  -0.043  -0.649  0.00  0.00     0.000 A 
ATOM      5  C6  UNL d   1      -2.522  -0.688   0.534  0.00  0.00     0.000 A 
ATOM      6  C7  UNL d   1      -1.182  -0.729   0.956  0.00  0.00    -0.073 A 
ATOM      7  C8  UNL d   1      -0.850  -1.444   2.238  0.00  0.00     0.078 C 
ENDROOT
BRANCH   1   8
ATOM      8  C1  UNL d   1       1.279  -0.175   0.515  0.00  0.00     0.053 C 
ATOM      9  C   UNL d   1       1.744   1.101   1.199  0.00  0.00     0.018 C 
ENDBRANCH   1   8
TORSDOF 1
ENDMDL
