MODEL 1
REMARK minimizedAffinity -0.904152453
REMARK minimizedRMSD -1
REMARK  1 active torsions:
REMARK  status: ('A' for Active; 'I' for Inactive)
REMARK    1  A    between atoms: C1_2  and  C2_3 
ROOT
ATOM      1  C2  UNL d   1       2.585   2.812   0.141  0.00  0.00    -0.076 A 
ATOM      2  C3  UNL d   1       2.758   1.808   1.110  0.00  0.00     0.004 A 
ATOM      3  C4  UNL d   1       1.961   0.665   1.110  0.00  0.00    -0.003 A 
ATOM      4  C5  UNL d   1       0.977   0.506   0.140  0.00  0.00     0.000 A 
ATOM      5  C6  UNL d   1       0.803   1.483  -0.840  0.00  0.00     0.000 A 
ATOM      6  C7  UNL d   1       1.610   2.634  -0.864  0.00  0.00    -0.073 A 
ATOM      7  C8  UNL d   1       1.374   3.658  -1.940  0.00  0.00     0.078 C 
ENDROOT
BRANCH   1   8
ATOM      8  C1  UNL d   1       3.461   4.042   0.207  0.00  0.00     0.053 C 
ATOM      9  C   UNL d   1       4.929   3.702   0.408  0.00  0.00     0.018 C 
ENDBRANCH   1   8
TORSDOF 1
ENDMDL
