MODEL 1
REMARK minimizedAffinity 0.391673297
REMARK minimizedRMSD -1
REMARK  1 active torsions:
REMARK  status: ('A' for Active; 'I' for Inactive)
REMARK    1  A    between atoms: C1_2  and  C2_3 
ROOT
ATOM      1  C2  UNL d   1      -4.727   2.398   3.486  0.00  0.00    -0.076 A 
ATOM      2  C3  UNL d   1      -3.530   2.341   2.751  0.00  0.00     0.004 A 
ATOM      3  C4  UNL d   1      -2.363   1.836   3.321  0.00  0.00    -0.003 A 
ATOM      4  C5  UNL d   1      -2.373   1.380   4.634  0.00  0.00     0.000 A 
ATOM      5  C6  UNL d   1      -3.556   1.412   5.372  0.00  0.00     0.000 A 
ATOM      6  C7  UNL d   1      -4.746   1.903   4.807  0.00  0.00    -0.073 A 
ATOM      7  C8  UNL d   1      -5.991   1.921   5.650  0.00  0.00     0.078 C 
ENDROOT
BRANCH   1   8
ATOM      8  C1  UNL d   1      -5.956   2.981   2.824  0.00  0.00     0.053 C 
ATOM      9  C   UNL d   1      -5.997   4.499   2.906  0.00  0.00     0.018 C 
ENDBRANCH   1   8
TORSDOF 1
ENDMDL
