MODEL 1
REMARK minimizedAffinity 12.1011877
REMARK minimizedRMSD -1
REMARK  1 active torsions:
REMARK  status: ('A' for Active; 'I' for Inactive)
REMARK    1  A    between atoms: C1_2  and  C2_3 
ROOT
ATOM      1  C2  UNL d   1      -0.389  -2.118  -3.338  0.00  0.00    -0.076 A 
ATOM      2  C3  UNL d   1      -1.597  -1.803  -2.691  0.00  0.00     0.004 A 
ATOM      3  C4  UNL d   1      -1.655  -0.793  -1.732  0.00  0.00    -0.003 A 
ATOM      4  C5  UNL d   1      -0.506  -0.082  -1.404  0.00  0.00     0.000 A 
ATOM      5  C6  UNL d   1       0.696  -0.369  -2.048  0.00  0.00     0.000 A 
ATOM      6  C7  UNL d   1       0.769  -1.372  -3.030  0.00  0.00    -0.073 A 
ATOM      7  C8  UNL d   1       2.094  -1.644  -3.688  0.00  0.00     0.078 C 
ENDROOT
BRANCH   1   8
ATOM      8  C1  UNL d   1      -0.381  -3.241  -4.350  0.00  0.00     0.053 C 
ATOM      9  C   UNL d   1      -1.196  -2.912  -5.592  0.00  0.00     0.018 C 
ENDBRANCH   1   8
TORSDOF 1
ENDMDL
