MODEL 1
REMARK minimizedAffinity 7.30205679
REMARK minimizedRMSD -1
REMARK  1 active torsions:
REMARK  status: ('A' for Active; 'I' for Inactive)
REMARK    1  A    between atoms: C1_2  and  C2_3 
ROOT
ATOM      1  C2  UNL d   1      -3.653  -5.222   0.330  0.00  0.00    -0.076 A 
ATOM      2  C3  UNL d   1      -4.752  -5.971   0.786  0.00  0.00     0.004 A 
ATOM      3  C4  UNL d   1      -5.915  -5.342   1.229  0.00  0.00    -0.003 A 
ATOM      4  C5  UNL d   1      -5.997  -3.954   1.223  0.00  0.00     0.000 A 
ATOM      5  C6  UNL d   1      -4.923  -3.196   0.758  0.00  0.00     0.000 A 
ATOM      6  C7  UNL d   1      -3.750  -3.815   0.292  0.00  0.00    -0.073 A 
ATOM      7  C8  UNL d   1      -2.621  -2.948  -0.193  0.00  0.00     0.078 C 
ENDROOT
BRANCH   1   8
ATOM      8  C1  UNL d   1      -2.409  -5.958  -0.113  0.00  0.00     0.053 C 
ATOM      9  C   UNL d   1      -1.331  -5.979   0.960  0.00  0.00     0.018 C 
ENDBRANCH   1   8
TORSDOF 1
ENDMDL
