MODEL 1
REMARK minimizedAffinity 0.332740337
REMARK minimizedRMSD -1
REMARK  1 active torsions:
REMARK  status: ('A' for Active; 'I' for Inactive)
REMARK    1  A    between atoms: C1_2  and  C2_3 
ROOT
ATOM      1  C2  UNL d   1       2.329  -0.976  -2.350  0.00  0.00    -0.076 A 
ATOM      2  C3  UNL d   1       0.938  -1.178  -2.368  0.00  0.00     0.004 A 
ATOM      3  C4  UNL d   1       0.391  -2.354  -2.878  0.00  0.00    -0.003 A 
ATOM      4  C5  UNL d   1       1.226  -3.348  -3.378  0.00  0.00     0.000 A 
ATOM      5  C6  UNL d   1       2.609  -3.172  -3.351  0.00  0.00     0.000 A 
ATOM      6  C7  UNL d   1       3.178  -1.999  -2.826  0.00  0.00    -0.073 A 
ATOM      7  C8  UNL d   1       4.675  -1.860  -2.828  0.00  0.00     0.078 C 
ENDROOT
BRANCH   1   8
ATOM      8  C1  UNL d   1       2.864   0.331  -1.810  0.00  0.00     0.053 C 
ATOM      9  C   UNL d   1       1.862   1.046  -0.918  0.00  0.00     0.018 C 
ENDBRANCH   1   8
TORSDOF 1
ENDMDL
