MODEL 1
REMARK minimizedAffinity 3.56813741
REMARK minimizedRMSD -1
REMARK  1 active torsions:
REMARK  status: ('A' for Active; 'I' for Inactive)
REMARK    1  A    between atoms: C1_2  and  C2_3 
ROOT
ATOM      1  C2  UNL d   1      -3.427  -5.606   1.405  0.00  0.00    -0.076 A 
ATOM      2  C3  UNL d   1      -4.402  -5.236   2.348  0.00  0.00     0.004 A 
ATOM      3  C4  UNL d   1      -5.677  -4.841   1.946  0.00  0.00    -0.003 A 
ATOM      4  C5  UNL d   1      -5.998  -4.810   0.593  0.00  0.00     0.000 A 
ATOM      5  C6  UNL d   1      -5.049  -5.190  -0.355  0.00  0.00     0.000 A 
ATOM      6  C7  UNL d   1      -3.764  -5.607   0.035  0.00  0.00    -0.073 A 
ATOM      7  C8  UNL d   1      -2.778  -6.000  -1.031  0.00  0.00     0.078 C 
ENDROOT
BRANCH   1   8
ATOM      8  C1  UNL d   1      -2.054  -5.999   1.900  0.00  0.00     0.053 C 
ATOM      9  C   UNL d   1      -1.188  -4.794   2.233  0.00  0.00     0.018 C 
ENDBRANCH   1   8
TORSDOF 1
ENDMDL
