MODEL 1
REMARK minimizedAffinity 4.85582161
REMARK minimizedRMSD -1
REMARK  1 active torsions:
REMARK  status: ('A' for Active; 'I' for Inactive)
REMARK    1  A    between atoms: C1_2  and  C2_3 
ROOT
ATOM      1  C2  UNL d   1      -0.156   1.160   2.524  0.00  0.00    -0.076 A 
ATOM      2  C3  UNL d   1       1.187   1.367   2.885  0.00  0.00     0.004 A 
ATOM      3  C4  UNL d   1       1.527   2.248   3.909  0.00  0.00    -0.003 A 
ATOM      4  C5  UNL d   1       0.530   2.937   4.591  0.00  0.00     0.000 A 
ATOM      5  C6  UNL d   1      -0.809   2.731   4.259  0.00  0.00     0.000 A 
ATOM      6  C7  UNL d   1      -1.170   1.833   3.239  0.00  0.00    -0.073 A 
ATOM      7  C8  UNL d   1      -2.628   1.654   2.918  0.00  0.00     0.078 C 
ENDROOT
BRANCH   1   8
ATOM      8  C1  UNL d   1      -0.463   0.212   1.387  0.00  0.00     0.053 C 
ATOM      9  C   UNL d   1       0.794  -0.305   0.704  0.00  0.00     0.018 C 
ENDBRANCH   1   8
TORSDOF 1
ENDMDL
