MODEL 1
REMARK minimizedAffinity 3.23055959
REMARK minimizedRMSD -1
REMARK  1 active torsions:
REMARK  status: ('A' for Active; 'I' for Inactive)
REMARK    1  A    between atoms: C1_2  and  C2_3 
ROOT
ATOM      1  C2  UNL d   1      -1.612  -4.871   1.947  0.00  0.00    -0.076 A 
ATOM      2  C3  UNL d   1      -2.444  -5.997   1.833  0.00  0.00     0.004 A 
ATOM      3  C4  UNL d   1      -3.710  -5.899   1.258  0.00  0.00    -0.003 A 
ATOM      4  C5  UNL d   1      -4.164  -4.672   0.787  0.00  0.00     0.000 A 
ATOM      5  C6  UNL d   1      -3.344  -3.547   0.875  0.00  0.00     0.000 A 
ATOM      6  C7  UNL d   1      -2.059  -3.633   1.438  0.00  0.00    -0.073 A 
ATOM      7  C8  UNL d   1      -1.219  -2.387   1.513  0.00  0.00     0.078 C 
ENDROOT
BRANCH   1   8
ATOM      8  C1  UNL d   1      -0.260  -5.033   2.605  0.00  0.00     0.053 C 
ATOM      9  C   UNL d   1       0.643  -5.996   1.851  0.00  0.00     0.018 C 
ENDBRANCH   1   8
TORSDOF 1
ENDMDL
