MODEL 1
REMARK minimizedAffinity 9.2130928
REMARK minimizedRMSD -1
REMARK  1 active torsions:
REMARK  status: ('A' for Active; 'I' for Inactive)
REMARK    1  A    between atoms: C1_2  and  C2_3 
ROOT
ATOM      1  C2  UNL d   1      -1.536   1.944   4.653  0.00  0.00    -0.076 A 
ATOM      2  C3  UNL d   1      -1.094   2.750   5.716  0.00  0.00     0.004 A 
ATOM      3  C4  UNL d   1       0.225   3.196   5.778  0.00  0.00    -0.003 A 
ATOM      4  C5  UNL d   1       1.123   2.843   4.777  0.00  0.00     0.000 A 
ATOM      5  C6  UNL d   1       0.697   2.059   3.705  0.00  0.00     0.000 A 
ATOM      6  C7  UNL d   1      -0.633   1.615   3.619  0.00  0.00    -0.073 A 
ATOM      7  C8  UNL d   1      -1.037   0.767   2.444  0.00  0.00     0.078 C 
ENDROOT
BRANCH   1   8
ATOM      8  C1  UNL d   1      -2.972   1.468   4.653  0.00  0.00     0.053 C 
ATOM      9  C   UNL d   1      -3.364   0.801   5.962  0.00  0.00     0.018 C 
ENDBRANCH   1   8
TORSDOF 1
ENDMDL
