MODEL 1
REMARK minimizedAffinity -4.56438303
REMARK minimizedRMSD -1
REMARK  0 active torsions:
REMARK  status: ('A' for Active; 'I' for Inactive)
ROOT
ATOM      1  O1  BZF d   1       0.419   0.541  -1.545  0.00  0.00    -0.204 OA
ATOM      2  C2  BZF d   1      -0.070   1.117  -0.388  0.00  0.00     0.174 A 
ATOM      3  C3  BZF d   1      -0.568   0.176   0.440  0.00  0.00    -0.012 A 
ATOM      4  C3A BZF d   1      -0.295  -1.073  -0.201  0.00  0.00    -0.107 A 
ATOM      5  C4  BZF d   1      -0.535  -2.374   0.137  0.00  0.00     0.055 A 
ATOM      6  C5  BZF d   1      -0.209  -3.357  -0.744  0.00  0.00    -0.016 A 
ATOM      7  C6  BZF d   1       0.352  -3.074  -1.972  0.00  0.00     0.022 A 
ATOM      8  C7  BZF d   1       0.612  -1.798  -2.350  0.00  0.00     0.029 A 
ATOM      9  C7A BZF d   1       0.315  -0.806  -1.449  0.00  0.00     0.058 A 
ENDROOT
TORSDOF 0
ENDMDL
