MODEL 1
REMARK minimizedAffinity -5.64246559
REMARK minimizedRMSD -1
REMARK  0 active torsions:
REMARK  status: ('A' for Active; 'I' for Inactive)
ROOT
ATOM      1  O1  BZF d   1       0.459   0.155  -1.285  0.00  0.00    -0.204 OA
ATOM      2  C2  BZF d   1       0.320   0.783  -0.062  0.00  0.00     0.174 A 
ATOM      3  C3  BZF d   1      -0.077  -0.093   0.883  0.00  0.00    -0.012 A 
ATOM      4  C3A BZF d   1      -0.103  -1.366   0.230  0.00  0.00    -0.107 A 
ATOM      5  C4  BZF d   1      -0.404  -2.630   0.649  0.00  0.00     0.055 A 
ATOM      6  C5  BZF d   1      -0.404  -3.643  -0.257  0.00  0.00    -0.016 A 
ATOM      7  C6  BZF d   1      -0.114  -3.427  -1.588  0.00  0.00     0.022 A 
ATOM      8  C7  BZF d   1       0.195  -2.191  -2.050  0.00  0.00     0.029 A 
ATOM      9  C7A BZF d   1       0.229  -1.171  -1.131  0.00  0.00     0.058 A 
ENDROOT
TORSDOF 0
ENDMDL
