MODEL 1
REMARK minimizedAffinity -5.16827393
REMARK minimizedRMSD -1
REMARK  0 active torsions:
REMARK  status: ('A' for Active; 'I' for Inactive)
ROOT
ATOM      1  O1  BZF d   1       0.206   0.250  -1.655  0.00  0.00    -0.204 OA
ATOM      2  C2  BZF d   1      -0.074   1.370  -0.895  0.00  0.00     0.174 A 
ATOM      3  C3  BZF d   1      -0.328   1.028   0.384  0.00  0.00    -0.012 A 
ATOM      4  C3A BZF d   1      -0.109  -0.384   0.447  0.00  0.00    -0.107 A 
ATOM      5  C4  BZF d   1      -0.186  -1.302   1.455  0.00  0.00     0.055 A 
ATOM      6  C5  BZF d   1       0.018  -2.615   1.170  0.00  0.00    -0.016 A 
ATOM      7  C6  BZF d   1       0.297  -3.045  -0.111  0.00  0.00     0.022 A 
ATOM      8  C7  BZF d   1       0.389  -2.171  -1.142  0.00  0.00     0.029 A 
ATOM      9  C7A BZF d   1       0.215  -0.840  -0.851  0.00  0.00     0.058 A 
ENDROOT
TORSDOF 0
ENDMDL
