MODEL 1
REMARK minimizedAffinity -2.8964951
REMARK minimizedRMSD -1
REMARK  0 active torsions:
REMARK  status: ('A' for Active; 'I' for Inactive)
ROOT
ATOM      1  O1  BZF d   1      -1.235   0.106   0.478  0.00  0.00    -0.204 OA
ATOM      2  C2  BZF d   1      -0.437   1.129   0.004  0.00  0.00     0.174 A 
ATOM      3  C3  BZF d   1       0.790   0.670  -0.314  0.00  0.00    -0.012 A 
ATOM      4  C3A BZF d   1       0.728  -0.745  -0.109  0.00  0.00    -0.107 A 
ATOM      5  C4  BZF d   1       1.630  -1.758  -0.270  0.00  0.00     0.055 A 
ATOM      6  C5  BZF d   1       1.276  -3.020   0.089  0.00  0.00    -0.016 A 
ATOM      7  C6  BZF d   1       0.034  -3.304   0.616  0.00  0.00     0.022 A 
ATOM      8  C7  BZF d   1      -0.896  -2.333   0.790  0.00  0.00     0.029 A 
ATOM      9  C7A BZF d   1      -0.554  -1.062   0.397  0.00  0.00     0.058 A 
ENDROOT
TORSDOF 0
ENDMDL
