MODEL 1
REMARK minimizedAffinity -5.601336
REMARK minimizedRMSD -1
REMARK  0 active torsions:
REMARK  status: ('A' for Active; 'I' for Inactive)
ROOT
ATOM      1  O1  BZF d   1       0.187  -0.069  -1.078  0.00  0.00    -0.204 OA
ATOM      2  C2  BZF d   1       0.025   0.478   0.181  0.00  0.00     0.174 A 
ATOM      3  C3  BZF d   1      -0.259  -0.481   1.086  0.00  0.00    -0.012 A 
ATOM      4  C3A BZF d   1      -0.184  -1.714   0.364  0.00  0.00    -0.107 A 
ATOM      5  C4  BZF d   1      -0.351  -3.022   0.719  0.00  0.00     0.055 A 
ATOM      6  C5  BZF d   1      -0.282  -3.981  -0.241  0.00  0.00    -0.016 A 
ATOM      7  C6  BZF d   1      -0.053  -3.669  -1.565  0.00  0.00     0.022 A 
ATOM      8  C7  BZF d   1       0.124  -2.386  -1.965  0.00  0.00     0.029 A 
ATOM      9  C7A BZF d   1       0.088  -1.417  -0.992  0.00  0.00     0.058 A 
ENDROOT
TORSDOF 0
ENDMDL
