MODEL 1
REMARK minimizedAffinity -2.89445043
REMARK minimizedRMSD -1
REMARK  0 active torsions:
REMARK  status: ('A' for Active; 'I' for Inactive)
ROOT
ATOM      1  O1  BZF d   1       1.146   0.040  -1.061  0.00  0.00    -0.204 OA
ATOM      2  C2  BZF d   1       0.625   1.299  -0.833  0.00  0.00     0.174 A 
ATOM      3  C3  BZF d   1      -0.427   1.236   0.009  0.00  0.00    -0.012 A 
ATOM      4  C3A BZF d   1      -0.515  -0.138   0.400  0.00  0.00    -0.107 A 
ATOM      5  C4  BZF d   1      -1.348  -0.825   1.235  0.00  0.00     0.055 A 
ATOM      6  C5  BZF d   1      -1.213  -2.173   1.341  0.00  0.00    -0.016 A 
ATOM      7  C6  BZF d   1      -0.259  -2.866   0.624  0.00  0.00     0.022 A 
ATOM      8  C7  BZF d   1       0.594  -2.227  -0.214  0.00  0.00     0.029 A 
ATOM      9  C7A BZF d   1       0.481  -0.860  -0.298  0.00  0.00     0.058 A 
ENDROOT
TORSDOF 0
ENDMDL
