MODEL 1
REMARK minimizedAffinity -3.29248381
REMARK minimizedRMSD -1
REMARK  0 active torsions:
REMARK  status: ('A' for Active; 'I' for Inactive)
ROOT
ATOM      1  O1  BZF d   1      -1.208  -1.871   1.131  0.00  0.00    -0.204 OA
ATOM      2  C2  BZF d   1      -1.308  -3.132   0.576  0.00  0.00     0.174 A 
ATOM      3  C3  BZF d   1      -0.889  -3.124  -0.706  0.00  0.00    -0.012 A 
ATOM      4  C3A BZF d   1      -0.418  -1.794  -0.941  0.00  0.00    -0.107 A 
ATOM      5  C4  BZF d   1       0.134  -1.171  -2.023  0.00  0.00     0.055 A 
ATOM      6  C5  BZF d   1       0.417   0.156  -1.948  0.00  0.00    -0.016 A 
ATOM      7  C6  BZF d   1       0.156   0.891  -0.810  0.00  0.00     0.022 A 
ATOM      8  C7  BZF d   1      -0.386   0.316   0.291  0.00  0.00     0.029 A 
ATOM      9  C7A BZF d   1      -0.643  -1.032   0.229  0.00  0.00     0.058 A 
ENDROOT
TORSDOF 0
ENDMDL
