MODEL 1
REMARK minimizedAffinity -4.57312441
REMARK minimizedRMSD -1
REMARK  0 active torsions:
REMARK  status: ('A' for Active; 'I' for Inactive)
ROOT
ATOM      1  O1  BZF d   1      -0.629  -2.742  -1.365  0.00  0.00    -0.204 OA
ATOM      2  C2  BZF d   1      -1.135  -3.263  -0.190  0.00  0.00     0.174 A 
ATOM      3  C3  BZF d   1      -1.169  -2.322   0.775  0.00  0.00    -0.012 A 
ATOM      4  C3A BZF d   1      -0.738  -1.115   0.139  0.00  0.00    -0.107 A 
ATOM      5  C4  BZF d   1      -0.576   0.170   0.573  0.00  0.00     0.055 A 
ATOM      6  C5  BZF d   1      -0.069   1.097  -0.281  0.00  0.00    -0.016 A 
ATOM      7  C6  BZF d   1       0.292   0.774  -1.572  0.00  0.00     0.022 A 
ATOM      8  C7  BZF d   1       0.146  -0.486  -2.050  0.00  0.00     0.029 A 
ATOM      9  C7A BZF d   1      -0.398  -1.418  -1.200  0.00  0.00     0.058 A 
ENDROOT
TORSDOF 0
ENDMDL
