MODEL 1
REMARK minimizedAffinity -1.95830631
REMARK minimizedRMSD -1
REMARK  0 active torsions:
REMARK  status: ('A' for Active; 'I' for Inactive)
ROOT
ATOM      1  O1  BZF d   1       0.071   0.481  -0.839  0.00  0.00    -0.204 OA
ATOM      2  C2  BZF d   1      -0.478   0.860   0.371  0.00  0.00     0.174 A 
ATOM      3  C3  BZF d   1      -0.930  -0.215   1.048  0.00  0.00    -0.012 A 
ATOM      4  C3A BZF d   1      -0.564  -1.345   0.250  0.00  0.00    -0.107 A 
ATOM      5  C4  BZF d   1      -0.724  -2.692   0.401  0.00  0.00     0.055 A 
ATOM      6  C5  BZF d   1      -0.317  -3.522  -0.595  0.00  0.00    -0.016 A 
ATOM      7  C6  BZF d   1       0.249  -3.038  -1.757  0.00  0.00     0.022 A 
ATOM      8  C7  BZF d   1       0.434  -1.709  -1.950  0.00  0.00     0.029 A 
ATOM      9  C7A BZF d   1       0.053  -0.871  -0.930  0.00  0.00     0.058 A 
ENDROOT
TORSDOF 0
ENDMDL
