MODEL 1
REMARK minimizedAffinity -6.23203659
REMARK minimizedRMSD -1
REMARK  0 active torsions:
REMARK  status: ('A' for Active; 'I' for Inactive)
ROOT
ATOM      1  O1  BZF d   1       0.020   0.162  -1.640  0.00  0.00    -0.204 OA
ATOM      2  C2  BZF d   1      -0.101   0.895  -0.475  0.00  0.00     0.174 A 
ATOM      3  C3  BZF d   1      -0.218   0.079   0.593  0.00  0.00    -0.012 A 
ATOM      4  C3A BZF d   1      -0.074  -1.246   0.072  0.00  0.00    -0.107 A 
ATOM      5  C4  BZF d   1      -0.082  -2.485   0.645  0.00  0.00     0.055 A 
ATOM      6  C5  BZF d   1       0.011  -3.582  -0.153  0.00  0.00    -0.016 A 
ATOM      7  C6  BZF d   1       0.107  -3.476  -1.525  0.00  0.00     0.022 A 
ATOM      8  C7  BZF d   1       0.123  -2.267  -2.138  0.00  0.00     0.029 A 
ATOM      9  C7A BZF d   1       0.063  -1.156  -1.332  0.00  0.00     0.058 A 
ENDROOT
TORSDOF 0
ENDMDL
