MODEL 1
REMARK minimizedAffinity -5.46570015
REMARK minimizedRMSD -1
REMARK  0 active torsions:
REMARK  status: ('A' for Active; 'I' for Inactive)
ROOT
ATOM      1  O1  BZF d   1       0.150   0.228  -1.309  0.00  0.00    -0.204 OA
ATOM      2  C2  BZF d   1      -0.223   0.682  -0.059  0.00  0.00     0.174 A 
ATOM      3  C3  BZF d   1      -0.498  -0.352   0.763  0.00  0.00    -0.012 A 
ATOM      4  C3A BZF d   1      -0.195  -1.526   0.004  0.00  0.00    -0.107 A 
ATOM      5  C4  BZF d   1      -0.249  -2.862   0.281  0.00  0.00     0.055 A 
ATOM      6  C5  BZF d   1       0.045  -3.753  -0.703  0.00  0.00    -0.016 A 
ATOM      7  C6  BZF d   1       0.391  -3.343  -1.974  0.00  0.00     0.022 A 
ATOM      8  C7  BZF d   1       0.463  -2.028  -2.294  0.00  0.00     0.029 A 
ATOM      9  C7A BZF d   1       0.199  -1.126  -1.293  0.00  0.00     0.058 A 
ENDROOT
TORSDOF 0
ENDMDL
