MODEL 1
REMARK minimizedAffinity -6.14616537
REMARK minimizedRMSD -1
REMARK  0 active torsions:
REMARK  status: ('A' for Active; 'I' for Inactive)
ROOT
ATOM      1  O1  BZF d   1      -0.211   0.138  -1.080  0.00  0.00    -0.204 OA
ATOM      2  C2  BZF d   1      -0.808   0.639   0.060  0.00  0.00     0.174 A 
ATOM      3  C3  BZF d   1      -1.111  -0.356   0.918  0.00  0.00    -0.012 A 
ATOM      4  C3A BZF d   1      -0.592  -1.545   0.314  0.00  0.00    -0.107 A 
ATOM      5  C4  BZF d   1      -0.568  -2.856   0.693  0.00  0.00     0.055 A 
ATOM      6  C5  BZF d   1      -0.049  -3.780  -0.158  0.00  0.00    -0.016 A 
ATOM      7  C6  BZF d   1       0.448  -3.428  -1.396  0.00  0.00     0.022 A 
ATOM      8  C7  BZF d   1       0.450  -2.139  -1.814  0.00  0.00     0.029 A 
ATOM      9  C7A BZF d   1      -0.043  -1.199  -0.943  0.00  0.00     0.058 A 
ENDROOT
TORSDOF 0
ENDMDL
