MODEL 1
REMARK minimizedAffinity -5.90172768
REMARK minimizedRMSD -1
REMARK  0 active torsions:
REMARK  status: ('A' for Active; 'I' for Inactive)
ROOT
ATOM      1  O1  BZF d   1       0.348   0.407  -0.873  0.00  0.00    -0.204 OA
ATOM      2  C2  BZF d   1      -0.273   0.900   0.259  0.00  0.00     0.174 A 
ATOM      3  C3  BZF d   1      -0.753  -0.107   1.017  0.00  0.00    -0.012 A 
ATOM      4  C3A BZF d   1      -0.331  -1.307   0.362  0.00  0.00    -0.107 A 
ATOM      5  C4  BZF d   1      -0.487  -2.634   0.642  0.00  0.00     0.055 A 
ATOM      6  C5  BZF d   1      -0.016  -3.555  -0.239  0.00  0.00    -0.016 A 
ATOM      7  C6  BZF d   1       0.611  -3.184  -1.410  0.00  0.00     0.022 A 
ATOM      8  C7  BZF d   1       0.794  -1.880  -1.729  0.00  0.00     0.029 A 
ATOM      9  C7A BZF d   1       0.348  -0.947  -0.825  0.00  0.00     0.058 A 
ENDROOT
TORSDOF 0
ENDMDL
