MODEL 1
REMARK minimizedAffinity -0.639319658
REMARK minimizedRMSD -1
REMARK  0 active torsions:
REMARK  status: ('A' for Active; 'I' for Inactive)
ROOT
ATOM      1  O1  BZF d   1       1.157   0.612   0.590  0.00  0.00    -0.204 OA
ATOM      2  C2  BZF d   1       0.290   1.478  -0.048  0.00  0.00     0.174 A 
ATOM      3  C3  BZF d   1      -0.788   0.818  -0.515  0.00  0.00    -0.012 A 
ATOM      4  C3A BZF d   1      -0.628  -0.531  -0.066  0.00  0.00    -0.107 A 
ATOM      5  C4  BZF d   1      -1.382  -1.662  -0.200  0.00  0.00     0.055 A 
ATOM      6  C5  BZF d   1      -0.907  -2.835   0.295  0.00  0.00    -0.016 A 
ATOM      7  C6  BZF d   1       0.318  -2.915   0.923  0.00  0.00     0.022 A 
ATOM      8  C7  BZF d   1       1.100  -1.820   1.084  0.00  0.00     0.029 A 
ATOM      9  C7A BZF d   1       0.608  -0.626   0.615  0.00  0.00     0.058 A 
ENDROOT
TORSDOF 0
ENDMDL
