MODEL 1
REMARK minimizedAffinity 3.01042199
REMARK minimizedRMSD -1
REMARK  0 active torsions:
REMARK  status: ('A' for Active; 'I' for Inactive)
ROOT
ATOM      1  N1  IND d   1       1.534  -0.654   1.056  0.00  0.00    -0.196 N 
ATOM      2  C2  IND d   1       2.175   0.377   1.686  0.00  0.00     0.054 A 
ATOM      3  C3  IND d   1       1.618   1.559   1.339  0.00  0.00    -0.031 A 
ATOM      4  C4  IND d   1      -0.417   2.029  -0.166  0.00  0.00     0.051 A 
ATOM      5  C5  IND d   1      -1.311   1.409  -0.993  0.00  0.00    -0.031 A 
ATOM      6  C6  IND d   1      -1.304   0.042  -1.181  0.00  0.00     0.015 A 
ATOM      7  C7  IND d   1      -0.406  -0.761  -0.537  0.00  0.00    -0.016 A 
ATOM      8  C8  IND d   1       0.508  -0.134   0.298  0.00  0.00    -0.047 A 
ATOM      9  C9  IND d   1       0.533   1.257   0.460  0.00  0.00    -0.096 A 
ATOM     10  HN1 IND d   1       1.738  -1.486   1.123  0.00  0.00     0.298 HD
ENDROOT
TORSDOF 0
ENDMDL
