MODEL 1
REMARK minimizedAffinity 5.26505232
REMARK minimizedRMSD -1
REMARK  0 active torsions:
REMARK  status: ('A' for Active; 'I' for Inactive)
ROOT
ATOM      1  N1  IND d   1      -5.073   1.987  -1.750  0.00  0.00    -0.196 N 
ATOM      2  C2  IND d   1      -4.141   1.076  -2.161  0.00  0.00     0.054 A 
ATOM      3  C3  IND d   1      -3.654   1.416  -3.376  0.00  0.00    -0.031 A 
ATOM      4  C4  IND d   1      -4.171   3.479  -4.826  0.00  0.00     0.051 A 
ATOM      5  C5  IND d   1      -4.985   4.576  -4.888  0.00  0.00    -0.031 A 
ATOM      6  C6  IND d   1      -5.886   4.873  -3.886  0.00  0.00     0.015 A 
ATOM      7  C7  IND d   1      -5.999   4.087  -2.774  0.00  0.00    -0.016 A 
ATOM      8  C8  IND d   1      -5.180   2.969  -2.711  0.00  0.00    -0.047 A 
ATOM      9  C9  IND d   1      -4.293   2.639  -3.745  0.00  0.00    -0.096 A 
ATOM     10  HN1 IND d   1      -5.519   1.953  -1.016  0.00  0.00     0.298 HD
ENDROOT
TORSDOF 0
ENDMDL
