MODEL 1
REMARK minimizedAffinity -2.26953197
REMARK minimizedRMSD -1
REMARK  0 active torsions:
REMARK  status: ('A' for Active; 'I' for Inactive)
ROOT
ATOM      1  N1  IND d   1      -4.044   1.252   2.058  0.00  0.00    -0.196 N 
ATOM      2  C2  IND d   1      -4.579   1.029   0.820  0.00  0.00     0.054 A 
ATOM      3  C3  IND d   1      -3.620   1.113  -0.129  0.00  0.00    -0.031 A 
ATOM      4  C4  IND d   1      -1.089   1.506   0.134  0.00  0.00     0.051 A 
ATOM      5  C5  IND d   1      -0.136   1.800   1.069  0.00  0.00    -0.031 A 
ATOM      6  C6  IND d   1      -0.443   1.926   2.408  0.00  0.00     0.015 A 
ATOM      7  C7  IND d   1      -1.718   1.751   2.867  0.00  0.00    -0.016 A 
ATOM      8  C8  IND d   1      -2.689   1.460   1.920  0.00  0.00    -0.047 A 
ATOM      9  C9  IND d   1      -2.392   1.372   0.554  0.00  0.00    -0.096 A 
ATOM     10  HN1 IND d   1      -4.481   1.262   2.799  0.00  0.00     0.298 HD
ENDROOT
TORSDOF 0
ENDMDL
