MODEL 1
REMARK minimizedAffinity 3.02283549
REMARK minimizedRMSD -1
REMARK  0 active torsions:
REMARK  status: ('A' for Active; 'I' for Inactive)
ROOT
ATOM      1  N1  IND d   1      -3.978   0.162  -2.338  0.00  0.00    -0.196 N 
ATOM      2  C2  IND d   1      -5.222   0.188  -1.771  0.00  0.00     0.054 A 
ATOM      3  C3  IND d   1      -5.999   1.109  -2.384  0.00  0.00    -0.031 A 
ATOM      4  C4  IND d   1      -5.467   2.614  -4.403  0.00  0.00     0.051 A 
ATOM      5  C5  IND d   1      -4.449   2.974  -5.241  0.00  0.00    -0.031 A 
ATOM      6  C6  IND d   1      -3.196   2.401  -5.153  0.00  0.00     0.015 A 
ATOM      7  C7  IND d   1      -2.918   1.434  -4.228  0.00  0.00    -0.016 A 
ATOM      8  C8  IND d   1      -3.948   1.072  -3.372  0.00  0.00    -0.047 A 
ATOM      9  C9  IND d   1      -5.209   1.680  -3.428  0.00  0.00    -0.096 A 
ATOM     10  HN1 IND d   1      -3.324  -0.339  -2.091  0.00  0.00     0.298 HD
ENDROOT
TORSDOF 0
ENDMDL
