MODEL 1
REMARK minimizedAffinity 5.87105846
REMARK minimizedRMSD -1
REMARK  0 active torsions:
REMARK  status: ('A' for Active; 'I' for Inactive)
ROOT
ATOM      1  N1  IND d   1       0.968   1.105  -0.769  0.00  0.00    -0.196 N 
ATOM      2  C2  IND d   1       1.263   2.266  -0.111  0.00  0.00     0.054 A 
ATOM      3  C3  IND d   1       2.280   2.068   0.758  0.00  0.00    -0.031 A 
ATOM      4  C4  IND d   1       3.675  -0.053   1.188  0.00  0.00     0.051 A 
ATOM      5  C5  IND d   1       3.756  -1.375   0.853  0.00  0.00    -0.031 A 
ATOM      6  C6  IND d   1       2.897  -1.949  -0.061  0.00  0.00     0.015 A 
ATOM      7  C7  IND d   1       1.927  -1.217  -0.685  0.00  0.00    -0.016 A 
ATOM      8  C8  IND d   1       1.837   0.125  -0.341  0.00  0.00    -0.047 A 
ATOM      9  C9  IND d   1       2.679   0.703   0.617  0.00  0.00    -0.096 A 
ATOM     10  HN1 IND d   1       0.345   1.003  -1.353  0.00  0.00     0.298 HD
ENDROOT
TORSDOF 0
ENDMDL
