MODEL 1
REMARK minimizedAffinity 8.44403076
REMARK minimizedRMSD -1
REMARK  0 active torsions:
REMARK  status: ('A' for Active; 'I' for Inactive)
ROOT
ATOM      1  N1  IND d   1      -4.216   1.189  -5.962  0.00  0.00    -0.196 N 
ATOM      2  C2  IND d   1      -4.424  -0.160  -5.883  0.00  0.00     0.054 A 
ATOM      3  C3  IND d   1      -4.918  -0.490  -4.669  0.00  0.00    -0.031 A 
ATOM      4  C4  IND d   1      -5.557   1.033  -2.694  0.00  0.00     0.051 A 
ATOM      5  C5  IND d   1      -5.514   2.335  -2.280  0.00  0.00    -0.031 A 
ATOM      6  C6  IND d   1      -5.029   3.342  -3.090  0.00  0.00     0.015 A 
ATOM      7  C7  IND d   1      -4.578   3.085  -4.353  0.00  0.00    -0.016 A 
ATOM      8  C8  IND d   1      -4.613   1.763  -4.774  0.00  0.00    -0.047 A 
ATOM      9  C9  IND d   1      -5.065   0.731  -3.942  0.00  0.00    -0.096 A 
ATOM     10  HN1 IND d   1      -3.892   1.608  -6.639  0.00  0.00     0.298 HD
ENDROOT
TORSDOF 0
ENDMDL
