MODEL 1
REMARK minimizedAffinity 3.86991596
REMARK minimizedRMSD -1
REMARK  0 active torsions:
REMARK  status: ('A' for Active; 'I' for Inactive)
ROOT
ATOM      1  N1  IND d   1       2.088  -1.197  -2.742  0.00  0.00    -0.196 N 
ATOM      2  C2  IND d   1       0.883  -1.068  -3.374  0.00  0.00     0.054 A 
ATOM      3  C3  IND d   1      -0.087  -1.698  -2.673  0.00  0.00    -0.031 A 
ATOM      4  C4  IND d   1       0.061  -2.917  -0.410  0.00  0.00     0.051 A 
ATOM      5  C5  IND d   1       0.958  -3.328   0.535  0.00  0.00    -0.031 A 
ATOM      6  C6  IND d   1       2.305  -3.041   0.436  0.00  0.00     0.015 A 
ATOM      7  C7  IND d   1       2.804  -2.320  -0.611  0.00  0.00    -0.016 A 
ATOM      8  C8  IND d   1       1.897  -1.908  -1.577  0.00  0.00    -0.047 A 
ATOM      9  C9  IND d   1       0.537  -2.232  -1.504  0.00  0.00    -0.096 A 
ATOM     10  HN1 IND d   1       2.838  -0.887  -3.024  0.00  0.00     0.298 HD
ENDROOT
TORSDOF 0
ENDMDL
