MODEL 1
REMARK minimizedAffinity 5.99918604
REMARK minimizedRMSD -1
REMARK  0 active torsions:
REMARK  status: ('A' for Active; 'I' for Inactive)
ROOT
ATOM      1  N1  IND d   1      -2.862   1.194  -2.177  0.00  0.00    -0.196 N 
ATOM      2  C2  IND d   1      -2.138   0.036  -2.245  0.00  0.00     0.054 A 
ATOM      3  C3  IND d   1      -2.668  -0.796  -3.169  0.00  0.00    -0.031 A 
ATOM      4  C4  IND d   1      -4.660  -0.423  -4.756  0.00  0.00     0.051 A 
ATOM      5  C5  IND d   1      -5.659   0.466  -5.041  0.00  0.00    -0.031 A 
ATOM      6  C6  IND d   1      -5.777   1.668  -4.374  0.00  0.00     0.015 A 
ATOM      7  C7  IND d   1      -4.890   2.033  -3.401  0.00  0.00    -0.016 A 
ATOM      8  C8  IND d   1      -3.879   1.130  -3.104  0.00  0.00    -0.047 A 
ATOM      9  C9  IND d   1      -3.779  -0.110  -3.748  0.00  0.00    -0.096 A 
ATOM     10  HN1 IND d   1      -2.708   1.851  -1.644  0.00  0.00     0.298 HD
ENDROOT
TORSDOF 0
ENDMDL
