MODEL 1
REMARK minimizedAffinity 16.3985233
REMARK minimizedRMSD -1
REMARK  0 active torsions:
REMARK  status: ('A' for Active; 'I' for Inactive)
ROOT
ATOM      1  N1  IND d   1       0.156   3.289   0.281  0.00  0.00    -0.196 N 
ATOM      2  C2  IND d   1       1.437   2.821   0.180  0.00  0.00     0.054 A 
ATOM      3  C3  IND d   1       1.702   1.958   1.186  0.00  0.00    -0.031 A 
ATOM      4  C4  IND d   1       0.152   1.089   3.049  0.00  0.00     0.051 A 
ATOM      5  C5  IND d   1      -1.099   1.256   3.574  0.00  0.00    -0.031 A 
ATOM      6  C6  IND d   1      -2.015   2.124   3.015  0.00  0.00     0.015 A 
ATOM      7  C7  IND d   1      -1.716   2.853   1.899  0.00  0.00    -0.016 A 
ATOM      8  C8  IND d   1      -0.445   2.692   1.367  0.00  0.00    -0.047 A 
ATOM      9  C9  IND d   1       0.503   1.844   1.954  0.00  0.00    -0.096 A 
ATOM     10  HN1 IND d   1      -0.212   3.860  -0.246  0.00  0.00     0.298 HD
ENDROOT
TORSDOF 0
ENDMDL
