MODEL 1
REMARK minimizedAffinity -2.43584156
REMARK minimizedRMSD -1
REMARK  0 active torsions:
REMARK  status: ('A' for Active; 'I' for Inactive)
ROOT
ATOM      1  C   UNL d   1       2.585   0.985   1.754  0.00  0.00    -0.002 A 
ATOM      2  C1  UNL d   1       2.501   1.689   0.561  0.00  0.00     0.010 A 
ATOM      3  C2  UNL d   1       1.289   2.248   0.151  0.00  0.00     0.041 A 
ATOM      4  C3  UNL d   1       0.153   2.088   0.969  0.00  0.00    -0.075 A 
ATOM      5  S   UNL d   1      -1.436   2.686   0.670  0.00  0.00     0.015 SA
ATOM      6  C4  UNL d   1      -2.040   2.022   2.119  0.00  0.00     0.022 A 
ATOM      7  C5  UNL d   1      -1.066   1.356   2.825  0.00  0.00     0.026 A 
ATOM      8  C6  UNL d   1       0.213   1.384   2.175  0.00  0.00    -0.082 A 
ATOM      9  C7  UNL d   1       1.457   0.828   2.563  0.00  0.00     0.045 A 
ENDROOT
TORSDOF 0
ENDMDL
