MODEL 1
REMARK minimizedAffinity 9.69031715
REMARK minimizedRMSD -1
REMARK  0 active torsions:
REMARK  status: ('A' for Active; 'I' for Inactive)
ROOT
ATOM      1  C   UNL d   1       2.109  -2.270  -0.537  0.00  0.00    -0.002 A 
ATOM      2  C1  UNL d   1       0.900  -2.193  -1.214  0.00  0.00     0.010 A 
ATOM      3  C2  UNL d   1       0.183  -0.995  -1.253  0.00  0.00     0.041 A 
ATOM      4  C3  UNL d   1       0.707   0.135  -0.594  0.00  0.00    -0.075 A 
ATOM      5  S   UNL d   1       0.004   1.707  -0.508  0.00  0.00     0.015 SA
ATOM      6  C4  UNL d   1       1.293   2.313   0.429  0.00  0.00     0.022 A 
ATOM      7  C5  UNL d   1       2.245   1.353   0.679  0.00  0.00     0.026 A 
ATOM      8  C6  UNL d   1       1.923   0.082   0.093  0.00  0.00    -0.082 A 
ATOM      9  C7  UNL d   1       2.626  -1.147   0.114  0.00  0.00     0.045 A 
ENDROOT
TORSDOF 0
ENDMDL
