MODEL 1
REMARK minimizedAffinity 14.9743938
REMARK minimizedRMSD -1
REMARK  0 active torsions:
REMARK  status: ('A' for Active; 'I' for Inactive)
ROOT
ATOM      1  C   UNL d   1      -2.034   2.690   0.866  0.00  0.00    -0.002 A 
ATOM      2  C1  UNL d   1      -1.987   2.161   2.148  0.00  0.00     0.010 A 
ATOM      3  C2  UNL d   1      -0.762   1.909   2.768  0.00  0.00     0.041 A 
ATOM      4  C3  UNL d   1       0.427   2.201   2.072  0.00  0.00    -0.075 A 
ATOM      5  S   UNL d   1       2.042   1.976   2.632  0.00  0.00     0.015 SA
ATOM      6  C4  UNL d   1       2.708   2.578   1.183  0.00  0.00     0.022 A 
ATOM      7  C5  UNL d   1       1.736   2.946   0.283  0.00  0.00     0.026 A 
ATOM      8  C6  UNL d   1       0.406   2.735   0.780  0.00  0.00    -0.082 A 
ATOM      9  C7  UNL d   1      -0.852   2.979   0.178  0.00  0.00     0.045 A 
ENDROOT
TORSDOF 0
ENDMDL
