MODEL 1
REMARK minimizedAffinity 3.19470358
REMARK minimizedRMSD -1
REMARK  0 active torsions:
REMARK  status: ('A' for Active; 'I' for Inactive)
ROOT
ATOM      1  C   UNL d   1      -4.665   1.988  -4.808  0.00  0.00    -0.002 A 
ATOM      2  C1  UNL d   1      -5.547   2.762  -4.068  0.00  0.00     0.010 A 
ATOM      3  C2  UNL d   1      -5.868   2.414  -2.755  0.00  0.00     0.041 A 
ATOM      4  C3  UNL d   1      -5.280   1.264  -2.191  0.00  0.00    -0.075 A 
ATOM      5  S   UNL d   1      -5.524   0.645  -0.601  0.00  0.00     0.015 SA
ATOM      6  C4  UNL d   1      -4.463  -0.662  -0.866  0.00  0.00     0.022 A 
ATOM      7  C5  UNL d   1      -3.927  -0.642  -2.132  0.00  0.00     0.026 A 
ATOM      8  C6  UNL d   1      -4.388   0.469  -2.916  0.00  0.00    -0.082 A 
ATOM      9  C7  UNL d   1      -4.084   0.848  -4.246  0.00  0.00     0.045 A 
ENDROOT
TORSDOF 0
ENDMDL
