MODEL 1
REMARK minimizedAffinity 12.3831282
REMARK minimizedRMSD -1
REMARK  0 active torsions:
REMARK  status: ('A' for Active; 'I' for Inactive)
ROOT
ATOM      1  C   UNL d   1       0.499   1.867   3.096  0.00  0.00    -0.002 A 
ATOM      2  C1  UNL d   1       0.692   2.745   2.039  0.00  0.00     0.010 A 
ATOM      3  C2  UNL d   1      -0.310   2.942   1.087  0.00  0.00     0.041 A 
ATOM      4  C3  UNL d   1      -1.522   2.236   1.217  0.00  0.00    -0.075 A 
ATOM      5  S   UNL d   1      -2.890   2.318   0.172  0.00  0.00     0.015 SA
ATOM      6  C4  UNL d   1      -3.764   1.190   1.104  0.00  0.00     0.022 A 
ATOM      7  C5  UNL d   1      -3.044   0.751   2.190  0.00  0.00     0.026 A 
ATOM      8  C6  UNL d   1      -1.740   1.347   2.274  0.00  0.00    -0.082 A 
ATOM      9  C7  UNL d   1      -0.704   1.168   3.222  0.00  0.00     0.045 A 
ENDROOT
TORSDOF 0
ENDMDL
