MODEL 1
REMARK minimizedAffinity 8.06851101
REMARK minimizedRMSD -1
REMARK  0 active torsions:
REMARK  status: ('A' for Active; 'I' for Inactive)
ROOT
ATOM      1  C   UNL d   1      -0.315   2.230   1.107  0.00  0.00    -0.002 A 
ATOM      2  C1  UNL d   1      -0.316   1.442   2.249  0.00  0.00     0.010 A 
ATOM      3  C2  UNL d   1       0.452   0.277   2.309  0.00  0.00     0.041 A 
ATOM      4  C3  UNL d   1       1.231  -0.084   1.192  0.00  0.00    -0.075 A 
ATOM      5  S   UNL d   1       2.250  -1.465   1.038  0.00  0.00     0.015 SA
ATOM      6  C4  UNL d   1       2.712  -1.041  -0.547  0.00  0.00     0.022 A 
ATOM      7  C5  UNL d   1       2.113   0.124  -0.964  0.00  0.00     0.026 A 
ATOM      8  C6  UNL d   1       1.249   0.695   0.031  0.00  0.00    -0.082 A 
ATOM      9  C7  UNL d   1       0.459   1.869   0.001  0.00  0.00     0.045 A 
ENDROOT
TORSDOF 0
ENDMDL
