MODEL 1
REMARK minimizedAffinity 3.18191051
REMARK minimizedRMSD -1
REMARK  1 active torsions:
REMARK  status: ('A' for Active; 'I' for Inactive)
REMARK    1  A    between atoms: N_2  and  C1_3 
ROOT
ATOM      1  C1  UNL d   1       3.021   4.954  -5.493  0.00  0.00     0.143 A 
ATOM      2  C2  UNL d   1       2.239   5.998  -5.999  0.00  0.00    -0.057 A 
ATOM      3  C3  UNL d   1       0.845   5.994  -5.863  0.00  0.00     0.033 A 
ATOM      4  C4  UNL d   1       0.205   4.927  -5.241  0.00  0.00    -0.042 A 
ATOM      5  C5  UNL d   1       0.959   3.867  -4.753  0.00  0.00     0.033 A 
ATOM      6  C6  UNL d   1       2.351   3.880  -4.886  0.00  0.00    -0.057 A 
ENDROOT
BRANCH   1   7
ATOM      7  N   UNL d   1       4.401   4.853  -5.684  0.00  0.00    -0.732 N 
ATOM      8  C   UNL d   1       5.259   5.999  -5.480  0.00  0.00     0.284 C 
ATOM      9  H3  UNL d   1       4.780   3.980  -5.323  0.00  0.00     0.395 HD
ENDBRANCH   1   7
TORSDOF 1
ENDMDL
