MODEL 1
REMARK minimizedAffinity 4.76977158
REMARK minimizedRMSD -1
REMARK  1 active torsions:
REMARK  status: ('A' for Active; 'I' for Inactive)
REMARK    1  A    between atoms: N_2  and  C1_3 
ROOT
ATOM      1  C1  UNL d   1       1.557  -3.593   0.433  0.00  0.00     0.143 A 
ATOM      2  C2  UNL d   1       0.472  -2.710   0.479  0.00  0.00    -0.057 A 
ATOM      3  C3  UNL d   1       0.586  -1.450   1.078  0.00  0.00     0.033 A 
ATOM      4  C4  UNL d   1       1.783  -1.060   1.670  0.00  0.00    -0.042 A 
ATOM      5  C5  UNL d   1       2.867  -1.931   1.658  0.00  0.00     0.033 A 
ATOM      6  C6  UNL d   1       2.749  -3.185   1.053  0.00  0.00    -0.057 A 
ENDROOT
BRANCH   1   7
ATOM      7  N   UNL d   1       1.478  -4.897  -0.060  0.00  0.00    -0.732 N 
ATOM      8  C   UNL d   1       2.244  -5.963   0.549  0.00  0.00     0.284 C 
ATOM      9  H3  UNL d   1       0.529  -5.160  -0.314  0.00  0.00     0.395 HD
ENDBRANCH   1   7
TORSDOF 1
ENDMDL
