MODEL 1
REMARK minimizedAffinity 8.37653923
REMARK minimizedRMSD -1
REMARK  1 active torsions:
REMARK  status: ('A' for Active; 'I' for Inactive)
REMARK    1  A    between atoms: N_2  and  C1_3 
ROOT
ATOM      1  C1  UNL d   1       0.682  -2.028   1.191  0.00  0.00     0.143 A 
ATOM      2  C2  UNL d   1       1.929  -1.398   1.120  0.00  0.00    -0.057 A 
ATOM      3  C3  UNL d   1       3.086  -2.112   0.784  0.00  0.00     0.033 A 
ATOM      4  C4  UNL d   1       3.019  -3.480   0.541  0.00  0.00    -0.042 A 
ATOM      5  C5  UNL d   1       1.795  -4.132   0.630  0.00  0.00     0.033 A 
ATOM      6  C6  UNL d   1       0.642  -3.412   0.959  0.00  0.00    -0.057 A 
ENDROOT
BRANCH   1   7
ATOM      7  N   UNL d   1      -0.487  -1.393   1.616  0.00  0.00    -0.732 N 
ATOM      8  C   UNL d   1      -1.666  -2.164   1.947  0.00  0.00     0.284 C 
ATOM      9  H3  UNL d   1      -0.301  -0.623   2.254  0.00  0.00     0.395 HD
ENDBRANCH   1   7
TORSDOF 1
ENDMDL
