MODEL 1
REMARK minimizedAffinity 6.281353
REMARK minimizedRMSD -1
REMARK  1 active torsions:
REMARK  status: ('A' for Active; 'I' for Inactive)
REMARK    1  A    between atoms: N_2  and  C1_3 
ROOT
ATOM      1  C1  UNL d   1      -1.969  -1.050   0.472  0.00  0.00     0.143 A 
ATOM      2  C2  UNL d   1      -1.759  -0.187  -0.608  0.00  0.00    -0.057 A 
ATOM      3  C3  UNL d   1      -2.720  -0.036  -1.615  0.00  0.00     0.033 A 
ATOM      4  C4  UNL d   1      -3.900  -0.771  -1.574  0.00  0.00    -0.042 A 
ATOM      5  C5  UNL d   1      -4.120  -1.654  -0.523  0.00  0.00     0.033 A 
ATOM      6  C6  UNL d   1      -3.159  -1.795   0.484  0.00  0.00    -0.057 A 
ENDROOT
BRANCH   1   7
ATOM      7  N   UNL d   1      -1.011  -1.317   1.453  0.00  0.00    -0.732 N 
ATOM      8  C   UNL d   1       0.396  -1.109   1.184  0.00  0.00     0.284 C 
ATOM      9  H3  UNL d   1      -1.307  -1.015   2.378  0.00  0.00     0.395 HD
ENDBRANCH   1   7
TORSDOF 1
ENDMDL
