MODEL 1
REMARK minimizedAffinity 3.24314904
REMARK minimizedRMSD -1
REMARK  1 active torsions:
REMARK  status: ('A' for Active; 'I' for Inactive)
REMARK    1  A    between atoms: N_2  and  C1_3 
ROOT
ATOM      1  C1  UNL d   1       1.123  -3.563   0.603  0.00  0.00     0.143 A 
ATOM      2  C2  UNL d   1       1.911  -3.200  -0.494  0.00  0.00    -0.057 A 
ATOM      3  C3  UNL d   1       2.530  -1.946  -0.561  0.00  0.00     0.033 A 
ATOM      4  C4  UNL d   1       2.347  -1.019   0.459  0.00  0.00    -0.042 A 
ATOM      5  C5  UNL d   1       1.548  -1.348   1.548  0.00  0.00     0.033 A 
ATOM      6  C6  UNL d   1       0.938  -2.605   1.612  0.00  0.00    -0.057 A 
ENDROOT
BRANCH   1   7
ATOM      7  N   UNL d   1       0.402  -4.757   0.682  0.00  0.00    -0.732 N 
ATOM      8  C   UNL d   1       1.066  -5.999   1.015  0.00  0.00     0.284 C 
ATOM      9  H3  UNL d   1      -0.502  -4.636   1.132  0.00  0.00     0.395 HD
ENDBRANCH   1   7
TORSDOF 1
ENDMDL
