MODEL 1
REMARK minimizedAffinity 7.20679235
REMARK minimizedRMSD -1
REMARK  1 active torsions:
REMARK  status: ('A' for Active; 'I' for Inactive)
REMARK    1  A    between atoms: N_2  and  C1_3 
ROOT
ATOM      1  C1  UNL d   1      -3.891   2.186  -4.679  0.00  0.00     0.143 A 
ATOM      2  C2  UNL d   1      -2.966   1.777  -5.645  0.00  0.00    -0.057 A 
ATOM      3  C3  UNL d   1      -1.590   1.788  -5.383  0.00  0.00     0.033 A 
ATOM      4  C4  UNL d   1      -1.113   2.237  -4.156  0.00  0.00    -0.042 A 
ATOM      5  C5  UNL d   1      -2.013   2.671  -3.190  0.00  0.00     0.033 A 
ATOM      6  C6  UNL d   1      -3.386   2.652  -3.455  0.00  0.00    -0.057 A 
ENDROOT
BRANCH   1   7
ATOM      7  N   UNL d   1      -5.264   2.292  -4.912  0.00  0.00    -0.732 N 
ATOM      8  C   UNL d   1      -5.859   3.568  -5.245  0.00  0.00     0.284 C 
ATOM      9  H3  UNL d   1      -5.628   1.510  -5.453  0.00  0.00     0.395 HD
ENDBRANCH   1   7
TORSDOF 1
ENDMDL
