MODEL 1
REMARK minimizedAffinity 8.74867725
REMARK minimizedRMSD -1
REMARK  0 active torsions:
REMARK  status: ('A' for Active; 'I' for Inactive)
ROOT
ATOM      1  C   UNL d   1      -3.791  -2.818   5.182  0.00  0.00     0.078 C 
ATOM      2  C1  UNL d   1      -3.737  -1.412   4.664  0.00  0.00    -0.077 A 
ATOM      3  C2  UNL d   1      -3.555  -0.329   5.533  0.00  0.00    -0.001 A 
ATOM      4  C3  UNL d   1      -3.516   0.975   5.038  0.00  0.00     0.003 A 
ATOM      5  C4  UNL d   1      -3.660   1.209   3.672  0.00  0.00    -0.005 A 
ATOM      6  C5  UNL d   1      -3.843   0.139   2.799  0.00  0.00     0.003 A 
ATOM      7  C6  UNL d   1      -3.882  -1.166   3.292  0.00  0.00    -0.001 A 
ENDROOT
TORSDOF 0
ENDMDL
