MODEL 1
REMARK minimizedAffinity 8.04983616
REMARK minimizedRMSD -1
REMARK  0 active torsions:
REMARK  status: ('A' for Active; 'I' for Inactive)
ROOT
ATOM      1  C   UNL d   1      -3.809  -2.422   4.983  0.00  0.00     0.078 C 
ATOM      2  C1  UNL d   1      -3.672  -0.994   4.547  0.00  0.00    -0.077 A 
ATOM      3  C2  UNL d   1      -3.797  -0.636   3.199  0.00  0.00    -0.001 A 
ATOM      4  C3  UNL d   1      -3.657   0.697   2.807  0.00  0.00     0.003 A 
ATOM      5  C4  UNL d   1      -3.390   1.681   3.756  0.00  0.00    -0.005 A 
ATOM      6  C5  UNL d   1      -3.261   1.334   5.099  0.00  0.00     0.003 A 
ATOM      7  C6  UNL d   1      -3.401   0.003   5.493  0.00  0.00    -0.001 A 
ENDROOT
TORSDOF 0
ENDMDL
