MODEL 1
REMARK minimizedAffinity 7.79406738
REMARK minimizedRMSD -1
REMARK  0 active torsions:
REMARK  status: ('A' for Active; 'I' for Inactive)
ROOT
ATOM      1  C   UNL d   1       3.658   1.419  -0.001  0.00  0.00     0.078 C 
ATOM      2  C1  UNL d   1       3.290  -0.012  -0.255  0.00  0.00    -0.077 A 
ATOM      3  C2  UNL d   1       4.085  -1.058   0.230  0.00  0.00    -0.001 A 
ATOM      4  C3  UNL d   1       3.735  -2.386  -0.023  0.00  0.00     0.003 A 
ATOM      5  C4  UNL d   1       2.591  -2.680  -0.762  0.00  0.00    -0.005 A 
ATOM      6  C5  UNL d   1       1.795  -1.645  -1.251  0.00  0.00     0.003 A 
ATOM      7  C6  UNL d   1       2.143  -0.317  -0.999  0.00  0.00    -0.001 A 
ENDROOT
TORSDOF 0
ENDMDL
