MODEL 1
REMARK minimizedAffinity 5.14035416
REMARK minimizedRMSD -1
REMARK  0 active torsions:
REMARK  status: ('A' for Active; 'I' for Inactive)
ROOT
ATOM      1  C   UNL d   1       3.020  -2.403   0.094  0.00  0.00     0.078 C 
ATOM      2  C1  UNL d   1       3.294  -0.932   0.003  0.00  0.00    -0.077 A 
ATOM      3  C2  UNL d   1       4.336  -0.346   0.730  0.00  0.00    -0.001 A 
ATOM      4  C3  UNL d   1       4.573   1.027   0.643  0.00  0.00     0.003 A 
ATOM      5  C4  UNL d   1       3.771   1.825  -0.169  0.00  0.00    -0.005 A 
ATOM      6  C5  UNL d   1       2.729   1.252  -0.895  0.00  0.00     0.003 A 
ATOM      7  C6  UNL d   1       2.491  -0.121  -0.810  0.00  0.00    -0.001 A 
ENDROOT
TORSDOF 0
ENDMDL
