MODEL 1
REMARK minimizedAffinity 3.4016118
REMARK minimizedRMSD -1
REMARK  0 active torsions:
REMARK  status: ('A' for Active; 'I' for Inactive)
ROOT
ATOM      1  C   UNL d   1      -1.738   2.007  -4.229  0.00  0.00     0.078 C 
ATOM      2  C1  UNL d   1      -2.188   3.394  -4.579  0.00  0.00    -0.077 A 
ATOM      3  C2  UNL d   1      -3.021   3.626  -5.680  0.00  0.00    -0.001 A 
ATOM      4  C3  UNL d   1      -3.424   4.923  -6.000  0.00  0.00     0.003 A 
ATOM      5  C4  UNL d   1      -2.997   5.999  -5.225  0.00  0.00    -0.005 A 
ATOM      6  C5  UNL d   1      -2.166   5.779  -4.128  0.00  0.00     0.003 A 
ATOM      7  C6  UNL d   1      -1.762   4.482  -3.807  0.00  0.00    -0.001 A 
ENDROOT
TORSDOF 0
ENDMDL
