MODEL 1
REMARK minimizedAffinity 10.7523432
REMARK minimizedRMSD -1
REMARK  0 active torsions:
REMARK  status: ('A' for Active; 'I' for Inactive)
ROOT
ATOM      1  C   UNL d   1       1.899  -1.435  -1.340  0.00  0.00     0.078 C 
ATOM      2  C1  UNL d   1       2.785  -0.294  -0.938  0.00  0.00    -0.077 A 
ATOM      3  C2  UNL d   1       2.547   1.004  -1.406  0.00  0.00    -0.001 A 
ATOM      4  C3  UNL d   1       3.387   2.054  -1.032  0.00  0.00     0.003 A 
ATOM      5  C4  UNL d   1       4.471   1.817  -0.189  0.00  0.00    -0.005 A 
ATOM      6  C5  UNL d   1       4.717   0.528   0.280  0.00  0.00     0.003 A 
ATOM      7  C6  UNL d   1       3.879  -0.523  -0.093  0.00  0.00    -0.001 A 
ENDROOT
TORSDOF 0
ENDMDL
