MODEL 1
REMARK minimizedAffinity 20.6312733
REMARK minimizedRMSD -1
REMARK  0 active torsions:
REMARK  status: ('A' for Active; 'I' for Inactive)
ROOT
ATOM      1  C   UNL d   1       4.278   1.693   0.536  0.00  0.00     0.078 C 
ATOM      2  C1  UNL d   1       3.613   0.394   0.192  0.00  0.00    -0.077 A 
ATOM      3  C2  UNL d   1       4.209  -0.830   0.521  0.00  0.00    -0.001 A 
ATOM      4  C3  UNL d   1       3.583  -2.032   0.186  0.00  0.00     0.003 A 
ATOM      5  C4  UNL d   1       2.360  -2.022  -0.481  0.00  0.00    -0.005 A 
ATOM      6  C5  UNL d   1       1.761  -0.809  -0.815  0.00  0.00     0.003 A 
ATOM      7  C6  UNL d   1       2.385   0.394  -0.481  0.00  0.00    -0.001 A 
ENDROOT
TORSDOF 0
ENDMDL
