MODEL 1
REMARK minimizedAffinity 16.1347122
REMARK minimizedRMSD -1
REMARK  0 active torsions:
REMARK  status: ('A' for Active; 'I' for Inactive)
ROOT
ATOM      1  C   UNL d   1      -3.154  -0.359   3.608  0.00  0.00     0.078 C 
ATOM      2  C1  UNL d   1      -2.025   0.437   3.025  0.00  0.00    -0.077 A 
ATOM      3  C2  UNL d   1      -0.698   0.178   3.387  0.00  0.00    -0.001 A 
ATOM      4  C3  UNL d   1       0.343   0.933   2.845  0.00  0.00     0.003 A 
ATOM      5  C4  UNL d   1       0.067   1.954   1.937  0.00  0.00    -0.005 A 
ATOM      6  C5  UNL d   1      -1.251   2.222   1.573  0.00  0.00     0.003 A 
ATOM      7  C6  UNL d   1      -2.293   1.467   2.114  0.00  0.00    -0.001 A 
ENDROOT
TORSDOF 0
ENDMDL
