MODEL 1
REMARK minimizedAffinity 3.58412123
REMARK minimizedRMSD -1
REMARK  0 active torsions:
REMARK  status: ('A' for Active; 'I' for Inactive)
ROOT
ATOM      1  C   UNL d   1       4.180   1.704   0.264  0.00  0.00     0.078 C 
ATOM      2  C1  UNL d   1       3.741   0.285   0.056  0.00  0.00    -0.077 A 
ATOM      3  C2  UNL d   1       2.646  -0.019  -0.763  0.00  0.00    -0.001 A 
ATOM      4  C3  UNL d   1       2.243  -1.343  -0.940  0.00  0.00     0.003 A 
ATOM      5  C4  UNL d   1       2.928  -2.375  -0.300  0.00  0.00    -0.005 A 
ATOM      6  C5  UNL d   1       4.017  -2.082   0.518  0.00  0.00     0.003 A 
ATOM      7  C6  UNL d   1       4.422  -0.758   0.696  0.00  0.00    -0.001 A 
ENDROOT
TORSDOF 0
ENDMDL
