MODEL 1
REMARK minimizedAffinity 12.8638277
REMARK minimizedRMSD -1
REMARK  0 active torsions:
REMARK  status: ('A' for Active; 'I' for Inactive)
ROOT
ATOM      1  C   UNL d   1       2.701  -0.955  -1.042  0.00  0.00     0.078 C 
ATOM      2  C1  UNL d   1       3.085  -2.306  -0.518  0.00  0.00    -0.077 A 
ATOM      3  C2  UNL d   1       2.109  -3.247  -0.167  0.00  0.00    -0.001 A 
ATOM      4  C3  UNL d   1       2.481  -4.498   0.329  0.00  0.00     0.003 A 
ATOM      5  C4  UNL d   1       3.829  -4.818   0.480  0.00  0.00    -0.005 A 
ATOM      6  C5  UNL d   1       4.806  -3.887   0.136  0.00  0.00     0.003 A 
ATOM      7  C6  UNL d   1       4.437  -2.636  -0.360  0.00  0.00    -0.001 A 
ENDROOT
TORSDOF 0
ENDMDL
