MODEL 1
REMARK minimizedAffinity 15.3995886
REMARK minimizedRMSD -1
REMARK  0 active torsions:
REMARK  status: ('A' for Active; 'I' for Inactive)
ROOT
ATOM      1  C   UNL d   1      -2.917   0.156   1.786  0.00  0.00     0.078 C 
ATOM      2  C1  UNL d   1      -1.565   0.413   2.383  0.00  0.00    -0.077 A 
ATOM      3  C2  UNL d   1      -0.645  -0.627   2.559  0.00  0.00    -0.001 A 
ATOM      4  C3  UNL d   1       0.606  -0.374   3.125  0.00  0.00     0.003 A 
ATOM      5  C4  UNL d   1       0.947   0.918   3.521  0.00  0.00    -0.005 A 
ATOM      6  C5  UNL d   1       0.036   1.959   3.351  0.00  0.00     0.003 A 
ATOM      7  C6  UNL d   1      -1.215   1.708   2.786  0.00  0.00    -0.001 A 
ENDROOT
TORSDOF 0
ENDMDL
