MODEL 1
REMARK minimizedAffinity 12.3071032
REMARK minimizedRMSD -1
REMARK  0 active torsions:
REMARK  status: ('A' for Active; 'I' for Inactive)
ROOT
ATOM      1  C   UNL d   1      -4.159  -2.047   2.035  0.00  0.00     0.078 C 
ATOM      2  C1  UNL d   1      -3.401  -0.796   2.364  0.00  0.00    -0.077 A 
ATOM      3  C2  UNL d   1      -2.092  -0.603   1.904  0.00  0.00    -0.001 A 
ATOM      4  C3  UNL d   1      -1.395   0.563   2.226  0.00  0.00     0.003 A 
ATOM      5  C4  UNL d   1      -1.998   1.544   3.010  0.00  0.00    -0.005 A 
ATOM      6  C5  UNL d   1      -3.298   1.360   3.475  0.00  0.00     0.003 A 
ATOM      7  C6  UNL d   1      -3.997   0.195   3.154  0.00  0.00    -0.001 A 
ENDROOT
TORSDOF 0
ENDMDL
