MODEL 1
REMARK minimizedAffinity 2.83800268
REMARK minimizedRMSD -1
REMARK  0 active torsions:
REMARK  status: ('A' for Active; 'I' for Inactive)
ROOT
ATOM      1  C   UNL d   1       4.152   1.082   0.701  0.00  0.00     0.078 C 
ATOM      2  C1  UNL d   1       3.834  -0.284   0.169  0.00  0.00    -0.077 A 
ATOM      3  C2  UNL d   1       2.830  -0.469  -0.789  0.00  0.00    -0.001 A 
ATOM      4  C3  UNL d   1       2.539  -1.747  -1.268  0.00  0.00     0.003 A 
ATOM      5  C4  UNL d   1       3.246  -2.850  -0.793  0.00  0.00    -0.005 A 
ATOM      6  C5  UNL d   1       4.245  -2.676   0.162  0.00  0.00     0.003 A 
ATOM      7  C6  UNL d   1       4.538  -1.399   0.642  0.00  0.00    -0.001 A 
ENDROOT
TORSDOF 0
ENDMDL
