MODEL 1
REMARK minimizedAffinity 8.2628727
REMARK minimizedRMSD -1
REMARK  0 active torsions:
REMARK  status: ('A' for Active; 'I' for Inactive)
ROOT
ATOM      1  C   UNL d   1      -2.338  -2.607  -4.733  0.00  0.00     0.078 C 
ATOM      2  C1  UNL d   1      -3.617  -3.250  -5.181  0.00  0.00    -0.077 A 
ATOM      3  C2  UNL d   1      -4.801  -2.508  -5.280  0.00  0.00    -0.001 A 
ATOM      4  C3  UNL d   1      -5.986  -3.122  -5.688  0.00  0.00     0.003 A 
ATOM      5  C4  UNL d   1      -6.000  -4.480  -6.000  0.00  0.00    -0.005 A 
ATOM      6  C5  UNL d   1      -4.827  -5.226  -5.902  0.00  0.00     0.003 A 
ATOM      7  C6  UNL d   1      -3.641  -4.615  -5.494  0.00  0.00    -0.001 A 
ENDROOT
TORSDOF 0
ENDMDL
