MODEL 1
REMARK minimizedAffinity 3.13670206
REMARK minimizedRMSD -1
REMARK  0 active torsions:
REMARK  status: ('A' for Active; 'I' for Inactive)
ROOT
ATOM      1  C   UNL d   1      -3.850  -3.383  -6.000  0.00  0.00     0.078 C 
ATOM      2  C1  UNL d   1      -2.744  -3.775  -5.066  0.00  0.00    -0.077 A 
ATOM      3  C2  UNL d   1      -1.416  -3.834  -5.505  0.00  0.00    -0.001 A 
ATOM      4  C3  UNL d   1      -0.398  -4.210  -4.628  0.00  0.00     0.003 A 
ATOM      5  C4  UNL d   1      -0.698  -4.532  -3.306  0.00  0.00    -0.005 A 
ATOM      6  C5  UNL d   1      -2.017  -4.479  -2.860  0.00  0.00     0.003 A 
ATOM      7  C6  UNL d   1      -3.036  -4.103  -3.736  0.00  0.00    -0.001 A 
ENDROOT
TORSDOF 0
ENDMDL
