MODEL 1
REMARK minimizedAffinity 6.45864582
REMARK minimizedRMSD -1
REMARK  0 active torsions:
REMARK  status: ('A' for Active; 'I' for Inactive)
ROOT
ATOM      1  C   UNL d   1      -3.421   0.513   2.457  0.00  0.00     0.078 C 
ATOM      2  C1  UNL d   1      -1.983   0.737   2.817  0.00  0.00    -0.077 A 
ATOM      3  C2  UNL d   1      -1.101  -0.341   2.968  0.00  0.00    -0.001 A 
ATOM      4  C3  UNL d   1       0.233  -0.118   3.313  0.00  0.00     0.003 A 
ATOM      5  C4  UNL d   1       0.697   1.181   3.512  0.00  0.00    -0.005 A 
ATOM      6  C5  UNL d   1      -0.174   2.259   3.367  0.00  0.00     0.003 A 
ATOM      7  C6  UNL d   1      -1.508   2.038   3.022  0.00  0.00    -0.001 A 
ENDROOT
TORSDOF 0
ENDMDL
