MODEL 1
REMARK minimizedAffinity 12.1656923
REMARK minimizedRMSD -1
REMARK  0 active torsions:
REMARK  status: ('A' for Active; 'I' for Inactive)
ROOT
ATOM      1  C   UNL d   1       1.400  -0.134   3.762  0.00  0.00     0.020 A 
ATOM      2  C1  UNL d   1       0.784   0.034   2.522  0.00  0.00     0.020 A 
ATOM      3  C2  UNL d   1      -0.091   1.103   2.316  0.00  0.00     0.034 A 
ATOM      4  C3  UNL d   1      -0.353   2.007   3.352  0.00  0.00     0.017 A 
ATOM      5  C4  UNL d   1       0.266   1.838   4.596  0.00  0.00     0.017 A 
ATOM      6  C5  UNL d   1       1.141   0.766   4.796  0.00  0.00     0.034 A 
ATOM      7 Cl   UNL d   1      -0.007   2.913   5.921  0.00  0.00    -0.070 Cl
ATOM      8 Cl1  UNL d   1      -1.445   3.306   3.027  0.00  0.00    -0.070 Cl
ENDROOT
TORSDOF 0
ENDMDL
