MODEL 1
REMARK minimizedAffinity 14.5174284
REMARK minimizedRMSD -1
REMARK  0 active torsions:
REMARK  status: ('A' for Active; 'I' for Inactive)
ROOT
ATOM      1  C   UNL d   1       1.403  -1.409   4.018  0.00  0.00     0.020 A 
ATOM      2  C1  UNL d   1       1.401  -0.171   3.377  0.00  0.00     0.020 A 
ATOM      3  C2  UNL d   1       2.479   0.702   3.540  0.00  0.00     0.034 A 
ATOM      4  C3  UNL d   1       3.564   0.337   4.346  0.00  0.00     0.017 A 
ATOM      5  C4  UNL d   1       3.565  -0.905   4.989  0.00  0.00     0.017 A 
ATOM      6  C5  UNL d   1       2.482  -1.775   4.823  0.00  0.00     0.034 A 
ATOM      7 Cl   UNL d   1       4.867  -1.425   6.000  0.00  0.00    -0.070 Cl
ATOM      8 Cl1  UNL d   1       4.863   1.465   4.502  0.00  0.00    -0.070 Cl
ENDROOT
TORSDOF 0
ENDMDL
