MODEL 1
REMARK minimizedAffinity 7.08042002
REMARK minimizedRMSD -1
REMARK  0 active torsions:
REMARK  status: ('A' for Active; 'I' for Inactive)
ROOT
ATOM      1  C   UNL d   1      -2.820  -0.669   1.138  0.00  0.00     0.020 A 
ATOM      2  C1  UNL d   1      -2.849   0.540   1.832  0.00  0.00     0.020 A 
ATOM      3  C2  UNL d   1      -3.468   1.656   1.265  0.00  0.00     0.034 A 
ATOM      4  C3  UNL d   1      -4.060   1.565  -0.000  0.00  0.00     0.017 A 
ATOM      5  C4  UNL d   1      -4.031   0.351  -0.696  0.00  0.00     0.017 A 
ATOM      6  C5  UNL d   1      -3.409  -0.763  -0.123  0.00  0.00     0.034 A 
ATOM      7 Cl   UNL d   1      -4.740   0.162  -2.260  0.00  0.00    -0.070 Cl
ATOM      8 Cl1  UNL d   1      -4.808   2.985  -0.641  0.00  0.00    -0.070 Cl
ENDROOT
TORSDOF 0
ENDMDL
