MODEL 1
REMARK minimizedAffinity 6.40565538
REMARK minimizedRMSD -1
REMARK  0 active torsions:
REMARK  status: ('A' for Active; 'I' for Inactive)
ROOT
ATOM      1  C   UNL d   1      -0.080  -0.992  -4.499  0.00  0.00     0.020 A 
ATOM      2  C1  UNL d   1       0.048  -1.142  -3.118  0.00  0.00     0.020 A 
ATOM      3  C2  UNL d   1      -0.451  -2.285  -2.490  0.00  0.00     0.034 A 
ATOM      4  C3  UNL d   1      -1.081  -3.283  -3.242  0.00  0.00     0.017 A 
ATOM      5  C4  UNL d   1      -1.209  -3.132  -4.628  0.00  0.00     0.017 A 
ATOM      6  C5  UNL d   1      -0.707  -1.986  -5.252  0.00  0.00     0.034 A 
ATOM      7 Cl   UNL d   1      -1.973  -4.321  -5.623  0.00  0.00    -0.070 Cl
ATOM      8 Cl1  UNL d   1      -1.674  -4.670  -2.400  0.00  0.00    -0.070 Cl
ENDROOT
TORSDOF 0
ENDMDL
