MODEL 1
REMARK minimizedAffinity 7.57447958
REMARK minimizedRMSD -1
REMARK  0 active torsions:
REMARK  status: ('A' for Active; 'I' for Inactive)
ROOT
ATOM      1  C   UNL d   1      -1.457  -2.236  -1.098  0.00  0.00     0.020 A 
ATOM      2  C1  UNL d   1      -2.044  -3.433  -1.506  0.00  0.00     0.020 A 
ATOM      3  C2  UNL d   1      -1.939  -3.844  -2.837  0.00  0.00     0.034 A 
ATOM      4  C3  UNL d   1      -1.246  -3.057  -3.764  0.00  0.00     0.017 A 
ATOM      5  C4  UNL d   1      -0.657  -1.855  -3.353  0.00  0.00     0.017 A 
ATOM      6  C5  UNL d   1      -0.765  -1.449  -2.020  0.00  0.00     0.034 A 
ATOM      7 Cl   UNL d   1       0.214  -0.831  -4.439  0.00  0.00    -0.070 Cl
ATOM      8 Cl1  UNL d   1      -1.156  -3.626  -5.393  0.00  0.00    -0.070 Cl
ENDROOT
TORSDOF 0
ENDMDL
