MODEL 1
REMARK minimizedAffinity 5.42300749
REMARK minimizedRMSD -1
REMARK  0 active torsions:
REMARK  status: ('A' for Active; 'I' for Inactive)
ROOT
ATOM      1  C   UNL d   1       1.137  -1.140   2.829  0.00  0.00     0.020 A 
ATOM      2  C1  UNL d   1       0.307  -1.757   1.894  0.00  0.00     0.020 A 
ATOM      3  C2  UNL d   1      -0.878  -1.135   1.495  0.00  0.00     0.034 A 
ATOM      4  C3  UNL d   1      -1.237   0.107   2.033  0.00  0.00     0.017 A 
ATOM      5  C4  UNL d   1      -0.403   0.725   2.971  0.00  0.00     0.017 A 
ATOM      6  C5  UNL d   1       0.783   0.098   3.366  0.00  0.00     0.034 A 
ATOM      7 Cl   UNL d   1      -0.778   2.257   3.678  0.00  0.00    -0.070 Cl
ATOM      8 Cl1  UNL d   1      -2.717   0.818   1.494  0.00  0.00    -0.070 Cl
ENDROOT
TORSDOF 0
ENDMDL
