MODEL 1
REMARK minimizedAffinity 7.08328867
REMARK minimizedRMSD -1
REMARK  0 active torsions:
REMARK  status: ('A' for Active; 'I' for Inactive)
ROOT
ATOM      1  C   UNL d   1       1.783  -1.039   4.776  0.00  0.00     0.020 A 
ATOM      2  C1  UNL d   1       1.662  -2.255   4.105  0.00  0.00     0.020 A 
ATOM      3  C2  UNL d   1       0.901  -2.337   2.937  0.00  0.00     0.034 A 
ATOM      4  C3  UNL d   1       0.257  -1.200   2.436  0.00  0.00     0.017 A 
ATOM      5  C4  UNL d   1       0.379   0.021   3.110  0.00  0.00     0.017 A 
ATOM      6  C5  UNL d   1       1.142   0.097   4.279  0.00  0.00     0.034 A 
ATOM      7 Cl   UNL d   1      -0.387   1.467   2.552  0.00  0.00    -0.070 Cl
ATOM      8 Cl1  UNL d   1      -0.667  -1.373   0.987  0.00  0.00    -0.070 Cl
ENDROOT
TORSDOF 0
ENDMDL
