MODEL 1
REMARK minimizedAffinity 5.70584059
REMARK minimizedRMSD -1
REMARK  0 active torsions:
REMARK  status: ('A' for Active; 'I' for Inactive)
ROOT
ATOM      1  C   UNL d   1       0.710   0.422  -3.378  0.00  0.00     0.020 A 
ATOM      2  C1  UNL d   1       1.373   0.228  -4.589  0.00  0.00     0.020 A 
ATOM      3  C2  UNL d   1       1.186  -0.956  -5.306  0.00  0.00     0.034 A 
ATOM      4  C3  UNL d   1       0.333  -1.950  -4.812  0.00  0.00     0.017 A 
ATOM      5  C4  UNL d   1      -0.331  -1.754  -3.596  0.00  0.00     0.017 A 
ATOM      6  C5  UNL d   1      -0.140  -0.567  -2.882  0.00  0.00     0.034 A 
ATOM      7 Cl   UNL d   1      -1.399  -2.935  -2.922  0.00  0.00    -0.070 Cl
ATOM      8 Cl1  UNL d   1       0.148  -3.389  -5.751  0.00  0.00    -0.070 Cl
ENDROOT
TORSDOF 0
ENDMDL
