MODEL 1
REMARK minimizedAffinity 9.74640942
REMARK minimizedRMSD -1
REMARK  0 active torsions:
REMARK  status: ('A' for Active; 'I' for Inactive)
ROOT
ATOM      1  C   UNL d   1      -2.255  -5.576  -4.894  0.00  0.00     0.020 A 
ATOM      2  C1  UNL d   1      -1.611  -5.021  -5.999  0.00  0.00     0.020 A 
ATOM      3  C2  UNL d   1      -1.033  -3.753  -5.906  0.00  0.00     0.034 A 
ATOM      4  C3  UNL d   1      -1.099  -3.035  -4.706  0.00  0.00     0.017 A 
ATOM      5  C4  UNL d   1      -1.746  -3.593  -3.598  0.00  0.00     0.017 A 
ATOM      6  C5  UNL d   1      -2.322  -4.863  -3.696  0.00  0.00     0.034 A 
ATOM      7 Cl   UNL d   1      -1.867  -2.769  -2.084  0.00  0.00    -0.070 Cl
ATOM      8 Cl1  UNL d   1      -0.363  -1.473  -4.663  0.00  0.00    -0.070 Cl
ENDROOT
TORSDOF 0
ENDMDL
