MODEL 1
REMARK minimizedAffinity 13.6070709
REMARK minimizedRMSD -1
REMARK  0 active torsions:
REMARK  status: ('A' for Active; 'I' for Inactive)
ROOT
ATOM      1  C   UNL d   1      -0.169  -1.419  -0.016  0.00  0.00     0.020 A 
ATOM      2  C1  UNL d   1       0.897  -2.159   0.493  0.00  0.00     0.020 A 
ATOM      3  C2  UNL d   1       1.529  -1.754   1.671  0.00  0.00     0.034 A 
ATOM      4  C3  UNL d   1       1.095  -0.605   2.343  0.00  0.00     0.017 A 
ATOM      5  C4  UNL d   1       0.025   0.137   1.831  0.00  0.00     0.017 A 
ATOM      6  C5  UNL d   1      -0.604  -0.274   0.651  0.00  0.00     0.034 A 
ATOM      7 Cl   UNL d   1      -0.567   1.565   2.604  0.00  0.00    -0.070 Cl
ATOM      8 Cl1  UNL d   1       1.922  -0.163   3.794  0.00  0.00    -0.070 Cl
ENDROOT
TORSDOF 0
ENDMDL
