MODEL 1
REMARK minimizedAffinity 14.2267532
REMARK minimizedRMSD -1
REMARK  0 active torsions:
REMARK  status: ('A' for Active; 'I' for Inactive)
ROOT
ATOM      1  C   UNL d   1      -1.213  -1.993  -2.303  0.00  0.00     0.020 A 
ATOM      2  C1  UNL d   1      -0.078  -1.670  -1.559  0.00  0.00     0.020 A 
ATOM      3  C2  UNL d   1       1.021  -1.077  -2.184  0.00  0.00     0.034 A 
ATOM      4  C3  UNL d   1       0.988  -0.806  -3.557  0.00  0.00     0.017 A 
ATOM      5  C4  UNL d   1      -0.151  -1.130  -4.302  0.00  0.00     0.017 A 
ATOM      6  C5  UNL d   1      -1.249  -1.724  -3.671  0.00  0.00     0.034 A 
ATOM      7 Cl   UNL d   1      -0.266  -0.826  -6.000  0.00  0.00    -0.070 Cl
ATOM      8 Cl1  UNL d   1       2.383  -0.071  -4.264  0.00  0.00    -0.070 Cl
ENDROOT
TORSDOF 0
ENDMDL
