MODEL 1
REMARK minimizedAffinity 13.6920843
REMARK minimizedRMSD -1
REMARK  0 active torsions:
REMARK  status: ('A' for Active; 'I' for Inactive)
ROOT
ATOM      1  C   UNL d   1       4.531   1.380   3.518  0.00  0.00     0.020 A 
ATOM      2  C1  UNL d   1       3.314   1.296   2.842  0.00  0.00     0.020 A 
ATOM      3  C2  UNL d   1       2.629   0.081   2.786  0.00  0.00     0.034 A 
ATOM      4  C3  UNL d   1       3.159  -1.056   3.408  0.00  0.00     0.017 A 
ATOM      5  C4  UNL d   1       4.380  -0.971   4.086  0.00  0.00     0.017 A 
ATOM      6  C5  UNL d   1       5.063   0.248   4.138  0.00  0.00     0.034 A 
ATOM      7 Cl   UNL d   1       5.098  -2.330   4.877  0.00  0.00    -0.070 Cl
ATOM      8 Cl1  UNL d   1       2.257  -2.526   3.299  0.00  0.00    -0.070 Cl
ENDROOT
TORSDOF 0
ENDMDL
