MODEL 1
REMARK minimizedAffinity 11.6697865
REMARK minimizedRMSD -1
REMARK  0 active torsions:
REMARK  status: ('A' for Active; 'I' for Inactive)
ROOT
ATOM      1  C   UNL d   1      -1.120  -2.443  -1.867  0.00  0.00     0.020 A 
ATOM      2  C1  UNL d   1      -1.872  -2.810  -2.982  0.00  0.00     0.020 A 
ATOM      3  C2  UNL d   1      -1.519  -2.339  -4.249  0.00  0.00     0.034 A 
ATOM      4  C3  UNL d   1      -0.410  -1.498  -4.403  0.00  0.00     0.017 A 
ATOM      5  C4  UNL d   1       0.344  -1.130  -3.283  0.00  0.00     0.017 A 
ATOM      6  C5  UNL d   1      -0.014  -1.605  -2.017  0.00  0.00     0.034 A 
ATOM      7 Cl   UNL d   1       1.725  -0.097  -3.394  0.00  0.00    -0.070 Cl
ATOM      8 Cl1  UNL d   1      -0.031  -0.953  -5.998  0.00  0.00    -0.070 Cl
ENDROOT
TORSDOF 0
ENDMDL
