MODEL 1
REMARK minimizedAffinity 10.7444468
REMARK minimizedRMSD -1
REMARK  0 active torsions:
REMARK  status: ('A' for Active; 'I' for Inactive)
ROOT
ATOM      1  C   UNL d   1       0.392  -2.101  -1.267  0.00  0.00     0.020 A 
ATOM      2  C1  UNL d   1      -0.758  -1.796  -1.993  0.00  0.00     0.020 A 
ATOM      3  C2  UNL d   1      -0.652  -1.276  -3.285  0.00  0.00     0.034 A 
ATOM      4  C3  UNL d   1       0.608  -1.059  -3.854  0.00  0.00     0.017 A 
ATOM      5  C4  UNL d   1       1.762  -1.365  -3.125  0.00  0.00     0.017 A 
ATOM      6  C5  UNL d   1       1.650  -1.886  -1.832  0.00  0.00     0.034 A 
ATOM      7 Cl   UNL d   1       3.351  -1.124  -3.761  0.00  0.00    -0.070 Cl
ATOM      8 Cl1  UNL d   1       0.665  -0.413  -5.456  0.00  0.00    -0.070 Cl
ENDROOT
TORSDOF 0
ENDMDL
