MODEL 1
REMARK minimizedAffinity -2.4505074
REMARK minimizedRMSD -1
REMARK  1 active torsions:
REMARK  status: ('A' for Active; 'I' for Inactive)
REMARK    1  A    between atoms: C1_2  and  C2_3 
ROOT
ATOM      1  C2  UNL d   1       0.181   0.491   0.065  0.00  0.00    -0.081 A 
ATOM      2  C3  UNL d   1      -0.917  -0.135   0.668  0.00  0.00     0.006 A 
ATOM      3  C4  UNL d   1      -0.965  -1.526   0.780  0.00  0.00     0.002 A 
ATOM      4  C5  UNL d   1       0.086  -2.314   0.298  0.00  0.00    -0.080 A 
ATOM      5  C6  UNL d   1       0.060  -3.807   0.440  0.00  0.00     0.076 C 
ATOM      6  C7  UNL d   1       1.174  -1.690  -0.320  0.00  0.00     0.002 A 
ATOM      7  C8  UNL d   1       1.223  -0.299  -0.433  0.00  0.00     0.006 A 
ENDROOT
BRANCH   1   8
ATOM      8  C1  UNL d   1       0.266   1.995   0.000  0.00  0.00     0.054 C 
ATOM      9  C   UNL d   1       1.634   2.491   0.445  0.00  0.00     0.018 C 
ENDBRANCH   1   8
TORSDOF 1
ENDMDL
