MODEL 1
REMARK minimizedAffinity -3.60473156
REMARK minimizedRMSD -1
REMARK  1 active torsions:
REMARK  status: ('A' for Active; 'I' for Inactive)
REMARK    1  A    between atoms: C1_2  and  C2_3 
ROOT
ATOM      1  C2  UNL d   1       0.138   0.399  -0.237  0.00  0.00    -0.081 A 
ATOM      2  C3  UNL d   1      -0.743  -0.113   0.723  0.00  0.00     0.006 A 
ATOM      3  C4  UNL d   1      -0.666  -1.452   1.112  0.00  0.00     0.002 A 
ATOM      4  C5  UNL d   1       0.297  -2.300   0.553  0.00  0.00    -0.080 A 
ATOM      5  C6  UNL d   1       0.409  -3.732   0.984  0.00  0.00     0.076 C 
ATOM      6  C7  UNL d   1       1.166  -1.793  -0.419  0.00  0.00     0.002 A 
ATOM      7  C8  UNL d   1       1.089  -0.454  -0.809  0.00  0.00     0.006 A 
ENDROOT
BRANCH   1   8
ATOM      8  C1  UNL d   1       0.101   1.859  -0.611  0.00  0.00     0.054 C 
ATOM      9  C   UNL d   1       0.886   2.705   0.381  0.00  0.00     0.018 C 
ENDBRANCH   1   8
TORSDOF 1
ENDMDL
