MODEL 1
REMARK minimizedAffinity -2.62315559
REMARK minimizedRMSD -1
REMARK  1 active torsions:
REMARK  status: ('A' for Active; 'I' for Inactive)
REMARK    1  A    between atoms: C1_2  and  C2_3 
ROOT
ATOM      1  C2  UNL d   1      -0.324   0.916  -0.009  0.00  0.00    -0.081 A 
ATOM      2  C3  UNL d   1      -0.958   0.161   0.985  0.00  0.00     0.006 A 
ATOM      3  C4  UNL d   1      -0.802  -1.227   1.027  0.00  0.00     0.002 A 
ATOM      4  C5  UNL d   1      -0.004  -1.881   0.082  0.00  0.00    -0.080 A 
ATOM      5  C6  UNL d   1       0.196  -3.367   0.135  0.00  0.00     0.076 C 
ATOM      6  C7  UNL d   1       0.615  -1.129  -0.921  0.00  0.00     0.002 A 
ATOM      7  C8  UNL d   1       0.459   0.259  -0.965  0.00  0.00     0.006 A 
ENDROOT
BRANCH   1   8
ATOM      8  C1  UNL d   1      -0.438   2.419  -0.020  0.00  0.00     0.054 C 
ATOM      9  C   UNL d   1       0.769   3.069   0.641  0.00  0.00     0.018 C 
ENDBRANCH   1   8
TORSDOF 1
ENDMDL
