MODEL 1
REMARK minimizedAffinity -5.53765297
REMARK minimizedRMSD -1
REMARK  1 active torsions:
REMARK  status: ('A' for Active; 'I' for Inactive)
REMARK    1  A    between atoms: C1_2  and  C2_3 
ROOT
ATOM      1  C2  UNL d   1       0.114   0.857  -0.404  0.00  0.00    -0.081 A 
ATOM      2  C3  UNL d   1      -0.524   0.376   0.745  0.00  0.00     0.006 A 
ATOM      3  C4  UNL d   1      -0.499  -0.986   1.052  0.00  0.00     0.002 A 
ATOM      4  C5  UNL d   1       0.171  -1.889   0.219  0.00  0.00    -0.080 A 
ATOM      5  C6  UNL d   1       0.232  -3.350   0.552  0.00  0.00     0.076 C 
ATOM      6  C7  UNL d   1       0.794  -1.411  -0.939  0.00  0.00     0.002 A 
ATOM      7  C8  UNL d   1       0.769  -0.048  -1.246  0.00  0.00     0.006 A 
ENDROOT
BRANCH   1   8
ATOM      8  C1  UNL d   1       0.144   2.335  -0.703  0.00  0.00     0.054 C 
ATOM      9  C   UNL d   1       0.809   3.114   0.422  0.00  0.00     0.018 C 
ENDBRANCH   1   8
TORSDOF 1
ENDMDL
