MODEL 1
REMARK minimizedAffinity -3.81233978
REMARK minimizedRMSD -1
REMARK  1 active torsions:
REMARK  status: ('A' for Active; 'I' for Inactive)
REMARK    1  A    between atoms: C1_2  and  C2_3 
ROOT
ATOM      1  C2  UNL d   1       0.308  -2.018  -1.100  0.00  0.00    -0.081 A 
ATOM      2  C3  UNL d   1       0.443  -0.961  -2.009  0.00  0.00     0.006 A 
ATOM      3  C4  UNL d   1       0.184   0.352  -1.611  0.00  0.00     0.002 A 
ATOM      4  C5  UNL d   1      -0.206   0.632  -0.297  0.00  0.00    -0.080 A 
ATOM      5  C6  UNL d   1      -0.458   2.041   0.151  0.00  0.00     0.076 C 
ATOM      6  C7  UNL d   1      -0.358  -0.425   0.606  0.00  0.00     0.002 A 
ATOM      7  C8  UNL d   1      -0.099  -1.739   0.209  0.00  0.00     0.006 A 
ENDROOT
BRANCH   1   8
ATOM      8  C1  UNL d   1       0.650  -3.428  -1.508  0.00  0.00     0.054 C 
ATOM      9  C   UNL d   1      -0.082  -4.446  -0.645  0.00  0.00     0.018 C 
ENDBRANCH   1   8
TORSDOF 1
ENDMDL
