MODEL 1
REMARK minimizedAffinity -5.30112839
REMARK minimizedRMSD -1
REMARK  1 active torsions:
REMARK  status: ('A' for Active; 'I' for Inactive)
REMARK    1  A    between atoms: C1_2  and  C2_3 
ROOT
ATOM      1  C2  UNL d   1       0.142   1.661  -0.026  0.00  0.00    -0.081 A 
ATOM      2  C3  UNL d   1      -0.216   1.060  -1.240  0.00  0.00     0.006 A 
ATOM      3  C4  UNL d   1      -0.541  -0.297  -1.289  0.00  0.00     0.002 A 
ATOM      4  C5  UNL d   1      -0.522  -1.075  -0.126  0.00  0.00    -0.080 A 
ATOM      5  C6  UNL d   1      -0.899  -2.526  -0.161  0.00  0.00     0.076 C 
ATOM      6  C7  UNL d   1      -0.148  -0.479   1.083  0.00  0.00     0.002 A 
ATOM      7  C8  UNL d   1       0.178   0.878   1.133  0.00  0.00     0.006 A 
ENDROOT
BRANCH   1   8
ATOM      8  C1  UNL d   1       0.431   3.138   0.042  0.00  0.00     0.054 C 
ATOM      9  C   UNL d   1       1.871   3.402   0.456  0.00  0.00     0.018 C 
ENDBRANCH   1   8
TORSDOF 1
ENDMDL
