MODEL 1
REMARK minimizedAffinity -2.8875823
REMARK minimizedRMSD -1
REMARK  1 active torsions:
REMARK  status: ('A' for Active; 'I' for Inactive)
REMARK    1  A    between atoms: C1_2  and  C2_3 
ROOT
ATOM      1  C2  UNL d   1       0.455  -1.704   0.315  0.00  0.00    -0.081 A 
ATOM      2  C3  UNL d   1       0.337  -0.403  -0.188  0.00  0.00     0.006 A 
ATOM      3  C4  UNL d   1      -0.830   0.336   0.027  0.00  0.00     0.002 A 
ATOM      4  C5  UNL d   1      -1.892  -0.211   0.754  0.00  0.00    -0.080 A 
ATOM      5  C6  UNL d   1      -3.138   0.582   1.017  0.00  0.00     0.076 C 
ATOM      6  C7  UNL d   1      -1.781  -1.518   1.242  0.00  0.00     0.002 A 
ATOM      7  C8  UNL d   1      -0.615  -2.257   1.027  0.00  0.00     0.006 A 
ENDROOT
BRANCH   1   8
ATOM      8  C1  UNL d   1       1.736  -2.479   0.141  0.00  0.00     0.054 C 
ATOM      9  C   UNL d   1       2.710  -2.201   1.277  0.00  0.00     0.018 C 
ENDBRANCH   1   8
TORSDOF 1
ENDMDL
