MODEL 1
REMARK minimizedAffinity -4.42530632
REMARK minimizedRMSD -1
REMARK  1 active torsions:
REMARK  status: ('A' for Active; 'I' for Inactive)
REMARK    1  A    between atoms: C1_2  and  C2_3 
ROOT
ATOM      1  C2  UNL d   1       0.088   0.829   0.223  0.00  0.00    -0.081 A 
ATOM      2  C3  UNL d   1       0.179   0.209  -1.030  0.00  0.00     0.006 A 
ATOM      3  C4  UNL d   1       0.117  -1.182  -1.138  0.00  0.00     0.002 A 
ATOM      4  C5  UNL d   1      -0.045  -1.976   0.002  0.00  0.00    -0.080 A 
ATOM      5  C6  UNL d   1      -0.143  -3.469  -0.103  0.00  0.00     0.076 C 
ATOM      6  C7  UNL d   1      -0.118  -1.359   1.256  0.00  0.00     0.002 A 
ATOM      7  C8  UNL d   1      -0.056   0.032   1.364  0.00  0.00     0.006 A 
ENDROOT
BRANCH   1   8
ATOM      8  C1  UNL d   1       0.090   2.332   0.337  0.00  0.00     0.054 C 
ATOM      9  C   UNL d   1       1.236   2.819   1.211  0.00  0.00     0.018 C 
ENDBRANCH   1   8
TORSDOF 1
ENDMDL
