MODEL 1
REMARK minimizedAffinity -3.05108404
REMARK minimizedRMSD -1
REMARK  1 active torsions:
REMARK  status: ('A' for Active; 'I' for Inactive)
REMARK    1  A    between atoms: C1_2  and  C2_3 
ROOT
ATOM      1  C2  UNL d   1      -0.010  -0.018   0.392  0.00  0.00    -0.081 A 
ATOM      2  C3  UNL d   1       1.247  -0.574   0.126  0.00  0.00     0.006 A 
ATOM      3  C4  UNL d   1       1.407  -1.959   0.045  0.00  0.00     0.002 A 
ATOM      4  C5  UNL d   1       0.311  -2.811   0.220  0.00  0.00    -0.080 A 
ATOM      5  C6  UNL d   1       0.463  -4.299   0.105  0.00  0.00     0.076 C 
ATOM      6  C7  UNL d   1      -0.942  -2.257   0.503  0.00  0.00     0.002 A 
ATOM      7  C8  UNL d   1      -1.102  -0.872   0.585  0.00  0.00     0.006 A 
ENDROOT
BRANCH   1   8
ATOM      8  C1  UNL d   1      -0.198   1.477   0.417  0.00  0.00     0.054 C 
ATOM      9  C   UNL d   1       1.140   2.203   0.395  0.00  0.00     0.018 C 
ENDBRANCH   1   8
TORSDOF 1
ENDMDL
