MODEL 1
REMARK minimizedAffinity -3.36561728
REMARK minimizedRMSD -1
REMARK  1 active torsions:
REMARK  status: ('A' for Active; 'I' for Inactive)
REMARK    1  A    between atoms: C1_2  and  C2_3 
ROOT
ATOM      1  C2  UNL d   1      -0.280   0.905   0.056  0.00  0.00    -0.081 A 
ATOM      2  C3  UNL d   1      -0.991   0.189   1.027  0.00  0.00     0.006 A 
ATOM      3  C4  UNL d   1      -0.855  -1.198   1.125  0.00  0.00     0.002 A 
ATOM      4  C5  UNL d   1      -0.000  -1.890   0.260  0.00  0.00    -0.080 A 
ATOM      5  C6  UNL d   1       0.178  -3.375   0.375  0.00  0.00     0.076 C 
ATOM      6  C7  UNL d   1       0.697  -1.177  -0.721  0.00  0.00     0.002 A 
ATOM      7  C8  UNL d   1       0.561   0.209  -0.820  0.00  0.00     0.006 A 
ENDROOT
BRANCH   1   8
ATOM      8  C1  UNL d   1      -0.375   2.408  -0.011  0.00  0.00     0.054 C 
ATOM      9  C   UNL d   1       0.766   3.069   0.750  0.00  0.00     0.018 C 
ENDBRANCH   1   8
TORSDOF 1
ENDMDL
