MODEL 1
REMARK minimizedAffinity -2.27534056
REMARK minimizedRMSD -1
REMARK  1 active torsions:
REMARK  status: ('A' for Active; 'I' for Inactive)
REMARK    1  A    between atoms: C1_2  and  C2_3 
ROOT
ATOM      1  C2  UNL d   1      -0.008   0.867  -0.401  0.00  0.00    -0.081 A 
ATOM      2  C3  UNL d   1      -0.715   0.329   0.681  0.00  0.00     0.006 A 
ATOM      3  C4  UNL d   1      -0.644  -1.037   0.965  0.00  0.00     0.002 A 
ATOM      4  C5  UNL d   1       0.140  -1.886   0.176  0.00  0.00    -0.080 A 
ATOM      5  C6  UNL d   1       0.248  -3.349   0.488  0.00  0.00     0.076 C 
ATOM      6  C7  UNL d   1       0.832  -1.352  -0.916  0.00  0.00     0.002 A 
ATOM      7  C8  UNL d   1       0.761   0.014  -1.200  0.00  0.00     0.006 A 
ENDROOT
BRANCH   1   8
ATOM      8  C1  UNL d   1      -0.031   2.350  -0.670  0.00  0.00     0.054 C 
ATOM      9  C   UNL d   1       0.869   3.102   0.300  0.00  0.00     0.018 C 
ENDBRANCH   1   8
TORSDOF 1
ENDMDL
