MODEL 1
REMARK minimizedAffinity -1.77478123
REMARK minimizedRMSD -1
REMARK  1 active torsions:
REMARK  status: ('A' for Active; 'I' for Inactive)
REMARK    1  A    between atoms: C1_2  and  C2_3 
ROOT
ATOM      1  C2  UNL d   1       0.146   0.515  -0.352  0.00  0.00    -0.081 A 
ATOM      2  C3  UNL d   1      -0.618   0.059   0.730  0.00  0.00     0.006 A 
ATOM      3  C4  UNL d   1      -0.657  -1.301   1.045  0.00  0.00     0.002 A 
ATOM      4  C5  UNL d   1       0.072  -2.226   0.290  0.00  0.00    -0.080 A 
ATOM      5  C6  UNL d   1       0.063  -3.685   0.636  0.00  0.00     0.076 C 
ATOM      6  C7  UNL d   1       0.821  -1.773  -0.802  0.00  0.00     0.002 A 
ATOM      7  C8  UNL d   1       0.860  -0.413  -1.118  0.00  0.00     0.006 A 
ENDROOT
BRANCH   1   8
ATOM      8  C1  UNL d   1       0.241   1.989  -0.655  0.00  0.00     0.054 C 
ATOM      9  C   UNL d   1       0.940   2.741   0.469  0.00  0.00     0.018 C 
ENDBRANCH   1   8
TORSDOF 1
ENDMDL
