MODEL 1
REMARK minimizedAffinity -3.54584765
REMARK minimizedRMSD -1
REMARK  1 active torsions:
REMARK  status: ('A' for Active; 'I' for Inactive)
REMARK    1  A    between atoms: C1_2  and  C2_3 
ROOT
ATOM      1  C2  UNL d   1       0.531   1.724   0.358  0.00  0.00    -0.081 A 
ATOM      2  C3  UNL d   1      -0.851   1.534   0.237  0.00  0.00     0.006 A 
ATOM      3  C4  UNL d   1      -1.409   0.264   0.404  0.00  0.00     0.002 A 
ATOM      4  C5  UNL d   1      -0.595  -0.835   0.703  0.00  0.00    -0.080 A 
ATOM      5  C6  UNL d   1      -1.184  -2.198   0.914  0.00  0.00     0.076 C 
ATOM      6  C7  UNL d   1       0.787  -0.648   0.806  0.00  0.00     0.002 A 
ATOM      7  C8  UNL d   1       1.345   0.622   0.638  0.00  0.00     0.006 A 
ENDROOT
BRANCH   1   8
ATOM      8  C1  UNL d   1       1.127   3.103   0.242  0.00  0.00     0.054 C 
ATOM      9  C   UNL d   1       2.645   3.060   0.342  0.00  0.00     0.018 C 
ENDBRANCH   1   8
TORSDOF 1
ENDMDL
