MODEL 1
REMARK minimizedAffinity 14.0438194
REMARK minimizedRMSD -1
REMARK  0 active torsions:
REMARK  status: ('A' for Active; 'I' for Inactive)
ROOT
ATOM      1  O1  BZF d   1       1.733   4.506  -0.286  0.00  0.00    -0.204 OA
ATOM      2  C2  BZF d   1       0.585   4.735  -1.019  0.00  0.00     0.174 A 
ATOM      3  C3  BZF d   1      -0.432   3.974  -0.565  0.00  0.00    -0.012 A 
ATOM      4  C3A BZF d   1       0.092   3.290   0.578  0.00  0.00    -0.107 A 
ATOM      5  C4  BZF d   1      -0.443   2.401   1.466  0.00  0.00     0.055 A 
ATOM      6  C5  BZF d   1       0.356   1.865   2.425  0.00  0.00    -0.016 A 
ATOM      7  C6  BZF d   1       1.693   2.190   2.522  0.00  0.00     0.022 A 
ATOM      8  C7  BZF d   1       2.267   3.071   1.667  0.00  0.00     0.029 A 
ATOM      9  C7A BZF d   1       1.455   3.640   0.717  0.00  0.00     0.058 A 
ENDROOT
TORSDOF 0
ENDMDL
