MODEL 1
REMARK minimizedAffinity 12.1315536
REMARK minimizedRMSD -1
REMARK  0 active torsions:
REMARK  status: ('A' for Active; 'I' for Inactive)
ROOT
ATOM      1  O1  BZF d   1       1.468  -3.760  -0.761  0.00  0.00    -0.204 OA
ATOM      2  C2  BZF d   1       0.755  -4.939  -0.863  0.00  0.00     0.174 A 
ATOM      3  C3  BZF d   1       1.588  -5.994  -0.971  0.00  0.00    -0.012 A 
ATOM      4  C3A BZF d   1       2.905  -5.449  -0.843  0.00  0.00    -0.107 A 
ATOM      5  C4  BZF d   1       4.154  -6.000  -0.851  0.00  0.00     0.055 A 
ATOM      6  C5  BZF d   1       5.237  -5.182  -0.775  0.00  0.00    -0.016 A 
ATOM      7  C6  BZF d   1       5.107  -3.811  -0.696  0.00  0.00     0.022 A 
ATOM      8  C7  BZF d   1       3.889  -3.219  -0.680  0.00  0.00     0.029 A 
ATOM      9  C7A BZF d   1       2.792  -4.044  -0.723  0.00  0.00     0.058 A 
ENDROOT
TORSDOF 0
ENDMDL
