MODEL 1
REMARK minimizedAffinity 5.4702301
REMARK minimizedRMSD -1
REMARK  0 active torsions:
REMARK  status: ('A' for Active; 'I' for Inactive)
ROOT
ATOM      1  O1  BZF d   1      -4.286   2.469  -5.420  0.00  0.00    -0.204 OA
ATOM      2  C2  BZF d   1      -5.187   1.597  -6.000  0.00  0.00     0.174 A 
ATOM      3  C3  BZF d   1      -5.951   1.003  -5.060  0.00  0.00    -0.012 A 
ATOM      4  C3A BZF d   1      -5.561   1.606  -3.822  0.00  0.00    -0.107 A 
ATOM      5  C4  BZF d   1      -5.971   1.445  -2.530  0.00  0.00     0.055 A 
ATOM      6  C5  BZF d   1      -5.336   2.134  -1.545  0.00  0.00    -0.016 A 
ATOM      7  C6  BZF d   1      -4.286   2.987  -1.816  0.00  0.00     0.022 A 
ATOM      8  C7  BZF d   1      -3.847   3.182  -3.084  0.00  0.00     0.029 A 
ATOM      9  C7A BZF d   1      -4.508   2.513  -4.084  0.00  0.00     0.058 A 
ENDROOT
TORSDOF 0
ENDMDL
