MODEL 1
REMARK minimizedAffinity 7.33529282
REMARK minimizedRMSD -1
REMARK  0 active torsions:
REMARK  status: ('A' for Active; 'I' for Inactive)
ROOT
ATOM      1  O1  BZF d   1       1.114   3.751   0.408  0.00  0.00    -0.204 OA
ATOM      2  C2  BZF d   1       0.494   2.521   0.507  0.00  0.00     0.174 A 
ATOM      3  C3  BZF d   1      -0.408   2.358  -0.482  0.00  0.00    -0.012 A 
ATOM      4  C3A BZF d   1      -0.282   3.524  -1.302  0.00  0.00    -0.107 A 
ATOM      5  C4  BZF d   1      -0.901   3.937  -2.447  0.00  0.00     0.055 A 
ATOM      6  C5  BZF d   1      -0.601   5.162  -2.954  0.00  0.00    -0.016 A 
ATOM      7  C6  BZF d   1       0.307   6.000  -2.340  0.00  0.00     0.022 A 
ATOM      8  C7  BZF d   1       0.950   5.631  -1.205  0.00  0.00     0.029 A 
ATOM      9  C7A BZF d   1       0.674   4.380  -0.708  0.00  0.00     0.058 A 
ENDROOT
TORSDOF 0
ENDMDL
