MODEL 1
REMARK minimizedAffinity 6.59863329
REMARK minimizedRMSD -1
REMARK  0 active torsions:
REMARK  status: ('A' for Active; 'I' for Inactive)
ROOT
ATOM      1  O1  BZF d   1       1.540   4.138  -0.022  0.00  0.00    -0.204 OA
ATOM      2  C2  BZF d   1       1.012   2.981   0.517  0.00  0.00     0.174 A 
ATOM      3  C3  BZF d   1      -0.214   2.733   0.014  0.00  0.00    -0.012 A 
ATOM      4  C3A BZF d   1      -0.430   3.753  -0.967  0.00  0.00    -0.107 A 
ATOM      5  C4  BZF d   1      -1.460   4.032  -1.819  0.00  0.00     0.055 A 
ATOM      6  C5  BZF d   1      -1.390   5.144  -2.598  0.00  0.00    -0.016 A 
ATOM      7  C6  BZF d   1      -0.310   6.000  -2.546  0.00  0.00     0.022 A 
ATOM      8  C7  BZF d   1       0.738   5.762  -1.719  0.00  0.00     0.029 A 
ATOM      9  C7A BZF d   1       0.685   4.621  -0.956  0.00  0.00     0.058 A 
ENDROOT
TORSDOF 0
ENDMDL
