MODEL 1
REMARK minimizedAffinity 8.91166401
REMARK minimizedRMSD -1
REMARK  0 active torsions:
REMARK  status: ('A' for Active; 'I' for Inactive)
ROOT
ATOM      1  O1  BZF d   1       1.447   5.252  -3.368  0.00  0.00    -0.204 OA
ATOM      2  C2  BZF d   1       0.742   5.896  -4.366  0.00  0.00     0.174 A 
ATOM      3  C3  BZF d   1      -0.563   6.000  -4.041  0.00  0.00    -0.012 A 
ATOM      4  C3A BZF d   1      -0.664   5.464  -2.718  0.00  0.00    -0.107 A 
ATOM      5  C4  BZF d   1      -1.704   5.305  -1.847  0.00  0.00     0.055 A 
ATOM      6  C5  BZF d   1      -1.482   4.680  -0.661  0.00  0.00    -0.016 A 
ATOM      7  C6  BZF d   1      -0.236   4.196  -0.317  0.00  0.00     0.022 A 
ATOM      8  C7  BZF d   1       0.826   4.334  -1.147  0.00  0.00     0.029 A 
ATOM      9  C7A BZF d   1       0.613   4.995  -2.331  0.00  0.00     0.058 A 
ENDROOT
TORSDOF 0
ENDMDL
