MODEL 1
REMARK minimizedAffinity 10.5884981
REMARK minimizedRMSD -1
REMARK  0 active torsions:
REMARK  status: ('A' for Active; 'I' for Inactive)
ROOT
ATOM      1  O1  BZF d   1       4.046  -6.000  -4.002  0.00  0.00    -0.204 OA
ATOM      2  C2  BZF d   1       4.289  -5.101  -5.023  0.00  0.00     0.174 A 
ATOM      3  C3  BZF d   1       4.882  -3.987  -4.549  0.00  0.00    -0.012 A 
ATOM      4  C3A BZF d   1       5.102  -4.240  -3.158  0.00  0.00    -0.107 A 
ATOM      5  C4  BZF d   1       5.670  -3.515  -2.150  0.00  0.00     0.055 A 
ATOM      6  C5  BZF d   1       5.663  -4.019  -0.888  0.00  0.00    -0.016 A 
ATOM      7  C6  BZF d   1       5.092  -5.241  -0.598  0.00  0.00     0.022 A 
ATOM      8  C7  BZF d   1       4.521  -6.000  -1.566  0.00  0.00     0.029 A 
ATOM      9  C7A BZF d   1       4.556  -5.507  -2.848  0.00  0.00     0.058 A 
ENDROOT
TORSDOF 0
ENDMDL
