MODEL 1
REMARK minimizedAffinity 5.43582439
REMARK minimizedRMSD -1
REMARK  0 active torsions:
REMARK  status: ('A' for Active; 'I' for Inactive)
ROOT
ATOM      1  O1  BZF d   1      -1.250   3.694   0.171  0.00  0.00    -0.204 OA
ATOM      2  C2  BZF d   1      -0.035   3.361   0.739  0.00  0.00     0.174 A 
ATOM      3  C3  BZF d   1       0.986   3.814  -0.016  0.00  0.00    -0.012 A 
ATOM      4  C3A BZF d   1       0.371   4.551  -1.077  0.00  0.00    -0.107 A 
ATOM      5  C4  BZF d   1       0.863   5.253  -2.141  0.00  0.00     0.055 A 
ATOM      6  C5  BZF d   1      -0.007   5.794  -3.033  0.00  0.00    -0.016 A 
ATOM      7  C6  BZF d   1      -1.372   5.650  -2.897  0.00  0.00     0.022 A 
ATOM      8  C7  BZF d   1      -1.907   4.966  -1.856  0.00  0.00     0.029 A 
ATOM      9  C7A BZF d   1      -1.031   4.446  -0.934  0.00  0.00     0.058 A 
ENDROOT
TORSDOF 0
ENDMDL
