MODEL 1
REMARK minimizedAffinity 8.82470322
REMARK minimizedRMSD -1
REMARK  0 active torsions:
REMARK  status: ('A' for Active; 'I' for Inactive)
ROOT
ATOM      1  O1  BZF d   1       2.445   3.606   2.368  0.00  0.00    -0.204 OA
ATOM      2  C2  BZF d   1       2.148   2.576   3.240  0.00  0.00     0.174 A 
ATOM      3  C3  BZF d   1       1.000   1.964   2.883  0.00  0.00    -0.012 A 
ATOM      4  C3A BZF d   1       0.600   2.595   1.663  0.00  0.00    -0.107 A 
ATOM      5  C4  BZF d   1      -0.454   2.414   0.814  0.00  0.00     0.055 A 
ATOM      6  C5  BZF d   1      -0.594   3.245  -0.252  0.00  0.00    -0.016 A 
ATOM      7  C6  BZF d   1       0.297   4.270  -0.495  0.00  0.00     0.022 A 
ATOM      8  C7  BZF d   1       1.361   4.485   0.316  0.00  0.00     0.029 A 
ATOM      9  C7A BZF d   1       1.524   3.627   1.375  0.00  0.00     0.058 A 
ENDROOT
TORSDOF 0
ENDMDL
