MODEL 1
REMARK minimizedAffinity 3.93921089
REMARK minimizedRMSD -1
REMARK  0 active torsions:
REMARK  status: ('A' for Active; 'I' for Inactive)
ROOT
ATOM      1  O1  BZF d   1       1.945   3.492  -0.099  0.00  0.00    -0.204 OA
ATOM      2  C2  BZF d   1       1.655   3.276   1.234  0.00  0.00     0.174 A 
ATOM      3  C3  BZF d   1       0.363   3.563   1.494  0.00  0.00    -0.012 A 
ATOM      4  C3A BZF d   1      -0.212   3.895   0.227  0.00  0.00    -0.107 A 
ATOM      5  C4  BZF d   1      -1.469   4.254  -0.169  0.00  0.00     0.055 A 
ATOM      6  C5  BZF d   1      -1.683   4.583  -1.470  0.00  0.00    -0.016 A 
ATOM      7  C6  BZF d   1      -0.663   4.569  -2.399  0.00  0.00     0.022 A 
ATOM      8  C7  BZF d   1       0.599   4.215  -2.055  0.00  0.00     0.029 A 
ATOM      9  C7A BZF d   1       0.811   3.850  -0.748  0.00  0.00     0.058 A 
ENDROOT
TORSDOF 0
ENDMDL
