MODEL 1
REMARK minimizedAffinity 13.4978151
REMARK minimizedRMSD -1
REMARK  0 active torsions:
REMARK  status: ('A' for Active; 'I' for Inactive)
ROOT
ATOM      1  O1  BZF d   1       0.242   3.542  -2.040  0.00  0.00    -0.204 OA
ATOM      2  C2  BZF d   1      -0.070   4.693  -1.343  0.00  0.00     0.174 A 
ATOM      3  C3  BZF d   1      -0.619   4.395  -0.148  0.00  0.00    -0.012 A 
ATOM      4  C3A BZF d   1      -0.568   2.968  -0.056  0.00  0.00    -0.107 A 
ATOM      5  C4  BZF d   1      -0.950   2.075   0.903  0.00  0.00     0.055 A 
ATOM      6  C5  BZF d   1      -0.831   0.744   0.652  0.00  0.00    -0.016 A 
ATOM      7  C6  BZF d   1      -0.339   0.273  -0.547  0.00  0.00     0.022 A 
ATOM      8  C7  BZF d   1       0.057   1.121  -1.528  0.00  0.00     0.029 A 
ATOM      9  C7A BZF d   1      -0.032   2.466  -1.265  0.00  0.00     0.058 A 
ENDROOT
TORSDOF 0
ENDMDL
