MODEL 1
REMARK minimizedAffinity 9.02008438
REMARK minimizedRMSD -1
REMARK  0 active torsions:
REMARK  status: ('A' for Active; 'I' for Inactive)
ROOT
ATOM      1  O1  BZF d   1       3.338  -1.956  -0.511  0.00  0.00    -0.204 OA
ATOM      2  C2  BZF d   1       2.110  -2.453  -0.120  0.00  0.00     0.174 A 
ATOM      3  C3  BZF d   1       2.080  -3.797  -0.232  0.00  0.00    -0.012 A 
ATOM      4  C3A BZF d   1       3.401  -4.170  -0.636  0.00  0.00    -0.107 A 
ATOM      5  C4  BZF d   1       4.000  -5.370  -0.896  0.00  0.00     0.055 A 
ATOM      6  C5  BZF d   1       5.284  -5.384  -1.340  0.00  0.00    -0.016 A 
ATOM      7  C6  BZF d   1       5.997  -4.220  -1.540  0.00  0.00     0.022 A 
ATOM      8  C7  BZF d   1       5.447  -3.007  -1.291  0.00  0.00     0.029 A 
ATOM      9  C7A BZF d   1       4.161  -2.990  -0.811  0.00  0.00     0.058 A 
ENDROOT
TORSDOF 0
ENDMDL
