MODEL 1
REMARK minimizedAffinity 5.74239779
REMARK minimizedRMSD -1
REMARK  3 active torsions:
REMARK  status: ('A' for Active; 'I' for Inactive)
REMARK    1  A    between atoms: C3'_2  and  C2'_3 
REMARK    2  A    between atoms: C2'_3  and  C1'_4 
REMARK    3  A    between atoms: C1'_4  and  C1_5 
ROOT
ATOM      1  C1  N4B d   1      -1.772   0.427   3.291  0.00  0.00    -0.075 A 
ATOM      2  C2  N4B d   1      -0.974   0.149   4.423  0.00  0.00     0.002 A 
ATOM      3  C3  N4B d   1      -0.103  -0.913   4.404  0.00  0.00     0.002 A 
ATOM      4  C4  N4B d   1      -0.027  -1.718   3.278  0.00  0.00    -0.004 A 
ATOM      5  C5  N4B d   1      -0.783  -1.428   2.180  0.00  0.00     0.002 A 
ATOM      6  C6  N4B d   1      -1.660  -0.362   2.183  0.00  0.00     0.002 A 
ENDROOT
BRANCH   1   7
ATOM      7  C1' N4B d   1      -2.801   1.524   3.295  0.00  0.00     0.057 C 
BRANCH   7   8
ATOM      8  C2' N4B d   1      -3.086   1.938   4.736  0.00  0.00     0.009 C 
BRANCH   8   9
ATOM      9  C3' N4B d   1      -4.479   2.522   4.894  0.00  0.00     0.004 C 
ATOM     10  C4' N4B d   1      -4.563   3.535   5.996  0.00  0.00     0.003 C 
ENDBRANCH   8   9
ENDBRANCH   7   8
ENDBRANCH   1   7
TORSDOF 3
ENDMDL
