MODEL 1
REMARK minimizedAffinity 12.1219482
REMARK minimizedRMSD -1
REMARK  3 active torsions:
REMARK  status: ('A' for Active; 'I' for Inactive)
REMARK    1  A    between atoms: C3'_2  and  C2'_3 
REMARK    2  A    between atoms: C2'_3  and  C1'_4 
REMARK    3  A    between atoms: C1'_4  and  C1_5 
ROOT
ATOM      1  C1  N4B d   1      -0.585  -3.091   1.998  0.00  0.00    -0.075 A 
ATOM      2  C2  N4B d   1      -0.842  -1.904   2.720  0.00  0.00     0.002 A 
ATOM      3  C3  N4B d   1       0.097  -1.416   3.595  0.00  0.00     0.002 A 
ATOM      4  C4  N4B d   1       1.287  -2.103   3.777  0.00  0.00    -0.004 A 
ATOM      5  C5  N4B d   1       1.539  -3.235   3.057  0.00  0.00     0.002 A 
ATOM      6  C6  N4B d   1       0.605  -3.735   2.172  0.00  0.00     0.002 A 
ENDROOT
BRANCH   1   7
ATOM      7  C1' N4B d   1      -1.617  -3.710   1.095  0.00  0.00     0.057 C 
BRANCH   7   8
ATOM      8  C2' N4B d   1      -2.944  -3.804   1.841  0.00  0.00     0.009 C 
BRANCH   8   9
ATOM      9  C3' N4B d   1      -4.064  -3.092   1.102  0.00  0.00     0.004 C 
ATOM     10  C4' N4B d   1      -3.728  -1.668   0.773  0.00  0.00     0.003 C 
ENDBRANCH   8   9
ENDBRANCH   7   8
ENDBRANCH   1   7
TORSDOF 3
ENDMDL
