MODEL 1
REMARK minimizedAffinity 7.61158085
REMARK minimizedRMSD -1
REMARK  3 active torsions:
REMARK  status: ('A' for Active; 'I' for Inactive)
REMARK    1  A    between atoms: C3'_2  and  C2'_3 
REMARK    2  A    between atoms: C2'_3  and  C1'_4 
REMARK    3  A    between atoms: C1'_4  and  C1_5 
ROOT
ATOM      1  C1  N4B d   1       5.613   4.225  -1.989  0.00  0.00    -0.075 A 
ATOM      2  C2  N4B d   1       5.981   3.368  -0.928  0.00  0.00     0.002 A 
ATOM      3  C3  N4B d   1       6.000   3.841   0.361  0.00  0.00     0.002 A 
ATOM      4  C4  N4B d   1       5.674   5.166   0.611  0.00  0.00    -0.004 A 
ATOM      5  C5  N4B d   1       5.295   5.980  -0.417  0.00  0.00     0.002 A 
ATOM      6  C6  N4B d   1       5.268   5.517  -1.717  0.00  0.00     0.002 A 
ENDROOT
BRANCH   1   7
ATOM      7  C1' N4B d   1       5.661   3.777  -3.424  0.00  0.00     0.057 C 
BRANCH   7   8
ATOM      8  C2' N4B d   1       4.247   3.782  -3.998  0.00  0.00     0.009 C 
BRANCH   8   9
ATOM      9  C3' N4B d   1       3.337   2.805  -3.274  0.00  0.00     0.004 C 
ATOM     10  C4' N4B d   1       1.984   3.381  -2.981  0.00  0.00     0.003 C 
ENDBRANCH   8   9
ENDBRANCH   7   8
ENDBRANCH   1   7
TORSDOF 3
ENDMDL
