MODEL 1
REMARK minimizedAffinity 14.1385164
REMARK minimizedRMSD -1
REMARK  3 active torsions:
REMARK  status: ('A' for Active; 'I' for Inactive)
REMARK    1  A    between atoms: C3'_2  and  C2'_3 
REMARK    2  A    between atoms: C2'_3  and  C1'_4 
REMARK    3  A    between atoms: C1'_4  and  C1_5 
ROOT
ATOM      1  C1  N4B d   1       3.577   3.783  -2.518  0.00  0.00    -0.075 A 
ATOM      2  C2  N4B d   1       4.833   4.404  -2.338  0.00  0.00     0.002 A 
ATOM      3  C3  N4B d   1       5.594   4.741  -3.431  0.00  0.00     0.002 A 
ATOM      4  C4  N4B d   1       5.131   4.450  -4.705  0.00  0.00    -0.004 A 
ATOM      5  C5  N4B d   1       3.906   3.873  -4.871  0.00  0.00     0.002 A 
ATOM      6  C6  N4B d   1       3.129   3.533  -3.782  0.00  0.00     0.002 A 
ENDROOT
BRANCH   1   7
ATOM      7  C1' N4B d   1       2.747   3.318  -1.352  0.00  0.00     0.057 C 
BRANCH   7   8
ATOM      8  C2' N4B d   1       3.528   2.268  -0.568  0.00  0.00     0.009 C 
BRANCH   8   9
ATOM      9  C3' N4B d   1       3.618   2.611   0.909  0.00  0.00     0.004 C 
ATOM     10  C4' N4B d   1       4.893   3.315   1.265  0.00  0.00     0.003 C 
ENDBRANCH   8   9
ENDBRANCH   7   8
ENDBRANCH   1   7
TORSDOF 3
ENDMDL
