MODEL 1
REMARK minimizedAffinity 5.39166021
REMARK minimizedRMSD -1
REMARK  3 active torsions:
REMARK  status: ('A' for Active; 'I' for Inactive)
REMARK    1  A    between atoms: C3'_2  and  C2'_3 
REMARK    2  A    between atoms: C2'_3  and  C1'_4 
REMARK    3  A    between atoms: C1'_4  and  C1_5 
ROOT
ATOM      1  C1  N4B d   1       5.195   3.663   1.455  0.00  0.00    -0.075 A 
ATOM      2  C2  N4B d   1       5.955   3.729   0.266  0.00  0.00     0.002 A 
ATOM      3  C3  N4B d   1       5.997   4.894  -0.459  0.00  0.00     0.002 A 
ATOM      4  C4  N4B d   1       5.275   5.997  -0.026  0.00  0.00    -0.004 A 
ATOM      5  C5  N4B d   1       4.565   5.934   1.137  0.00  0.00     0.002 A 
ATOM      6  C6  N4B d   1       4.517   4.770   1.877  0.00  0.00     0.002 A 
ENDROOT
BRANCH   1   7
ATOM      7  C1' N4B d   1       5.050   2.386   2.235  0.00  0.00     0.057 C 
BRANCH   7   8
ATOM      8  C2' N4B d   1       3.989   1.512   1.573  0.00  0.00     0.009 C 
BRANCH   8   9
ATOM      9  C3' N4B d   1       3.356   2.198   0.374  0.00  0.00     0.004 C 
ATOM     10  C4' N4B d   1       1.862   2.279   0.475  0.00  0.00     0.003 C 
ENDBRANCH   8   9
ENDBRANCH   7   8
ENDBRANCH   1   7
TORSDOF 3
ENDMDL
