MODEL 1
REMARK minimizedAffinity 10.6106844
REMARK minimizedRMSD -1
REMARK  3 active torsions:
REMARK  status: ('A' for Active; 'I' for Inactive)
REMARK    1  A    between atoms: C3'_2  and  C2'_3 
REMARK    2  A    between atoms: C2'_3  and  C1'_4 
REMARK    3  A    between atoms: C1'_4  and  C1_5 
ROOT
ATOM      1  C1  N4B d   1       5.398   3.246   0.091  0.00  0.00    -0.075 A 
ATOM      2  C2  N4B d   1       4.564   2.206  -0.374  0.00  0.00     0.002 A 
ATOM      3  C3  N4B d   1       4.099   1.255   0.500  0.00  0.00     0.002 A 
ATOM      4  C4  N4B d   1       4.470   1.311   1.835  0.00  0.00    -0.004 A 
ATOM      5  C5  N4B d   1       5.255   2.333   2.282  0.00  0.00     0.002 A 
ATOM      6  C6  N4B d   1       5.726   3.299   1.415  0.00  0.00     0.002 A 
ENDROOT
BRANCH   1   7
ATOM      7  C1' N4B d   1       6.000   4.260  -0.843  0.00  0.00     0.057 C 
BRANCH   7   8
ATOM      8  C2' N4B d   1       5.117   5.504  -0.867  0.00  0.00     0.009 C 
BRANCH   8   9
ATOM      9  C3' N4B d   1       4.868   5.996  -2.283  0.00  0.00     0.004 C 
ATOM     10  C4' N4B d   1       4.841   4.884  -3.288  0.00  0.00     0.003 C 
ENDBRANCH   8   9
ENDBRANCH   7   8
ENDBRANCH   1   7
TORSDOF 3
ENDMDL
