MODEL 1
REMARK minimizedAffinity 21.1767521
REMARK minimizedRMSD -1
REMARK  3 active torsions:
REMARK  status: ('A' for Active; 'I' for Inactive)
REMARK    1  A    between atoms: C3'_2  and  C2'_3 
REMARK    2  A    between atoms: C2'_3  and  C1'_4 
REMARK    3  A    between atoms: C1'_4  and  C1_5 
ROOT
ATOM      1  C1  N4B d   1      -0.317   5.240  -3.809  0.00  0.00    -0.075 A 
ATOM      2  C2  N4B d   1       0.003   5.611  -5.134  0.00  0.00     0.002 A 
ATOM      3  C3  N4B d   1      -0.993   5.992  -6.000  0.00  0.00     0.002 A 
ATOM      4  C4  N4B d   1      -2.312   5.993  -5.571  0.00  0.00    -0.004 A 
ATOM      5  C5  N4B d   1      -2.610   5.657  -4.282  0.00  0.00     0.002 A 
ATOM      6  C6  N4B d   1      -1.619   5.276  -3.400  0.00  0.00     0.002 A 
ENDROOT
BRANCH   1   7
ATOM      7  C1' N4B d   1       0.727   4.733  -2.852  0.00  0.00     0.057 C 
BRANCH   7   8
ATOM      8  C2' N4B d   1       1.589   3.690  -3.558  0.00  0.00     0.009 C 
BRANCH   8   9
ATOM      9  C3' N4B d   1       2.441   2.901  -2.579  0.00  0.00     0.004 C 
ATOM     10  C4' N4B d   1       1.672   1.819  -1.880  0.00  0.00     0.003 C 
ENDBRANCH   8   9
ENDBRANCH   7   8
ENDBRANCH   1   7
TORSDOF 3
ENDMDL
