MODEL 1
REMARK minimizedAffinity 14.4543962
REMARK minimizedRMSD -1
REMARK  3 active torsions:
REMARK  status: ('A' for Active; 'I' for Inactive)
REMARK    1  A    between atoms: C3'_2  and  C2'_3 
REMARK    2  A    between atoms: C2'_3  and  C1'_4 
REMARK    3  A    between atoms: C1'_4  and  C1_5 
ROOT
ATOM      1  C1  N4B d   1       2.514   1.479  -1.186  0.00  0.00    -0.075 A 
ATOM      2  C2  N4B d   1       3.238   0.270  -1.282  0.00  0.00     0.002 A 
ATOM      3  C3  N4B d   1       3.625  -0.391  -0.142  0.00  0.00     0.002 A 
ATOM      4  C4  N4B d   1       3.318   0.145   1.099  0.00  0.00    -0.004 A 
ATOM      5  C5  N4B d   1       2.596   1.300   1.184  0.00  0.00     0.002 A 
ATOM      6  C6  N4B d   1       2.197   1.972   0.046  0.00  0.00     0.002 A 
ENDROOT
BRANCH   1   7
ATOM      7  C1' N4B d   1       2.144   2.281  -2.403  0.00  0.00     0.057 C 
BRANCH   7   8
ATOM      8  C2' N4B d   1       2.581   3.729  -2.200  0.00  0.00     0.009 C 
BRANCH   8   9
ATOM      9  C3' N4B d   1       1.422   4.699  -2.357  0.00  0.00     0.004 C 
ATOM     10  C4' N4B d   1       1.654   5.999  -1.647  0.00  0.00     0.003 C 
ENDBRANCH   8   9
ENDBRANCH   7   8
ENDBRANCH   1   7
TORSDOF 3
ENDMDL
