MODEL 1
REMARK minimizedAffinity 11.1670437
REMARK minimizedRMSD -1
REMARK  3 active torsions:
REMARK  status: ('A' for Active; 'I' for Inactive)
REMARK    1  A    between atoms: C3'_2  and  C2'_3 
REMARK    2  A    between atoms: C2'_3  and  C1'_4 
REMARK    3  A    between atoms: C1'_4  and  C1_5 
ROOT
ATOM      1  C1  N4B d   1      -2.556   0.261   3.402  0.00  0.00    -0.075 A 
ATOM      2  C2  N4B d   1      -1.537  -0.466   2.748  0.00  0.00     0.002 A 
ATOM      3  C3  N4B d   1      -1.746  -0.952   1.480  0.00  0.00     0.002 A 
ATOM      4  C4  N4B d   1      -2.966  -0.740   0.857  0.00  0.00    -0.004 A 
ATOM      5  C5  N4B d   1      -3.936  -0.014   1.485  0.00  0.00     0.002 A 
ATOM      6  C6  N4B d   1      -3.739   0.483   2.757  0.00  0.00     0.002 A 
ENDROOT
BRANCH   1   7
ATOM      7  C1' N4B d   1      -2.406   0.738   4.820  0.00  0.00     0.057 C 
BRANCH   7   8
ATOM      8  C2' N4B d   1      -3.785   1.056   5.390  0.00  0.00     0.009 C 
BRANCH   8   9
ATOM      9  C3' N4B d   1      -3.842   2.446   6.000  0.00  0.00     0.004 C 
ATOM     10  C4' N4B d   1      -5.225   3.025   5.999  0.00  0.00     0.003 C 
ENDBRANCH   8   9
ENDBRANCH   7   8
ENDBRANCH   1   7
TORSDOF 3
ENDMDL
