MODEL 1
REMARK minimizedAffinity 7.09510851
REMARK minimizedRMSD -1
REMARK  3 active torsions:
REMARK  status: ('A' for Active; 'I' for Inactive)
REMARK    1  A    between atoms: C3'_2  and  C2'_3 
REMARK    2  A    between atoms: C2'_3  and  C1'_4 
REMARK    3  A    between atoms: C1'_4  and  C1_5 
ROOT
ATOM      1  C1  N4B d   1       3.855   2.357   0.732  0.00  0.00    -0.075 A 
ATOM      2  C2  N4B d   1       4.992   2.479  -0.097  0.00  0.00     0.002 A 
ATOM      3  C3  N4B d   1       5.999   3.350   0.243  0.00  0.00     0.002 A 
ATOM      4  C4  N4B d   1       5.882   4.119   1.390  0.00  0.00    -0.004 A 
ATOM      5  C5  N4B d   1       4.792   3.977   2.199  0.00  0.00     0.002 A 
ATOM      6  C6  N4B d   1       3.775   3.103   1.872  0.00  0.00     0.002 A 
ENDROOT
BRANCH   1   7
ATOM      7  C1' N4B d   1       2.690   1.482   0.358  0.00  0.00     0.057 C 
BRANCH   7   8
ATOM      8  C2' N4B d   1       2.809   1.091  -1.112  0.00  0.00     0.009 C 
BRANCH   8   9
ATOM      9  C3' N4B d   1       2.040   2.039  -2.017  0.00  0.00     0.004 C 
ATOM     10  C4' N4B d   1       2.923   2.755  -2.994  0.00  0.00     0.003 C 
ENDBRANCH   8   9
ENDBRANCH   7   8
ENDBRANCH   1   7
TORSDOF 3
ENDMDL
