MODEL 1
REMARK minimizedAffinity 15.2193346
REMARK minimizedRMSD -1
REMARK  3 active torsions:
REMARK  status: ('A' for Active; 'I' for Inactive)
REMARK    1  A    between atoms: C3'_2  and  C2'_3 
REMARK    2  A    between atoms: C2'_3  and  C1'_4 
REMARK    3  A    between atoms: C1'_4  and  C1_5 
ROOT
ATOM      1  C1  N4B d   1      -3.412  -2.665   0.815  0.00  0.00    -0.075 A 
ATOM      2  C2  N4B d   1      -4.678  -3.187   0.471  0.00  0.00     0.002 A 
ATOM      3  C3  N4B d   1      -5.008  -4.473   0.821  0.00  0.00     0.002 A 
ATOM      4  C4  N4B d   1      -4.086  -5.259   1.495  0.00  0.00    -0.004 A 
ATOM      5  C5  N4B d   1      -2.875  -4.738   1.847  0.00  0.00     0.002 A 
ATOM      6  C6  N4B d   1      -2.530  -3.446   1.505  0.00  0.00     0.002 A 
ENDROOT
BRANCH   1   7
ATOM      7  C1' N4B d   1      -2.973  -1.293   0.380  0.00  0.00     0.057 C 
BRANCH   7   8
ATOM      8  C2' N4B d   1      -4.174  -0.538  -0.182  0.00  0.00     0.009 C 
BRANCH   8   9
ATOM      9  C3' N4B d   1      -4.219  -0.590  -1.699  0.00  0.00     0.004 C 
ATOM     10  C4' N4B d   1      -3.051  -1.320  -2.291  0.00  0.00     0.003 C 
ENDBRANCH   8   9
ENDBRANCH   7   8
ENDBRANCH   1   7
TORSDOF 3
ENDMDL
