MODEL 1
REMARK minimizedAffinity 13.0231695
REMARK minimizedRMSD -1
REMARK  3 active torsions:
REMARK  status: ('A' for Active; 'I' for Inactive)
REMARK    1  A    between atoms: C3'_2  and  C2'_3 
REMARK    2  A    between atoms: C2'_3  and  C1'_4 
REMARK    3  A    between atoms: C1'_4  and  C1_5 
ROOT
ATOM      1  C1  N4B d   1       2.037   4.832  -1.937  0.00  0.00    -0.075 A 
ATOM      2  C2  N4B d   1       1.492   3.620  -2.414  0.00  0.00     0.002 A 
ATOM      3  C3  N4B d   1       2.324   2.606  -2.822  0.00  0.00     0.002 A 
ATOM      4  C4  N4B d   1       3.698   2.789  -2.781  0.00  0.00    -0.004 A 
ATOM      5  C5  N4B d   1       4.217   3.953  -2.294  0.00  0.00     0.002 A 
ATOM      6  C6  N4B d   1       3.392   4.978  -1.877  0.00  0.00     0.002 A 
ENDROOT
BRANCH   1   7
ATOM      7  C1' N4B d   1       1.167   6.000  -1.560  0.00  0.00     0.057 C 
BRANCH   7   8
ATOM      8  C2' N4B d   1      -0.270   5.712  -1.985  0.00  0.00     0.009 C 
BRANCH   8   9
ATOM      9  C3' N4B d   1      -1.259   5.982  -0.864  0.00  0.00     0.004 C 
ATOM     10  C4' N4B d   1      -2.660   5.580  -1.217  0.00  0.00     0.003 C 
ENDBRANCH   8   9
ENDBRANCH   7   8
ENDBRANCH   1   7
TORSDOF 3
ENDMDL
