MODEL 1
REMARK minimizedAffinity -5.69206333
REMARK minimizedRMSD -1
REMARK  1 active torsions:
REMARK  status: ('A' for Active; 'I' for Inactive)
REMARK    1  A    between atoms: C1_2  and  C2_3 
ROOT
ATOM      1  C2  UNL d   1      -0.057  -0.335  -0.763  0.00  0.00    -0.081 A 
ATOM      2  C3  UNL d   1      -1.387  -0.053  -0.426  0.00  0.00     0.006 A 
ATOM      3  C4  UNL d   1      -1.695   0.550   0.795  0.00  0.00     0.002 A 
ATOM      4  C5  UNL d   1      -0.679   0.889   1.696  0.00  0.00    -0.080 A 
ATOM      5  C6  UNL d   1      -0.994   1.565   2.997  0.00  0.00     0.076 C 
ATOM      6  C7  UNL d   1       0.648   0.592   1.366  0.00  0.00     0.002 A 
ATOM      7  C8  UNL d   1       0.956  -0.012   0.146  0.00  0.00     0.006 A 
ENDROOT
BRANCH   1   8
ATOM      8  C1  UNL d   1       0.284  -0.927  -2.107  0.00  0.00     0.054 C 
ATOM      9  C   UNL d   1       0.671   0.154  -3.106  0.00  0.00     0.018 C 
ENDBRANCH   1   8
TORSDOF 1
ENDMDL
