MODEL 1
REMARK minimizedAffinity -5.88397694
REMARK minimizedRMSD -1
REMARK  1 active torsions:
REMARK  status: ('A' for Active; 'I' for Inactive)
REMARK    1  A    between atoms: C1_2  and  C2_3 
ROOT
ATOM      1  C2  UNL d   1       0.332  -0.201  -0.723  0.00  0.00    -0.081 A 
ATOM      2  C3  UNL d   1      -1.046  -0.099  -0.496  0.00  0.00     0.006 A 
ATOM      3  C4  UNL d   1      -1.529   0.448   0.696  0.00  0.00     0.002 A 
ATOM      4  C5  UNL d   1      -0.643   0.909   1.675  0.00  0.00    -0.080 A 
ATOM      5  C6  UNL d   1      -1.149   1.526   2.945  0.00  0.00     0.076 C 
ATOM      6  C7  UNL d   1       0.733   0.792   1.456  0.00  0.00     0.002 A 
ATOM      7  C8  UNL d   1       1.217   0.245   0.265  0.00  0.00     0.006 A 
ENDROOT
BRANCH   1   8
ATOM      8  C1  UNL d   1       0.856  -0.730  -2.033  0.00  0.00     0.054 C 
ATOM      9  C   UNL d   1       1.278   0.402  -2.959  0.00  0.00     0.018 C 
ENDBRANCH   1   8
TORSDOF 1
ENDMDL
