MODEL 1
REMARK minimizedAffinity -2.4173758
REMARK minimizedRMSD -1
REMARK  1 active torsions:
REMARK  status: ('A' for Active; 'I' for Inactive)
REMARK    1  A    between atoms: C1_2  and  C2_3 
ROOT
ATOM      1  C2  UNL d   1      -0.152  -0.460  -1.494  0.00  0.00    -0.081 A 
ATOM      2  C3  UNL d   1      -1.513  -0.140  -1.430  0.00  0.00     0.006 A 
ATOM      3  C4  UNL d   1      -2.086   0.278  -0.226  0.00  0.00     0.002 A 
ATOM      4  C5  UNL d   1      -1.306   0.389   0.930  0.00  0.00    -0.080 A 
ATOM      5  C6  UNL d   1      -1.903   0.865   2.222  0.00  0.00     0.076 C 
ATOM      6  C7  UNL d   1       0.050   0.052   0.870  0.00  0.00     0.002 A 
ATOM      7  C8  UNL d   1       0.623  -0.366  -0.333  0.00  0.00     0.006 A 
ENDROOT
BRANCH   1   8
ATOM      8  C1  UNL d   1       0.483  -0.849  -2.805  0.00  0.00     0.054 C 
ATOM      9  C   UNL d   1       1.089   0.359  -3.506  0.00  0.00     0.018 C 
ENDBRANCH   1   8
TORSDOF 1
ENDMDL
