MODEL 1
REMARK minimizedAffinity -2.03331947
REMARK minimizedRMSD -1
REMARK  1 active torsions:
REMARK  status: ('A' for Active; 'I' for Inactive)
REMARK    1  A    between atoms: C1_2  and  C2_3 
ROOT
ATOM      1  C2  UNL d   1      -1.326   0.216   0.445  0.00  0.00    -0.081 A 
ATOM      2  C3  UNL d   1      -0.238  -0.301  -0.270  0.00  0.00     0.006 A 
ATOM      3  C4  UNL d   1       1.052  -0.242   0.262  0.00  0.00     0.002 A 
ATOM      4  C5  UNL d   1       1.275   0.328   1.520  0.00  0.00    -0.080 A 
ATOM      5  C6  UNL d   1       2.651   0.371   2.116  0.00  0.00     0.076 C 
ATOM      6  C7  UNL d   1       0.192   0.861   2.227  0.00  0.00     0.002 A 
ATOM      7  C8  UNL d   1      -1.098   0.802   1.695  0.00  0.00     0.006 A 
ENDROOT
BRANCH   1   8
ATOM      8  C1  UNL d   1      -2.727   0.096  -0.097  0.00  0.00     0.054 C 
ATOM      9  C   UNL d   1      -3.066  -1.348  -0.439  0.00  0.00     0.018 C 
ENDBRANCH   1   8
TORSDOF 1
ENDMDL
