MODEL 1
REMARK minimizedAffinity -4.84668159
REMARK minimizedRMSD -1
REMARK  1 active torsions:
REMARK  status: ('A' for Active; 'I' for Inactive)
REMARK    1  A    between atoms: C1_2  and  C2_3 
ROOT
ATOM      1  C2  UNL d   1       0.349  -0.878  -0.213  0.00  0.00    -0.081 A 
ATOM      2  C3  UNL d   1      -0.927  -0.340  -0.006  0.00  0.00     0.006 A 
ATOM      3  C4  UNL d   1      -1.202   0.412   1.139  0.00  0.00     0.002 A 
ATOM      4  C5  UNL d   1      -0.204   0.646   2.091  0.00  0.00    -0.080 A 
ATOM      5  C6  UNL d   1      -0.478   1.477   3.309  0.00  0.00     0.076 C 
ATOM      6  C7  UNL d   1       1.066   0.094   1.893  0.00  0.00     0.002 A 
ATOM      7  C8  UNL d   1       1.342  -0.658   0.749  0.00  0.00     0.006 A 
ENDROOT
BRANCH   1   8
ATOM      8  C1  UNL d   1       0.667  -1.635  -1.477  0.00  0.00     0.054 C 
ATOM      9  C   UNL d   1       1.026  -0.688  -2.613  0.00  0.00     0.018 C 
ENDBRANCH   1   8
TORSDOF 1
ENDMDL
