MODEL 1
REMARK minimizedAffinity -6.08668375
REMARK minimizedRMSD -1
REMARK  1 active torsions:
REMARK  status: ('A' for Active; 'I' for Inactive)
REMARK    1  A    between atoms: C1_2  and  C2_3 
ROOT
ATOM      1  C2  UNL d   1       0.295  -0.211  -0.730  0.00  0.00    -0.081 A 
ATOM      2  C3  UNL d   1      -1.043   0.112  -0.472  0.00  0.00     0.006 A 
ATOM      3  C4  UNL d   1      -1.417   0.647   0.763  0.00  0.00     0.002 A 
ATOM      4  C5  UNL d   1      -0.458   0.876   1.757  0.00  0.00    -0.080 A 
ATOM      5  C6  UNL d   1      -0.841   1.478   3.076  0.00  0.00     0.076 C 
ATOM      6  C7  UNL d   1       0.875   0.537   1.505  0.00  0.00     0.002 A 
ATOM      7  C8  UNL d   1       1.249   0.001   0.271  0.00  0.00     0.006 A 
ENDROOT
BRANCH   1   8
ATOM      8  C1  UNL d   1       0.710  -0.728  -2.084  0.00  0.00     0.054 C 
ATOM      9  C   UNL d   1       1.235   0.395  -2.967  0.00  0.00     0.018 C 
ENDBRANCH   1   8
TORSDOF 1
ENDMDL
