MODEL 1
REMARK minimizedAffinity 1.1362958
REMARK minimizedRMSD -1
REMARK  0 active torsions:
REMARK  status: ('A' for Active; 'I' for Inactive)
ROOT
ATOM      1  C   UNL d   1      -0.344   2.192   1.654  0.00  0.00     0.124 A 
ATOM      2  C1  UNL d   1       0.203   2.346   0.388  0.00  0.00     0.062 A 
ATOM      3  C2  UNL d   1       0.534   1.228  -0.372  0.00  0.00     0.162 A 
ATOM      4  C3  UNL d   1       0.319  -0.055   0.132  0.00  0.00    -0.034 A 
ATOM      5  C4  UNL d   1      -0.231  -0.202   1.407  0.00  0.00     0.162 A 
ATOM      6  C5  UNL d   1      -0.560   0.919   2.163  0.00  0.00     0.062 A 
ATOM      7  F   UNL d   1      -1.089   0.768   3.386  0.00  0.00    -0.097 F 
ATOM      8  F1  UNL d   1      -0.451  -1.420   1.922  0.00  0.00    -0.096 F 
ATOM      9  I   UNL d   1       0.813  -1.729  -1.001  0.00  0.00    -0.060 I 
ATOM     10  F2  UNL d   1       1.061   1.406  -1.592  0.00  0.00    -0.096 F 
ATOM     11  F3  UNL d   1       0.414   3.575  -0.105  0.00  0.00    -0.097 F 
ATOM     12  F4  UNL d   1      -0.661   3.269   2.384  0.00  0.00    -0.092 F 
ENDROOT
TORSDOF 0
ENDMDL
