MODEL 1
REMARK minimizedAffinity 1.45282805
REMARK minimizedRMSD -1
REMARK  0 active torsions:
REMARK  status: ('A' for Active; 'I' for Inactive)
ROOT
ATOM      1  C   UNL d   1      -0.259   2.034   1.550  0.00  0.00     0.124 A 
ATOM      2  C1  UNL d   1      -0.655   0.793   2.030  0.00  0.00     0.062 A 
ATOM      3  C2  UNL d   1      -0.348  -0.363   1.319  0.00  0.00     0.162 A 
ATOM      4  C3  UNL d   1       0.360  -0.285   0.120  0.00  0.00    -0.034 A 
ATOM      5  C4  UNL d   1       0.755   0.966  -0.357  0.00  0.00     0.162 A 
ATOM      6  C5  UNL d   1       0.446   2.119   0.357  0.00  0.00     0.062 A 
ATOM      7  F   UNL d   1       0.829   3.317  -0.108  0.00  0.00    -0.097 F 
ATOM      8  F1  UNL d   1       1.437   1.077  -1.507  0.00  0.00    -0.096 F 
ATOM      9  I   UNL d   1       0.821  -2.012  -0.946  0.00  0.00    -0.060 I 
ATOM     10  F2  UNL d   1      -0.744  -1.549   1.807  0.00  0.00    -0.096 F 
ATOM     11  F3  UNL d   1      -1.336   0.708   3.182  0.00  0.00    -0.097 F 
ATOM     12  F4  UNL d   1      -0.556   3.145   2.236  0.00  0.00    -0.092 F 
ENDROOT
TORSDOF 0
ENDMDL
