MODEL 1
REMARK minimizedAffinity -1.78845763
REMARK minimizedRMSD -1
REMARK  0 active torsions:
REMARK  status: ('A' for Active; 'I' for Inactive)
ROOT
ATOM      1  C   UNL d   1      -0.509   2.604   1.031  0.00  0.00     0.124 A 
ATOM      2  C1  UNL d   1      -0.722   1.386   1.663  0.00  0.00     0.062 A 
ATOM      3  C2  UNL d   1      -0.270   0.206   1.079  0.00  0.00     0.162 A 
ATOM      4  C3  UNL d   1       0.399   0.238  -0.144  0.00  0.00    -0.034 A 
ATOM      5  C4  UNL d   1       0.609   1.466  -0.774  0.00  0.00     0.162 A 
ATOM      6  C5  UNL d   1       0.156   2.642  -0.187  0.00  0.00     0.062 A 
ATOM      7  F   UNL d   1       0.362   3.817  -0.799  0.00  0.00    -0.097 F 
ATOM      8  F1  UNL d   1       1.249   1.532  -1.951  0.00  0.00    -0.096 F 
ATOM      9  I   UNL d   1       1.076  -1.525  -1.021  0.00  0.00    -0.060 I 
ATOM     10  F2  UNL d   1      -0.490  -0.956   1.712  0.00  0.00    -0.096 F 
ATOM     11  F3  UNL d   1      -1.364   1.346   2.839  0.00  0.00    -0.097 F 
ATOM     12  F4  UNL d   1      -0.945   3.738   1.595  0.00  0.00    -0.092 F 
ENDROOT
TORSDOF 0
ENDMDL
