MODEL 1
REMARK minimizedAffinity -4.75875187
REMARK minimizedRMSD -1
REMARK  0 active torsions:
REMARK  status: ('A' for Active; 'I' for Inactive)
ROOT
ATOM      1  C   UNL d   1      -0.458   2.628   1.029  0.00  0.00     0.124 A 
ATOM      2  C1  UNL d   1      -0.808   1.441   1.657  0.00  0.00     0.062 A 
ATOM      3  C2  UNL d   1      -0.396   0.221   1.129  0.00  0.00     0.162 A 
ATOM      4  C3  UNL d   1       0.373   0.181  -0.034  0.00  0.00    -0.034 A 
ATOM      5  C4  UNL d   1       0.722   1.379  -0.661  0.00  0.00     0.162 A 
ATOM      6  C5  UNL d   1       0.307   2.596  -0.129  0.00  0.00     0.062 A 
ATOM      7  F   UNL d   1       0.647   3.742  -0.737  0.00  0.00    -0.097 F 
ATOM      8  F1  UNL d   1       1.460   1.378  -1.780  0.00  0.00    -0.096 F 
ATOM      9  I   UNL d   1       0.992  -1.641  -0.827  0.00  0.00    -0.060 I 
ATOM     10  F2  UNL d   1      -0.750  -0.911   1.757  0.00  0.00    -0.096 F 
ATOM     11  F3  UNL d   1      -1.548   1.469   2.775  0.00  0.00    -0.097 F 
ATOM     12  F4  UNL d   1      -0.857   3.800   1.538  0.00  0.00    -0.092 F 
ENDROOT
TORSDOF 0
ENDMDL
