MODEL 1
REMARK minimizedAffinity -3.5658381
REMARK minimizedRMSD -1
REMARK  0 active torsions:
REMARK  status: ('A' for Active; 'I' for Inactive)
ROOT
ATOM      1  C   UNL d   1       0.632   3.160   0.004  0.00  0.00     0.124 A 
ATOM      2  C1  UNL d   1      -0.065   3.224   1.203  0.00  0.00     0.062 A 
ATOM      3  C2  UNL d   1      -0.431   2.055   1.863  0.00  0.00     0.162 A 
ATOM      4  C3  UNL d   1      -0.101   0.810   1.325  0.00  0.00    -0.034 A 
ATOM      5  C4  UNL d   1       0.599   0.754   0.119  0.00  0.00     0.162 A 
ATOM      6  C5  UNL d   1       0.963   1.926  -0.537  0.00  0.00     0.062 A 
ATOM      7  F   UNL d   1       1.635   1.863  -1.695  0.00  0.00    -0.097 F 
ATOM      8  F1  UNL d   1       0.932  -0.425  -0.426  0.00  0.00    -0.096 F 
ATOM      9  I   UNL d   1      -0.647  -0.941   2.309  0.00  0.00    -0.060 I 
ATOM     10  F2  UNL d   1      -1.103   2.146   3.020  0.00  0.00    -0.096 F 
ATOM     11  F3  UNL d   1      -0.386   4.415   1.728  0.00  0.00    -0.097 F 
ATOM     12  F4  UNL d   1       0.982   4.287  -0.629  0.00  0.00    -0.092 F 
ENDROOT
TORSDOF 0
ENDMDL
