MODEL 1
REMARK minimizedAffinity -3.27311444
REMARK minimizedRMSD -1
REMARK  0 active torsions:
REMARK  status: ('A' for Active; 'I' for Inactive)
ROOT
ATOM      1  C   UNL d   1       0.505   0.504  -0.225  0.00  0.00     0.124 A 
ATOM      2  C1  UNL d   1      -0.200   0.402  -1.416  0.00  0.00     0.062 A 
ATOM      3  C2  UNL d   1      -0.162  -0.778  -2.153  0.00  0.00     0.162 A 
ATOM      4  C3  UNL d   1       0.584  -1.866  -1.701  0.00  0.00    -0.034 A 
ATOM      5  C4  UNL d   1       1.292  -1.756  -0.503  0.00  0.00     0.162 A 
ATOM      6  C5  UNL d   1       1.251  -0.574   0.230  0.00  0.00     0.062 A 
ATOM      7  F   UNL d   1       1.933  -0.477   1.380  0.00  0.00    -0.097 F 
ATOM      8  F1  UNL d   1       2.020  -2.783  -0.040  0.00  0.00    -0.096 F 
ATOM      9  I   UNL d   1       0.644  -3.632  -2.801  0.00  0.00    -0.060 I 
ATOM     10  F2  UNL d   1      -0.854  -0.849  -3.300  0.00  0.00    -0.096 F 
ATOM     11  F3  UNL d   1      -0.920   1.443  -1.858  0.00  0.00    -0.097 F 
ATOM     12  F4  UNL d   1       0.468   1.641   0.482  0.00  0.00    -0.092 F 
ENDROOT
TORSDOF 0
ENDMDL
