MODEL 1
REMARK minimizedAffinity -2.364959
REMARK minimizedRMSD -1
REMARK  0 active torsions:
REMARK  status: ('A' for Active; 'I' for Inactive)
ROOT
ATOM      1  C   UNL d   1      -0.736   2.315   1.067  0.00  0.00     0.124 A 
ATOM      2  C1  UNL d   1      -0.904   1.107   1.730  0.00  0.00     0.062 A 
ATOM      3  C2  UNL d   1      -0.430  -0.073   1.164  0.00  0.00     0.162 A 
ATOM      4  C3  UNL d   1       0.217  -0.051  -0.072  0.00  0.00    -0.034 A 
ATOM      5  C4  UNL d   1       0.380   1.167  -0.733  0.00  0.00     0.162 A 
ATOM      6  C5  UNL d   1      -0.095   2.344  -0.163  0.00  0.00     0.062 A 
ATOM      7  F   UNL d   1       0.068   3.510  -0.805  0.00  0.00    -0.097 F 
ATOM      8  F1  UNL d   1       0.998   1.224  -1.922  0.00  0.00    -0.096 F 
ATOM      9  I   UNL d   1       0.927  -1.814  -0.921  0.00  0.00    -0.060 I 
ATOM     10  F2  UNL d   1      -0.605  -1.226   1.827  0.00  0.00    -0.096 F 
ATOM     11  F3  UNL d   1      -1.524   1.076   2.918  0.00  0.00    -0.097 F 
ATOM     12  F4  UNL d   1      -1.194   3.449   1.613  0.00  0.00    -0.092 F 
ENDROOT
TORSDOF 0
ENDMDL
