MODEL 1
REMARK minimizedAffinity -0.723807096
REMARK minimizedRMSD -1
REMARK  0 active torsions:
REMARK  status: ('A' for Active; 'I' for Inactive)
ROOT
ATOM      1  C   UNL d   1       0.210   1.627  -0.179  0.00  0.00     0.124 A 
ATOM      2  C1  UNL d   1       0.859   1.319  -1.366  0.00  0.00     0.062 A 
ATOM      3  C2  UNL d   1       1.107  -0.008  -1.705  0.00  0.00     0.162 A 
ATOM      4  C3  UNL d   1       0.705  -1.038  -0.854  0.00  0.00    -0.034 A 
ATOM      5  C4  UNL d   1       0.054  -0.720   0.339  0.00  0.00     0.162 A 
ATOM      6  C5  UNL d   1      -0.192   0.608   0.672  0.00  0.00     0.062 A 
ATOM      7  F   UNL d   1      -0.819   0.903   1.820  0.00  0.00    -0.097 F 
ATOM      8  F1  UNL d   1      -0.346  -1.686   1.179  0.00  0.00    -0.096 F 
ATOM      9  I   UNL d   1       1.075  -3.024  -1.357  0.00  0.00    -0.060 I 
ATOM     10  F2  UNL d   1       1.737  -0.276  -2.858  0.00  0.00    -0.096 F 
ATOM     11  F3  UNL d   1       1.250   2.303  -2.190  0.00  0.00    -0.097 F 
ATOM     12  F4  UNL d   1      -0.027   2.905   0.145  0.00  0.00    -0.092 F 
ENDROOT
TORSDOF 0
ENDMDL
