MODEL 1
REMARK minimizedAffinity 11.2681074
REMARK minimizedRMSD -1
REMARK  0 active torsions:
REMARK  status: ('A' for Active; 'I' for Inactive)
ROOT
ATOM      1  C   UNL d   1      -0.608   1.762   1.090  0.00  0.00     0.124 A 
ATOM      2  C1  UNL d   1      -0.257   1.618  -0.245  0.00  0.00     0.062 A 
ATOM      3  C2  UNL d   1      -0.059   0.349  -0.784  0.00  0.00     0.162 A 
ATOM      4  C3  UNL d   1      -0.212  -0.785   0.013  0.00  0.00    -0.034 A 
ATOM      5  C4  UNL d   1      -0.564  -0.632   1.355  0.00  0.00     0.162 A 
ATOM      6  C5  UNL d   1      -0.761   0.638   1.889  0.00  0.00     0.062 A 
ATOM      7  F   UNL d   1      -1.100   0.775   3.179  0.00  0.00    -0.097 F 
ATOM      8  F1  UNL d   1      -0.720  -1.701   2.150  0.00  0.00    -0.096 F 
ATOM      9  I   UNL d   1       0.084  -2.683  -0.788  0.00  0.00    -0.060 I 
ATOM     10  F2  UNL d   1       0.280   0.240  -2.077  0.00  0.00    -0.096 F 
ATOM     11  F3  UNL d   1      -0.107   2.702  -1.019  0.00  0.00    -0.097 F 
ATOM     12  F4  UNL d   1      -0.797   2.983   1.605  0.00  0.00    -0.092 F 
ENDROOT
TORSDOF 0
ENDMDL
