MODEL 1
REMARK minimizedAffinity -1.82725978
REMARK minimizedRMSD -1
REMARK  0 active torsions:
REMARK  status: ('A' for Active; 'I' for Inactive)
ROOT
ATOM      1  C   UNL d   1      -0.538   1.180   1.190  0.00  0.00     0.124 A 
ATOM      2  C1  UNL d   1      -0.951   0.006   1.803  0.00  0.00     0.062 A 
ATOM      3  C2  UNL d   1      -0.903  -1.200   1.109  0.00  0.00     0.162 A 
ATOM      4  C3  UNL d   1      -0.438  -1.237  -0.206  0.00  0.00    -0.034 A 
ATOM      5  C4  UNL d   1      -0.025  -0.051  -0.815  0.00  0.00     0.162 A 
ATOM      6  C5  UNL d   1      -0.075   1.151  -0.118  0.00  0.00     0.062 A 
ATOM      7  F   UNL d   1       0.325   2.285  -0.711  0.00  0.00    -0.097 F 
ATOM      8  F1  UNL d   1       0.427  -0.051  -2.078  0.00  0.00    -0.096 F 
ATOM      9  I   UNL d   1      -0.364  -3.038  -1.246  0.00  0.00    -0.060 I 
ATOM     10  F2  UNL d   1      -1.309  -2.320   1.726  0.00  0.00    -0.096 F 
ATOM     11  F3  UNL d   1      -1.400   0.032   3.066  0.00  0.00    -0.097 F 
ATOM     12  F4  UNL d   1      -0.587   2.339   1.860  0.00  0.00    -0.092 F 
ENDROOT
TORSDOF 0
ENDMDL
