MODEL 1
REMARK minimizedAffinity 7.6486783
REMARK minimizedRMSD -1
REMARK  0 active torsions:
REMARK  status: ('A' for Active; 'I' for Inactive)
ROOT
ATOM      1  C   UNL d   1      -0.271   0.754   2.660  0.00  0.00     0.124 A 
ATOM      2  C1  UNL d   1       0.141  -0.238   1.781  0.00  0.00     0.062 A 
ATOM      3  C2  UNL d   1       0.521   0.092   0.483  0.00  0.00     0.162 A 
ATOM      4  C3  UNL d   1       0.491   1.420   0.057  0.00  0.00    -0.034 A 
ATOM      5  C4  UNL d   1       0.075   2.411   0.947  0.00  0.00     0.162 A 
ATOM      6  C5  UNL d   1      -0.304   2.077   2.243  0.00  0.00     0.062 A 
ATOM      7  F   UNL d   1      -0.702   3.036   3.091  0.00  0.00    -0.097 F 
ATOM      8  F1  UNL d   1       0.034   3.698   0.569  0.00  0.00    -0.096 F 
ATOM      9  I   UNL d   1       1.059   1.916  -1.883  0.00  0.00    -0.060 I 
ATOM     10  F2  UNL d   1       0.915  -0.887  -0.346  0.00  0.00    -0.096 F 
ATOM     11  F3  UNL d   1       0.173  -1.517   2.182  0.00  0.00    -0.097 F 
ATOM     12  F4  UNL d   1      -0.637   0.434   3.908  0.00  0.00    -0.092 F 
ENDROOT
TORSDOF 0
ENDMDL
