MODEL 1
REMARK minimizedAffinity 2.07297826
REMARK minimizedRMSD -1
REMARK  0 active torsions:
REMARK  status: ('A' for Active; 'I' for Inactive)
ROOT
ATOM      1  C   UNL d   1      -0.326   0.748   3.006  0.00  0.00     0.124 A 
ATOM      2  C1  UNL d   1      -1.465   0.782   2.213  0.00  0.00     0.062 A 
ATOM      3  C2  UNL d   1      -1.526   0.031   1.043  0.00  0.00     0.162 A 
ATOM      4  C3  UNL d   1      -0.445  -0.762   0.658  0.00  0.00    -0.034 A 
ATOM      5  C4  UNL d   1       0.698  -0.790   1.460  0.00  0.00     0.162 A 
ATOM      6  C5  UNL d   1       0.754  -0.038   2.629  0.00  0.00     0.062 A 
ATOM      7  F   UNL d   1       1.855  -0.072   3.393  0.00  0.00    -0.097 F 
ATOM      8  F1  UNL d   1       1.755  -1.542   1.120  0.00  0.00    -0.096 F 
ATOM      9  I   UNL d   1      -0.532  -1.887  -1.091  0.00  0.00    -0.060 I 
ATOM     10  F2  UNL d   1      -2.639   0.083   0.296  0.00  0.00    -0.096 F 
ATOM     11  F3  UNL d   1      -2.509   1.541   2.575  0.00  0.00    -0.097 F 
ATOM     12  F4  UNL d   1      -0.269   1.473   4.130  0.00  0.00    -0.092 F 
ENDROOT
TORSDOF 0
ENDMDL
