MODEL 1
REMARK minimizedAffinity 15.0102005
REMARK minimizedRMSD -1
REMARK  0 active torsions:
REMARK  status: ('A' for Active; 'I' for Inactive)
ROOT
ATOM      1  C   UNL d   1       2.976  -2.004  -0.140  0.00  0.00     0.077 C 
ATOM      2  C1  UNL d   1       3.669  -0.687  -0.331  0.00  0.00    -0.074 A 
ATOM      3  C2  UNL d   1       4.018  -0.238  -1.609  0.00  0.00    -0.005 A 
ATOM      4  C3  UNL d   1       4.654   0.993  -1.772  0.00  0.00     0.006 A 
ATOM      5  C4  UNL d   1       4.946   1.786  -0.661  0.00  0.00    -0.005 A 
ATOM      6  C5  UNL d   1       4.603   1.353   0.624  0.00  0.00    -0.074 A 
ATOM      7  C6  UNL d   1       4.901   2.197   1.828  0.00  0.00     0.077 C 
ATOM      8  C7  UNL d   1       3.959   0.118   0.779  0.00  0.00    -0.001 A 
ENDROOT
TORSDOF 0
ENDMDL
