MODEL 1
REMARK minimizedAffinity 8.98200321
REMARK minimizedRMSD -1
REMARK  0 active torsions:
REMARK  status: ('A' for Active; 'I' for Inactive)
ROOT
ATOM      1  C   UNL d   1       5.240   2.833  -1.870  0.00  0.00     0.077 C 
ATOM      2  C1  UNL d   1       5.061   1.502  -1.202  0.00  0.00    -0.074 A 
ATOM      3  C2  UNL d   1       5.998   1.031  -0.276  0.00  0.00    -0.005 A 
ATOM      4  C3  UNL d   1       5.814  -0.205   0.344  0.00  0.00     0.006 A 
ATOM      5  C4  UNL d   1       4.693  -0.981   0.046  0.00  0.00    -0.005 A 
ATOM      6  C5  UNL d   1       3.746  -0.526  -0.877  0.00  0.00    -0.074 A 
ATOM      7  C6  UNL d   1       2.531  -1.343  -1.202  0.00  0.00     0.077 C 
ATOM      8  C7  UNL d   1       3.934   0.720  -1.491  0.00  0.00    -0.001 A 
ENDROOT
TORSDOF 0
ENDMDL
