MODEL 1
REMARK minimizedAffinity 6.01896429
REMARK minimizedRMSD -1
REMARK  0 active torsions:
REMARK  status: ('A' for Active; 'I' for Inactive)
ROOT
ATOM      1  C   UNL d   1       1.709   0.332  -0.744  0.00  0.00     0.077 C 
ATOM      2  C1  UNL d   1       3.205   0.392  -0.658  0.00  0.00    -0.074 A 
ATOM      3  C2  UNL d   1       3.932   1.321  -1.410  0.00  0.00    -0.005 A 
ATOM      4  C3  UNL d   1       5.323   1.371  -1.312  0.00  0.00     0.006 A 
ATOM      5  C4  UNL d   1       5.999   0.494  -0.463  0.00  0.00    -0.005 A 
ATOM      6  C5  UNL d   1       5.289  -0.441   0.297  0.00  0.00    -0.074 A 
ATOM      7  C6  UNL d   1       6.000  -1.383   1.223  0.00  0.00     0.077 C 
ATOM      8  C7  UNL d   1       3.892  -0.480   0.199  0.00  0.00    -0.001 A 
ENDROOT
TORSDOF 0
ENDMDL
