MODEL 1
REMARK minimizedAffinity 1.9156822
REMARK minimizedRMSD -1
REMARK  0 active torsions:
REMARK  status: ('A' for Active; 'I' for Inactive)
ROOT
ATOM      1  C   UNL d   1       6.000   2.511  -1.071  0.00  0.00     0.077 C 
ATOM      2  C1  UNL d   1       5.274   1.234  -0.767  0.00  0.00    -0.074 A 
ATOM      3  C2  UNL d   1       5.976   0.055  -0.496  0.00  0.00    -0.005 A 
ATOM      4  C3  UNL d   1       5.287  -1.123  -0.207  0.00  0.00     0.006 A 
ATOM      5  C4  UNL d   1       3.892  -1.134  -0.185  0.00  0.00    -0.005 A 
ATOM      6  C5  UNL d   1       3.173   0.036  -0.452  0.00  0.00    -0.074 A 
ATOM      7  C6  UNL d   1       1.674   0.044  -0.423  0.00  0.00     0.077 C 
ATOM      8  C7  UNL d   1       3.873   1.217  -0.735  0.00  0.00    -0.001 A 
ENDROOT
TORSDOF 0
ENDMDL
