MODEL 1
REMARK minimizedAffinity 3.80062604
REMARK minimizedRMSD -1
REMARK  0 active torsions:
REMARK  status: ('A' for Active; 'I' for Inactive)
ROOT
ATOM      1  C   UNL d   1       3.044   0.754  -0.309  0.00  0.00     0.077 C 
ATOM      2  C1  UNL d   1       2.659  -0.657  -0.642  0.00  0.00    -0.074 A 
ATOM      3  C2  UNL d   1       3.617  -1.675  -0.672  0.00  0.00    -0.005 A 
ATOM      4  C3  UNL d   1       3.242  -2.985  -0.975  0.00  0.00     0.006 A 
ATOM      5  C4  UNL d   1       1.908  -3.288  -1.250  0.00  0.00    -0.005 A 
ATOM      6  C5  UNL d   1       0.936  -2.283  -1.224  0.00  0.00    -0.074 A 
ATOM      7  C6  UNL d   1      -0.504  -2.593  -1.507  0.00  0.00     0.077 C 
ATOM      8  C7  UNL d   1       1.319  -0.971  -0.912  0.00  0.00    -0.001 A 
ENDROOT
TORSDOF 0
ENDMDL
