MODEL 1
REMARK minimizedAffinity 8.11511517
REMARK minimizedRMSD -1
REMARK  0 active torsions:
REMARK  status: ('A' for Active; 'I' for Inactive)
ROOT
ATOM      1  C   UNL d   1       5.358   2.023   1.285  0.00  0.00     0.077 C 
ATOM      2  C1  UNL d   1       5.069   1.280   0.015  0.00  0.00    -0.074 A 
ATOM      3  C2  UNL d   1       5.652   1.671  -1.195  0.00  0.00    -0.005 A 
ATOM      4  C3  UNL d   1       5.381   0.964  -2.366  0.00  0.00     0.006 A 
ATOM      5  C4  UNL d   1       4.527  -0.139  -2.340  0.00  0.00    -0.005 A 
ATOM      6  C5  UNL d   1       3.936  -0.545  -1.139  0.00  0.00    -0.074 A 
ATOM      7  C6  UNL d   1       3.024  -1.735  -1.092  0.00  0.00     0.077 C 
ATOM      8  C7  UNL d   1       4.218   0.166   0.035  0.00  0.00    -0.001 A 
ENDROOT
TORSDOF 0
ENDMDL
