MODEL 1
REMARK minimizedAffinity 6.25450993
REMARK minimizedRMSD -1
REMARK  0 active torsions:
REMARK  status: ('A' for Active; 'I' for Inactive)
ROOT
ATOM      1  C   UNL d   1       4.843   3.092  -1.169  0.00  0.00     0.077 C 
ATOM      2  C1  UNL d   1       4.826   1.656  -0.738  0.00  0.00    -0.074 A 
ATOM      3  C2  UNL d   1       5.994   1.021  -0.304  0.00  0.00    -0.005 A 
ATOM      4  C3  UNL d   1       5.961  -0.313   0.102  0.00  0.00     0.006 A 
ATOM      5  C4  UNL d   1       4.760  -1.024   0.079  0.00  0.00    -0.005 A 
ATOM      6  C5  UNL d   1       3.582  -0.406  -0.351  0.00  0.00    -0.074 A 
ATOM      7  C6  UNL d   1       2.282  -1.154  -0.372  0.00  0.00     0.077 C 
ATOM      8  C7  UNL d   1       3.622   0.936  -0.751  0.00  0.00    -0.001 A 
ENDROOT
TORSDOF 0
ENDMDL
