MODEL 1
REMARK minimizedAffinity 7.53508282
REMARK minimizedRMSD -1
REMARK  0 active torsions:
REMARK  status: ('A' for Active; 'I' for Inactive)
ROOT
ATOM      1  C   UNL d   1       4.197   0.263  -0.718  0.00  0.00     0.077 C 
ATOM      2  C1  UNL d   1       3.422  -1.011  -0.880  0.00  0.00    -0.074 A 
ATOM      3  C2  UNL d   1       2.726  -1.570   0.196  0.00  0.00    -0.005 A 
ATOM      4  C3  UNL d   1       2.001  -2.750   0.028  0.00  0.00     0.006 A 
ATOM      5  C4  UNL d   1       1.966  -3.382  -1.215  0.00  0.00    -0.005 A 
ATOM      6  C5  UNL d   1       2.655  -2.837  -2.303  0.00  0.00    -0.074 A 
ATOM      7  C6  UNL d   1       2.620  -3.497  -3.649  0.00  0.00     0.077 C 
ATOM      8  C7  UNL d   1       3.375  -1.647  -2.128  0.00  0.00    -0.001 A 
ENDROOT
TORSDOF 0
ENDMDL
