MODEL 1
REMARK minimizedAffinity 4.35875273
REMARK minimizedRMSD -1
REMARK  0 active torsions:
REMARK  status: ('A' for Active; 'I' for Inactive)
ROOT
ATOM      1  C   UNL d   1       5.989   5.170  -1.633  0.00  0.00     0.077 C 
ATOM      2  C1  UNL d   1       5.631   3.941  -0.852  0.00  0.00    -0.074 A 
ATOM      3  C2  UNL d   1       5.996   3.813   0.492  0.00  0.00    -0.005 A 
ATOM      4  C3  UNL d   1       5.647   2.668   1.209  0.00  0.00     0.006 A 
ATOM      5  C4  UNL d   1       4.931   1.642   0.590  0.00  0.00    -0.005 A 
ATOM      6  C5  UNL d   1       4.557   1.754  -0.752  0.00  0.00    -0.074 A 
ATOM      7  C6  UNL d   1       3.778   0.665  -1.430  0.00  0.00     0.077 C 
ATOM      8  C7  UNL d   1       4.905   2.910  -1.464  0.00  0.00    -0.001 A 
ENDROOT
TORSDOF 0
ENDMDL
