MODEL 1
REMARK minimizedAffinity 15.2059059
REMARK minimizedRMSD -1
REMARK  0 active torsions:
REMARK  status: ('A' for Active; 'I' for Inactive)
ROOT
ATOM      1  C   UNL d   1      -2.246  -6.000  -5.251  0.00  0.00     0.077 C 
ATOM      2  C1  UNL d   1      -2.153  -5.197  -3.987  0.00  0.00    -0.074 A 
ATOM      3  C2  UNL d   1      -3.015  -4.121  -3.753  0.00  0.00    -0.005 A 
ATOM      4  C3  UNL d   1      -2.922  -3.390  -2.569  0.00  0.00     0.006 A 
ATOM      5  C4  UNL d   1      -1.968  -3.726  -1.609  0.00  0.00    -0.005 A 
ATOM      6  C5  UNL d   1      -1.097  -4.799  -1.825  0.00  0.00    -0.074 A 
ATOM      7  C6  UNL d   1      -0.072  -5.179  -0.799  0.00  0.00     0.077 C 
ATOM      8  C7  UNL d   1      -1.201  -5.533  -3.014  0.00  0.00    -0.001 A 
ENDROOT
TORSDOF 0
ENDMDL
