MODEL 1
REMARK minimizedAffinity 14.6038103
REMARK minimizedRMSD -1
REMARK  0 active torsions:
REMARK  status: ('A' for Active; 'I' for Inactive)
ROOT
ATOM      1  C   UNL d   1       2.683  -5.898   6.000  0.00  0.00     0.077 C 
ATOM      2  C1  UNL d   1       1.714  -5.054   5.227  0.00  0.00    -0.074 A 
ATOM      3  C2  UNL d   1       0.343  -5.333   5.246  0.00  0.00    -0.005 A 
ATOM      4  C3  UNL d   1      -0.547  -4.534   4.530  0.00  0.00     0.006 A 
ATOM      5  C4  UNL d   1      -0.078  -3.448   3.789  0.00  0.00    -0.005 A 
ATOM      6  C5  UNL d   1       1.289  -3.153   3.760  0.00  0.00    -0.074 A 
ATOM      7  C6  UNL d   1       1.809  -1.984   2.977  0.00  0.00     0.077 C 
ATOM      8  C7  UNL d   1       2.177  -3.957   4.487  0.00  0.00    -0.001 A 
ENDROOT
TORSDOF 0
ENDMDL
