MODEL 1
REMARK minimizedAffinity 8.05533123
REMARK minimizedRMSD -1
REMARK  0 active torsions:
REMARK  status: ('A' for Active; 'I' for Inactive)
ROOT
ATOM      1  C   UNL d   1       4.559   0.883  -1.653  0.00  0.00     0.077 C 
ATOM      2  C1  UNL d   1       5.055   2.165  -1.052  0.00  0.00    -0.074 A 
ATOM      3  C2  UNL d   1       5.306   2.266   0.320  0.00  0.00    -0.005 A 
ATOM      4  C3  UNL d   1       5.776   3.462   0.863  0.00  0.00     0.006 A 
ATOM      5  C4  UNL d   1       5.999   4.567   0.040  0.00  0.00    -0.005 A 
ATOM      6  C5  UNL d   1       5.755   4.484  -1.334  0.00  0.00    -0.074 A 
ATOM      7  C6  UNL d   1       5.999   5.659  -2.234  0.00  0.00     0.077 C 
ATOM      8  C7  UNL d   1       5.289   3.277  -1.873  0.00  0.00    -0.001 A 
ENDROOT
TORSDOF 0
ENDMDL
