MODEL 1
REMARK minimizedAffinity -2.4025054
REMARK minimizedRMSD -1
REMARK  0 active torsions:
REMARK  status: ('A' for Active; 'I' for Inactive)
ROOT
ATOM      1  C   UNL d   1       0.196  -2.387   1.330  0.00  0.00     0.077 C 
ATOM      2  C1  UNL d   1      -0.000  -1.054   0.671  0.00  0.00    -0.074 A 
ATOM      3  C2  UNL d   1       0.976  -0.056   0.762  0.00  0.00    -0.005 A 
ATOM      4  C3  UNL d   1       0.783   1.175   0.136  0.00  0.00     0.006 A 
ATOM      5  C4  UNL d   1      -0.385   1.421  -0.587  0.00  0.00    -0.005 A 
ATOM      6  C5  UNL d   1      -1.371   0.435  -0.690  0.00  0.00    -0.074 A 
ATOM      7  C6  UNL d   1      -2.628   0.680  -1.471  0.00  0.00     0.077 C 
ATOM      8  C7  UNL d   1      -1.168  -0.802  -0.063  0.00  0.00    -0.001 A 
ENDROOT
TORSDOF 0
ENDMDL
