MODEL 1
REMARK minimizedAffinity 1.69094026
REMARK minimizedRMSD -1
REMARK  0 active torsions:
REMARK  status: ('A' for Active; 'I' for Inactive)
ROOT
ATOM      1  C   UNL d   1      -0.385   4.566   0.891  0.00  0.00     0.077 C 
ATOM      2  C1  UNL d   1       0.360   3.372   0.374  0.00  0.00    -0.074 A 
ATOM      3  C2  UNL d   1       1.469   3.524  -0.463  0.00  0.00    -0.005 A 
ATOM      4  C3  UNL d   1       2.158   2.403  -0.929  0.00  0.00     0.006 A 
ATOM      5  C4  UNL d   1       1.744   1.122  -0.562  0.00  0.00    -0.005 A 
ATOM      6  C5  UNL d   1       0.638   0.951   0.275  0.00  0.00    -0.074 A 
ATOM      7  C6  UNL d   1       0.186  -0.419   0.687  0.00  0.00     0.077 C 
ATOM      8  C7  UNL d   1      -0.045   2.081   0.745  0.00  0.00    -0.001 A 
ENDROOT
TORSDOF 0
ENDMDL
