MODEL 1
REMARK minimizedAffinity -4.70476389
REMARK minimizedRMSD -1
REMARK  0 active torsions:
REMARK  status: ('A' for Active; 'I' for Inactive)
ROOT
ATOM      1  C   UNL d   1      -0.530  -2.088   1.164  0.00  0.00     0.077 C 
ATOM      2  C1  UNL d   1       0.386  -0.932   0.889  0.00  0.00    -0.074 A 
ATOM      3  C2  UNL d   1       1.762  -1.035   1.117  0.00  0.00    -0.005 A 
ATOM      4  C3  UNL d   1       2.602   0.045   0.848  0.00  0.00     0.006 A 
ATOM      5  C4  UNL d   1       2.076   1.237   0.349  0.00  0.00    -0.005 A 
ATOM      6  C5  UNL d   1       0.702   1.359   0.114  0.00  0.00    -0.074 A 
ATOM      7  C6  UNL d   1       0.122   2.630  -0.431  0.00  0.00     0.077 C 
ATOM      8  C7  UNL d   1      -0.134   0.266   0.381  0.00  0.00    -0.001 A 
ENDROOT
TORSDOF 0
ENDMDL
