MODEL 1
REMARK minimizedAffinity -5.42620802
REMARK minimizedRMSD -1
REMARK  0 active torsions:
REMARK  status: ('A' for Active; 'I' for Inactive)
ROOT
ATOM      1  C   UNL d   1       0.224  -2.742   1.772  0.00  0.00     0.077 C 
ATOM      2  C1  UNL d   1       1.113  -1.573   1.469  0.00  0.00    -0.074 A 
ATOM      3  C2  UNL d   1       2.408  -1.499   1.992  0.00  0.00    -0.005 A 
ATOM      4  C3  UNL d   1       3.227  -0.410   1.694  0.00  0.00     0.006 A 
ATOM      5  C4  UNL d   1       2.760   0.615   0.870  0.00  0.00    -0.005 A 
ATOM      6  C5  UNL d   1       1.468   0.558   0.337  0.00  0.00    -0.074 A 
ATOM      7  C6  UNL d   1       0.954   1.647  -0.558  0.00  0.00     0.077 C 
ATOM      8  C7  UNL d   1       0.654  -0.543   0.636  0.00  0.00    -0.001 A 
ENDROOT
TORSDOF 0
ENDMDL
