MODEL 1
REMARK minimizedAffinity -4.24953794
REMARK minimizedRMSD -1
REMARK  0 active torsions:
REMARK  status: ('A' for Active; 'I' for Inactive)
ROOT
ATOM      1  C   UNL d   1      -0.678   0.497  -0.495  0.00  0.00     0.077 C 
ATOM      2  C1  UNL d   1       0.574   0.034   0.190  0.00  0.00    -0.074 A 
ATOM      3  C2  UNL d   1       1.761   0.766   0.089  0.00  0.00    -0.005 A 
ATOM      4  C3  UNL d   1       2.915   0.328   0.739  0.00  0.00     0.006 A 
ATOM      5  C4  UNL d   1       2.892  -0.844   1.496  0.00  0.00    -0.005 A 
ATOM      6  C5  UNL d   1       1.714  -1.588   1.610  0.00  0.00    -0.074 A 
ATOM      7  C6  UNL d   1       1.670  -2.845   2.427  0.00  0.00     0.077 C 
ATOM      8  C7  UNL d   1       0.557  -1.138   0.959  0.00  0.00    -0.001 A 
ENDROOT
TORSDOF 0
ENDMDL
