MODEL 1
REMARK minimizedAffinity -5.69283199
REMARK minimizedRMSD -1
REMARK  0 active torsions:
REMARK  status: ('A' for Active; 'I' for Inactive)
ROOT
ATOM      1  C   UNL d   1      -1.191   0.048   0.372  0.00  0.00     0.077 C 
ATOM      2  C1  UNL d   1       0.278  -0.144   0.602  0.00  0.00    -0.074 A 
ATOM      3  C2  UNL d   1       1.177   0.913   0.427  0.00  0.00    -0.005 A 
ATOM      4  C3  UNL d   1       2.540   0.722   0.654  0.00  0.00     0.006 A 
ATOM      5  C4  UNL d   1       3.017  -0.526   1.057  0.00  0.00    -0.005 A 
ATOM      6  C5  UNL d   1       2.133  -1.594   1.238  0.00  0.00    -0.074 A 
ATOM      7  C6  UNL d   1       2.628  -2.939   1.680  0.00  0.00     0.077 C 
ATOM      8  C7  UNL d   1       0.764  -1.392   1.014  0.00  0.00    -0.001 A 
ENDROOT
TORSDOF 0
ENDMDL
