MODEL 1
REMARK minimizedAffinity -3.71025848
REMARK minimizedRMSD -1
REMARK  0 active torsions:
REMARK  status: ('A' for Active; 'I' for Inactive)
ROOT
ATOM      1  C   UNL d   1      -2.334   0.366  -2.378  0.00  0.00     0.077 C 
ATOM      2  C1  UNL d   1      -1.544  -0.084  -1.185  0.00  0.00    -0.074 A 
ATOM      3  C2  UNL d   1      -2.054  -1.044  -0.305  0.00  0.00    -0.005 A 
ATOM      4  C3  UNL d   1      -1.304  -1.459   0.794  0.00  0.00     0.006 A 
ATOM      5  C4  UNL d   1      -0.037  -0.920   1.025  0.00  0.00    -0.005 A 
ATOM      6  C5  UNL d   1       0.490   0.040   0.155  0.00  0.00    -0.074 A 
ATOM      7  C6  UNL d   1       1.853   0.622   0.383  0.00  0.00     0.077 C 
ATOM      8  C7  UNL d   1      -0.268   0.447  -0.951  0.00  0.00    -0.001 A 
ENDROOT
TORSDOF 0
ENDMDL
