MODEL 1
REMARK minimizedAffinity -4.93794441
REMARK minimizedRMSD -1
REMARK  0 active torsions:
REMARK  status: ('A' for Active; 'I' for Inactive)
ROOT
ATOM      1  C   UNL d   1      -0.886  -0.823  -4.023  0.00  0.00     0.077 C 
ATOM      2  C1  UNL d   1      -0.719  -0.470  -2.575  0.00  0.00    -0.074 A 
ATOM      3  C2  UNL d   1      -1.799  -0.004  -1.820  0.00  0.00    -0.005 A 
ATOM      4  C3  UNL d   1      -1.631   0.311  -0.472  0.00  0.00     0.006 A 
ATOM      5  C4  UNL d   1      -0.382   0.165   0.134  0.00  0.00    -0.005 A 
ATOM      6  C5  UNL d   1       0.710  -0.300  -0.606  0.00  0.00    -0.074 A 
ATOM      7  C6  UNL d   1       2.057  -0.472   0.031  0.00  0.00     0.077 C 
ATOM      8  C7  UNL d   1       0.531  -0.622  -1.958  0.00  0.00    -0.001 A 
ENDROOT
TORSDOF 0
ENDMDL
