MODEL 1
REMARK minimizedAffinity -5.31493568
REMARK minimizedRMSD -1
REMARK  0 active torsions:
REMARK  status: ('A' for Active; 'I' for Inactive)
ROOT
ATOM      1  C   UNL d   1       3.234  -1.104   0.686  0.00  0.00     0.077 C 
ATOM      2  C1  UNL d   1       2.110  -0.157   0.392  0.00  0.00    -0.074 A 
ATOM      3  C2  UNL d   1       2.178   1.184   0.785  0.00  0.00    -0.005 A 
ATOM      4  C3  UNL d   1       1.128   2.055   0.496  0.00  0.00     0.006 A 
ATOM      5  C4  UNL d   1       0.002   1.597  -0.189  0.00  0.00    -0.005 A 
ATOM      6  C5  UNL d   1      -0.083   0.260  -0.591  0.00  0.00    -0.074 A 
ATOM      7  C6  UNL d   1      -1.282  -0.247  -1.336  0.00  0.00     0.077 C 
ATOM      8  C7  UNL d   1       0.978  -0.608  -0.302  0.00  0.00    -0.001 A 
ENDROOT
TORSDOF 0
ENDMDL
