MODEL 1
REMARK minimizedAffinity -1.63306105
REMARK minimizedRMSD -1
REMARK  1 active torsions:
REMARK  status: ('A' for Active; 'I' for Inactive)
REMARK    1  A    between atoms: C1_2  and  C2_3 
ROOT
ATOM      1  C2  UNL d   1       1.056   0.213   0.163  0.00  0.00    -0.077 A 
ATOM      2  C3  UNL d   1      -0.231   0.397  -0.361  0.00  0.00     0.002 A 
ATOM      3  C4  UNL d   1      -1.294  -0.389   0.086  0.00  0.00     0.002 A 
ATOM      4  C5  UNL d   1      -1.083  -1.361   1.061  0.00  0.00    -0.004 A 
ATOM      5  C6  UNL d   1       0.194  -1.553   1.587  0.00  0.00     0.002 A 
ATOM      6  C7  UNL d   1       1.258  -0.769   1.141  0.00  0.00     0.002 A 
ENDROOT
BRANCH   1   7
ATOM      7  C1  UNL d   1       2.195   1.093  -0.282  0.00  0.00     0.055 C 
ATOM      8  C   UNL d   1       2.276   2.360   0.557  0.00  0.00     0.019 C 
ENDBRANCH   1   7
TORSDOF 1
ENDMDL
