MODEL 1
REMARK minimizedAffinity -4.10834312
REMARK minimizedRMSD -1
REMARK  1 active torsions:
REMARK  status: ('A' for Active; 'I' for Inactive)
REMARK    1  A    between atoms: C1_2  and  C2_3 
ROOT
ATOM      1  C2  UNL d   1      -1.729  -0.876   0.164  0.00  0.00    -0.077 A 
ATOM      2  C3  UNL d   1      -2.479  -1.303  -0.941  0.00  0.00     0.002 A 
ATOM      3  C4  UNL d   1      -2.102  -0.936  -2.234  0.00  0.00     0.002 A 
ATOM      4  C5  UNL d   1      -0.973  -0.145  -2.435  0.00  0.00    -0.004 A 
ATOM      5  C6  UNL d   1      -0.222   0.286  -1.342  0.00  0.00     0.002 A 
ATOM      6  C7  UNL d   1      -0.598  -0.078  -0.049  0.00  0.00     0.002 A 
ENDROOT
BRANCH   1   7
ATOM      7  C1  UNL d   1      -2.106  -1.311   1.556  0.00  0.00     0.055 C 
ATOM      8  C   UNL d   1      -0.945  -2.007   2.252  0.00  0.00     0.019 C 
ENDBRANCH   1   7
TORSDOF 1
ENDMDL
