MODEL 1
REMARK minimizedAffinity -4.90008736
REMARK minimizedRMSD -1
REMARK  1 active torsions:
REMARK  status: ('A' for Active; 'I' for Inactive)
REMARK    1  A    between atoms: C1_2  and  C2_3 
ROOT
ATOM      1  C2  UNL d   1      -1.284  -0.416  -0.690  0.00  0.00    -0.077 A 
ATOM      2  C3  UNL d   1      -0.969  -0.921   0.580  0.00  0.00     0.002 A 
ATOM      3  C4  UNL d   1       0.283  -0.677   1.146  0.00  0.00     0.002 A 
ATOM      4  C5  UNL d   1       1.229   0.076   0.453  0.00  0.00    -0.004 A 
ATOM      5  C6  UNL d   1       0.926   0.581  -0.811  0.00  0.00     0.002 A 
ATOM      6  C7  UNL d   1      -0.325   0.337  -1.379  0.00  0.00     0.002 A 
ENDROOT
BRANCH   1   7
ATOM      7  C1  UNL d   1      -2.652  -0.637  -1.282  0.00  0.00     0.055 C 
ATOM      8  C   UNL d   1      -3.672  -0.979  -0.206  0.00  0.00     0.019 C 
ENDBRANCH   1   7
TORSDOF 1
ENDMDL
