MODEL 1
REMARK minimizedAffinity -5.1732235
REMARK minimizedRMSD -1
REMARK  1 active torsions:
REMARK  status: ('A' for Active; 'I' for Inactive)
REMARK    1  A    between atoms: C1_2  and  C2_3 
ROOT
ATOM      1  C2  UNL d   1       0.195   0.308   0.214  0.00  0.00    -0.077 A 
ATOM      2  C3  UNL d   1      -0.845  -0.312   0.921  0.00  0.00     0.002 A 
ATOM      3  C4  UNL d   1      -2.042  -0.635   0.279  0.00  0.00     0.002 A 
ATOM      4  C5  UNL d   1      -2.209  -0.346  -1.074  0.00  0.00    -0.004 A 
ATOM      5  C6  UNL d   1      -1.182   0.273  -1.785  0.00  0.00     0.002 A 
ATOM      6  C7  UNL d   1       0.015   0.597  -1.145  0.00  0.00     0.002 A 
ENDROOT
BRANCH   1   7
ATOM      7  C1  UNL d   1       1.505   0.612   0.892  0.00  0.00     0.055 C 
ATOM      8  C   UNL d   1       2.074   1.944   0.425  0.00  0.00     0.019 C 
ENDBRANCH   1   7
TORSDOF 1
ENDMDL
