MODEL 1
REMARK minimizedAffinity -5.83988476
REMARK minimizedRMSD -1
REMARK  1 active torsions:
REMARK  status: ('A' for Active; 'I' for Inactive)
REMARK    1  A    between atoms: C1_2  and  C2_3 
ROOT
ATOM      1  C2  UNL d   1      -1.944  -1.371   0.325  0.00  0.00    -0.077 A 
ATOM      2  C3  UNL d   1      -2.998  -0.837  -0.430  0.00  0.00     0.002 A 
ATOM      3  C4  UNL d   1      -2.782   0.257  -1.270  0.00  0.00     0.002 A 
ATOM      4  C5  UNL d   1      -1.512   0.823  -1.367  0.00  0.00    -0.004 A 
ATOM      5  C6  UNL d   1      -0.458   0.300  -0.618  0.00  0.00     0.002 A 
ATOM      6  C7  UNL d   1      -0.673  -0.792   0.223  0.00  0.00     0.002 A 
ENDROOT
BRANCH   1   7
ATOM      7  C1  UNL d   1      -2.165  -2.582   1.194  0.00  0.00     0.055 C 
ATOM      8  C   UNL d   1      -0.981  -2.821   2.119  0.00  0.00     0.019 C 
ENDBRANCH   1   7
TORSDOF 1
ENDMDL
