MODEL 1
REMARK minimizedAffinity -4.72670746
REMARK minimizedRMSD -1
REMARK  1 active torsions:
REMARK  status: ('A' for Active; 'I' for Inactive)
REMARK    1  A    between atoms: C1_2  and  C2_3 
ROOT
ATOM      1  C2  UNL d   1       0.010   0.029  -0.310  0.00  0.00    -0.077 A 
ATOM      2  C3  UNL d   1      -1.138  -0.441   0.343  0.00  0.00     0.002 A 
ATOM      3  C4  UNL d   1      -2.347  -0.552  -0.346  0.00  0.00     0.002 A 
ATOM      4  C5  UNL d   1      -2.420  -0.199  -1.692  0.00  0.00    -0.004 A 
ATOM      5  C6  UNL d   1      -1.284   0.273  -2.350  0.00  0.00     0.002 A 
ATOM      6  C7  UNL d   1      -0.075   0.385  -1.663  0.00  0.00     0.002 A 
ENDROOT
BRANCH   1   7
ATOM      7  C1  UNL d   1       1.326   0.103   0.418  0.00  0.00     0.055 C 
ATOM      8  C   UNL d   1       1.647   1.530   0.839  0.00  0.00     0.019 C 
ENDBRANCH   1   7
TORSDOF 1
ENDMDL
