MODEL 1
REMARK minimizedAffinity -2.64454794
REMARK minimizedRMSD -1
REMARK  1 active torsions:
REMARK  status: ('A' for Active; 'I' for Inactive)
REMARK    1  A    between atoms: C1_2  and  C2_3 
ROOT
ATOM      1  C2  UNL d   1       1.317   1.303   0.342  0.00  0.00    -0.077 A 
ATOM      2  C3  UNL d   1       1.927   1.011   1.570  0.00  0.00     0.002 A 
ATOM      3  C4  UNL d   1       2.714   1.968   2.213  0.00  0.00     0.002 A 
ATOM      4  C5  UNL d   1       2.894   3.224   1.639  0.00  0.00    -0.004 A 
ATOM      5  C6  UNL d   1       2.293   3.524   0.417  0.00  0.00     0.002 A 
ATOM      6  C7  UNL d   1       1.507   2.568  -0.228  0.00  0.00     0.002 A 
ENDROOT
BRANCH   1   7
ATOM      7  C1  UNL d   1       0.427   0.289  -0.329  0.00  0.00     0.055 C 
ATOM      8  C   UNL d   1      -0.729  -0.117   0.574  0.00  0.00     0.019 C 
ENDBRANCH   1   7
TORSDOF 1
ENDMDL
