MODEL 1
REMARK minimizedAffinity -4.80168533
REMARK minimizedRMSD -1
REMARK  1 active torsions:
REMARK  status: ('A' for Active; 'I' for Inactive)
REMARK    1  A    between atoms: C1_2  and  C2_3 
ROOT
ATOM      1  C2  UNL d   1      -0.989  -0.433   0.679  0.00  0.00    -0.077 A 
ATOM      2  C3  UNL d   1      -0.164   0.384  -0.106  0.00  0.00     0.002 A 
ATOM      3  C4  UNL d   1       1.225   0.304   0.010  0.00  0.00     0.002 A 
ATOM      4  C5  UNL d   1       1.800  -0.594   0.906  0.00  0.00    -0.004 A 
ATOM      5  C6  UNL d   1       0.988  -1.410   1.693  0.00  0.00     0.002 A 
ATOM      6  C7  UNL d   1      -0.401  -1.330   1.580  0.00  0.00     0.002 A 
ENDROOT
BRANCH   1   7
ATOM      7  C1  UNL d   1      -2.487  -0.382   0.521  0.00  0.00     0.055 C 
ATOM      8  C   UNL d   1      -2.940  -1.165  -0.703  0.00  0.00     0.019 C 
ENDBRANCH   1   7
TORSDOF 1
ENDMDL
