MODEL 1
REMARK minimizedAffinity 2.35150552
REMARK minimizedRMSD -1
REMARK  1 active torsions:
REMARK  status: ('A' for Active; 'I' for Inactive)
REMARK    1  A    between atoms: C1_2  and  C2_3 
ROOT
ATOM      1  C2  UNL d   1       1.022  -0.363   0.527  0.00  0.00    -0.076 A 
ATOM      2  C3  UNL d   1       1.106  -1.510   1.335  0.00  0.00     0.004 A 
ATOM      3  C4  UNL d   1      -0.042  -2.114   1.845  0.00  0.00    -0.003 A 
ATOM      4  C5  UNL d   1      -1.293  -1.581   1.554  0.00  0.00     0.000 A 
ATOM      5  C6  UNL d   1      -1.396  -0.454   0.740  0.00  0.00     0.000 A 
ATOM      6  C7  UNL d   1      -0.249   0.158   0.205  0.00  0.00    -0.073 A 
ATOM      7  C8  UNL d   1      -0.418   1.375  -0.663  0.00  0.00     0.078 C 
ENDROOT
BRANCH   1   8
ATOM      8  C1  UNL d   1       2.303   0.264   0.025  0.00  0.00     0.053 C 
ATOM      9  C   UNL d   1       2.509   1.674   0.557  0.00  0.00     0.018 C 
ENDBRANCH   1   8
TORSDOF 1
ENDMDL
