MODEL 1
REMARK minimizedAffinity -3.83401012
REMARK minimizedRMSD -1
REMARK  1 active torsions:
REMARK  status: ('A' for Active; 'I' for Inactive)
REMARK    1  A    between atoms: C1_2  and  C2_3 
ROOT
ATOM      1  C2  UNL d   1      -0.096  -0.401   0.169  0.00  0.00    -0.076 A 
ATOM      2  C3  UNL d   1      -0.794   0.336  -0.803  0.00  0.00     0.004 A 
ATOM      3  C4  UNL d   1      -2.154   0.124  -1.025  0.00  0.00    -0.003 A 
ATOM      4  C5  UNL d   1      -2.838  -0.827  -0.276  0.00  0.00     0.000 A 
ATOM      5  C6  UNL d   1      -2.165  -1.555   0.705  0.00  0.00     0.000 A 
ATOM      6  C7  UNL d   1      -0.798  -1.342   0.952  0.00  0.00    -0.073 A 
ATOM      7  C8  UNL d   1      -0.121  -2.160   2.018  0.00  0.00     0.078 C 
ENDROOT
BRANCH   1   8
ATOM      8  C1  UNL d   1       1.384  -0.147   0.346  0.00  0.00     0.053 C 
ATOM      9  C   UNL d   1       1.673   1.219   0.949  0.00  0.00     0.018 C 
ENDBRANCH   1   8
TORSDOF 1
ENDMDL
