MODEL 1
REMARK minimizedAffinity -0.940415978
REMARK minimizedRMSD -1
REMARK  1 active torsions:
REMARK  status: ('A' for Active; 'I' for Inactive)
REMARK    1  A    between atoms: C1_2  and  C2_3 
ROOT
ATOM      1  C2  UNL d   1       0.816   0.640   0.245  0.00  0.00    -0.076 A 
ATOM      2  C3  UNL d   1       0.115   1.377  -0.725  0.00  0.00     0.004 A 
ATOM      3  C4  UNL d   1      -0.964   0.818  -1.408  0.00  0.00    -0.003 A 
ATOM      4  C5  UNL d   1      -1.359  -0.486  -1.133  0.00  0.00     0.000 A 
ATOM      5  C6  UNL d   1      -0.685  -1.226  -0.161  0.00  0.00     0.000 A 
ATOM      6  C7  UNL d   1       0.394  -0.672   0.549  0.00  0.00    -0.073 A 
ATOM      7  C8  UNL d   1       1.088  -1.517   1.582  0.00  0.00     0.078 C 
ENDROOT
BRANCH   1   8
ATOM      8  C1  UNL d   1       1.995   1.289   0.935  0.00  0.00     0.053 C 
ATOM      9  C   UNL d   1       2.413   2.592   0.272  0.00  0.00     0.018 C 
ENDBRANCH   1   8
TORSDOF 1
ENDMDL
