MODEL 1
REMARK minimizedAffinity -3.66451383
REMARK minimizedRMSD -1
REMARK  1 active torsions:
REMARK  status: ('A' for Active; 'I' for Inactive)
REMARK    1  A    between atoms: C1_2  and  C2_3 
ROOT
ATOM      1  C2  UNL d   1       0.215  -0.112  -0.202  0.00  0.00    -0.076 A 
ATOM      2  C3  UNL d   1      -0.470   0.557  -1.232  0.00  0.00     0.004 A 
ATOM      3  C4  UNL d   1      -1.819   0.308  -1.475  0.00  0.00    -0.003 A 
ATOM      4  C5  UNL d   1      -2.507  -0.612  -0.692  0.00  0.00     0.000 A 
ATOM      5  C6  UNL d   1      -1.848  -1.272   0.345  0.00  0.00     0.000 A 
ATOM      6  C7  UNL d   1      -0.491  -1.021   0.614  0.00  0.00    -0.073 A 
ATOM      7  C8  UNL d   1       0.171  -1.765   1.741  0.00  0.00     0.078 C 
ENDROOT
BRANCH   1   8
ATOM      8  C1  UNL d   1       1.686   0.178  -0.003  0.00  0.00     0.053 C 
ATOM      9  C   UNL d   1       1.927   1.490   0.727  0.00  0.00     0.018 C 
ENDBRANCH   1   8
TORSDOF 1
ENDMDL
