MODEL 1
REMARK minimizedAffinity -3.72882462
REMARK minimizedRMSD -1
REMARK  1 active torsions:
REMARK  status: ('A' for Active; 'I' for Inactive)
REMARK    1  A    between atoms: C1_2  and  C2_3 
ROOT
ATOM      1  C2  UNL d   1       0.091  -0.304  -0.028  0.00  0.00    -0.076 A 
ATOM      2  C3  UNL d   1      -0.164   0.340  -1.251  0.00  0.00     0.004 A 
ATOM      3  C4  UNL d   1      -1.400   0.215  -1.884  0.00  0.00    -0.003 A 
ATOM      4  C5  UNL d   1      -2.401  -0.555  -1.303  0.00  0.00     0.000 A 
ATOM      5  C6  UNL d   1      -2.172  -1.187  -0.081  0.00  0.00     0.000 A 
ATOM      6  C7  UNL d   1      -0.937  -1.058   0.578  0.00  0.00    -0.073 A 
ATOM      7  C8  UNL d   1      -0.743  -1.765   1.891  0.00  0.00     0.078 C 
ENDROOT
BRANCH   1   8
ATOM      8  C1  UNL d   1       1.459  -0.154   0.598  0.00  0.00     0.053 C 
ATOM      9  C   UNL d   1       2.121   1.168   0.242  0.00  0.00     0.018 C 
ENDBRANCH   1   8
TORSDOF 1
ENDMDL
