MODEL 1
REMARK minimizedAffinity -3.86462283
REMARK minimizedRMSD -1
REMARK  1 active torsions:
REMARK  status: ('A' for Active; 'I' for Inactive)
REMARK    1  A    between atoms: C1_2  and  C2_3 
ROOT
ATOM      1  C2  UNL d   1      -0.757  -0.844  -0.054  0.00  0.00    -0.076 A 
ATOM      2  C3  UNL d   1       0.399  -0.564  -0.805  0.00  0.00     0.004 A 
ATOM      3  C4  UNL d   1       0.311   0.034  -2.061  0.00  0.00    -0.003 A 
ATOM      4  C5  UNL d   1      -0.934   0.362  -2.587  0.00  0.00     0.000 A 
ATOM      5  C6  UNL d   1      -2.089   0.107  -1.849  0.00  0.00     0.000 A 
ATOM      6  C7  UNL d   1      -2.017  -0.480  -0.574  0.00  0.00    -0.073 A 
ATOM      7  C8  UNL d   1      -3.296  -0.737   0.176  0.00  0.00     0.078 C 
ENDROOT
BRANCH   1   8
ATOM      8  C1  UNL d   1      -0.601  -1.518   1.290  0.00  0.00     0.053 C 
ATOM      9  C   UNL d   1       0.711  -2.277   1.413  0.00  0.00     0.018 C 
ENDBRANCH   1   8
TORSDOF 1
ENDMDL
