MODEL 1
REMARK minimizedAffinity -2.88764882
REMARK minimizedRMSD -1
REMARK  1 active torsions:
REMARK  status: ('A' for Active; 'I' for Inactive)
REMARK    1  A    between atoms: C1_2  and  C2_3 
ROOT
ATOM      1  C2  UNL d   1       0.281   0.522   0.175  0.00  0.00    -0.076 A 
ATOM      2  C3  UNL d   1      -0.481   1.481  -0.515  0.00  0.00     0.004 A 
ATOM      3  C4  UNL d   1      -1.836   1.274  -0.769  0.00  0.00    -0.003 A 
ATOM      4  C5  UNL d   1      -2.451   0.104  -0.336  0.00  0.00     0.000 A 
ATOM      5  C6  UNL d   1      -1.715  -0.850   0.366  0.00  0.00     0.000 A 
ATOM      6  C7  UNL d   1      -0.352  -0.649   0.644  0.00  0.00    -0.073 A 
ATOM      7  C8  UNL d   1       0.395  -1.714   1.400  0.00  0.00     0.078 C 
ENDROOT
BRANCH   1   8
ATOM      8  C1  UNL d   1       1.752   0.789   0.397  0.00  0.00     0.053 C 
ATOM      9  C   UNL d   1       2.075   2.275   0.440  0.00  0.00     0.018 C 
ENDBRANCH   1   8
TORSDOF 1
ENDMDL
