MODEL 1
REMARK minimizedAffinity -4.53019762
REMARK minimizedRMSD -1
REMARK  1 active torsions:
REMARK  status: ('A' for Active; 'I' for Inactive)
REMARK    1  A    between atoms: C1_2  and  C2_3 
ROOT
ATOM      1  C2  UNL d   1       0.099   0.152  -0.117  0.00  0.00    -0.076 A 
ATOM      2  C3  UNL d   1      -0.711  -0.147   0.992  0.00  0.00     0.004 A 
ATOM      3  C4  UNL d   1      -2.033  -0.555   0.825  0.00  0.00    -0.003 A 
ATOM      4  C5  UNL d   1      -2.567  -0.672  -0.453  0.00  0.00     0.000 A 
ATOM      5  C6  UNL d   1      -1.772  -0.397  -1.566  0.00  0.00     0.000 A 
ATOM      6  C7  UNL d   1      -0.432  -0.000  -1.416  0.00  0.00    -0.073 A 
ATOM      7  C8  UNL d   1       0.377   0.289  -2.650  0.00  0.00     0.078 C 
ENDROOT
BRANCH   1   8
ATOM      8  C1  UNL d   1       1.518   0.616   0.126  0.00  0.00     0.053 C 
ATOM      9  C   UNL d   1       1.589   1.793   1.086  0.00  0.00     0.018 C 
ENDBRANCH   1   8
TORSDOF 1
ENDMDL
