MODEL 1
REMARK minimizedAffinity -4.68215656
REMARK minimizedRMSD -1
REMARK  1 active torsions:
REMARK  status: ('A' for Active; 'I' for Inactive)
REMARK    1  A    between atoms: C1_2  and  C2_3 
ROOT
ATOM      1  C2  UNL d   1      -0.486  -0.183   0.211  0.00  0.00    -0.076 A 
ATOM      2  C3  UNL d   1      -1.109  -0.920   1.233  0.00  0.00     0.004 A 
ATOM      3  C4  UNL d   1      -2.301  -1.604   1.001  0.00  0.00    -0.003 A 
ATOM      4  C5  UNL d   1      -2.889  -1.563  -0.259  0.00  0.00     0.000 A 
ATOM      5  C6  UNL d   1      -2.275  -0.851  -1.289  0.00  0.00     0.000 A 
ATOM      6  C7  UNL d   1      -1.065  -0.169  -1.076  0.00  0.00    -0.073 A 
ATOM      7  C8  UNL d   1      -0.451   0.587  -2.221  0.00  0.00     0.078 C 
ENDROOT
BRANCH   1   8
ATOM      8  C1  UNL d   1       0.791   0.561   0.530  0.00  0.00     0.053 C 
ATOM      9  C   UNL d   1       2.025  -0.319   0.405  0.00  0.00     0.018 C 
ENDBRANCH   1   8
TORSDOF 1
ENDMDL
