MODEL 1
REMARK minimizedAffinity -3.5540278
REMARK minimizedRMSD -1
REMARK  1 active torsions:
REMARK  status: ('A' for Active; 'I' for Inactive)
REMARK    1  A    between atoms: C1_2  and  C2_3 
ROOT
ATOM      1  C2  UNL d   1       0.763   0.747   0.590  0.00  0.00    -0.076 A 
ATOM      2  C3  UNL d   1      -0.352   1.422   0.064  0.00  0.00     0.004 A 
ATOM      3  C4  UNL d   1      -1.506   0.729  -0.298  0.00  0.00    -0.003 A 
ATOM      4  C5  UNL d   1      -1.563  -0.652  -0.140  0.00  0.00     0.000 A 
ATOM      5  C6  UNL d   1      -0.473  -1.336   0.397  0.00  0.00     0.000 A 
ATOM      6  C7  UNL d   1       0.691  -0.650   0.783  0.00  0.00    -0.073 A 
ATOM      7  C8  UNL d   1       1.839  -1.438   1.350  0.00  0.00     0.078 C 
ENDROOT
BRANCH   1   8
ATOM      8  C1  UNL d   1       1.996   1.548   0.940  0.00  0.00     0.053 C 
ATOM      9  C   UNL d   1       3.033   1.537  -0.172  0.00  0.00     0.018 C 
ENDBRANCH   1   8
TORSDOF 1
ENDMDL
