MODEL 1
REMARK minimizedAffinity -3.22917604
REMARK minimizedRMSD -1
REMARK  1 active torsions:
REMARK  status: ('A' for Active; 'I' for Inactive)
REMARK    1  A    between atoms: C1_2  and  C2_3 
ROOT
ATOM      1  C2  UNL d   1      -0.619  -0.343   0.541  0.00  0.00    -0.076 A 
ATOM      2  C3  UNL d   1       0.134   0.489  -0.306  0.00  0.00     0.004 A 
ATOM      3  C4  UNL d   1       1.521   0.561  -0.194  0.00  0.00    -0.003 A 
ATOM      4  C5  UNL d   1       2.179  -0.199   0.766  0.00  0.00     0.000 A 
ATOM      5  C6  UNL d   1       1.451  -1.044   1.603  0.00  0.00     0.000 A 
ATOM      6  C7  UNL d   1       0.053  -1.140   1.493  0.00  0.00    -0.073 A 
ATOM      7  C8  UNL d   1      -0.683  -2.062   2.426  0.00  0.00     0.078 C 
ENDROOT
BRANCH   1   8
ATOM      8  C1  UNL d   1      -2.123  -0.359   0.391  0.00  0.00     0.053 C 
ATOM      9  C   UNL d   1      -2.569  -0.909  -0.955  0.00  0.00     0.018 C 
ENDBRANCH   1   8
TORSDOF 1
ENDMDL
