MODEL 1
REMARK minimizedAffinity -3.61351657
REMARK minimizedRMSD -1
REMARK  1 active torsions:
REMARK  status: ('A' for Active; 'I' for Inactive)
REMARK    1  A    between atoms: C1_2  and  C2_3 
ROOT
ATOM      1  C2  UNL d   1      -0.035  -0.016  -0.296  0.00  0.00    -0.076 A 
ATOM      2  C3  UNL d   1      -0.809  -0.446   0.796  0.00  0.00     0.004 A 
ATOM      3  C4  UNL d   1      -2.109  -0.915   0.614  0.00  0.00    -0.003 A 
ATOM      4  C5  UNL d   1      -2.655  -0.964  -0.664  0.00  0.00     0.000 A 
ATOM      5  C6  UNL d   1      -1.896  -0.558  -1.760  0.00  0.00     0.000 A 
ATOM      6  C7  UNL d   1      -0.578  -0.097  -1.596  0.00  0.00    -0.073 A 
ATOM      7  C8  UNL d   1       0.193   0.333  -2.813  0.00  0.00     0.078 C 
ENDROOT
BRANCH   1   8
ATOM      8  C1  UNL d   1       1.359   0.509  -0.034  0.00  0.00     0.053 C 
ATOM      9  C   UNL d   1       1.373   1.643   0.978  0.00  0.00     0.018 C 
ENDBRANCH   1   8
TORSDOF 1
ENDMDL
