MODEL 1
REMARK minimizedAffinity -4.88046122
REMARK minimizedRMSD -1
REMARK  1 active torsions:
REMARK  status: ('A' for Active; 'I' for Inactive)
REMARK    1  A    between atoms: C1_2  and  C2_3 
ROOT
ATOM      1  C2  UNL d   1      -0.474   0.156  -0.259  0.00  0.00    -0.076 A 
ATOM      2  C3  UNL d   1      -1.112  -0.429   0.849  0.00  0.00     0.004 A 
ATOM      3  C4  UNL d   1      -2.405  -0.939   0.745  0.00  0.00    -0.003 A 
ATOM      4  C5  UNL d   1      -3.080  -0.874  -0.469  0.00  0.00     0.000 A 
ATOM      5  C6  UNL d   1      -2.456  -0.314  -1.583  0.00  0.00     0.000 A 
ATOM      6  C7  UNL d   1      -1.147   0.191  -1.499  0.00  0.00    -0.073 A 
ATOM      7  C8  UNL d   1      -0.524   0.790  -2.730  0.00  0.00     0.078 C 
ENDROOT
BRANCH   1   8
ATOM      8  C1  UNL d   1       0.919   0.717  -0.079  0.00  0.00     0.053 C 
ATOM      9  C   UNL d   1       1.775  -0.134   0.845  0.00  0.00     0.018 C 
ENDBRANCH   1   8
TORSDOF 1
ENDMDL
