MODEL 1
REMARK minimizedAffinity -3.79797387
REMARK minimizedRMSD -1
REMARK  1 active torsions:
REMARK  status: ('A' for Active; 'I' for Inactive)
REMARK    1  A    between atoms: C1_2  and  C2_3 
ROOT
ATOM      1  C2  UNL d   1      -0.573  -1.226   1.221  0.00  0.00    -0.076 A 
ATOM      2  C3  UNL d   1       0.827  -1.106   1.231  0.00  0.00     0.004 A 
ATOM      3  C4  UNL d   1       1.482  -0.260   0.337  0.00  0.00    -0.003 A 
ATOM      4  C5  UNL d   1       0.746   0.480  -0.581  0.00  0.00     0.000 A 
ATOM      5  C6  UNL d   1      -0.645   0.387  -0.594  0.00  0.00     0.000 A 
ATOM      6  C7  UNL d   1      -1.322  -0.449   0.311  0.00  0.00    -0.073 A 
ATOM      7  C8  UNL d   1      -2.823  -0.516   0.249  0.00  0.00     0.078 C 
ENDROOT
BRANCH   1   8
ATOM      8  C1  UNL d   1      -1.226  -2.180   2.195  0.00  0.00     0.053 C 
ATOM      9  C   UNL d   1      -0.210  -2.975   3.001  0.00  0.00     0.018 C 
ENDBRANCH   1   8
TORSDOF 1
ENDMDL
