MODEL 1
REMARK minimizedAffinity -3.75804448
REMARK minimizedRMSD -1
REMARK  1 active torsions:
REMARK  status: ('A' for Active; 'I' for Inactive)
REMARK    1  A    between atoms: C1_2  and  C2_3 
ROOT
ATOM      1  C2  UNL d   1       0.068   0.140   0.265  0.00  0.00    -0.076 A 
ATOM      2  C3  UNL d   1      -0.571  -0.351   1.417  0.00  0.00     0.004 A 
ATOM      3  C4  UNL d   1      -1.919  -0.706   1.394  0.00  0.00    -0.003 A 
ATOM      4  C5  UNL d   1      -2.650  -0.576   0.218  0.00  0.00     0.000 A 
ATOM      5  C6  UNL d   1      -2.028  -0.108  -0.939  0.00  0.00     0.000 A 
ATOM      6  C7  UNL d   1      -0.666   0.239  -0.937  0.00  0.00    -0.073 A 
ATOM      7  C8  UNL d   1      -0.048   0.745  -2.211  0.00  0.00     0.078 C 
ENDROOT
BRANCH   1   8
ATOM      8  C1  UNL d   1       1.524   0.534   0.357  0.00  0.00     0.053 C 
ATOM      9  C   UNL d   1       1.716   1.921   0.951  0.00  0.00     0.018 C 
ENDBRANCH   1   8
TORSDOF 1
ENDMDL
