MODEL 1
REMARK minimizedAffinity -2.50041962
REMARK minimizedRMSD -1
REMARK  1 active torsions:
REMARK  status: ('A' for Active; 'I' for Inactive)
REMARK    1  A    between atoms: C3_4  and  O_7 
ROOT
ATOM      1  C   UNL d   1       1.641  -1.251   1.233  0.00  0.00    -0.033 A 
ATOM      2  C1  UNL d   1       0.650  -2.087   1.752  0.00  0.00     0.039 A 
ATOM      3  C2  UNL d   1       0.960  -2.992   2.769  0.00  0.00    -0.080 A 
ATOM      4  C3  UNL d   1       2.262  -3.051   3.258  0.00  0.00     0.150 A 
ATOM      5  C4  UNL d   1       3.253  -2.219   2.748  0.00  0.00    -0.007 A 
ATOM      6  C5  UNL d   1       2.942  -1.316   1.732  0.00  0.00     0.039 A 
ENDROOT
BRANCH   4   7
ATOM      7  O   UNL d   1       2.613  -3.921   4.247  0.00  0.00    -0.526 OA
ATOM      8  H5  UNL d   1       1.834  -4.452   4.481  0.00  0.00     0.418 HD
ENDBRANCH   4   7
TORSDOF 1
ENDMDL
