MODEL 1
REMARK minimizedAffinity 3.62331629
REMARK minimizedRMSD -1
REMARK  1 active torsions:
REMARK  status: ('A' for Active; 'I' for Inactive)
REMARK    1  A    between atoms: C3_4  and  O_7 
ROOT
ATOM      1  C   UNL d   1       3.101  -0.686   0.875  0.00  0.00    -0.033 A 
ATOM      2  C1  UNL d   1       3.738  -1.756   1.507  0.00  0.00     0.039 A 
ATOM      3  C2  UNL d   1       2.983  -2.733   2.159  0.00  0.00    -0.080 A 
ATOM      4  C3  UNL d   1       1.595  -2.630   2.170  0.00  0.00     0.150 A 
ATOM      5  C4  UNL d   1       0.954  -1.569   1.538  0.00  0.00    -0.007 A 
ATOM      6  C5  UNL d   1       1.709  -0.594   0.889  0.00  0.00     0.039 A 
ENDROOT
BRANCH   4   7
ATOM      7  O   UNL d   1       0.817  -3.557   2.796  0.00  0.00    -0.526 OA
ATOM      8  H5  UNL d   1       1.397  -4.216   3.213  0.00  0.00     0.418 HD
ENDBRANCH   4   7
TORSDOF 1
ENDMDL
