MODEL 1
REMARK minimizedAffinity -0.903462648
REMARK minimizedRMSD -1
REMARK  1 active torsions:
REMARK  status: ('A' for Active; 'I' for Inactive)
REMARK    1  A    between atoms: C3_4  and  O_7 
ROOT
ATOM      1  C   UNL d   1       1.273  -3.198   2.642  0.00  0.00    -0.033 A 
ATOM      2  C1  UNL d   1       0.583  -2.549   1.617  0.00  0.00     0.039 A 
ATOM      3  C2  UNL d   1       1.161  -1.457   0.966  0.00  0.00    -0.080 A 
ATOM      4  C3  UNL d   1       2.428  -1.025   1.350  0.00  0.00     0.150 A 
ATOM      5  C4  UNL d   1       3.123  -1.669   2.368  0.00  0.00    -0.007 A 
ATOM      6  C5  UNL d   1       2.544  -2.759   3.017  0.00  0.00     0.039 A 
ENDROOT
BRANCH   4   7
ATOM      7  O   UNL d   1       3.030   0.039   0.747  0.00  0.00    -0.526 OA
ATOM      8  H5  UNL d   1       2.421   0.402   0.083  0.00  0.00     0.418 HD
ENDBRANCH   4   7
TORSDOF 1
ENDMDL
