MODEL 1
REMARK minimizedAffinity 2.05122113
REMARK minimizedRMSD -1
REMARK  1 active torsions:
REMARK  status: ('A' for Active; 'I' for Inactive)
REMARK    1  A    between atoms: C3_4  and  O_7 
ROOT
ATOM      1  C   UNL d   1      -0.677  -1.328  -1.701  0.00  0.00    -0.033 A 
ATOM      2  C1  UNL d   1       0.536  -1.999  -1.873  0.00  0.00     0.039 A 
ATOM      3  C2  UNL d   1       1.294  -2.369  -0.761  0.00  0.00    -0.080 A 
ATOM      4  C3  UNL d   1       0.830  -2.065   0.516  0.00  0.00     0.150 A 
ATOM      5  C4  UNL d   1      -0.379  -1.401   0.695  0.00  0.00    -0.007 A 
ATOM      6  C5  UNL d   1      -1.135  -1.031  -0.417  0.00  0.00     0.039 A 
ENDROOT
BRANCH   4   7
ATOM      7  O   UNL d   1       1.538  -2.402   1.631  0.00  0.00    -0.526 OA
ATOM      8  H5  UNL d   1       2.365  -2.830   1.353  0.00  0.00     0.418 HD
ENDBRANCH   4   7
TORSDOF 1
ENDMDL
