MODEL 1
REMARK minimizedAffinity 1.24132347
REMARK minimizedRMSD -1
REMARK  1 active torsions:
REMARK  status: ('A' for Active; 'I' for Inactive)
REMARK    1  A    between atoms: C3_4  and  O_7 
ROOT
ATOM      1  C   UNL d   1       2.636  -1.300   1.903  0.00  0.00    -0.033 A 
ATOM      2  C1  UNL d   1       2.308  -2.657   1.926  0.00  0.00     0.039 A 
ATOM      3  C2  UNL d   1       0.970  -3.052   1.956  0.00  0.00    -0.080 A 
ATOM      4  C3  UNL d   1      -0.030  -2.083   1.962  0.00  0.00     0.150 A 
ATOM      5  C4  UNL d   1       0.290  -0.730   1.934  0.00  0.00    -0.007 A 
ATOM      6  C5  UNL d   1       1.627  -0.336   1.905  0.00  0.00     0.039 A 
ENDROOT
BRANCH   4   7
ATOM      7  O   UNL d   1      -1.350  -2.421   1.995  0.00  0.00    -0.526 OA
ATOM      8  H5  UNL d   1      -1.419  -3.389   2.040  0.00  0.00     0.418 HD
ENDBRANCH   4   7
TORSDOF 1
ENDMDL
