MODEL 1
REMARK minimizedAffinity -4.31742048
REMARK minimizedRMSD -1
REMARK  1 active torsions:
REMARK  status: ('A' for Active; 'I' for Inactive)
REMARK    1  A    between atoms: C3_4  and  O_7 
ROOT
ATOM      1  C   UNL d   1       1.954  -0.620   2.736  0.00  0.00    -0.033 A 
ATOM      2  C1  UNL d   1       2.571  -1.758   2.212  0.00  0.00     0.039 A 
ATOM      3  C2  UNL d   1       3.532  -1.634   1.207  0.00  0.00    -0.080 A 
ATOM      4  C3  UNL d   1       3.867  -0.368   0.735  0.00  0.00     0.150 A 
ATOM      5  C4  UNL d   1       3.260   0.770   1.254  0.00  0.00    -0.007 A 
ATOM      6  C5  UNL d   1       2.300   0.644   2.258  0.00  0.00     0.039 A 
ENDROOT
BRANCH   4   7
ATOM      7  O   UNL d   1       4.795  -0.197  -0.249  0.00  0.00    -0.526 OA
ATOM      8  H5  UNL d   1       5.109  -1.072  -0.531  0.00  0.00     0.418 HD
ENDBRANCH   4   7
TORSDOF 1
ENDMDL
