MODEL 1
REMARK minimizedAffinity 5.57647324
REMARK minimizedRMSD -1
REMARK  1 active torsions:
REMARK  status: ('A' for Active; 'I' for Inactive)
REMARK    1  A    between atoms: C3_4  and  O_7 
ROOT
ATOM      1  C   UNL d   1       1.707   0.115   2.703  0.00  0.00    -0.033 A 
ATOM      2  C1  UNL d   1       2.092  -1.119   2.177  0.00  0.00     0.039 A 
ATOM      3  C2  UNL d   1       3.093  -1.185   1.206  0.00  0.00    -0.080 A 
ATOM      4  C3  UNL d   1       3.700  -0.011   0.770  0.00  0.00     0.150 A 
ATOM      5  C4  UNL d   1       3.324   1.223   1.292  0.00  0.00    -0.007 A 
ATOM      6  C5  UNL d   1       2.324   1.286   2.261  0.00  0.00     0.039 A 
ENDROOT
BRANCH   4   7
ATOM      7  O   UNL d   1       4.679  -0.024  -0.179  0.00  0.00    -0.526 OA
ATOM      8  H5  UNL d   1       4.814  -0.942  -0.469  0.00  0.00     0.418 HD
ENDBRANCH   4   7
TORSDOF 1
ENDMDL
