MODEL 1
REMARK minimizedAffinity -2.98265123
REMARK minimizedRMSD -1
REMARK  0 active torsions:
REMARK  status: ('A' for Active; 'I' for Inactive)
ROOT
ATOM      1  C1  BNZ d   1       2.194   0.006   1.043  0.00  0.00     0.000 A 
ATOM      2  C2  BNZ d   1       1.098  -0.703   0.631  0.00  0.00     0.000 A 
ATOM      3  C3  BNZ d   1       0.019  -0.068   0.081  0.00  0.00     0.000 A 
ATOM      4  C4  BNZ d   1       0.022   1.277  -0.019  0.00  0.00     0.000 A 
ATOM      5  C5  BNZ d   1       1.116   2.007   0.401  0.00  0.00     0.000 A 
ATOM      6  C6  BNZ d   1       2.215   1.361   0.918  0.00  0.00     0.000 A 
ENDROOT
TORSDOF 0
ENDMDL
