MODEL 1
REMARK minimizedAffinity -5.05271053
REMARK minimizedRMSD -1
REMARK  0 active torsions:
REMARK  status: ('A' for Active; 'I' for Inactive)
ROOT
ATOM      1  C1  BNZ d   1       3.242   0.063   0.571  0.00  0.00     0.000 A 
ATOM      2  C2  BNZ d   1       2.719   1.255   0.148  0.00  0.00     0.000 A 
ATOM      3  C3  BNZ d   1       1.385   1.376  -0.127  0.00  0.00     0.000 A 
ATOM      4  C4  BNZ d   1       0.585   0.295  -0.017  0.00  0.00     0.000 A 
ATOM      5  C5  BNZ d   1       1.100  -0.916   0.399  0.00  0.00     0.000 A 
ATOM      6  C6  BNZ d   1       2.436  -1.024   0.713  0.00  0.00     0.000 A 
ENDROOT
TORSDOF 0
ENDMDL
