MODEL 1
REMARK minimizedAffinity -4.27262974
REMARK minimizedRMSD -1
REMARK  0 active torsions:
REMARK  status: ('A' for Active; 'I' for Inactive)
ROOT
ATOM      1  C1  BNZ d   1       1.712  -2.332  -0.147  0.00  0.00     0.000 A 
ATOM      2  C2  BNZ d   1       0.758  -1.604  -0.806  0.00  0.00     0.000 A 
ATOM      3  C3  BNZ d   1       0.268  -0.446  -0.271  0.00  0.00     0.000 A 
ATOM      4  C4  BNZ d   1       0.703  -0.038   0.938  0.00  0.00     0.000 A 
ATOM      5  C5  BNZ d   1       1.659  -0.766   1.619  0.00  0.00     0.000 A 
ATOM      6  C6  BNZ d   1       2.178  -1.911   1.060  0.00  0.00     0.000 A 
ENDROOT
TORSDOF 0
ENDMDL
