MODEL 1
REMARK minimizedAffinity -3.22520852
REMARK minimizedRMSD -1
REMARK  0 active torsions:
REMARK  status: ('A' for Active; 'I' for Inactive)
ROOT
ATOM      1  C1  BNZ d   1       0.637  -2.241  -0.930  0.00  0.00     0.000 A 
ATOM      2  C2  BNZ d   1       1.996  -2.324  -0.780  0.00  0.00     0.000 A 
ATOM      3  C3  BNZ d   1       2.652  -1.524   0.114  0.00  0.00     0.000 A 
ATOM      4  C4  BNZ d   1       1.954  -0.616   0.826  0.00  0.00     0.000 A 
ATOM      5  C5  BNZ d   1       0.585  -0.513   0.679  0.00  0.00     0.000 A 
ATOM      6  C6  BNZ d   1      -0.076  -1.347  -0.193  0.00  0.00     0.000 A 
ENDROOT
TORSDOF 0
ENDMDL
