MODEL 1
REMARK minimizedAffinity -3.40854597
REMARK minimizedRMSD -1
REMARK  0 active torsions:
REMARK  status: ('A' for Active; 'I' for Inactive)
ROOT
ATOM      1  C1  BNZ d   1      -0.633  -0.151  -0.526  0.00  0.00     0.000 A 
ATOM      2  C2  BNZ d   1       0.496  -0.731  -0.011  0.00  0.00     0.000 A 
ATOM      3  C3  BNZ d   1       1.562   0.033   0.373  0.00  0.00     0.000 A 
ATOM      4  C4  BNZ d   1       1.514   1.371   0.205  0.00  0.00     0.000 A 
ATOM      5  C5  BNZ d   1       0.387   1.969  -0.321  0.00  0.00     0.000 A 
ATOM      6  C6  BNZ d   1      -0.700   1.200  -0.670  0.00  0.00     0.000 A 
ENDROOT
TORSDOF 0
ENDMDL
