MODEL 1
REMARK minimizedAffinity -2.77887082
REMARK minimizedRMSD -1
REMARK  0 active torsions:
REMARK  status: ('A' for Active; 'I' for Inactive)
ROOT
ATOM      1  C1  BNZ d   1      -0.223   0.589   0.137  0.00  0.00     0.000 A 
ATOM      2  C2  BNZ d   1       1.069   0.373   0.536  0.00  0.00     0.000 A 
ATOM      3  C3  BNZ d   1       1.689  -0.820   0.284  0.00  0.00     0.000 A 
ATOM      4  C4  BNZ d   1       1.003  -1.806  -0.328  0.00  0.00     0.000 A 
ATOM      5  C5  BNZ d   1      -0.303  -1.607  -0.728  0.00  0.00     0.000 A 
ATOM      6  C6  BNZ d   1      -0.911  -0.392  -0.508  0.00  0.00     0.000 A 
ENDROOT
TORSDOF 0
ENDMDL
