MODEL 1
REMARK minimizedAffinity -1.52867651
REMARK minimizedRMSD -1
REMARK  0 active torsions:
REMARK  status: ('A' for Active; 'I' for Inactive)
ROOT
ATOM      1  C1  BNZ d   1       1.420   1.817  -0.374  0.00  0.00     0.000 A 
ATOM      2  C2  BNZ d   1       0.842   0.832  -1.130  0.00  0.00     0.000 A 
ATOM      3  C3  BNZ d   1      -0.324   0.240  -0.735  0.00  0.00     0.000 A 
ATOM      4  C4  BNZ d   1      -0.890   0.604   0.434  0.00  0.00     0.000 A 
ATOM      5  C5  BNZ d   1      -0.315   1.589   1.212  0.00  0.00     0.000 A 
ATOM      6  C6  BNZ d   1       0.839   2.210   0.792  0.00  0.00     0.000 A 
ENDROOT
TORSDOF 0
ENDMDL
