MODEL 1
REMARK minimizedAffinity -3.79411459
REMARK minimizedRMSD -1
REMARK  0 active torsions:
REMARK  status: ('A' for Active; 'I' for Inactive)
ROOT
ATOM      1  C1  BNZ d   1       1.792  -1.657  -0.093  0.00  0.00     0.000 A 
ATOM      2  C2  BNZ d   1       0.456  -1.543  -0.370  0.00  0.00     0.000 A 
ATOM      3  C3  BNZ d   1      -0.142  -0.316  -0.442  0.00  0.00     0.000 A 
ATOM      4  C4  BNZ d   1       0.587   0.792  -0.197  0.00  0.00     0.000 A 
ATOM      5  C5  BNZ d   1       1.933   0.693   0.092  0.00  0.00     0.000 A 
ATOM      6  C6  BNZ d   1       2.540  -0.541   0.125  0.00  0.00     0.000 A 
ENDROOT
TORSDOF 0
ENDMDL
