MODEL 1
REMARK minimizedAffinity -5.96242619
REMARK minimizedRMSD -1
REMARK  0 active torsions:
REMARK  status: ('A' for Active; 'I' for Inactive)
ROOT
ATOM      1  C2' OXE d   1       0.726  -0.440  -0.907  0.00  0.00     0.078 C 
ATOM      2  C1' OXE d   1      -0.402  -1.080   1.582  0.00  0.00     0.078 C 
ATOM      3  C1  OXE d   1      -0.693   0.284   1.007  0.00  0.00    -0.078 A 
ATOM      4  C2  OXE d   1      -0.099   0.605  -0.189  0.00  0.00    -0.078 A 
ATOM      5  C3  OXE d   1      -0.378   1.829  -0.790  0.00  0.00     0.003 A 
ATOM      6  C4  OXE d   1      -1.135   2.795  -0.115  0.00  0.00    -0.002 A 
ATOM      7  C5  OXE d   1      -1.717   2.502   1.123  0.00  0.00    -0.002 A 
ATOM      8  C6  OXE d   1      -1.541   1.239   1.677  0.00  0.00     0.003 A 
ENDROOT
TORSDOF 0
ENDMDL
