MODEL 1
REMARK minimizedAffinity -2.32966924
REMARK minimizedRMSD -1
REMARK  0 active torsions:
REMARK  status: ('A' for Active; 'I' for Inactive)
ROOT
ATOM      1  C2' OXE d   1       0.638  -0.806  -0.512  0.00  0.00     0.078 C 
ATOM      2  C1' OXE d   1      -0.773  -0.948   1.910  0.00  0.00     0.078 C 
ATOM      3  C1  OXE d   1      -0.598   0.410   1.277  0.00  0.00    -0.078 A 
ATOM      4  C2  OXE d   1       0.134   0.476   0.116  0.00  0.00    -0.078 A 
ATOM      5  C3  OXE d   1       0.279   1.696  -0.539  0.00  0.00     0.003 A 
ATOM      6  C4  OXE d   1      -0.182   2.877   0.053  0.00  0.00    -0.002 A 
ATOM      7  C5  OXE d   1      -0.895   2.837   1.256  0.00  0.00    -0.002 A 
ATOM      8  C6  OXE d   1      -1.148   1.610   1.857  0.00  0.00     0.003 A 
ENDROOT
TORSDOF 0
ENDMDL
