MODEL 1
REMARK minimizedAffinity -4.30104971
REMARK minimizedRMSD -1
REMARK  0 active torsions:
REMARK  status: ('A' for Active; 'I' for Inactive)
ROOT
ATOM      1  C2' OXE d   1       0.754  -0.730  -0.691  0.00  0.00     0.078 C 
ATOM      2  C1' OXE d   1       0.326  -1.106   2.058  0.00  0.00     0.078 C 
ATOM      3  C1  OXE d   1      -0.254   0.131   1.419  0.00  0.00    -0.078 A 
ATOM      4  C2  OXE d   1      -0.000   0.330   0.083  0.00  0.00    -0.078 A 
ATOM      5  C3  OXE d   1      -0.558   1.427  -0.568  0.00  0.00     0.003 A 
ATOM      6  C4  OXE d   1      -1.245   2.408   0.157  0.00  0.00    -0.002 A 
ATOM      7  C5  OXE d   1      -1.481   2.244   1.526  0.00  0.00    -0.002 A 
ATOM      8  C6  OXE d   1      -1.030   1.093   2.162  0.00  0.00     0.003 A 
ENDROOT
TORSDOF 0
ENDMDL
