MODEL 1
REMARK minimizedAffinity -5.40261555
REMARK minimizedRMSD -1
REMARK  0 active torsions:
REMARK  status: ('A' for Active; 'I' for Inactive)
ROOT
ATOM      1  C2' OXE d   1      -0.126  -0.871   1.955  0.00  0.00     0.078 C 
ATOM      2  C1' OXE d   1       0.741  -0.414  -0.675  0.00  0.00     0.078 C 
ATOM      3  C1  OXE d   1      -0.034   0.683   0.010  0.00  0.00    -0.078 A 
ATOM      4  C2  OXE d   1      -0.495   0.433   1.280  0.00  0.00    -0.078 A 
ATOM      5  C3  OXE d   1      -1.169   1.431   1.978  0.00  0.00     0.003 A 
ATOM      6  C4  OXE d   1      -1.514   2.630   1.343  0.00  0.00    -0.002 A 
ATOM      7  C5  OXE d   1      -1.089   2.890   0.036  0.00  0.00    -0.002 A 
ATOM      8  C6  OXE d   1      -0.313   1.946  -0.628  0.00  0.00     0.003 A 
ENDROOT
TORSDOF 0
ENDMDL
