MODEL 1
REMARK minimizedAffinity -5.08518171
REMARK minimizedRMSD -1
REMARK  0 active torsions:
REMARK  status: ('A' for Active; 'I' for Inactive)
ROOT
ATOM      1  C2' OXE d   1       0.634  -0.034   0.664  0.00  0.00     0.078 C 
ATOM      2  C1' OXE d   1      -1.832  -0.811   1.757  0.00  0.00     0.078 C 
ATOM      3  C1  OXE d   1      -1.675   0.626   1.327  0.00  0.00    -0.078 A 
ATOM      4  C2  OXE d   1      -0.450   1.008   0.836  0.00  0.00    -0.078 A 
ATOM      5  C3  OXE d   1      -0.268   2.308   0.374  0.00  0.00     0.003 A 
ATOM      6  C4  OXE d   1      -1.271   3.269   0.546  0.00  0.00    -0.002 A 
ATOM      7  C5  OXE d   1      -2.513   2.910   1.081  0.00  0.00    -0.002 A 
ATOM      8  C6  OXE d   1      -2.745   1.586   1.436  0.00  0.00     0.003 A 
ENDROOT
TORSDOF 0
ENDMDL
