MODEL 1
REMARK minimizedAffinity -4.92161846
REMARK minimizedRMSD -1
REMARK  0 active torsions:
REMARK  status: ('A' for Active; 'I' for Inactive)
ROOT
ATOM      1  C2' OXE d   1      -0.783  -0.348   1.954  0.00  0.00     0.078 C 
ATOM      2  C1' OXE d   1       0.782  -0.563  -0.366  0.00  0.00     0.078 C 
ATOM      3  C1  OXE d   1       0.272   0.804   0.014  0.00  0.00    -0.078 A 
ATOM      4  C2  OXE d   1      -0.532   0.893   1.125  0.00  0.00    -0.078 A 
ATOM      5  C3  OXE d   1      -0.985   2.139   1.550  0.00  0.00     0.003 A 
ATOM      6  C4  OXE d   1      -0.757   3.280   0.771  0.00  0.00    -0.002 A 
ATOM      7  C5  OXE d   1       0.026   3.205  -0.385  0.00  0.00    -0.002 A 
ATOM      8  C6  OXE d   1       0.582   1.985  -0.754  0.00  0.00     0.003 A 
ENDROOT
TORSDOF 0
ENDMDL
