MODEL 1
REMARK minimizedAffinity -5.94586992
REMARK minimizedRMSD -1
REMARK  0 active torsions:
REMARK  status: ('A' for Active; 'I' for Inactive)
ROOT
ATOM      1  C2' OXE d   1      -0.268  -0.611   1.450  0.00  0.00     0.078 C 
ATOM      2  C1' OXE d   1       0.569   0.181  -1.109  0.00  0.00     0.078 C 
ATOM      3  C1  OXE d   1      -0.164   1.193  -0.264  0.00  0.00    -0.078 A 
ATOM      4  C2  OXE d   1      -0.611   0.782   0.968  0.00  0.00    -0.078 A 
ATOM      5  C3  OXE d   1      -1.245   1.691   1.810  0.00  0.00     0.003 A 
ATOM      6  C4  OXE d   1      -1.567   2.975   1.353  0.00  0.00    -0.002 A 
ATOM      7  C5  OXE d   1      -1.156   3.401   0.085  0.00  0.00    -0.002 A 
ATOM      8  C6  OXE d   1      -0.418   2.538  -0.717  0.00  0.00     0.003 A 
ENDROOT
TORSDOF 0
ENDMDL
