MODEL 1
REMARK minimizedAffinity -4.23912382
REMARK minimizedRMSD -1
REMARK  0 active torsions:
REMARK  status: ('A' for Active; 'I' for Inactive)
ROOT
ATOM      1  C2' OXE d   1       0.136  -0.782  -0.392  0.00  0.00     0.078 C 
ATOM      2  C1' OXE d   1      -1.250  -0.607   2.043  0.00  0.00     0.078 C 
ATOM      3  C1  OXE d   1      -1.053   0.662   1.253  0.00  0.00    -0.078 A 
ATOM      4  C2  OXE d   1      -0.333   0.575   0.085  0.00  0.00    -0.078 A 
ATOM      5  C3  OXE d   1      -0.170   1.706  -0.710  0.00  0.00     0.003 A 
ATOM      6  C4  OXE d   1      -0.598   2.959  -0.256  0.00  0.00    -0.002 A 
ATOM      7  C5  OXE d   1      -1.298   3.077   0.949  0.00  0.00    -0.002 A 
ATOM      8  C6  OXE d   1      -1.571   1.934   1.693  0.00  0.00     0.003 A 
ENDROOT
TORSDOF 0
ENDMDL
