MODEL 1
REMARK minimizedAffinity -5.07674122
REMARK minimizedRMSD -1
REMARK  0 active torsions:
REMARK  status: ('A' for Active; 'I' for Inactive)
ROOT
ATOM      1  C2' OXE d   1       0.655  -0.137  -0.676  0.00  0.00     0.078 C 
ATOM      2  C1' OXE d   1      -0.667  -0.787   1.714  0.00  0.00     0.078 C 
ATOM      3  C1  OXE d   1      -0.938   0.566   1.106  0.00  0.00    -0.078 A 
ATOM      4  C2  OXE d   1      -0.251   0.894  -0.038  0.00  0.00    -0.078 A 
ATOM      5  C3  OXE d   1      -0.504   2.109  -0.670  0.00  0.00     0.003 A 
ATOM      6  C4  OXE d   1      -1.336   3.061  -0.068  0.00  0.00    -0.002 A 
ATOM      7  C5  OXE d   1      -2.014   2.762   1.118  0.00  0.00    -0.002 A 
ATOM      8  C6  OXE d   1      -1.859   1.506   1.694  0.00  0.00     0.003 A 
ENDROOT
TORSDOF 0
ENDMDL
