MODEL 1
REMARK minimizedAffinity -5.00073147
REMARK minimizedRMSD -1
REMARK  0 active torsions:
REMARK  status: ('A' for Active; 'I' for Inactive)
ROOT
ATOM      1  C2' OXE d   1      -0.315  -0.488   1.660  0.00  0.00     0.078 C 
ATOM      2  C1' OXE d   1      -0.145   0.117  -1.076  0.00  0.00     0.078 C 
ATOM      3  C1  OXE d   1      -0.768   1.145  -0.165  0.00  0.00    -0.078 A 
ATOM      4  C2  OXE d   1      -0.889   0.822   1.165  0.00  0.00    -0.078 A 
ATOM      5  C3  OXE d   1      -1.406   1.756   2.057  0.00  0.00     0.003 A 
ATOM      6  C4  OXE d   1      -1.944   2.961   1.589  0.00  0.00    -0.002 A 
ATOM      7  C5  OXE d   1      -1.867   3.294   0.232  0.00  0.00    -0.002 A 
ATOM      8  C6  OXE d   1      -1.245   2.417  -0.650  0.00  0.00     0.003 A 
ENDROOT
TORSDOF 0
ENDMDL
