MODEL 1
REMARK minimizedAffinity -5.26921177
REMARK minimizedRMSD -1
REMARK  0 active torsions:
REMARK  status: ('A' for Active; 'I' for Inactive)
ROOT
ATOM      1  C2' OXE d   1      -0.374  -0.496   1.498  0.00  0.00     0.078 C 
ATOM      2  C1' OXE d   1       0.418   0.308  -1.072  0.00  0.00     0.078 C 
ATOM      3  C1  OXE d   1      -0.378   1.285  -0.243  0.00  0.00    -0.078 A 
ATOM      4  C2  OXE d   1      -0.802   0.866   0.995  0.00  0.00    -0.078 A 
ATOM      5  C3  OXE d   1      -1.492   1.747   1.822  0.00  0.00     0.003 A 
ATOM      6  C4  OXE d   1      -1.892   3.001   1.345  0.00  0.00    -0.002 A 
ATOM      7  C5  OXE d   1      -1.505   3.433   0.072  0.00  0.00    -0.002 A 
ATOM      8  C6  OXE d   1      -0.714   2.606  -0.717  0.00  0.00     0.003 A 
ENDROOT
TORSDOF 0
ENDMDL
