MODEL 1
REMARK minimizedAffinity -5.5108552
REMARK minimizedRMSD -1
REMARK  0 active torsions:
REMARK  status: ('A' for Active; 'I' for Inactive)
ROOT
ATOM      1  C2' OXE d   1      -1.367  -0.100   1.968  0.00  0.00     0.078 C 
ATOM      2  C1' OXE d   1       0.355  -0.355  -0.233  0.00  0.00     0.078 C 
ATOM      3  C1  OXE d   1      -0.237   1.004   0.042  0.00  0.00    -0.078 A 
ATOM      4  C2  OXE d   1      -1.116   1.110   1.094  0.00  0.00    -0.078 A 
ATOM      5  C3  OXE d   1      -1.648   2.352   1.425  0.00  0.00     0.003 A 
ATOM      6  C4  OXE d   1      -1.418   3.463   0.605  0.00  0.00    -0.002 A 
ATOM      7  C5  OXE d   1      -0.558   3.369  -0.494  0.00  0.00    -0.002 A 
ATOM      8  C6  OXE d   1       0.073   2.159  -0.764  0.00  0.00     0.003 A 
ENDROOT
TORSDOF 0
ENDMDL
