MODEL 1
REMARK minimizedAffinity -6.31186867
REMARK minimizedRMSD -1
REMARK  0 active torsions:
REMARK  status: ('A' for Active; 'I' for Inactive)
ROOT
ATOM      1  C2' OXE d   1      -0.362  -0.832   1.862  0.00  0.00     0.078 C 
ATOM      2  C1' OXE d   1       0.798  -0.239  -0.625  0.00  0.00     0.078 C 
ATOM      3  C1  OXE d   1      -0.136   0.781  -0.023  0.00  0.00    -0.078 A 
ATOM      4  C2  OXE d   1      -0.735   0.462   1.171  0.00  0.00    -0.078 A 
ATOM      5  C3  OXE d   1      -1.563   1.390   1.797  0.00  0.00     0.003 A 
ATOM      6  C4  OXE d   1      -1.911   2.581   1.147  0.00  0.00    -0.002 A 
ATOM      7  C5  OXE d   1      -1.343   2.907  -0.089  0.00  0.00    -0.002 A 
ATOM      8  C6  OXE d   1      -0.423   2.039  -0.666  0.00  0.00     0.003 A 
ENDROOT
TORSDOF 0
ENDMDL
