MODEL 1
REMARK minimizedAffinity -3.34572077
REMARK minimizedRMSD -1
REMARK  0 active torsions:
REMARK  status: ('A' for Active; 'I' for Inactive)
ROOT
ATOM      1  C2' OXE d   1      -1.905   2.618   1.193  0.00  0.00     0.078 C 
ATOM      2  C1' OXE d   1      -0.786   1.082   3.260  0.00  0.00     0.078 C 
ATOM      3  C1  OXE d   1      -0.411   0.732   1.842  0.00  0.00    -0.078 A 
ATOM      4  C2  OXE d   1      -1.000   1.459   0.835  0.00  0.00    -0.078 A 
ATOM      5  C3  OXE d   1      -0.647   1.213  -0.489  0.00  0.00     0.003 A 
ATOM      6  C4  OXE d   1       0.183   0.133  -0.813  0.00  0.00    -0.002 A 
ATOM      7  C5  OXE d   1       0.761  -0.645   0.195  0.00  0.00    -0.002 A 
ATOM      8  C6  OXE d   1       0.509  -0.332   1.526  0.00  0.00     0.003 A 
ENDROOT
TORSDOF 0
ENDMDL
