MODEL 1
REMARK minimizedAffinity -5.65186405
REMARK minimizedRMSD -1
REMARK  0 active torsions:
REMARK  status: ('A' for Active; 'I' for Inactive)
ROOT
ATOM      1  C2' OXE d   1      -0.715  -0.658   1.989  0.00  0.00     0.078 C 
ATOM      2  C1' OXE d   1       0.769  -0.302  -0.366  0.00  0.00     0.078 C 
ATOM      3  C1  OXE d   1      -0.160   0.809   0.054  0.00  0.00    -0.078 A 
ATOM      4  C2  OXE d   1      -0.917   0.607   1.183  0.00  0.00    -0.078 A 
ATOM      5  C3  OXE d   1      -1.749   1.622   1.646  0.00  0.00     0.003 A 
ATOM      6  C4  OXE d   1      -1.937   2.785   0.889  0.00  0.00    -0.002 A 
ATOM      7  C5  OXE d   1      -1.205   2.994  -0.285  0.00  0.00    -0.002 A 
ATOM      8  C6  OXE d   1      -0.283   2.037  -0.692  0.00  0.00     0.003 A 
ENDROOT
TORSDOF 0
ENDMDL
