MODEL 1
REMARK minimizedAffinity -5.56191921
REMARK minimizedRMSD -1
REMARK  0 active torsions:
REMARK  status: ('A' for Active; 'I' for Inactive)
ROOT
ATOM      1  C2' OXE d   1      -0.369  -0.354   1.969  0.00  0.00     0.078 C 
ATOM      2  C1' OXE d   1       0.628  -0.257  -0.653  0.00  0.00     0.078 C 
ATOM      3  C1  OXE d   1       0.160   1.034  -0.030  0.00  0.00    -0.078 A 
ATOM      4  C2  OXE d   1      -0.370   0.970   1.236  0.00  0.00    -0.078 A 
ATOM      5  C3  OXE d   1      -0.766   2.140   1.878  0.00  0.00     0.003 A 
ATOM      6  C4  OXE d   1      -0.773   3.359   1.189  0.00  0.00    -0.002 A 
ATOM      7  C5  OXE d   1      -0.275   3.440  -0.116  0.00  0.00    -0.002 A 
ATOM      8  C6  OXE d   1       0.233   2.297  -0.723  0.00  0.00     0.003 A 
ENDROOT
TORSDOF 0
ENDMDL
