MODEL 1
REMARK minimizedAffinity -3.00827861
REMARK minimizedRMSD -1
REMARK  0 active torsions:
REMARK  status: ('A' for Active; 'I' for Inactive)
ROOT
ATOM      1  C2' OXE d   1      -2.195   1.853   1.558  0.00  0.00     0.078 C 
ATOM      2  C1' OXE d   1      -1.254   2.226  -1.060  0.00  0.00     0.078 C 
ATOM      3  C1  OXE d   1      -0.763   1.019  -0.301  0.00  0.00    -0.078 A 
ATOM      4  C2  OXE d   1      -1.192   0.869   0.996  0.00  0.00    -0.078 A 
ATOM      5  C3  OXE d   1      -0.812  -0.256   1.722  0.00  0.00     0.003 A 
ATOM      6  C4  OXE d   1       0.123  -1.156   1.197  0.00  0.00    -0.002 A 
ATOM      7  C5  OXE d   1       0.604  -1.000  -0.107  0.00  0.00    -0.002 A 
ATOM      8  C6  OXE d   1       0.139   0.056  -0.883  0.00  0.00     0.003 A 
ENDROOT
TORSDOF 0
ENDMDL
