MODEL 1
REMARK minimizedAffinity -5.14024067
REMARK minimizedRMSD -1
REMARK  0 active torsions:
REMARK  status: ('A' for Active; 'I' for Inactive)
ROOT
ATOM      1  C2' OXE d   1       0.452  -0.545  -0.681  0.00  0.00     0.078 C 
ATOM      2  C1' OXE d   1      -0.465  -1.012   1.931  0.00  0.00     0.078 C 
ATOM      3  C1  OXE d   1      -0.804   0.312   1.293  0.00  0.00    -0.078 A 
ATOM      4  C2  OXE d   1      -0.311   0.550   0.033  0.00  0.00    -0.078 A 
ATOM      5  C3  OXE d   1      -0.640   1.733  -0.623  0.00  0.00     0.003 A 
ATOM      6  C4  OXE d   1      -1.338   2.745   0.047  0.00  0.00    -0.002 A 
ATOM      7  C5  OXE d   1      -1.814   2.539   1.346  0.00  0.00    -0.002 A 
ATOM      8  C6  OXE d   1      -1.593   1.314   1.966  0.00  0.00     0.003 A 
ENDROOT
TORSDOF 0
ENDMDL
