MODEL 1
REMARK minimizedAffinity -4.18569803
REMARK minimizedRMSD -1
REMARK  0 active torsions:
REMARK  status: ('A' for Active; 'I' for Inactive)
ROOT
ATOM      1  C2' OXE d   1      -0.051  -0.645  -0.090  0.00  0.00     0.078 C 
ATOM      2  C1' OXE d   1      -1.592  -0.191   2.212  0.00  0.00     0.078 C 
ATOM      3  C1  OXE d   1      -1.338   0.978   1.293  0.00  0.00    -0.078 A 
ATOM      4  C2  OXE d   1      -0.544   0.757   0.193  0.00  0.00    -0.078 A 
ATOM      5  C3  OXE d   1      -0.324   1.788  -0.716  0.00  0.00     0.003 A 
ATOM      6  C4  OXE d   1      -0.775   3.085  -0.441  0.00  0.00    -0.002 A 
ATOM      7  C5  OXE d   1      -1.552   3.340   0.694  0.00  0.00    -0.002 A 
ATOM      8  C6  OXE d   1      -1.878   2.291   1.547  0.00  0.00     0.003 A 
ENDROOT
TORSDOF 0
ENDMDL
