MODEL 1
REMARK minimizedAffinity -5.19651556
REMARK minimizedRMSD -1
REMARK  0 active torsions:
REMARK  status: ('A' for Active; 'I' for Inactive)
ROOT
ATOM      1  C2' OXE d   1      -0.373  -0.610   1.573  0.00  0.00     0.078 C 
ATOM      2  C1' OXE d   1       1.109   0.137  -0.691  0.00  0.00     0.078 C 
ATOM      3  C1  OXE d   1       0.213   1.175  -0.062  0.00  0.00    -0.078 A 
ATOM      4  C2  OXE d   1      -0.543   0.787   1.017  0.00  0.00    -0.078 A 
ATOM      5  C3  OXE d   1      -1.345   1.720   1.669  0.00  0.00     0.003 A 
ATOM      6  C4  OXE d   1      -1.505   3.008   1.142  0.00  0.00    -0.002 A 
ATOM      7  C5  OXE d   1      -0.773   3.411   0.020  0.00  0.00    -0.002 A 
ATOM      8  C6  OXE d   1       0.120   2.522  -0.567  0.00  0.00     0.003 A 
ENDROOT
TORSDOF 0
ENDMDL
