MODEL 1
REMARK minimizedAffinity -5.24076128
REMARK minimizedRMSD -1
REMARK  0 active torsions:
REMARK  status: ('A' for Active; 'I' for Inactive)
ROOT
ATOM      1  C1  BNZ d   1       0.385  -1.665  -0.759  0.00  0.00     0.000 A 
ATOM      2  C2  BNZ d   1       1.620  -2.129  -0.390  0.00  0.00     0.000 A 
ATOM      3  C3  BNZ d   1       2.422  -1.400   0.442  0.00  0.00     0.000 A 
ATOM      4  C4  BNZ d   1       2.007  -0.191   0.872  0.00  0.00     0.000 A 
ATOM      5  C5  BNZ d   1       0.769   0.295   0.502  0.00  0.00     0.000 A 
ATOM      6  C6  BNZ d   1      -0.052  -0.459  -0.305  0.00  0.00     0.000 A 
ENDROOT
TORSDOF 0
ENDMDL
