MODEL 1
REMARK minimizedAffinity -4.15600443
REMARK minimizedRMSD -1
REMARK  0 active torsions:
REMARK  status: ('A' for Active; 'I' for Inactive)
ROOT
ATOM      1  C1  BNZ d   1       0.265  -1.655  -0.691  0.00  0.00     0.000 A 
ATOM      2  C2  BNZ d   1      -0.022  -0.383  -0.272  0.00  0.00     0.000 A 
ATOM      3  C3  BNZ d   1       0.795   0.263   0.613  0.00  0.00     0.000 A 
ATOM      4  C4  BNZ d   1       1.875  -0.377   1.108  0.00  0.00     0.000 A 
ATOM      5  C5  BNZ d   1       2.172  -1.662   0.702  0.00  0.00     0.000 A 
ATOM      6  C6  BNZ d   1       1.369  -2.296  -0.219  0.00  0.00     0.000 A 
ENDROOT
TORSDOF 0
ENDMDL
