MODEL 1
REMARK minimizedAffinity -4.92437696
REMARK minimizedRMSD -1
REMARK  0 active torsions:
REMARK  status: ('A' for Active; 'I' for Inactive)
ROOT
ATOM      1  C1  BNZ d   1       1.422   0.038   0.715  0.00  0.00     0.000 A 
ATOM      2  C2  BNZ d   1       0.204   0.215   0.115  0.00  0.00     0.000 A 
ATOM      3  C3  BNZ d   1      -0.397  -0.807  -0.565  0.00  0.00     0.000 A 
ATOM      4  C4  BNZ d   1       0.239  -1.992  -0.678  0.00  0.00     0.000 A 
ATOM      5  C5  BNZ d   1       1.471  -2.183  -0.086  0.00  0.00     0.000 A 
ATOM      6  C6  BNZ d   1       2.055  -1.164   0.630  0.00  0.00     0.000 A 
ENDROOT
TORSDOF 0
ENDMDL
