MODEL 1
REMARK minimizedAffinity -2.05351853
REMARK minimizedRMSD -1
REMARK  0 active torsions:
REMARK  status: ('A' for Active; 'I' for Inactive)
ROOT
ATOM      1  C1  BNZ d   1       1.575  -1.352  -0.863  0.00  0.00     0.000 A 
ATOM      2  C2  BNZ d   1       0.234  -1.537  -1.069  0.00  0.00     0.000 A 
ATOM      3  C3  BNZ d   1      -0.689  -0.874  -0.310  0.00  0.00     0.000 A 
ATOM      4  C4  BNZ d   1      -0.271  -0.059   0.680  0.00  0.00     0.000 A 
ATOM      5  C5  BNZ d   1       1.077   0.131   0.907  0.00  0.00     0.000 A 
ATOM      6  C6  BNZ d   1       2.004  -0.508   0.115  0.00  0.00     0.000 A 
ENDROOT
TORSDOF 0
ENDMDL
