MODEL 1
REMARK minimizedAffinity -3.74795604
REMARK minimizedRMSD -1
REMARK  0 active torsions:
REMARK  status: ('A' for Active; 'I' for Inactive)
ROOT
ATOM      1  C1  BNZ d   1       0.450   1.896  -0.117  0.00  0.00     0.000 A 
ATOM      2  C2  BNZ d   1       1.459   1.083   0.326  0.00  0.00     0.000 A 
ATOM      3  C3  BNZ d   1       1.279  -0.269   0.419  0.00  0.00     0.000 A 
ATOM      4  C4  BNZ d   1       0.079  -0.801   0.108  0.00  0.00     0.000 A 
ATOM      5  C5  BNZ d   1      -0.951   0.007  -0.332  0.00  0.00     0.000 A 
ATOM      6  C6  BNZ d   1      -0.753   1.362  -0.461  0.00  0.00     0.000 A 
ENDROOT
TORSDOF 0
ENDMDL
