MODEL 1
REMARK minimizedAffinity -2.41630936
REMARK minimizedRMSD -1
REMARK  0 active torsions:
REMARK  status: ('A' for Active; 'I' for Inactive)
ROOT
ATOM      1  C1  BNZ d   1      -3.086   0.773   1.410  0.00  0.00     0.000 A 
ATOM      2  C2  BNZ d   1      -1.783   0.548   1.051  0.00  0.00     0.000 A 
ATOM      3  C3  BNZ d   1      -1.439   0.375  -0.261  0.00  0.00     0.000 A 
ATOM      4  C4  BNZ d   1      -2.401   0.387  -1.206  0.00  0.00     0.000 A 
ATOM      5  C5  BNZ d   1      -3.720   0.603  -0.858  0.00  0.00     0.000 A 
ATOM      6  C6  BNZ d   1      -4.057   0.816   0.459  0.00  0.00     0.000 A 
ENDROOT
TORSDOF 0
ENDMDL
