MODEL 1
REMARK minimizedAffinity -4.67818022
REMARK minimizedRMSD -1
REMARK  0 active torsions:
REMARK  status: ('A' for Active; 'I' for Inactive)
ROOT
ATOM      1  C   UNL d   1      -1.356   2.504   1.273  0.00  0.00     0.124 A 
ATOM      2  C1  UNL d   1      -0.932   2.626  -0.043  0.00  0.00     0.062 A 
ATOM      3  C2  UNL d   1      -0.321   1.552  -0.684  0.00  0.00     0.162 A 
ATOM      4  C3  UNL d   1      -0.132   0.345  -0.010  0.00  0.00    -0.034 A 
ATOM      5  C4  UNL d   1      -0.560   0.230   1.313  0.00  0.00     0.162 A 
ATOM      6  C5  UNL d   1      -1.170   1.307   1.950  0.00  0.00     0.062 A 
ATOM      7  F   UNL d   1      -1.579   1.187   3.221  0.00  0.00    -0.097 F 
ATOM      8  F1  UNL d   1      -0.394  -0.915   1.991  0.00  0.00    -0.096 F 
ATOM      9  I   UNL d   1       0.780  -1.263  -0.965  0.00  0.00    -0.060 I 
ATOM     10  F2  UNL d   1       0.079   1.698  -1.956  0.00  0.00    -0.096 F 
ATOM     11  F3  UNL d   1      -1.109   3.782  -0.699  0.00  0.00    -0.097 F 
ATOM     12  F4  UNL d   1      -1.942   3.539   1.887  0.00  0.00    -0.092 F 
ENDROOT
TORSDOF 0
ENDMDL
