MODEL 1
REMARK minimizedAffinity -3.61167383
REMARK minimizedRMSD -1
REMARK  0 active torsions:
REMARK  status: ('A' for Active; 'I' for Inactive)
ROOT
ATOM      1  C   UNL d   1       0.872  -2.087  -1.922  0.00  0.00     0.124 A 
ATOM      2  C1  UNL d   1       1.183  -0.755  -1.685  0.00  0.00     0.062 A 
ATOM      3  C2  UNL d   1       0.545  -0.059  -0.662  0.00  0.00     0.162 A 
ATOM      4  C3  UNL d   1      -0.410  -0.694   0.132  0.00  0.00    -0.034 A 
ATOM      5  C4  UNL d   1      -0.719  -2.033  -0.114  0.00  0.00     0.162 A 
ATOM      6  C5  UNL d   1      -0.078  -2.725  -1.137  0.00  0.00     0.062 A 
ATOM      7  F   UNL d   1      -0.380  -4.011  -1.365  0.00  0.00    -0.097 F 
ATOM      8  F1  UNL d   1      -1.632  -2.674   0.630  0.00  0.00    -0.096 F 
ATOM      9  I   UNL d   1      -1.367   0.344   1.661  0.00  0.00    -0.060 I 
ATOM     10  F2  UNL d   1       0.865   1.227  -0.455  0.00  0.00    -0.096 F 
ATOM     11  F3  UNL d   1       2.100  -0.137  -2.443  0.00  0.00    -0.097 F 
ATOM     12  F4  UNL d   1       1.487  -2.754  -2.908  0.00  0.00    -0.092 F 
ENDROOT
TORSDOF 0
ENDMDL
