MODEL 1
REMARK minimizedAffinity -0.860696971
REMARK minimizedRMSD -1
REMARK  0 active torsions:
REMARK  status: ('A' for Active; 'I' for Inactive)
ROOT
ATOM      1  C   UNL d   1      -0.679   1.230   1.084  0.00  0.00     0.124 A 
ATOM      2  C1  UNL d   1       0.205   1.365   0.022  0.00  0.00     0.062 A 
ATOM      3  C2  UNL d   1       0.712   0.237  -0.615  0.00  0.00     0.162 A 
ATOM      4  C3  UNL d   1       0.336  -1.038  -0.192  0.00  0.00    -0.034 A 
ATOM      5  C4  UNL d   1      -0.552  -1.167   0.877  0.00  0.00     0.162 A 
ATOM      6  C5  UNL d   1      -1.056  -0.036   1.511  0.00  0.00     0.062 A 
ATOM      7  F   UNL d   1      -1.909  -0.169   2.537  0.00  0.00    -0.097 F 
ATOM      8  F1  UNL d   1      -0.934  -2.378   1.309  0.00  0.00    -0.096 F 
ATOM      9  I   UNL d   1       1.092  -2.729  -1.142  0.00  0.00    -0.060 I 
ATOM     10  F2  UNL d   1       1.563   0.398  -1.639  0.00  0.00    -0.096 F 
ATOM     11  F3  UNL d   1       0.571   2.587  -0.391  0.00  0.00    -0.097 F 
ATOM     12  F4  UNL d   1      -1.164   2.318   1.696  0.00  0.00    -0.092 F 
ENDROOT
TORSDOF 0
ENDMDL
