MODEL 1
REMARK minimizedAffinity -3.22111034
REMARK minimizedRMSD -1
REMARK  0 active torsions:
REMARK  status: ('A' for Active; 'I' for Inactive)
ROOT
ATOM      1  C   UNL d   1      -0.742   0.618   1.692  0.00  0.00     0.124 A 
ATOM      2  C1  UNL d   1       0.360  -0.164   1.379  0.00  0.00     0.062 A 
ATOM      3  C2  UNL d   1       0.592  -0.552   0.063  0.00  0.00     0.162 A 
ATOM      4  C3  UNL d   1      -0.280  -0.158  -0.951  0.00  0.00    -0.034 A 
ATOM      5  C4  UNL d   1      -1.388   0.628  -0.629  0.00  0.00     0.162 A 
ATOM      6  C5  UNL d   1      -1.615   1.014   0.689  0.00  0.00     0.062 A 
ATOM      7  F   UNL d   1      -2.681   1.770   0.989  0.00  0.00    -0.097 F 
ATOM      8  F1  UNL d   1      -2.247   1.025  -1.579  0.00  0.00    -0.096 F 
ATOM      9  I   UNL d   1       0.063  -0.736  -2.921  0.00  0.00    -0.060 I 
ATOM     10  F2  UNL d   1       1.666  -1.309  -0.210  0.00  0.00    -0.096 F 
ATOM     11  F3  UNL d   1       1.205  -0.548   2.348  0.00  0.00    -0.097 F 
ATOM     12  F4  UNL d   1      -0.964   0.990   2.960  0.00  0.00    -0.092 F 
ENDROOT
TORSDOF 0
ENDMDL
