MODEL 1
REMARK minimizedAffinity -2.55475402
REMARK minimizedRMSD -1
REMARK  0 active torsions:
REMARK  status: ('A' for Active; 'I' for Inactive)
ROOT
ATOM      1  C   UNL d   1      -1.678   0.793   1.683  0.00  0.00     0.124 A 
ATOM      2  C1  UNL d   1      -0.827  -0.297   1.798  0.00  0.00     0.062 A 
ATOM      3  C2  UNL d   1       0.165  -0.515   0.845  0.00  0.00     0.162 A 
ATOM      4  C3  UNL d   1       0.311   0.361  -0.230  0.00  0.00    -0.034 A 
ATOM      5  C4  UNL d   1      -0.549   1.455  -0.340  0.00  0.00     0.162 A 
ATOM      6  C5  UNL d   1      -1.539   1.668   0.615  0.00  0.00     0.062 A 
ATOM      7  F   UNL d   1      -2.360   2.722   0.502  0.00  0.00    -0.097 F 
ATOM      8  F1  UNL d   1      -0.436   2.317  -1.361  0.00  0.00    -0.096 F 
ATOM      9  I   UNL d   1       1.792   0.040  -1.657  0.00  0.00    -0.060 I 
ATOM     10  F2  UNL d   1       0.973  -1.576   0.981  0.00  0.00    -0.096 F 
ATOM     11  F3  UNL d   1      -0.960  -1.145   2.828  0.00  0.00    -0.097 F 
ATOM     12  F4  UNL d   1      -2.632   0.999   2.600  0.00  0.00    -0.092 F 
ENDROOT
TORSDOF 0
ENDMDL
