MODEL 1
REMARK minimizedAffinity 0.266568065
REMARK minimizedRMSD -1
REMARK  0 active torsions:
REMARK  status: ('A' for Active; 'I' for Inactive)
ROOT
ATOM      1  C   UNL d   1       0.457  -3.686  -2.856  0.00  0.00     0.124 A 
ATOM      2  C1  UNL d   1       1.056  -3.779  -1.607  0.00  0.00     0.062 A 
ATOM      3  C2  UNL d   1       0.923  -2.743  -0.688  0.00  0.00     0.162 A 
ATOM      4  C3  UNL d   1       0.186  -1.604  -1.013  0.00  0.00    -0.034 A 
ATOM      5  C4  UNL d   1      -0.413  -1.517  -2.271  0.00  0.00     0.162 A 
ATOM      6  C5  UNL d   1      -0.277  -2.556  -3.187  0.00  0.00     0.062 A 
ATOM      7  F   UNL d   1      -0.856  -2.464  -4.392  0.00  0.00    -0.097 F 
ATOM      8  F1  UNL d   1      -1.129  -0.437  -2.616  0.00  0.00    -0.096 F 
ATOM      9  I   UNL d   1      -0.017  -0.053   0.359  0.00  0.00    -0.060 I 
ATOM     10  F2  UNL d   1       1.512  -2.860   0.511  0.00  0.00    -0.096 F 
ATOM     11  F3  UNL d   1       1.767  -4.870  -1.286  0.00  0.00    -0.097 F 
ATOM     12  F4  UNL d   1       0.588  -4.684  -3.739  0.00  0.00    -0.092 F 
ENDROOT
TORSDOF 0
ENDMDL
