MODEL 1
REMARK minimizedAffinity 0.516582072
REMARK minimizedRMSD -1
REMARK  0 active torsions:
REMARK  status: ('A' for Active; 'I' for Inactive)
ROOT
ATOM      1  C   UNL d   1       0.389  -1.071  -1.459  0.00  0.00     0.124 A 
ATOM      2  C1  UNL d   1      -0.576  -1.581  -0.603  0.00  0.00     0.062 A 
ATOM      3  C2  UNL d   1      -1.249  -0.737   0.276  0.00  0.00     0.162 A 
ATOM      4  C3  UNL d   1      -0.960   0.627   0.302  0.00  0.00    -0.034 A 
ATOM      5  C4  UNL d   1       0.014   1.133  -0.562  0.00  0.00     0.162 A 
ATOM      6  C5  UNL d   1       0.683   0.285  -1.438  0.00  0.00     0.062 A 
ATOM      7  F   UNL d   1       1.616   0.780  -2.265  0.00  0.00    -0.097 F 
ATOM      8  F1  UNL d   1       0.317   2.439  -0.563  0.00  0.00    -0.096 F 
ATOM      9  I   UNL d   1      -1.964   1.893   1.614  0.00  0.00    -0.060 I 
ATOM     10  F2  UNL d   1      -2.178  -1.258   1.092  0.00  0.00    -0.096 F 
ATOM     11  F3  UNL d   1      -0.862  -2.891  -0.620  0.00  0.00    -0.097 F 
ATOM     12  F4  UNL d   1       1.036  -1.886  -2.302  0.00  0.00    -0.092 F 
ENDROOT
TORSDOF 0
ENDMDL
