MODEL 1
REMARK minimizedAffinity 4.34756041
REMARK minimizedRMSD -1
REMARK  0 active torsions:
REMARK  status: ('A' for Active; 'I' for Inactive)
ROOT
ATOM      1  C   UNL d   1       0.957  -0.543  -0.110  0.00  0.00     0.124 A 
ATOM      2  C1  UNL d   1       0.484  -0.597   1.194  0.00  0.00     0.062 A 
ATOM      3  C2  UNL d   1      -0.408   0.367   1.655  0.00  0.00     0.162 A 
ATOM      4  C3  UNL d   1      -0.834   1.393   0.812  0.00  0.00    -0.034 A 
ATOM      5  C4  UNL d   1      -0.354   1.441  -0.498  0.00  0.00     0.162 A 
ATOM      6  C5  UNL d   1       0.538   0.475  -0.954  0.00  0.00     0.062 A 
ATOM      7  F   UNL d   1       0.993   0.528  -2.215  0.00  0.00    -0.097 F 
ATOM      8  F1  UNL d   1      -0.743   2.413  -1.336  0.00  0.00    -0.096 F 
ATOM      9  I   UNL d   1      -2.168   2.836   1.497  0.00  0.00    -0.060 I 
ATOM     10  F2  UNL d   1      -0.849   0.291   2.920  0.00  0.00    -0.096 F 
ATOM     11  F3  UNL d   1       0.888  -1.579   2.013  0.00  0.00    -0.097 F 
ATOM     12  F4  UNL d   1       1.816  -1.471  -0.551  0.00  0.00    -0.092 F 
ENDROOT
TORSDOF 0
ENDMDL
