MODEL 1
REMARK minimizedAffinity 4.41174507
REMARK minimizedRMSD -1
REMARK  0 active torsions:
REMARK  status: ('A' for Active; 'I' for Inactive)
ROOT
ATOM      1  C   UNL d   1       0.315   1.412  -0.707  0.00  0.00     0.124 A 
ATOM      2  C1  UNL d   1      -0.083   0.603   0.349  0.00  0.00     0.062 A 
ATOM      3  C2  UNL d   1       0.084  -0.776   0.276  0.00  0.00     0.162 A 
ATOM      4  C3  UNL d   1       0.654  -1.357  -0.857  0.00  0.00    -0.034 A 
ATOM      5  C4  UNL d   1       1.051  -0.538  -1.916  0.00  0.00     0.162 A 
ATOM      6  C5  UNL d   1       0.881   0.841  -1.838  0.00  0.00     0.062 A 
ATOM      7  F   UNL d   1       1.267   1.620  -2.859  0.00  0.00    -0.097 F 
ATOM      8  F1  UNL d   1       1.602  -1.063  -3.020  0.00  0.00    -0.096 F 
ATOM      9  I   UNL d   1       0.906  -3.420  -0.971  0.00  0.00    -0.060 I 
ATOM     10  F2  UNL d   1      -0.309  -1.533   1.311  0.00  0.00    -0.096 F 
ATOM     11  F3  UNL d   1      -0.631   1.153   1.442  0.00  0.00    -0.097 F 
ATOM     12  F4  UNL d   1       0.152   2.739  -0.634  0.00  0.00    -0.092 F 
ENDROOT
TORSDOF 0
ENDMDL
