MODEL 1
REMARK minimizedAffinity -2.44071412
REMARK minimizedRMSD -1
REMARK  0 active torsions:
REMARK  status: ('A' for Active; 'I' for Inactive)
ROOT
ATOM      1  C   UNL d   1      -1.344   2.087   0.877  0.00  0.00     0.124 A 
ATOM      2  C1  UNL d   1      -1.180   0.960   1.669  0.00  0.00     0.062 A 
ATOM      3  C2  UNL d   1      -0.435  -0.120   1.204  0.00  0.00     0.162 A 
ATOM      4  C3  UNL d   1       0.153  -0.077  -0.060  0.00  0.00    -0.034 A 
ATOM      5  C4  UNL d   1      -0.018   1.060  -0.852  0.00  0.00     0.162 A 
ATOM      6  C5  UNL d   1      -0.763   2.136  -0.382  0.00  0.00     0.062 A 
ATOM      7  F   UNL d   1      -0.921   3.225  -1.150  0.00  0.00    -0.097 F 
ATOM      8  F1  UNL d   1       0.534   1.134  -2.072  0.00  0.00    -0.096 F 
ATOM      9  I   UNL d   1       1.268  -1.690  -0.759  0.00  0.00    -0.060 I 
ATOM     10  F2  UNL d   1      -0.293  -1.197   1.992  0.00  0.00    -0.096 F 
ATOM     11  F3  UNL d   1      -1.741   0.909   2.886  0.00  0.00    -0.097 F 
ATOM     12  F4  UNL d   1      -2.063   3.124   1.326  0.00  0.00    -0.092 F 
ENDROOT
TORSDOF 0
ENDMDL
