MODEL 1
REMARK minimizedAffinity 0.258231282
REMARK minimizedRMSD -1
REMARK  0 active torsions:
REMARK  status: ('A' for Active; 'I' for Inactive)
ROOT
ATOM      1  C   UNL d   1      -0.774  -0.451   1.367  0.00  0.00     0.124 A 
ATOM      2  C1  UNL d   1      -1.564   0.613   0.955  0.00  0.00     0.062 A 
ATOM      3  C2  UNL d   1      -1.090   1.508   0.000  0.00  0.00     0.162 A 
ATOM      4  C3  UNL d   1       0.181   1.342  -0.551  0.00  0.00    -0.034 A 
ATOM      5  C4  UNL d   1       0.970   0.270  -0.131  0.00  0.00     0.162 A 
ATOM      6  C5  UNL d   1       0.492  -0.622   0.824  0.00  0.00     0.062 A 
ATOM      7  F   UNL d   1       1.257  -1.649   1.221  0.00  0.00    -0.097 F 
ATOM      8  F1  UNL d   1       2.196   0.080  -0.640  0.00  0.00    -0.096 F 
ATOM      9  I   UNL d   1       0.893   2.678  -1.979  0.00  0.00    -0.060 I 
ATOM     10  F2  UNL d   1      -1.875   2.528  -0.379  0.00  0.00    -0.096 F 
ATOM     11  F3  UNL d   1      -2.786   0.781   1.479  0.00  0.00    -0.097 F 
ATOM     12  F4  UNL d   1      -1.232  -1.310   2.287  0.00  0.00    -0.092 F 
ENDROOT
TORSDOF 0
ENDMDL
