MODEL 1
REMARK minimizedAffinity -1.66313732
REMARK minimizedRMSD -1
REMARK  0 active torsions:
REMARK  status: ('A' for Active; 'I' for Inactive)
ROOT
ATOM      1  C   UNL d   1      -1.821   1.072   1.418  0.00  0.00     0.124 A 
ATOM      2  C1  UNL d   1      -1.484   2.009   0.451  0.00  0.00     0.062 A 
ATOM      3  C2  UNL d   1      -0.370   1.810  -0.358  0.00  0.00     0.162 A 
ATOM      4  C3  UNL d   1       0.416   0.668  -0.205  0.00  0.00    -0.034 A 
ATOM      5  C4  UNL d   1       0.072  -0.269   0.770  0.00  0.00     0.162 A 
ATOM      6  C5  UNL d   1      -1.043  -0.066   1.577  0.00  0.00     0.062 A 
ATOM      7  F   UNL d   1      -1.367  -0.972   2.511  0.00  0.00    -0.097 F 
ATOM      8  F1  UNL d   1       0.806  -1.378   0.945  0.00  0.00    -0.096 F 
ATOM      9  I   UNL d   1       2.084   0.367  -1.413  0.00  0.00    -0.060 I 
ATOM     10  F2  UNL d   1      -0.068   2.732  -1.285  0.00  0.00    -0.096 F 
ATOM     11  F3  UNL d   1      -2.234   3.110   0.296  0.00  0.00    -0.097 F 
ATOM     12  F4  UNL d   1      -2.894   1.267   2.196  0.00  0.00    -0.092 F 
ENDROOT
TORSDOF 0
ENDMDL
