MODEL 1
REMARK minimizedAffinity -2.94826627
REMARK minimizedRMSD -1
REMARK  0 active torsions:
REMARK  status: ('A' for Active; 'I' for Inactive)
ROOT
ATOM      1  C   UNL d   1      -0.156   3.350  -0.500  0.00  0.00     0.124 A 
ATOM      2  C1  UNL d   1       0.735   2.382  -0.940  0.00  0.00     0.062 A 
ATOM      3  C2  UNL d   1       0.786   1.140  -0.313  0.00  0.00     0.162 A 
ATOM      4  C3  UNL d   1      -0.059   0.859   0.760  0.00  0.00    -0.034 A 
ATOM      5  C4  UNL d   1      -0.952   1.839   1.198  0.00  0.00     0.162 A 
ATOM      6  C5  UNL d   1      -0.999   3.078   0.568  0.00  0.00     0.062 A 
ATOM      7  F   UNL d   1      -1.861   4.013   0.994  0.00  0.00    -0.097 F 
ATOM      8  F1  UNL d   1      -1.779   1.602   2.227  0.00  0.00    -0.096 F 
ATOM      9  I   UNL d   1       0.013  -0.996   1.701  0.00  0.00    -0.060 I 
ATOM     10  F2  UNL d   1       1.657   0.223  -0.760  0.00  0.00    -0.096 F 
ATOM     11  F3  UNL d   1       1.551   2.642  -1.972  0.00  0.00    -0.097 F 
ATOM     12  F4  UNL d   1      -0.202   4.544  -1.105  0.00  0.00    -0.092 F 
ENDROOT
TORSDOF 0
ENDMDL
