MODEL 1
REMARK minimizedAffinity 6.26502085
REMARK minimizedRMSD -1
REMARK  0 active torsions:
REMARK  status: ('A' for Active; 'I' for Inactive)
ROOT
ATOM      1  C   UNL d   1       0.721  -0.691   3.081  0.00  0.00     0.078 C 
ATOM      2  C1  UNL d   1      -0.775  -0.759   3.016  0.00  0.00    -0.077 A 
ATOM      3  C2  UNL d   1      -1.501   0.101   2.182  0.00  0.00    -0.001 A 
ATOM      4  C3  UNL d   1      -2.894   0.033   2.139  0.00  0.00     0.003 A 
ATOM      5  C4  UNL d   1      -3.574  -0.892   2.928  0.00  0.00    -0.005 A 
ATOM      6  C5  UNL d   1      -2.861  -1.750   3.763  0.00  0.00     0.003 A 
ATOM      7  C6  UNL d   1      -1.468  -1.684   3.807  0.00  0.00    -0.001 A 
ENDROOT
TORSDOF 0
ENDMDL
