MODEL 1
REMARK minimizedAffinity 5.91915035
REMARK minimizedRMSD -1
REMARK  0 active torsions:
REMARK  status: ('A' for Active; 'I' for Inactive)
ROOT
ATOM      1  C   UNL d   1       1.466  -0.146   0.898  0.00  0.00     0.078 C 
ATOM      2  C1  UNL d   1       0.028  -0.111   0.475  0.00  0.00    -0.077 A 
ATOM      3  C2  UNL d   1      -0.411  -0.819  -0.651  0.00  0.00    -0.001 A 
ATOM      4  C3  UNL d   1      -1.750  -0.768  -1.038  0.00  0.00     0.003 A 
ATOM      5  C4  UNL d   1      -2.663  -0.010  -0.307  0.00  0.00    -0.005 A 
ATOM      6  C5  UNL d   1      -2.235   0.699   0.813  0.00  0.00     0.003 A 
ATOM      7  C6  UNL d   1      -0.896   0.650   1.203  0.00  0.00    -0.001 A 
ENDROOT
TORSDOF 0
ENDMDL
