MODEL 1
REMARK minimizedAffinity -3.5996809
REMARK minimizedRMSD -1
REMARK  0 active torsions:
REMARK  status: ('A' for Active; 'I' for Inactive)
ROOT
ATOM      1  C   UNL d   1       1.078   0.548  -4.530  0.00  0.00     0.078 C 
ATOM      2  C1  UNL d   1       1.292   0.008  -3.148  0.00  0.00    -0.077 A 
ATOM      3  C2  UNL d   1       0.376  -0.879  -2.570  0.00  0.00    -0.001 A 
ATOM      4  C3  UNL d   1       0.583  -1.366  -1.278  0.00  0.00     0.003 A 
ATOM      5  C4  UNL d   1       1.705  -0.971  -0.553  0.00  0.00    -0.005 A 
ATOM      6  C5  UNL d   1       2.622  -0.087  -1.119  0.00  0.00     0.003 A 
ATOM      7  C6  UNL d   1       2.416   0.401  -2.411  0.00  0.00    -0.001 A 
ENDROOT
TORSDOF 0
ENDMDL
