MODEL 1
REMARK minimizedAffinity 11.7503071
REMARK minimizedRMSD -1
REMARK  0 active torsions:
REMARK  status: ('A' for Active; 'I' for Inactive)
ROOT
ATOM      1  C   UNL d   1      -4.312   1.295  -0.597  0.00  0.00     0.078 C 
ATOM      2  C1  UNL d   1      -3.074   0.764   0.062  0.00  0.00    -0.077 A 
ATOM      3  C2  UNL d   1      -2.925   0.801   1.454  0.00  0.00    -0.001 A 
ATOM      4  C3  UNL d   1      -1.763   0.311   2.052  0.00  0.00     0.003 A 
ATOM      5  C4  UNL d   1      -0.740  -0.217   1.267  0.00  0.00    -0.005 A 
ATOM      6  C5  UNL d   1      -0.879  -0.256  -0.119  0.00  0.00     0.003 A 
ATOM      7  C6  UNL d   1      -2.040   0.233  -0.719  0.00  0.00    -0.001 A 
ENDROOT
TORSDOF 0
ENDMDL
