MODEL 1
REMARK minimizedAffinity 0.262859702
REMARK minimizedRMSD -1
REMARK  0 active torsions:
REMARK  status: ('A' for Active; 'I' for Inactive)
ROOT
ATOM      1  C   UNL d   1       3.048   2.865   2.259  0.00  0.00     0.078 C 
ATOM      2  C1  UNL d   1       4.067   3.965   2.222  0.00  0.00    -0.077 A 
ATOM      3  C2  UNL d   1       4.071   4.909   1.188  0.00  0.00    -0.001 A 
ATOM      4  C3  UNL d   1       5.031   5.921   1.160  0.00  0.00     0.003 A 
ATOM      5  C4  UNL d   1       5.995   5.999   2.164  0.00  0.00    -0.005 A 
ATOM      6  C5  UNL d   1       6.000   5.063   3.196  0.00  0.00     0.003 A 
ATOM      7  C6  UNL d   1       5.040   4.050   3.225  0.00  0.00    -0.001 A 
ENDROOT
TORSDOF 0
ENDMDL
