MODEL 1
REMARK minimizedAffinity -0.432291687
REMARK minimizedRMSD -1
REMARK  0 active torsions:
REMARK  status: ('A' for Active; 'I' for Inactive)
ROOT
ATOM      1  C   UNL d   1       0.008   0.220   0.938  0.00  0.00     0.078 C 
ATOM      2  C1  UNL d   1      -0.268  -0.336   2.304  0.00  0.00    -0.077 A 
ATOM      3  C2  UNL d   1       0.745  -0.950   3.051  0.00  0.00    -0.001 A 
ATOM      4  C3  UNL d   1       0.472  -1.471   4.316  0.00  0.00     0.003 A 
ATOM      5  C4  UNL d   1      -0.815  -1.385   4.845  0.00  0.00    -0.005 A 
ATOM      6  C5  UNL d   1      -1.829  -0.779   4.108  0.00  0.00     0.003 A 
ATOM      7  C6  UNL d   1      -1.558  -0.256   2.843  0.00  0.00    -0.001 A 
ENDROOT
TORSDOF 0
ENDMDL
