MODEL 1
REMARK minimizedAffinity -1.335572
REMARK minimizedRMSD -1
REMARK  0 active torsions:
REMARK  status: ('A' for Active; 'I' for Inactive)
ROOT
ATOM      1  C   UNL d   1      -3.949  -2.061  -1.254  0.00  0.00     0.078 C 
ATOM      2  C1  UNL d   1      -2.806  -1.336  -0.610  0.00  0.00    -0.077 A 
ATOM      3  C2  UNL d   1      -3.007  -0.527   0.516  0.00  0.00    -0.001 A 
ATOM      4  C3  UNL d   1      -1.935   0.150   1.099  0.00  0.00     0.003 A 
ATOM      5  C4  UNL d   1      -0.654   0.026   0.564  0.00  0.00    -0.005 A 
ATOM      6  C5  UNL d   1      -0.445  -0.774  -0.557  0.00  0.00     0.003 A 
ATOM      7  C6  UNL d   1      -1.515  -1.452  -1.142  0.00  0.00    -0.001 A 
ENDROOT
TORSDOF 0
ENDMDL
