MODEL 1
REMARK minimizedAffinity -1.57886016
REMARK minimizedRMSD -1
REMARK  0 active torsions:
REMARK  status: ('A' for Active; 'I' for Inactive)
ROOT
ATOM      1  C   UNL d   1       0.312  -1.093   4.428  0.00  0.00     0.078 C 
ATOM      2  C1  UNL d   1      -0.311  -0.659   3.135  0.00  0.00    -0.077 A 
ATOM      3  C2  UNL d   1      -1.634  -0.204   3.089  0.00  0.00    -0.001 A 
ATOM      4  C3  UNL d   1      -2.205   0.187   1.877  0.00  0.00     0.003 A 
ATOM      5  C4  UNL d   1      -1.459   0.126   0.701  0.00  0.00    -0.005 A 
ATOM      6  C5  UNL d   1      -0.142  -0.327   0.736  0.00  0.00     0.003 A 
ATOM      7  C6  UNL d   1       0.430  -0.719   1.948  0.00  0.00    -0.001 A 
ENDROOT
TORSDOF 0
ENDMDL
