MODEL 1
REMARK minimizedAffinity -1.54964375
REMARK minimizedRMSD -1
REMARK  0 active torsions:
REMARK  status: ('A' for Active; 'I' for Inactive)
ROOT
ATOM      1  C   UNL d   1       1.718  -1.006   1.352  0.00  0.00     0.078 C 
ATOM      2  C1  UNL d   1       0.252  -0.692   1.338  0.00  0.00    -0.077 A 
ATOM      3  C2  UNL d   1      -0.434  -0.501   0.132  0.00  0.00    -0.001 A 
ATOM      4  C3  UNL d   1      -1.796  -0.200   0.135  0.00  0.00     0.003 A 
ATOM      5  C4  UNL d   1      -2.485  -0.086   1.341  0.00  0.00    -0.005 A 
ATOM      6  C5  UNL d   1      -1.811  -0.272   2.546  0.00  0.00     0.003 A 
ATOM      7  C6  UNL d   1      -0.448  -0.573   2.545  0.00  0.00    -0.001 A 
ENDROOT
TORSDOF 0
ENDMDL
