MODEL 1
REMARK minimizedAffinity -1.78388107
REMARK minimizedRMSD -1
REMARK  0 active torsions:
REMARK  status: ('A' for Active; 'I' for Inactive)
ROOT
ATOM      1  C   UNL d   1      -0.090  -0.832   4.373  0.00  0.00     0.078 C 
ATOM      2  C1  UNL d   1      -0.690  -0.479   3.045  0.00  0.00    -0.077 A 
ATOM      3  C2  UNL d   1      -1.955   0.115   2.959  0.00  0.00    -0.001 A 
ATOM      4  C3  UNL d   1      -2.504   0.429   1.715  0.00  0.00     0.003 A 
ATOM      5  C4  UNL d   1      -1.797   0.152   0.548  0.00  0.00    -0.005 A 
ATOM      6  C5  UNL d   1      -0.538  -0.442   0.623  0.00  0.00     0.003 A 
ATOM      7  C6  UNL d   1       0.013  -0.756   1.866  0.00  0.00    -0.001 A 
ENDROOT
TORSDOF 0
ENDMDL
