MODEL 1
REMARK minimizedAffinity 5.78704214
REMARK minimizedRMSD -1
REMARK  0 active torsions:
REMARK  status: ('A' for Active; 'I' for Inactive)
ROOT
ATOM      1  N1  IND d   1      -0.087  -2.080   2.959  0.00  0.00    -0.196 N 
ATOM      2  C2  IND d   1       0.432  -0.916   2.465  0.00  0.00     0.054 A 
ATOM      3  C3  IND d   1       1.764  -0.864   2.686  0.00  0.00    -0.031 A 
ATOM      4  C4  IND d   1       3.315  -2.622   3.750  0.00  0.00     0.051 A 
ATOM      5  C5  IND d   1       3.296  -3.832   4.384  0.00  0.00    -0.031 A 
ATOM      6  C6  IND d   1       2.125  -4.536   4.578  0.00  0.00     0.015 A 
ATOM      7  C7  IND d   1       0.925  -4.058   4.132  0.00  0.00    -0.016 A 
ATOM      8  C8  IND d   1       0.940  -2.827   3.493  0.00  0.00    -0.047 A 
ATOM      9  C9  IND d   1       2.119  -2.088   3.331  0.00  0.00    -0.096 A 
ATOM     10  HN1 IND d   1      -0.916  -2.308   2.939  0.00  0.00     0.298 HD
ENDROOT
TORSDOF 0
ENDMDL
