MODEL 1
REMARK minimizedAffinity 0.682584882
REMARK minimizedRMSD -1
REMARK  0 active torsions:
REMARK  status: ('A' for Active; 'I' for Inactive)
ROOT
ATOM      1  N1  IND d   1       0.473  -2.984   3.605  0.00  0.00    -0.196 N 
ATOM      2  C2  IND d   1       1.147  -2.821   4.784  0.00  0.00     0.054 A 
ATOM      3  C3  IND d   1       1.875  -1.682   4.755  0.00  0.00    -0.031 A 
ATOM      4  C4  IND d   1       2.030   0.116   2.919  0.00  0.00     0.051 A 
ATOM      5  C5  IND d   1       1.623   0.390   1.643  0.00  0.00    -0.031 A 
ATOM      6  C6  IND d   1       0.793  -0.462   0.944  0.00  0.00     0.015 A 
ATOM      7  C7  IND d   1       0.328  -1.620   1.500  0.00  0.00    -0.016 A 
ATOM      8  C8  IND d   1       0.745  -1.905   2.792  0.00  0.00    -0.047 A 
ATOM      9  C9  IND d   1       1.621  -1.065   3.492  0.00  0.00    -0.096 A 
ATOM     10  HN1 IND d   1      -0.034  -3.648   3.405  0.00  0.00     0.298 HD
ENDROOT
TORSDOF 0
ENDMDL
