MODEL 1
REMARK minimizedAffinity 7.42732286
REMARK minimizedRMSD -1
REMARK  0 active torsions:
REMARK  status: ('A' for Active; 'I' for Inactive)
ROOT
ATOM      1  N1  IND d   1       1.010  -0.798   0.229  0.00  0.00    -0.196 N 
ATOM      2  C2  IND d   1       0.476  -1.970  -0.228  0.00  0.00     0.054 A 
ATOM      3  C3  IND d   1       0.445  -2.891   0.762  0.00  0.00    -0.031 A 
ATOM      4  C4  IND d   1       1.123  -2.657   3.234  0.00  0.00     0.051 A 
ATOM      5  C5  IND d   1       1.699  -1.785   4.115  0.00  0.00    -0.031 A 
ATOM      6  C6  IND d   1       2.080  -0.513   3.739  0.00  0.00     0.015 A 
ATOM      7  C7  IND d   1       1.887  -0.060   2.465  0.00  0.00    -0.016 A 
ATOM      8  C8  IND d   1       1.309  -0.944   1.566  0.00  0.00    -0.047 A 
ATOM      9  C9  IND d   1       0.960  -2.251   1.931  0.00  0.00    -0.096 A 
ATOM     10  HN1 IND d   1       1.137  -0.088  -0.239  0.00  0.00     0.298 HD
ENDROOT
TORSDOF 0
ENDMDL
