MODEL 1
REMARK minimizedAffinity 1.20507002
REMARK minimizedRMSD -1
REMARK  0 active torsions:
REMARK  status: ('A' for Active; 'I' for Inactive)
ROOT
ATOM      1  N1  IND d   1       2.403  -3.532   4.527  0.00  0.00    -0.196 N 
ATOM      2  C2  IND d   1       2.687  -4.850   4.301  0.00  0.00     0.054 A 
ATOM      3  C3  IND d   1       2.310  -5.206   3.053  0.00  0.00    -0.031 A 
ATOM      4  C4  IND d   1       1.301  -3.761   1.176  0.00  0.00     0.051 A 
ATOM      5  C5  IND d   1       0.826  -2.506   0.920  0.00  0.00    -0.031 A 
ATOM      6  C6  IND d   1       0.855  -1.507   1.872  0.00  0.00     0.015 A 
ATOM      7  C7  IND d   1       1.374  -1.725   3.117  0.00  0.00    -0.016 A 
ATOM      8  C8  IND d   1       1.850  -3.001   3.382  0.00  0.00    -0.047 A 
ATOM      9  C9  IND d   1       1.784  -4.030   2.434  0.00  0.00    -0.096 A 
ATOM     10  HN1 IND d   1       2.545  -3.107   5.261  0.00  0.00     0.298 HD
ENDROOT
TORSDOF 0
ENDMDL
