MODEL 1
REMARK minimizedAffinity 5.37233305
REMARK minimizedRMSD -1
REMARK  0 active torsions:
REMARK  status: ('A' for Active; 'I' for Inactive)
ROOT
ATOM      1  N1  IND d   1      -5.740   1.723   0.832  0.00  0.00    -0.196 N 
ATOM      2  C2  IND d   1      -4.911   2.178   1.819  0.00  0.00     0.054 A 
ATOM      3  C3  IND d   1      -3.798   2.728   1.283  0.00  0.00    -0.031 A 
ATOM      4  C4  IND d   1      -3.176   3.078  -1.190  0.00  0.00     0.051 A 
ATOM      5  C5  IND d   1      -3.600   2.795  -2.458  0.00  0.00    -0.031 A 
ATOM      6  C6  IND d   1      -4.784   2.129  -2.699  0.00  0.00     0.015 A 
ATOM      7  C7  IND d   1      -5.598   1.729  -1.677  0.00  0.00    -0.016 A 
ATOM      8  C8  IND d   1      -5.167   2.009  -0.388  0.00  0.00    -0.047 A 
ATOM      9  C9  IND d   1      -3.946   2.647  -0.136  0.00  0.00    -0.096 A 
ATOM     10  HN1 IND d   1      -6.492   1.324   0.953  0.00  0.00     0.298 HD
ENDROOT
TORSDOF 0
ENDMDL
