MODEL 1
REMARK minimizedAffinity 2.40183282
REMARK minimizedRMSD -1
REMARK  0 active torsions:
REMARK  status: ('A' for Active; 'I' for Inactive)
ROOT
ATOM      1  N1  IND d   1      -3.741   2.317   2.056  0.00  0.00    -0.196 N 
ATOM      2  C2  IND d   1      -3.217   3.480   1.566  0.00  0.00     0.054 A 
ATOM      3  C3  IND d   1      -3.644   3.692   0.301  0.00  0.00    -0.031 A 
ATOM      4  C4  IND d   1      -5.286   2.314  -1.124  0.00  0.00     0.051 A 
ATOM      5  C5  IND d   1      -6.000   1.148  -1.120  0.00  0.00    -0.031 A 
ATOM      6  C6  IND d   1      -6.000   0.297  -0.034  0.00  0.00     0.015 A 
ATOM      7  C7  IND d   1      -5.291   0.586   1.098  0.00  0.00    -0.016 A 
ATOM      8  C8  IND d   1      -4.559   1.765   1.094  0.00  0.00    -0.047 A 
ATOM      9  C9  IND d   1      -4.522   2.612  -0.021  0.00  0.00    -0.096 A 
ATOM     10  HN1 IND d   1      -3.586   1.985   2.834  0.00  0.00     0.298 HD
ENDROOT
TORSDOF 0
ENDMDL
