MODEL 1
REMARK minimizedAffinity 8.66207027
REMARK minimizedRMSD -1
REMARK  0 active torsions:
REMARK  status: ('A' for Active; 'I' for Inactive)
ROOT
ATOM      1  N1  IND d   1       1.260  -3.232   2.399  0.00  0.00    -0.196 N 
ATOM      2  C2  IND d   1       1.245  -1.948   2.867  0.00  0.00     0.054 A 
ATOM      3  C3  IND d   1       1.106  -1.076   1.843  0.00  0.00    -0.031 A 
ATOM      4  C4  IND d   1       0.781  -1.540  -0.668  0.00  0.00     0.051 A 
ATOM      5  C5  IND d   1       0.762  -2.556  -1.582  0.00  0.00    -0.031 A 
ATOM      6  C6  IND d   1       0.908  -3.876  -1.208  0.00  0.00     0.015 A 
ATOM      7  C7  IND d   1       1.068  -4.232   0.101  0.00  0.00    -0.016 A 
ATOM      8  C8  IND d   1       1.095  -3.202   1.031  0.00  0.00    -0.047 A 
ATOM      9  C9  IND d   1       0.990  -1.857   0.653  0.00  0.00    -0.096 A 
ATOM     10  HN1 IND d   1       1.355  -3.940   2.878  0.00  0.00     0.298 HD
ENDROOT
TORSDOF 0
ENDMDL
