MODEL 1
REMARK minimizedAffinity 7.13363123
REMARK minimizedRMSD -1
REMARK  0 active torsions:
REMARK  status: ('A' for Active; 'I' for Inactive)
ROOT
ATOM      1  N1  IND d   1      -5.983   2.097  -1.620  0.00  0.00    -0.196 N 
ATOM      2  C2  IND d   1      -5.897   0.738  -1.502  0.00  0.00     0.054 A 
ATOM      3  C3  IND d   1      -5.792   0.385  -0.201  0.00  0.00    -0.031 A 
ATOM      4  C4  IND d   1      -5.844   1.864   1.905  0.00  0.00     0.051 A 
ATOM      5  C5  IND d   1      -5.872   3.172   2.303  0.00  0.00    -0.031 A 
ATOM      6  C6  IND d   1      -5.943   4.208   1.395  0.00  0.00     0.015 A 
ATOM      7  C7  IND d   1      -6.000   3.975   0.050  0.00  0.00    -0.016 A 
ATOM      8  C8  IND d   1      -5.965   2.649  -0.358  0.00  0.00    -0.047 A 
ATOM      9  C9  IND d   1      -5.850   1.594   0.557  0.00  0.00    -0.096 A 
ATOM     10  HN1 IND d   1      -6.040   2.534  -2.358  0.00  0.00     0.298 HD
ENDROOT
TORSDOF 0
ENDMDL
