MODEL 1
REMARK minimizedAffinity 3.69277573
REMARK minimizedRMSD -1
REMARK  0 active torsions:
REMARK  status: ('A' for Active; 'I' for Inactive)
ROOT
ATOM      1  N1  IND d   1      -5.441   2.008   1.842  0.00  0.00    -0.196 N 
ATOM      2  C2  IND d   1      -5.293   3.358   1.998  0.00  0.00     0.054 A 
ATOM      3  C3  IND d   1      -5.368   3.981   0.801  0.00  0.00    -0.031 A 
ATOM      4  C4  IND d   1      -5.833   2.992  -1.531  0.00  0.00     0.051 A 
ATOM      5  C5  IND d   1      -6.000   1.803  -2.182  0.00  0.00    -0.031 A 
ATOM      6  C6  IND d   1      -5.992   0.597  -1.512  0.00  0.00     0.015 A 
ATOM      7  C7  IND d   1      -5.827   0.536  -0.157  0.00  0.00    -0.016 A 
ATOM      8  C8  IND d   1      -5.650   1.741   0.507  0.00  0.00    -0.047 A 
ATOM      9  C9  IND d   1      -5.615   2.965  -0.173  0.00  0.00    -0.096 A 
ATOM     10  HN1 IND d   1      -5.410   1.424   2.472  0.00  0.00     0.298 HD
ENDROOT
TORSDOF 0
ENDMDL
