MODEL 1
REMARK minimizedAffinity 0.960635722
REMARK minimizedRMSD -1
REMARK  0 active torsions:
REMARK  status: ('A' for Active; 'I' for Inactive)
ROOT
ATOM      1  N1  IND d   1       1.471  -0.519   4.202  0.00  0.00    -0.196 N 
ATOM      2  C2  IND d   1       1.497  -1.675   3.473  0.00  0.00     0.054 A 
ATOM      3  C3  IND d   1       1.954  -1.433   2.224  0.00  0.00    -0.031 A 
ATOM      4  C4  IND d   1       2.813   0.764   1.194  0.00  0.00     0.051 A 
ATOM      5  C5  IND d   1       2.950   2.097   1.460  0.00  0.00    -0.031 A 
ATOM      6  C6  IND d   1       2.596   2.637   2.680  0.00  0.00     0.015 A 
ATOM      7  C7  IND d   1       2.101   1.858   3.687  0.00  0.00    -0.016 A 
ATOM      8  C8  IND d   1       1.954   0.505   3.417  0.00  0.00    -0.047 A 
ATOM      9  C9  IND d   1       2.271  -0.042   2.167  0.00  0.00    -0.096 A 
ATOM     10  HN1 IND d   1       1.199  -0.444   5.014  0.00  0.00     0.298 HD
ENDROOT
TORSDOF 0
ENDMDL
