MODEL 1
REMARK minimizedAffinity 11.8036156
REMARK minimizedRMSD -1
REMARK  0 active torsions:
REMARK  status: ('A' for Active; 'I' for Inactive)
ROOT
ATOM      1  N1  IND d   1      -5.863  -3.662  -5.258  0.00  0.00    -0.196 N 
ATOM      2  C2  IND d   1      -5.805  -4.835  -5.958  0.00  0.00     0.054 A 
ATOM      3  C3  IND d   1      -5.790  -5.888  -5.111  0.00  0.00    -0.031 A 
ATOM      4  C4  IND d   1      -5.956  -5.924  -2.542  0.00  0.00     0.051 A 
ATOM      5  C5  IND d   1      -5.991  -5.098  -1.454  0.00  0.00    -0.031 A 
ATOM      6  C6  IND d   1      -5.987  -3.724  -1.580  0.00  0.00     0.015 A 
ATOM      7  C7  IND d   1      -5.960  -3.122  -2.806  0.00  0.00    -0.016 A 
ATOM      8  C8  IND d   1      -5.918  -3.957  -3.914  0.00  0.00    -0.047 A 
ATOM      9  C9  IND d   1      -5.879  -5.351  -3.790  0.00  0.00    -0.096 A 
ATOM     10  HN1 IND d   1      -5.866  -2.873  -5.600  0.00  0.00     0.298 HD
ENDROOT
TORSDOF 0
ENDMDL
