MODEL 1
REMARK minimizedAffinity -0.433567315
REMARK minimizedRMSD -1
REMARK  0 active torsions:
REMARK  status: ('A' for Active; 'I' for Inactive)
ROOT
ATOM      1  N1  IND d   1      -6.000   2.611   0.484  0.00  0.00    -0.196 N 
ATOM      2  C2  IND d   1      -5.132   2.934   1.490  0.00  0.00     0.054 A 
ATOM      3  C3  IND d   1      -3.874   3.045   1.009  0.00  0.00    -0.031 A 
ATOM      4  C4  IND d   1      -3.025   2.838  -1.413  0.00  0.00     0.051 A 
ATOM      5  C5  IND d   1      -3.437   2.516  -2.675  0.00  0.00    -0.031 A 
ATOM      6  C6  IND d   1      -4.752   2.206  -2.955  0.00  0.00     0.015 A 
ATOM      7  C7  IND d   1      -5.710   2.217  -1.981  0.00  0.00    -0.016 A 
ATOM      8  C8  IND d   1      -5.293   2.536  -0.697  0.00  0.00    -0.047 A 
ATOM      9  C9  IND d   1      -3.952   2.810  -0.398  0.00  0.00    -0.096 A 
ATOM     10  HN1 IND d   1      -6.844   2.476   0.573  0.00  0.00     0.298 HD
ENDROOT
TORSDOF 0
ENDMDL
