MODEL 1
REMARK minimizedAffinity 9.84336853
REMARK minimizedRMSD -1
REMARK  0 active torsions:
REMARK  status: ('A' for Active; 'I' for Inactive)
ROOT
ATOM      1  C2' OXE d   1       2.432  -4.544   0.289  0.00  0.00     0.078 C 
ATOM      2  C1' OXE d   1       4.030  -2.368   1.062  0.00  0.00     0.078 C 
ATOM      3  C1  OXE d   1       2.538  -2.247   1.250  0.00  0.00    -0.078 A 
ATOM      4  C2  OXE d   1       1.760  -3.298   0.826  0.00  0.00    -0.078 A 
ATOM      5  C3  OXE d   1       0.383  -3.261   1.025  0.00  0.00     0.003 A 
ATOM      6  C4  OXE d   1      -0.231  -2.101   1.512  0.00  0.00    -0.002 A 
ATOM      7  C5  OXE d   1       0.539  -1.004   1.913  0.00  0.00    -0.002 A 
ATOM      8  C6  OXE d   1       1.925  -1.077   1.829  0.00  0.00     0.003 A 
ENDROOT
TORSDOF 0
ENDMDL
