MODEL 1
REMARK minimizedAffinity 9.75709724
REMARK minimizedRMSD -1
REMARK  0 active torsions:
REMARK  status: ('A' for Active; 'I' for Inactive)
ROOT
ATOM      1  C2' OXE d   1       2.284  -4.452  -0.093  0.00  0.00     0.078 C 
ATOM      2  C1' OXE d   1       4.011  -2.496   0.941  0.00  0.00     0.078 C 
ATOM      3  C1  OXE d   1       2.526  -2.268   1.079  0.00  0.00    -0.078 A 
ATOM      4  C2  OXE d   1       1.689  -3.208   0.529  0.00  0.00    -0.078 A 
ATOM      5  C3  OXE d   1       0.311  -3.074   0.676  0.00  0.00     0.003 A 
ATOM      6  C4  OXE d   1      -0.232  -1.915   1.244  0.00  0.00    -0.002 A 
ATOM      7  C5  OXE d   1       0.603  -0.926   1.775  0.00  0.00    -0.002 A 
ATOM      8  C6  OXE d   1       1.982  -1.107   1.739  0.00  0.00     0.003 A 
ENDROOT
TORSDOF 0
ENDMDL
