MODEL 1
REMARK minimizedAffinity 7.66592169
REMARK minimizedRMSD -1
REMARK  0 active torsions:
REMARK  status: ('A' for Active; 'I' for Inactive)
ROOT
ATOM      1  C2' OXE d   1       3.344  -4.592   0.511  0.00  0.00     0.078 C 
ATOM      2  C1' OXE d   1       4.034  -3.188   2.842  0.00  0.00     0.078 C 
ATOM      3  C1  OXE d   1       2.989  -2.582   1.939  0.00  0.00    -0.078 A 
ATOM      4  C2  OXE d   1       2.691  -3.253   0.777  0.00  0.00    -0.078 A 
ATOM      5  C3  OXE d   1       1.695  -2.766  -0.065  0.00  0.00     0.003 A 
ATOM      6  C4  OXE d   1       1.104  -1.522   0.183  0.00  0.00    -0.002 A 
ATOM      7  C5  OXE d   1       1.421  -0.803   1.340  0.00  0.00    -0.002 A 
ATOM      8  C6  OXE d   1       2.328  -1.338   2.248  0.00  0.00     0.003 A 
ENDROOT
TORSDOF 0
ENDMDL
