MODEL 1
REMARK minimizedAffinity 14.1034431
REMARK minimizedRMSD -1
REMARK  0 active torsions:
REMARK  status: ('A' for Active; 'I' for Inactive)
ROOT
ATOM      1  C2' OXE d   1       2.237  -4.189   0.125  0.00  0.00     0.078 C 
ATOM      2  C1' OXE d   1       3.977  -2.489   1.525  0.00  0.00     0.078 C 
ATOM      3  C1  OXE d   1       2.510  -2.139   1.513  0.00  0.00    -0.078 A 
ATOM      4  C2  OXE d   1       1.672  -2.951   0.787  0.00  0.00    -0.078 A 
ATOM      5  C3  OXE d   1       0.302  -2.705   0.787  0.00  0.00     0.003 A 
ATOM      6  C4  OXE d   1      -0.211  -1.552   1.394  0.00  0.00    -0.002 A 
ATOM      7  C5  OXE d   1       0.630  -0.690   2.106  0.00  0.00    -0.002 A 
ATOM      8  C6  OXE d   1       1.984  -0.992   2.211  0.00  0.00     0.003 A 
ENDROOT
TORSDOF 0
ENDMDL
