MODEL 1
REMARK minimizedAffinity 12.5310669
REMARK minimizedRMSD -1
REMARK  0 active torsions:
REMARK  status: ('A' for Active; 'I' for Inactive)
ROOT
ATOM      1  C2' OXE d   1       2.718  -5.141   0.179  0.00  0.00     0.078 C 
ATOM      2  C1' OXE d   1       4.386  -2.940   0.680  0.00  0.00     0.078 C 
ATOM      3  C1  OXE d   1       2.902  -2.757   0.877  0.00  0.00    -0.078 A 
ATOM      4  C2  OXE d   1       2.089  -3.825   0.584  0.00  0.00    -0.078 A 
ATOM      5  C3  OXE d   1       0.718  -3.727   0.800  0.00  0.00     0.003 A 
ATOM      6  C4  OXE d   1       0.143  -2.503   1.166  0.00  0.00    -0.002 A 
ATOM      7  C5  OXE d   1       0.950  -1.391   1.430  0.00  0.00    -0.002 A 
ATOM      8  C6  OXE d   1       2.332  -1.513   1.332  0.00  0.00     0.003 A 
ENDROOT
TORSDOF 0
ENDMDL
