MODEL 1
REMARK minimizedAffinity 19.1186008
REMARK minimizedRMSD -1
REMARK  0 active torsions:
REMARK  status: ('A' for Active; 'I' for Inactive)
ROOT
ATOM      1  C2' OXE d   1       2.613  -4.248   0.007  0.00  0.00     0.078 C 
ATOM      2  C1' OXE d   1       4.284  -2.156   0.850  0.00  0.00     0.078 C 
ATOM      3  C1  OXE d   1       2.816  -2.060   1.180  0.00  0.00    -0.078 A 
ATOM      4  C2  OXE d   1       1.998  -3.065   0.723  0.00  0.00    -0.078 A 
ATOM      5  C3  OXE d   1       0.644  -3.052   1.046  0.00  0.00     0.003 A 
ATOM      6  C4  OXE d   1       0.081  -1.949   1.699  0.00  0.00    -0.002 A 
ATOM      7  C5  OXE d   1       0.890  -0.896   2.139  0.00  0.00    -0.002 A 
ATOM      8  C6  OXE d   1       2.263  -0.956   1.925  0.00  0.00     0.003 A 
ENDROOT
TORSDOF 0
ENDMDL
