MODEL 1
REMARK minimizedAffinity 9.33583927
REMARK minimizedRMSD -1
REMARK  0 active torsions:
REMARK  status: ('A' for Active; 'I' for Inactive)
ROOT
ATOM      1  C2' OXE d   1       5.994   4.516  -0.641  0.00  0.00     0.078 C 
ATOM      2  C1' OXE d   1       5.814   2.585  -2.670  0.00  0.00     0.078 C 
ATOM      3  C1  OXE d   1       5.860   2.102  -1.242  0.00  0.00    -0.078 A 
ATOM      4  C2  OXE d   1       5.995   3.052  -0.258  0.00  0.00    -0.078 A 
ATOM      5  C3  OXE d   1       5.988   2.665   1.079  0.00  0.00     0.003 A 
ATOM      6  C4  OXE d   1       5.999   1.308   1.424  0.00  0.00    -0.002 A 
ATOM      7  C5  OXE d   1       5.902   0.323   0.436  0.00  0.00    -0.002 A 
ATOM      8  C6  OXE d   1       5.789   0.704  -0.897  0.00  0.00     0.003 A 
ENDROOT
TORSDOF 0
ENDMDL
