MODEL 1
REMARK minimizedAffinity 7.04097795
REMARK minimizedRMSD -1
REMARK  0 active torsions:
REMARK  status: ('A' for Active; 'I' for Inactive)
ROOT
ATOM      1  C2' OXE d   1       3.183  -5.990   5.673  0.00  0.00     0.078 C 
ATOM      2  C1' OXE d   1       5.981  -5.971   5.908  0.00  0.00     0.078 C 
ATOM      3  C1  OXE d   1       5.279  -4.645   5.756  0.00  0.00    -0.078 A 
ATOM      4  C2  OXE d   1       3.914  -4.667   5.595  0.00  0.00    -0.078 A 
ATOM      5  C3  OXE d   1       3.212  -3.468   5.505  0.00  0.00     0.003 A 
ATOM      6  C4  OXE d   1       3.896  -2.250   5.424  0.00  0.00    -0.002 A 
ATOM      7  C5  OXE d   1       5.289  -2.208   5.546  0.00  0.00    -0.002 A 
ATOM      8  C6  OXE d   1       5.990  -3.391   5.755  0.00  0.00     0.003 A 
ENDROOT
TORSDOF 0
ENDMDL
