MODEL 1
REMARK minimizedAffinity 8.85682011
REMARK minimizedRMSD -1
REMARK  0 active torsions:
REMARK  status: ('A' for Active; 'I' for Inactive)
ROOT
ATOM      1  C2' OXE d   1       5.999   4.518   0.096  0.00  0.00     0.078 C 
ATOM      2  C1' OXE d   1       5.979   3.301   2.625  0.00  0.00     0.078 C 
ATOM      3  C1  OXE d   1       5.981   2.404   1.413  0.00  0.00    -0.078 A 
ATOM      4  C2  OXE d   1       5.944   3.008   0.179  0.00  0.00    -0.078 A 
ATOM      5  C3  OXE d   1       6.000   2.228  -0.972  0.00  0.00     0.003 A 
ATOM      6  C4  OXE d   1       5.938   0.832  -0.886  0.00  0.00    -0.002 A 
ATOM      7  C5  OXE d   1       5.936   0.197   0.361  0.00  0.00    -0.002 A 
ATOM      8  C6  OXE d   1       6.000   0.966   1.517  0.00  0.00     0.003 A 
ENDROOT
TORSDOF 0
ENDMDL
