MODEL 1
REMARK minimizedAffinity 19.2141132
REMARK minimizedRMSD -1
REMARK  0 active torsions:
REMARK  status: ('A' for Active; 'I' for Inactive)
ROOT
ATOM      1  C2' OXE d   1      -5.997   3.855  -5.767  0.00  0.00     0.078 C 
ATOM      2  C1' OXE d   1      -5.704   1.163  -5.025  0.00  0.00     0.078 C 
ATOM      3  C1  OXE d   1      -4.726   2.161  -4.456  0.00  0.00    -0.078 A 
ATOM      4  C2  OXE d   1      -4.849   3.468  -4.861  0.00  0.00    -0.078 A 
ATOM      5  C3  OXE d   1      -4.007   4.438  -4.324  0.00  0.00     0.003 A 
ATOM      6  C4  OXE d   1      -2.941   4.070  -3.494  0.00  0.00    -0.002 A 
ATOM      7  C5  OXE d   1      -2.774   2.738  -3.100  0.00  0.00    -0.002 A 
ATOM      8  C6  OXE d   1      -3.682   1.780  -3.537  0.00  0.00     0.003 A 
ENDROOT
TORSDOF 0
ENDMDL
