MODEL 1
REMARK minimizedAffinity -2.08980536
REMARK minimizedRMSD -1
REMARK  0 active torsions:
REMARK  status: ('A' for Active; 'I' for Inactive)
ROOT
ATOM      1  C2' OXE d   1       2.163  -2.408  -1.084  0.00  0.00     0.078 C 
ATOM      2  C1' OXE d   1       2.318   0.098  -2.340  0.00  0.00     0.078 C 
ATOM      3  C1  OXE d   1       3.594  -0.498  -1.799  0.00  0.00    -0.078 A 
ATOM      4  C2  OXE d   1       3.501  -1.703  -1.145  0.00  0.00    -0.078 A 
ATOM      5  C3  OXE d   1       4.655  -2.324  -0.675  0.00  0.00     0.003 A 
ATOM      6  C4  OXE d   1       5.887  -1.661  -0.726  0.00  0.00    -0.002 A 
ATOM      7  C5  OXE d   1       5.997  -0.415  -1.353  0.00  0.00    -0.002 A 
ATOM      8  C6  OXE d   1       4.870   0.160  -1.931  0.00  0.00     0.003 A 
ENDROOT
TORSDOF 0
ENDMDL
