MODEL 1
REMARK minimizedAffinity 8.00846481
REMARK minimizedRMSD -1
REMARK  0 active torsions:
REMARK  status: ('A' for Active; 'I' for Inactive)
ROOT
ATOM      1  C2' OXE d   1       2.783  -0.509  -1.008  0.00  0.00     0.078 C 
ATOM      2  C1' OXE d   1       1.629   0.816  -3.198  0.00  0.00     0.078 C 
ATOM      3  C1  OXE d   1       1.796   1.591  -1.915  0.00  0.00    -0.078 A 
ATOM      4  C2  OXE d   1       2.318   0.921  -0.835  0.00  0.00    -0.078 A 
ATOM      5  C3  OXE d   1       2.544   1.604   0.357  0.00  0.00     0.003 A 
ATOM      6  C4  OXE d   1       2.102   2.923   0.512  0.00  0.00    -0.002 A 
ATOM      7  C5  OXE d   1       1.531   3.612  -0.563  0.00  0.00    -0.002 A 
ATOM      8  C6  OXE d   1       1.410   2.975  -1.793  0.00  0.00     0.003 A 
ENDROOT
TORSDOF 0
ENDMDL
