MODEL 1
REMARK minimizedAffinity 7.95425844
REMARK minimizedRMSD -1
REMARK  0 active torsions:
REMARK  status: ('A' for Active; 'I' for Inactive)
ROOT
ATOM      1  C2' OXE d   1      -0.130  -2.464  -3.082  0.00  0.00     0.078 C 
ATOM      2  C1' OXE d   1       0.724  -2.417  -0.408  0.00  0.00     0.078 C 
ATOM      3  C1  OXE d   1       1.219  -1.325  -1.324  0.00  0.00    -0.078 A 
ATOM      4  C2  OXE d   1       0.833  -1.383  -2.642  0.00  0.00    -0.078 A 
ATOM      5  C3  OXE d   1       1.217  -0.371  -3.518  0.00  0.00     0.003 A 
ATOM      6  C4  OXE d   1       2.117   0.619  -3.105  0.00  0.00    -0.002 A 
ATOM      7  C5  OXE d   1       2.553   0.674  -1.777  0.00  0.00    -0.002 A 
ATOM      8  C6  OXE d   1       2.081  -0.264  -0.866  0.00  0.00     0.003 A 
ENDROOT
TORSDOF 0
ENDMDL
