MODEL 1
REMARK minimizedAffinity 14.6918554
REMARK minimizedRMSD -1
REMARK  0 active torsions:
REMARK  status: ('A' for Active; 'I' for Inactive)
ROOT
ATOM      1  C2' OXE d   1      -0.744  -4.315  -3.136  0.00  0.00     0.078 C 
ATOM      2  C1' OXE d   1       0.996  -2.674  -4.607  0.00  0.00     0.078 C 
ATOM      3  C1  OXE d   1       0.835  -2.388  -3.135  0.00  0.00    -0.078 A 
ATOM      4  C2  OXE d   1      -0.054  -3.166  -2.433  0.00  0.00    -0.078 A 
ATOM      5  C3  OXE d   1      -0.199  -2.979  -1.061  0.00  0.00     0.003 A 
ATOM      6  C4  OXE d   1       0.435  -1.908  -0.420  0.00  0.00    -0.002 A 
ATOM      7  C5  OXE d   1       1.313  -1.079  -1.125  0.00  0.00    -0.002 A 
ATOM      8  C6  OXE d   1       1.557  -1.331  -2.471  0.00  0.00     0.003 A 
ENDROOT
TORSDOF 0
ENDMDL
