MODEL 1
REMARK minimizedAffinity 19.5306721
REMARK minimizedRMSD -1
REMARK  0 active torsions:
REMARK  status: ('A' for Active; 'I' for Inactive)
ROOT
ATOM      1  C2' OXE d   1      -5.679  -1.090   3.471  0.00  0.00     0.078 C 
ATOM      2  C1' OXE d   1      -4.467  -1.234   6.000  0.00  0.00     0.078 C 
ATOM      3  C1  OXE d   1      -4.141  -0.046   5.129  0.00  0.00    -0.078 A 
ATOM      4  C2  OXE d   1      -4.702  -0.008   3.876  0.00  0.00    -0.078 A 
ATOM      5  C3  OXE d   1      -4.477   1.093   3.053  0.00  0.00     0.003 A 
ATOM      6  C4  OXE d   1      -3.564   2.085   3.431  0.00  0.00    -0.002 A 
ATOM      7  C5  OXE d   1      -2.951   2.045   4.687  0.00  0.00    -0.002 A 
ATOM      8  C6  OXE d   1      -3.261   1.010   5.564  0.00  0.00     0.003 A 
ENDROOT
TORSDOF 0
ENDMDL
