MODEL 1
REMARK minimizedAffinity 12.0821075
REMARK minimizedRMSD -1
REMARK  0 active torsions:
REMARK  status: ('A' for Active; 'I' for Inactive)
ROOT
ATOM      1  C2' OXE d   1      -4.503   0.015   2.209  0.00  0.00     0.078 C 
ATOM      2  C1' OXE d   1      -4.850  -1.522   4.532  0.00  0.00     0.078 C 
ATOM      3  C1  OXE d   1      -4.190  -0.174   4.673  0.00  0.00    -0.078 A 
ATOM      4  C2  OXE d   1      -3.982   0.552   3.525  0.00  0.00    -0.078 A 
ATOM      5  C3  OXE d   1      -3.426   1.826   3.605  0.00  0.00     0.003 A 
ATOM      6  C4  OXE d   1      -2.938   2.311   4.824  0.00  0.00    -0.002 A 
ATOM      7  C5  OXE d   1      -3.104   1.571   6.000  0.00  0.00    -0.002 A 
ATOM      8  C6  OXE d   1      -3.764   0.348   5.948  0.00  0.00     0.003 A 
ENDROOT
TORSDOF 0
ENDMDL
