MODEL 1
REMARK minimizedAffinity 15.9852629
REMARK minimizedRMSD -1
REMARK  0 active torsions:
REMARK  status: ('A' for Active; 'I' for Inactive)
ROOT
ATOM      1  C2' OXE d   1       3.207   1.751   0.799  0.00  0.00     0.078 C 
ATOM      2  C1' OXE d   1       1.792   3.529  -0.849  0.00  0.00     0.078 C 
ATOM      3  C1  OXE d   1       1.926   2.099  -1.309  0.00  0.00    -0.078 A 
ATOM      4  C2  OXE d   1       2.659   1.247  -0.519  0.00  0.00    -0.078 A 
ATOM      5  C3  OXE d   1       2.768  -0.096  -0.869  0.00  0.00     0.003 A 
ATOM      6  C4  OXE d   1       2.267  -0.552  -2.095  0.00  0.00    -0.002 A 
ATOM      7  C5  OXE d   1       1.551   0.309  -2.933  0.00  0.00    -0.002 A 
ATOM      8  C6  OXE d   1       1.335   1.624  -2.536  0.00  0.00     0.003 A 
ENDROOT
TORSDOF 0
ENDMDL
