MODEL 1
REMARK minimizedAffinity 21.8428879
REMARK minimizedRMSD -1
REMARK  0 active torsions:
REMARK  status: ('A' for Active; 'I' for Inactive)
ROOT
ATOM      1  C2' OXE d   1      -3.748   2.149   4.127  0.00  0.00     0.078 C 
ATOM      2  C1' OXE d   1      -1.674   1.880   6.000  0.00  0.00     0.078 C 
ATOM      3  C1  OXE d   1      -1.417   1.403   4.592  0.00  0.00    -0.078 A 
ATOM      4  C2  OXE d   1      -2.453   1.495   3.694  0.00  0.00    -0.078 A 
ATOM      5  C3  OXE d   1      -2.252   1.120   2.369  0.00  0.00     0.003 A 
ATOM      6  C4  OXE d   1      -1.055   0.507   1.980  0.00  0.00    -0.002 A 
ATOM      7  C5  OXE d   1      -0.000   0.367   2.888  0.00  0.00    -0.002 A 
ATOM      8  C6  OXE d   1      -0.150   0.847   4.185  0.00  0.00     0.003 A 
ENDROOT
TORSDOF 0
ENDMDL
