MODEL 1
REMARK minimizedAffinity 12.4113169
REMARK minimizedRMSD -1
REMARK  0 active torsions:
REMARK  status: ('A' for Active; 'I' for Inactive)
ROOT
ATOM      1  C2' OXE d   1      -0.002   0.285   2.211  0.00  0.00     0.078 C 
ATOM      2  C1' OXE d   1      -2.157   1.690   3.333  0.00  0.00     0.078 C 
ATOM      3  C1  OXE d   1      -0.849   1.691   4.084  0.00  0.00    -0.078 A 
ATOM      4  C2  OXE d   1       0.186   0.962   3.551  0.00  0.00    -0.078 A 
ATOM      5  C3  OXE d   1       1.431   0.974   4.174  0.00  0.00     0.003 A 
ATOM      6  C4  OXE d   1       1.594   1.595   5.419  0.00  0.00    -0.002 A 
ATOM      7  C5  OXE d   1       0.541   2.310   5.999  0.00  0.00    -0.002 A 
ATOM      8  C6  OXE d   1      -0.672   2.403   5.325  0.00  0.00     0.003 A 
ENDROOT
TORSDOF 0
ENDMDL
