MODEL 1
REMARK minimizedAffinity 20.0957203
REMARK minimizedRMSD -1
REMARK  0 active torsions:
REMARK  status: ('A' for Active; 'I' for Inactive)
ROOT
ATOM      1  C2' OXE d   1       0.951   1.322  -2.754  0.00  0.00     0.078 C 
ATOM      2  C1' OXE d   1       0.280  -0.998  -1.323  0.00  0.00     0.078 C 
ATOM      3  C1  OXE d   1       1.649  -0.405  -1.100  0.00  0.00    -0.078 A 
ATOM      4  C2  OXE d   1       1.986   0.703  -1.839  0.00  0.00    -0.078 A 
ATOM      5  C3  OXE d   1       3.216   1.321  -1.632  0.00  0.00     0.003 A 
ATOM      6  C4  OXE d   1       4.170   0.737  -0.791  0.00  0.00    -0.002 A 
ATOM      7  C5  OXE d   1       3.862  -0.415  -0.059  0.00  0.00    -0.002 A 
ATOM      8  C6  OXE d   1       2.593  -0.973  -0.169  0.00  0.00     0.003 A 
ENDROOT
TORSDOF 0
ENDMDL
