MODEL 1
REMARK minimizedAffinity 11.7987881
REMARK minimizedRMSD -1
REMARK  0 active torsions:
REMARK  status: ('A' for Active; 'I' for Inactive)
ROOT
ATOM      1  C2' OXE d   1       1.475   5.880   1.173  0.00  0.00     0.078 C 
ATOM      2  C1' OXE d   1       0.620   5.968  -1.499  0.00  0.00     0.078 C 
ATOM      3  C1  OXE d   1       1.096   4.644  -0.956  0.00  0.00    -0.078 A 
ATOM      4  C2  OXE d   1       1.556   4.620   0.339  0.00  0.00    -0.078 A 
ATOM      5  C3  OXE d   1       1.955   3.414   0.907  0.00  0.00     0.003 A 
ATOM      6  C4  OXE d   1       2.037   2.255   0.125  0.00  0.00    -0.002 A 
ATOM      7  C5  OXE d   1       1.610   2.266  -1.207  0.00  0.00    -0.002 A 
ATOM      8  C6  OXE d   1       1.098   3.440  -1.749  0.00  0.00     0.003 A 
ENDROOT
TORSDOF 0
ENDMDL
