MODEL 1
REMARK minimizedAffinity 8.55900383
REMARK minimizedRMSD -1
REMARK  0 active torsions:
REMARK  status: ('A' for Active; 'I' for Inactive)
ROOT
ATOM      1  C2' OXE d   1      -1.929  -3.446  -2.587  0.00  0.00     0.078 C 
ATOM      2  C1' OXE d   1      -2.951  -4.727  -0.308  0.00  0.00     0.078 C 
ATOM      3  C1  OXE d   1      -1.954  -3.614  -0.102  0.00  0.00    -0.078 A 
ATOM      4  C2  OXE d   1      -1.424  -3.024  -1.224  0.00  0.00    -0.078 A 
ATOM      5  C3  OXE d   1      -0.542  -1.956  -1.090  0.00  0.00     0.003 A 
ATOM      6  C4  OXE d   1      -0.072  -1.579   0.174  0.00  0.00    -0.002 A 
ATOM      7  C5  OXE d   1      -0.569  -2.193   1.328  0.00  0.00    -0.002 A 
ATOM      8  C6  OXE d   1      -1.540  -3.182   1.210  0.00  0.00     0.003 A 
ENDROOT
TORSDOF 0
ENDMDL
