MODEL 1
REMARK minimizedAffinity 4.86376905
REMARK minimizedRMSD -1
REMARK  0 active torsions:
REMARK  status: ('A' for Active; 'I' for Inactive)
ROOT
ATOM      1  C2' OXE d   1      -1.477  -3.644  -1.749  0.00  0.00     0.078 C 
ATOM      2  C1' OXE d   1      -2.303  -4.286   0.856  0.00  0.00     0.078 C 
ATOM      3  C1  OXE d   1      -1.298  -3.173   0.691  0.00  0.00    -0.078 A 
ATOM      4  C2  OXE d   1      -0.864  -2.897  -0.584  0.00  0.00    -0.078 A 
ATOM      5  C3  OXE d   1       0.021  -1.844  -0.798  0.00  0.00     0.003 A 
ATOM      6  C4  OXE d   1       0.590  -1.165   0.286  0.00  0.00    -0.002 A 
ATOM      7  C5  OXE d   1       0.192  -1.457   1.595  0.00  0.00    -0.002 A 
ATOM      8  C6  OXE d   1      -0.781  -2.427   1.811  0.00  0.00     0.003 A 
ENDROOT
TORSDOF 0
ENDMDL
