MODEL 1
REMARK minimizedAffinity -3.17441154
REMARK minimizedRMSD -1
REMARK  0 active torsions:
REMARK  status: ('A' for Active; 'I' for Inactive)
ROOT
ATOM      1  C2' OXE d   1      -0.247  -2.250   1.574  0.00  0.00     0.078 C 
ATOM      2  C1' OXE d   1      -1.597   0.211   1.622  0.00  0.00     0.078 C 
ATOM      3  C1  OXE d   1      -0.507   0.026   0.596  0.00  0.00    -0.078 A 
ATOM      4  C2  OXE d   1       0.180  -1.164   0.610  0.00  0.00    -0.078 A 
ATOM      5  C3  OXE d   1       1.158  -1.407  -0.350  0.00  0.00     0.003 A 
ATOM      6  C4  OXE d   1       1.553  -0.393  -1.232  0.00  0.00    -0.002 A 
ATOM      7  C5  OXE d   1       0.893   0.840  -1.237  0.00  0.00    -0.002 A 
ATOM      8  C6  OXE d   1      -0.165   1.051  -0.360  0.00  0.00     0.003 A 
ENDROOT
TORSDOF 0
ENDMDL
