MODEL 1
REMARK minimizedAffinity -4.25628376
REMARK minimizedRMSD -1
REMARK  0 active torsions:
REMARK  status: ('A' for Active; 'I' for Inactive)
ROOT
ATOM      1  C2' OXE d   1       1.448   2.003  -0.363  0.00  0.00     0.078 C 
ATOM      2  C1' OXE d   1      -0.001  -0.081   0.836  0.00  0.00     0.078 C 
ATOM      3  C1  OXE d   1       0.480  -0.283  -0.579  0.00  0.00    -0.078 A 
ATOM      4  C2  OXE d   1       1.148   0.760  -1.174  0.00  0.00    -0.078 A 
ATOM      5  C3  OXE d   1       1.661   0.607  -2.459  0.00  0.00     0.003 A 
ATOM      6  C4  OXE d   1       1.371  -0.541  -3.206  0.00  0.00    -0.002 A 
ATOM      7  C5  OXE d   1       0.658  -1.600  -2.632  0.00  0.00    -0.002 A 
ATOM      8  C6  OXE d   1       0.244  -1.504  -1.308  0.00  0.00     0.003 A 
ENDROOT
TORSDOF 0
ENDMDL
