MODEL 1
REMARK minimizedAffinity -1.71939397
REMARK minimizedRMSD -1
REMARK  0 active torsions:
REMARK  status: ('A' for Active; 'I' for Inactive)
ROOT
ATOM      1  C2' OXE d   1       0.396  -2.373  -2.206  0.00  0.00     0.078 C 
ATOM      2  C1' OXE d   1      -0.718  -2.895   0.317  0.00  0.00     0.078 C 
ATOM      3  C1  OXE d   1      -0.153  -1.519   0.069  0.00  0.00    -0.078 A 
ATOM      4  C2  OXE d   1       0.432  -1.287  -1.153  0.00  0.00    -0.078 A 
ATOM      5  C3  OXE d   1       0.919  -0.018  -1.453  0.00  0.00     0.003 A 
ATOM      6  C4  OXE d   1       0.958   0.978  -0.470  0.00  0.00    -0.002 A 
ATOM      7  C5  OXE d   1       0.403   0.749   0.794  0.00  0.00    -0.002 A 
ATOM      8  C6  OXE d   1      -0.194  -0.477   1.065  0.00  0.00     0.003 A 
ENDROOT
TORSDOF 0
ENDMDL
