MODEL 1
REMARK minimizedAffinity 2.28452563
REMARK minimizedRMSD -1
REMARK  0 active torsions:
REMARK  status: ('A' for Active; 'I' for Inactive)
ROOT
ATOM      1  C2' OXE d   1      -5.352   0.876  -5.881  0.00  0.00     0.078 C 
ATOM      2  C1' OXE d   1      -2.734   1.612  -5.185  0.00  0.00     0.078 C 
ATOM      3  C1  OXE d   1      -3.735   2.715  -5.422  0.00  0.00    -0.078 A 
ATOM      4  C2  OXE d   1      -5.002   2.346  -5.807  0.00  0.00    -0.078 A 
ATOM      5  C3  OXE d   1      -5.979   3.322  -5.985  0.00  0.00     0.003 A 
ATOM      6  C4  OXE d   1      -5.644   4.680  -5.925  0.00  0.00    -0.002 A 
ATOM      7  C5  OXE d   1      -4.350   5.077  -5.573  0.00  0.00    -0.002 A 
ATOM      8  C6  OXE d   1      -3.397   4.109  -5.277  0.00  0.00     0.003 A 
ENDROOT
TORSDOF 0
ENDMDL
