MODEL 1
REMARK minimizedAffinity -4.42067719
REMARK minimizedRMSD -1
REMARK  0 active torsions:
REMARK  status: ('A' for Active; 'I' for Inactive)
ROOT
ATOM      1  C2' OXE d   1       0.947   0.589   0.717  0.00  0.00     0.078 C 
ATOM      2  C1' OXE d   1      -1.296   1.617   2.056  0.00  0.00     0.078 C 
ATOM      3  C1  OXE d   1      -1.474   0.351   1.256  0.00  0.00    -0.078 A 
ATOM      4  C2  OXE d   1      -0.382  -0.119   0.565  0.00  0.00    -0.078 A 
ATOM      5  C3  OXE d   1      -0.477  -1.313  -0.144  0.00  0.00     0.003 A 
ATOM      6  C4  OXE d   1      -1.713  -1.956  -0.287  0.00  0.00    -0.002 A 
ATOM      7  C5  OXE d   1      -2.846  -1.472   0.375  0.00  0.00    -0.002 A 
ATOM      8  C6  OXE d   1      -2.734  -0.346   1.183  0.00  0.00     0.003 A 
ENDROOT
TORSDOF 0
ENDMDL
