MODEL 1
REMARK minimizedAffinity -3.14107084
REMARK minimizedRMSD -1
REMARK  0 active torsions:
REMARK  status: ('A' for Active; 'I' for Inactive)
ROOT
ATOM      1  C2' OXE d   1       0.417  -1.629  -0.242  0.00  0.00     0.078 C 
ATOM      2  C1' OXE d   1       1.200  -3.873  -1.735  0.00  0.00     0.078 C 
ATOM      3  C1  OXE d   1       1.575  -2.511  -2.263  0.00  0.00    -0.078 A 
ATOM      4  C2  OXE d   1       1.148  -1.417  -1.550  0.00  0.00    -0.078 A 
ATOM      5  C3  OXE d   1       1.513  -0.139  -1.964  0.00  0.00     0.003 A 
ATOM      6  C4  OXE d   1       2.180   0.049  -3.180  0.00  0.00    -0.002 A 
ATOM      7  C5  OXE d   1       2.590  -1.051  -3.942  0.00  0.00    -0.002 A 
ATOM      8  C6  OXE d   1       2.333  -2.336  -3.477  0.00  0.00     0.003 A 
ENDROOT
TORSDOF 0
ENDMDL
