MODEL 1
REMARK minimizedAffinity -6.53190184
REMARK minimizedRMSD -1
REMARK  0 active torsions:
REMARK  status: ('A' for Active; 'I' for Inactive)
ROOT
ATOM      1  C2' OXE d   1       0.829   1.403  -0.133  0.00  0.00     0.078 C 
ATOM      2  C1' OXE d   1      -0.226  -1.048   0.740  0.00  0.00     0.078 C 
ATOM      3  C1  OXE d   1       0.588  -1.045  -0.530  0.00  0.00    -0.078 A 
ATOM      4  C2  OXE d   1       1.061   0.167  -0.974  0.00  0.00    -0.078 A 
ATOM      5  C3  OXE d   1       1.863   0.218  -2.111  0.00  0.00     0.003 A 
ATOM      6  C4  OXE d   1       2.064  -0.928  -2.889  0.00  0.00    -0.002 A 
ATOM      7  C5  OXE d   1       1.558  -2.165  -2.475  0.00  0.00    -0.002 A 
ATOM      8  C6  OXE d   1       0.855  -2.248  -1.278  0.00  0.00     0.003 A 
ENDROOT
TORSDOF 0
ENDMDL
