MODEL 1
REMARK minimizedAffinity -0.866057873
REMARK minimizedRMSD -1
REMARK  1 active torsions:
REMARK  status: ('A' for Active; 'I' for Inactive)
REMARK    1  A    between atoms: C1_2  and  C2_3 
ROOT
ATOM      1  C2  UNL d   1       5.140   0.645   4.353  0.00  0.00    -0.076 A 
ATOM      2  C3  UNL d   1       4.868   1.706   5.234  0.00  0.00     0.004 A 
ATOM      3  C4  UNL d   1       5.164   3.022   4.885  0.00  0.00    -0.003 A 
ATOM      4  C5  UNL d   1       5.738   3.299   3.649  0.00  0.00     0.000 A 
ATOM      5  C6  UNL d   1       5.998   2.261   2.755  0.00  0.00     0.000 A 
ATOM      6  C7  UNL d   1       5.690   0.930   3.085  0.00  0.00    -0.073 A 
ATOM      7  C8  UNL d   1       5.998  -0.152   2.086  0.00  0.00     0.078 C 
ENDROOT
BRANCH   1   8
ATOM      8  C1  UNL d   1       4.822  -0.765   4.797  0.00  0.00     0.053 C 
ATOM      9  C   UNL d   1       5.651  -1.200   5.995  0.00  0.00     0.018 C 
ENDBRANCH   1   8
TORSDOF 1
ENDMDL
