MODEL 1
REMARK minimizedAffinity 8.5479641
REMARK minimizedRMSD -1
REMARK  1 active torsions:
REMARK  status: ('A' for Active; 'I' for Inactive)
REMARK    1  A    between atoms: C1_2  and  C2_3 
ROOT
ATOM      1  C2  UNL d   1      -2.307   2.235   3.374  0.00  0.00    -0.076 A 
ATOM      2  C3  UNL d   1      -1.560   2.195   2.184  0.00  0.00     0.004 A 
ATOM      3  C4  UNL d   1      -0.880   3.322   1.726  0.00  0.00    -0.003 A 
ATOM      4  C5  UNL d   1      -0.935   4.507   2.450  0.00  0.00     0.000 A 
ATOM      5  C6  UNL d   1      -1.657   4.560   3.642  0.00  0.00     0.000 A 
ATOM      6  C7  UNL d   1      -2.335   3.429   4.127  0.00  0.00    -0.073 A 
ATOM      7  C8  UNL d   1      -3.103   3.544   5.415  0.00  0.00     0.078 C 
ENDROOT
BRANCH   1   8
ATOM      8  C1  UNL d   1      -3.047   0.989   3.807  0.00  0.00     0.053 C 
ATOM      9  C   UNL d   1      -2.379  -0.285   3.316  0.00  0.00     0.018 C 
ENDBRANCH   1   8
TORSDOF 1
ENDMDL
