MODEL 1
REMARK minimizedAffinity -2.4209075
REMARK minimizedRMSD -1
REMARK  1 active torsions:
REMARK  status: ('A' for Active; 'I' for Inactive)
REMARK    1  A    between atoms: C1_2  and  C2_3 
ROOT
ATOM      1  C2  UNL d   1       5.976   0.711   5.193  0.00  0.00    -0.076 A 
ATOM      2  C3  UNL d   1       5.945   1.881   5.971  0.00  0.00     0.004 A 
ATOM      3  C4  UNL d   1       5.946   3.140   5.374  0.00  0.00    -0.003 A 
ATOM      4  C5  UNL d   1       5.979   3.250   3.988  0.00  0.00     0.000 A 
ATOM      5  C6  UNL d   1       5.993   2.099   3.200  0.00  0.00     0.000 A 
ATOM      6  C7  UNL d   1       5.975   0.822   3.786  0.00  0.00    -0.073 A 
ATOM      7  C8  UNL d   1       5.996  -0.385   2.888  0.00  0.00     0.078 C 
ENDROOT
BRANCH   1   8
ATOM      8  C1  UNL d   1       6.000  -0.627   5.897  0.00  0.00     0.053 C 
ATOM      9  C   UNL d   1       5.647  -1.780   4.971  0.00  0.00     0.018 C 
ENDBRANCH   1   8
TORSDOF 1
ENDMDL
