MODEL 1
REMARK minimizedAffinity -0.404553413
REMARK minimizedRMSD -1
REMARK  1 active torsions:
REMARK  status: ('A' for Active; 'I' for Inactive)
REMARK    1  A    between atoms: C1_2  and  C2_3 
ROOT
ATOM      1  C2  UNL d   1       5.637   2.300   3.665  0.00  0.00    -0.076 A 
ATOM      2  C3  UNL d   1       6.000   2.295   5.023  0.00  0.00     0.004 A 
ATOM      3  C4  UNL d   1       5.813   1.160   5.811  0.00  0.00    -0.003 A 
ATOM      4  C5  UNL d   1       5.260   0.012   5.254  0.00  0.00     0.000 A 
ATOM      5  C6  UNL d   1       4.911  -0.006   3.904  0.00  0.00     0.000 A 
ATOM      6  C7  UNL d   1       5.108   1.124   3.091  0.00  0.00    -0.073 A 
ATOM      7  C8  UNL d   1       4.707   1.050   1.643  0.00  0.00     0.078 C 
ENDROOT
BRANCH   1   8
ATOM      8  C1  UNL d   1       5.838   3.568   2.866  0.00  0.00     0.053 C 
ATOM      9  C   UNL d   1       5.996   4.795   3.751  0.00  0.00     0.018 C 
ENDBRANCH   1   8
TORSDOF 1
ENDMDL
