MODEL 1
REMARK minimizedAffinity -0.68497473
REMARK minimizedRMSD -1
REMARK  1 active torsions:
REMARK  status: ('A' for Active; 'I' for Inactive)
REMARK    1  A    between atoms: C1_2  and  C2_3 
ROOT
ATOM      1  C2  UNL d   1       5.277   1.754   4.431  0.00  0.00    -0.076 A 
ATOM      2  C3  UNL d   1       5.756   1.372   5.696  0.00  0.00     0.004 A 
ATOM      3  C4  UNL d   1       5.995   0.033   5.999  0.00  0.00    -0.003 A 
ATOM      4  C5  UNL d   1       5.759  -0.947   5.041  0.00  0.00     0.000 A 
ATOM      5  C6  UNL d   1       5.301  -0.585   3.775  0.00  0.00     0.000 A 
ATOM      6  C7  UNL d   1       5.071   0.762   3.448  0.00  0.00    -0.073 A 
ATOM      7  C8  UNL d   1       4.571   1.096   2.069  0.00  0.00     0.078 C 
ENDROOT
BRANCH   1   8
ATOM      8  C1  UNL d   1       5.010   3.219   4.169  0.00  0.00     0.053 C 
ATOM      9  C   UNL d   1       5.999   3.824   3.184  0.00  0.00     0.018 C 
ENDBRANCH   1   8
TORSDOF 1
ENDMDL
