MODEL 1
REMARK minimizedAffinity 0.0278984327
REMARK minimizedRMSD -1
REMARK  1 active torsions:
REMARK  status: ('A' for Active; 'I' for Inactive)
REMARK    1  A    between atoms: C1_2  and  C2_3 
ROOT
ATOM      1  C2  UNL d   1       5.979   1.646   4.282  0.00  0.00    -0.076 A 
ATOM      2  C3  UNL d   1       5.958   3.026   4.548  0.00  0.00     0.004 A 
ATOM      3  C4  UNL d   1       5.967   3.957   3.510  0.00  0.00    -0.003 A 
ATOM      4  C5  UNL d   1       5.997   3.522   2.190  0.00  0.00     0.000 A 
ATOM      5  C6  UNL d   1       6.000   2.157   1.907  0.00  0.00     0.000 A 
ATOM      6  C7  UNL d   1       5.974   1.205   2.942  0.00  0.00    -0.073 A 
ATOM      7  C8  UNL d   1       5.985  -0.255   2.580  0.00  0.00     0.078 C 
ENDROOT
BRANCH   1   8
ATOM      8  C1  UNL d   1       5.995   0.684   5.449  0.00  0.00     0.053 C 
ATOM      9  C   UNL d   1       4.892  -0.358   5.360  0.00  0.00     0.018 C 
ENDBRANCH   1   8
TORSDOF 1
ENDMDL
