MODEL 1
REMARK minimizedAffinity 10.4244709
REMARK minimizedRMSD -1
REMARK  1 active torsions:
REMARK  status: ('A' for Active; 'I' for Inactive)
REMARK    1  A    between atoms: C1_2  and  C2_3 
ROOT
ATOM      1  C2  UNL d   1       5.520   2.959   4.292  0.00  0.00    -0.076 A 
ATOM      2  C3  UNL d   1       5.999   3.438   3.060  0.00  0.00     0.004 A 
ATOM      3  C4  UNL d   1       5.972   2.638   1.919  0.00  0.00    -0.003 A 
ATOM      4  C5  UNL d   1       5.464   1.345   1.991  0.00  0.00     0.000 A 
ATOM      5  C6  UNL d   1       4.968   0.860   3.200  0.00  0.00     0.000 A 
ATOM      6  C7  UNL d   1       4.974   1.659   4.356  0.00  0.00    -0.073 A 
ATOM      7  C8  UNL d   1       4.432   1.082   5.636  0.00  0.00     0.078 C 
ENDROOT
BRANCH   1   8
ATOM      8  C1  UNL d   1       5.601   3.862   5.501  0.00  0.00     0.053 C 
ATOM      9  C   UNL d   1       5.994   5.286   5.140  0.00  0.00     0.018 C 
ENDBRANCH   1   8
TORSDOF 1
ENDMDL
