MODEL 1
REMARK minimizedAffinity -1.76539099
REMARK minimizedRMSD -1
REMARK  1 active torsions:
REMARK  status: ('A' for Active; 'I' for Inactive)
REMARK    1  A    between atoms: C1_2  and  C2_3 
ROOT
ATOM      1  C2  UNL d   1       5.932   0.756   4.740  0.00  0.00    -0.076 A 
ATOM      2  C3  UNL d   1       5.862   1.771   5.711  0.00  0.00     0.004 A 
ATOM      3  C4  UNL d   1       5.824   3.115   5.342  0.00  0.00    -0.003 A 
ATOM      4  C5  UNL d   1       5.854   3.466   3.997  0.00  0.00     0.000 A 
ATOM      5  C6  UNL d   1       5.905   2.471   3.020  0.00  0.00     0.000 A 
ATOM      6  C7  UNL d   1       5.928   1.111   3.375  0.00  0.00    -0.073 A 
ATOM      7  C8  UNL d   1       5.989   0.081   2.280  0.00  0.00     0.078 C 
ENDROOT
BRANCH   1   8
ATOM      8  C1  UNL d   1       5.998  -0.682   5.201  0.00  0.00     0.053 C 
ATOM      9  C   UNL d   1       4.878  -1.532   4.621  0.00  0.00     0.018 C 
ENDBRANCH   1   8
TORSDOF 1
ENDMDL
