MODEL 1
REMARK minimizedAffinity 2.24503469
REMARK minimizedRMSD -1
REMARK  1 active torsions:
REMARK  status: ('A' for Active; 'I' for Inactive)
REMARK    1  A    between atoms: C1_2  and  C2_3 
ROOT
ATOM      1  C2  UNL d   1       5.995   0.793   4.391  0.00  0.00    -0.076 A 
ATOM      2  C3  UNL d   1       6.000   0.328   5.717  0.00  0.00     0.004 A 
ATOM      3  C4  UNL d   1       5.971  -1.037   5.999  0.00  0.00    -0.003 A 
ATOM      4  C5  UNL d   1       5.937  -1.959   4.959  0.00  0.00     0.000 A 
ATOM      5  C6  UNL d   1       5.949  -1.516   3.637  0.00  0.00     0.000 A 
ATOM      6  C7  UNL d   1       5.994  -0.144   3.335  0.00  0.00    -0.073 A 
ATOM      7  C8  UNL d   1       5.999   0.278   1.891  0.00  0.00     0.078 C 
ENDROOT
BRANCH   1   8
ATOM      8  C1  UNL d   1       6.000   2.285   4.146  0.00  0.00     0.053 C 
ATOM      9  C   UNL d   1       4.638   2.809   3.717  0.00  0.00     0.018 C 
ENDBRANCH   1   8
TORSDOF 1
ENDMDL
