MODEL 1
REMARK minimizedAffinity 1.77190852
REMARK minimizedRMSD -1
REMARK  1 active torsions:
REMARK  status: ('A' for Active; 'I' for Inactive)
REMARK    1  A    between atoms: C1_2  and  C2_3 
ROOT
ATOM      1  C2  UNL d   1       5.980   1.184   4.171  0.00  0.00    -0.076 A 
ATOM      2  C3  UNL d   1       5.960   2.087   5.248  0.00  0.00     0.004 A 
ATOM      3  C4  UNL d   1       5.968   3.463   5.031  0.00  0.00    -0.003 A 
ATOM      4  C5  UNL d   1       5.996   3.960   3.732  0.00  0.00     0.000 A 
ATOM      5  C6  UNL d   1       5.999   3.079   2.651  0.00  0.00     0.000 A 
ATOM      6  C7  UNL d   1       5.974   1.688   2.853  0.00  0.00    -0.073 A 
ATOM      7  C8  UNL d   1       5.985   0.784   1.650  0.00  0.00     0.078 C 
ENDROOT
BRANCH   1   8
ATOM      8  C1  UNL d   1       5.997  -0.298   4.468  0.00  0.00     0.053 C 
ATOM      9  C   UNL d   1       5.285  -0.640   5.768  0.00  0.00     0.018 C 
ENDBRANCH   1   8
TORSDOF 1
ENDMDL
