MODEL 1
REMARK minimizedAffinity -1.1094048
REMARK minimizedRMSD -1
REMARK  1 active torsions:
REMARK  status: ('A' for Active; 'I' for Inactive)
REMARK    1  A    between atoms: C1_2  and  C2_3 
ROOT
ATOM      1  C2  UNL d   1       5.420   2.092   4.282  0.00  0.00    -0.076 A 
ATOM      2  C3  UNL d   1       5.992   1.773   5.525  0.00  0.00     0.004 A 
ATOM      3  C4  UNL d   1       5.995   0.463   6.000  0.00  0.00    -0.003 A 
ATOM      4  C5  UNL d   1       5.426  -0.551   5.237  0.00  0.00     0.000 A 
ATOM      5  C6  UNL d   1       4.869  -0.257   3.993  0.00  0.00     0.000 A 
ATOM      6  C7  UNL d   1       4.872   1.057   3.493  0.00  0.00    -0.073 A 
ATOM      7  C8  UNL d   1       4.252   1.319   2.148  0.00  0.00     0.078 C 
ENDROOT
BRANCH   1   8
ATOM      8  C1  UNL d   1       5.422   3.535   3.831  0.00  0.00     0.053 C 
ATOM      9  C   UNL d   1       5.999   4.472   4.881  0.00  0.00     0.018 C 
ENDBRANCH   1   8
TORSDOF 1
ENDMDL
