MODEL 1
REMARK minimizedAffinity -0.490089595
REMARK minimizedRMSD -1
REMARK  1 active torsions:
REMARK  status: ('A' for Active; 'I' for Inactive)
REMARK    1  A    between atoms: C1_2  and  C2_3 
ROOT
ATOM      1  C2  UNL d   1       5.981   0.501   4.584  0.00  0.00    -0.076 A 
ATOM      2  C3  UNL d   1       5.991   1.155   5.829  0.00  0.00     0.004 A 
ATOM      3  C4  UNL d   1       5.999   2.547   5.908  0.00  0.00    -0.003 A 
ATOM      4  C5  UNL d   1       5.997   3.307   4.744  0.00  0.00     0.000 A 
ATOM      5  C6  UNL d   1       5.969   2.676   3.501  0.00  0.00     0.000 A 
ATOM      6  C7  UNL d   1       5.944   1.274   3.404  0.00  0.00    -0.073 A 
ATOM      7  C8  UNL d   1       5.921   0.645   2.037  0.00  0.00     0.078 C 
ENDROOT
BRANCH   1   8
ATOM      8  C1  UNL d   1       6.000  -1.010   4.560  0.00  0.00     0.053 C 
ATOM      9  C   UNL d   1       5.897  -1.617   5.951  0.00  0.00     0.018 C 
ENDBRANCH   1   8
TORSDOF 1
ENDMDL
