MODEL 1
REMARK minimizedAffinity 1.99495351
REMARK minimizedRMSD -1
REMARK  1 active torsions:
REMARK  status: ('A' for Active; 'I' for Inactive)
REMARK    1  A    between atoms: C1_2  and  C2_3 
ROOT
ATOM      1  C2  UNL d   1       5.959   2.245   5.105  0.00  0.00    -0.076 A 
ATOM      2  C3  UNL d   1       5.975   1.159   5.997  0.00  0.00     0.004 A 
ATOM      3  C4  UNL d   1       5.991  -0.153   5.529  0.00  0.00    -0.003 A 
ATOM      4  C5  UNL d   1       5.992  -0.401   4.161  0.00  0.00     0.000 A 
ATOM      5  C6  UNL d   1       5.995   0.664   3.261  0.00  0.00     0.000 A 
ATOM      6  C7  UNL d   1       5.995   1.994   3.717  0.00  0.00    -0.073 A 
ATOM      7  C8  UNL d   1       5.992   3.104   2.702  0.00  0.00     0.078 C 
ENDROOT
BRANCH   1   8
ATOM      8  C1  UNL d   1       5.915   3.647   5.671  0.00  0.00     0.053 C 
ATOM      9  C   UNL d   1       5.946   4.714   4.588  0.00  0.00     0.018 C 
ENDBRANCH   1   8
TORSDOF 1
ENDMDL
