MODEL 1
REMARK minimizedAffinity 7.99791431
REMARK minimizedRMSD -1
REMARK  1 active torsions:
REMARK  status: ('A' for Active; 'I' for Inactive)
REMARK    1  A    between atoms: C1_2  and  C2_3 
ROOT
ATOM      1  C2  UNL d   1       5.409   0.794   3.300  0.00  0.00    -0.076 A 
ATOM      2  C3  UNL d   1       5.415  -0.519   3.802  0.00  0.00     0.004 A 
ATOM      3  C4  UNL d   1       5.708  -0.773   5.141  0.00  0.00    -0.003 A 
ATOM      4  C5  UNL d   1       5.999   0.281   5.999  0.00  0.00     0.000 A 
ATOM      5  C6  UNL d   1       5.980   1.591   5.522  0.00  0.00     0.000 A 
ATOM      6  C7  UNL d   1       5.670   1.867   4.179  0.00  0.00    -0.073 A 
ATOM      7  C8  UNL d   1       5.670   3.298   3.717  0.00  0.00     0.078 C 
ENDROOT
BRANCH   1   8
ATOM      8  C1  UNL d   1       5.110   1.007   1.833  0.00  0.00     0.053 C 
ATOM      9  C   UNL d   1       3.694   1.506   1.593  0.00  0.00     0.018 C 
ENDBRANCH   1   8
TORSDOF 1
ENDMDL
