MODEL 1
REMARK minimizedAffinity -2.80016041
REMARK minimizedRMSD -1
REMARK  1 active torsions:
REMARK  status: ('A' for Active; 'I' for Inactive)
REMARK    1  A    between atoms: C1_2  and  C2_3 
ROOT
ATOM      1  C2  UNL d   1       5.193   1.177   4.679  0.00  0.00    -0.076 A 
ATOM      2  C3  UNL d   1       5.159   2.479   5.208  0.00  0.00     0.004 A 
ATOM      3  C4  UNL d   1       5.549   3.575   4.440  0.00  0.00    -0.003 A 
ATOM      4  C5  UNL d   1       5.977   3.387   3.131  0.00  0.00     0.000 A 
ATOM      5  C6  UNL d   1       6.000   2.105   2.584  0.00  0.00     0.000 A 
ATOM      6  C7  UNL d   1       5.595   0.991   3.339  0.00  0.00    -0.073 A 
ATOM      7  C8  UNL d   1       5.645  -0.371   2.702  0.00  0.00     0.078 C 
ENDROOT
BRANCH   1   8
ATOM      8  C1  UNL d   1       4.784   0.024   5.568  0.00  0.00     0.053 C 
ATOM      9  C   UNL d   1       5.895  -1.001   5.740  0.00  0.00     0.018 C 
ENDBRANCH   1   8
TORSDOF 1
ENDMDL
