MODEL 1
REMARK minimizedAffinity 5.46118212
REMARK minimizedRMSD -1
REMARK  1 active torsions:
REMARK  status: ('A' for Active; 'I' for Inactive)
REMARK    1  A    between atoms: C1_2  and  C2_3 
ROOT
ATOM      1  C2  UNL d   1      -1.482  -2.165  -1.608  0.00  0.00    -0.081 A 
ATOM      2  C3  UNL d   1      -2.619  -1.888  -0.839  0.00  0.00     0.006 A 
ATOM      3  C4  UNL d   1      -2.559  -1.930   0.556  0.00  0.00     0.002 A 
ATOM      4  C5  UNL d   1      -1.359  -2.241   1.205  0.00  0.00    -0.080 A 
ATOM      5  C6  UNL d   1      -1.273  -2.259   2.702  0.00  0.00     0.076 C 
ATOM      6  C7  UNL d   1      -0.227  -2.534   0.437  0.00  0.00     0.002 A 
ATOM      7  C8  UNL d   1      -0.287  -2.493  -0.957  0.00  0.00     0.006 A 
ENDROOT
BRANCH   1   8
ATOM      8  C1  UNL d   1      -1.528  -2.057  -3.110  0.00  0.00     0.054 C 
ATOM      9  C   UNL d   1      -2.230  -3.257  -3.730  0.00  0.00     0.018 C 
ENDBRANCH   1   8
TORSDOF 1
ENDMDL
