MODEL 1
REMARK minimizedAffinity 11.6996288
REMARK minimizedRMSD -1
REMARK  1 active torsions:
REMARK  status: ('A' for Active; 'I' for Inactive)
REMARK    1  A    between atoms: C1_2  and  C2_3 
ROOT
ATOM      1  C2  UNL d   1      -1.243  -2.757  -2.224  0.00  0.00    -0.081 A 
ATOM      2  C3  UNL d   1      -1.859  -4.012  -2.305  0.00  0.00     0.006 A 
ATOM      3  C4  UNL d   1      -2.362  -4.476  -3.523  0.00  0.00     0.002 A 
ATOM      4  C5  UNL d   1      -2.251  -3.697  -4.680  0.00  0.00    -0.080 A 
ATOM      5  C6  UNL d   1      -2.759  -4.197  -6.000  0.00  0.00     0.076 C 
ATOM      6  C7  UNL d   1      -1.651  -2.436  -4.595  0.00  0.00     0.002 A 
ATOM      7  C8  UNL d   1      -1.148  -1.972  -3.378  0.00  0.00     0.006 A 
ENDROOT
BRANCH   1   8
ATOM      8  C1  UNL d   1      -0.642  -2.282  -0.926  0.00  0.00     0.054 C 
ATOM      9  C   UNL d   1       0.391  -3.268  -0.400  0.00  0.00     0.018 C 
ENDBRANCH   1   8
TORSDOF 1
ENDMDL
