MODEL 1
REMARK minimizedAffinity 14.0145979
REMARK minimizedRMSD -1
REMARK  1 active torsions:
REMARK  status: ('A' for Active; 'I' for Inactive)
REMARK    1  A    between atoms: C1_2  and  C2_3 
ROOT
ATOM      1  C2  UNL d   1      -1.843  -2.636  -1.829  0.00  0.00    -0.081 A 
ATOM      2  C3  UNL d   1      -1.798  -1.516  -2.668  0.00  0.00     0.006 A 
ATOM      3  C4  UNL d   1      -2.126  -1.632  -4.021  0.00  0.00     0.002 A 
ATOM      4  C5  UNL d   1      -2.513  -2.866  -4.555  0.00  0.00    -0.080 A 
ATOM      5  C6  UNL d   1      -2.897  -2.997  -5.998  0.00  0.00     0.076 C 
ATOM      6  C7  UNL d   1      -2.541  -3.988  -3.720  0.00  0.00     0.002 A 
ATOM      7  C8  UNL d   1      -2.212  -3.873  -2.367  0.00  0.00     0.006 A 
ENDROOT
BRANCH   1   8
ATOM      8  C1  UNL d   1      -1.552  -2.502  -0.356  0.00  0.00     0.054 C 
ATOM      9  C   UNL d   1      -0.176  -3.054  -0.011  0.00  0.00     0.018 C 
ENDBRANCH   1   8
TORSDOF 1
ENDMDL
