MODEL 1
REMARK minimizedAffinity 3.94605541
REMARK minimizedRMSD -1
REMARK  1 active torsions:
REMARK  status: ('A' for Active; 'I' for Inactive)
REMARK    1  A    between atoms: C1_2  and  C2_3 
ROOT
ATOM      1  C2  UNL d   1      -1.033  -2.207   1.154  0.00  0.00    -0.081 A 
ATOM      2  C3  UNL d   1      -2.178  -1.656   0.567  0.00  0.00     0.006 A 
ATOM      3  C4  UNL d   1      -2.303  -1.598  -0.823  0.00  0.00     0.002 A 
ATOM      4  C5  UNL d   1      -1.289  -2.096  -1.648  0.00  0.00    -0.080 A 
ATOM      5  C6  UNL d   1      -1.424  -2.067  -3.142  0.00  0.00     0.076 C 
ATOM      6  C7  UNL d   1      -0.137  -2.631  -1.062  0.00  0.00     0.002 A 
ATOM      7  C8  UNL d   1      -0.011  -2.689   0.328  0.00  0.00     0.006 A 
ENDROOT
BRANCH   1   8
ATOM      8  C1  UNL d   1      -0.924  -2.330   2.653  0.00  0.00     0.054 C 
ATOM      9  C   UNL d   1      -1.685  -3.544   3.165  0.00  0.00     0.018 C 
ENDBRANCH   1   8
TORSDOF 1
ENDMDL
