MODEL 1
REMARK minimizedAffinity 6.11241341
REMARK minimizedRMSD -1
REMARK  1 active torsions:
REMARK  status: ('A' for Active; 'I' for Inactive)
REMARK    1  A    between atoms: C1_2  and  C2_3 
ROOT
ATOM      1  C2  UNL d   1       2.130   3.864  -3.542  0.00  0.00    -0.081 A 
ATOM      2  C3  UNL d   1       3.312   3.706  -2.810  0.00  0.00     0.006 A 
ATOM      3  C4  UNL d   1       3.275   3.219  -1.501  0.00  0.00     0.002 A 
ATOM      4  C5  UNL d   1       2.057   2.874  -0.906  0.00  0.00    -0.080 A 
ATOM      5  C6  UNL d   1       2.006   2.321   0.487  0.00  0.00     0.076 C 
ATOM      6  C7  UNL d   1       0.874   3.047  -1.632  0.00  0.00     0.002 A 
ATOM      7  C8  UNL d   1       0.910   3.535  -2.940  0.00  0.00     0.006 A 
ENDROOT
BRANCH   1   8
ATOM      8  C1  UNL d   1       2.172   4.328  -4.976  0.00  0.00     0.054 C 
ATOM      9  C   UNL d   1       2.354   3.157  -5.931  0.00  0.00     0.018 C 
ENDBRANCH   1   8
TORSDOF 1
ENDMDL
