MODEL 1
REMARK minimizedAffinity 11.2362843
REMARK minimizedRMSD -1
REMARK  1 active torsions:
REMARK  status: ('A' for Active; 'I' for Inactive)
REMARK    1  A    between atoms: C1_2  and  C2_3 
ROOT
ATOM      1  C2  UNL d   1      -1.412  -2.296  -1.948  0.00  0.00    -0.081 A 
ATOM      2  C3  UNL d   1      -0.302  -2.768  -1.236  0.00  0.00     0.006 A 
ATOM      3  C4  UNL d   1      -0.293  -2.740   0.161  0.00  0.00     0.002 A 
ATOM      4  C5  UNL d   1      -1.396  -2.249   0.868  0.00  0.00    -0.080 A 
ATOM      5  C6  UNL d   1      -1.411  -2.242   2.368  0.00  0.00     0.076 C 
ATOM      6  C7  UNL d   1      -2.497  -1.761   0.156  0.00  0.00     0.002 A 
ATOM      7  C8  UNL d   1      -2.506  -1.788  -1.240  0.00  0.00     0.006 A 
ENDROOT
BRANCH   1   8
ATOM      8  C1  UNL d   1      -1.451  -2.384  -3.453  0.00  0.00     0.054 C 
ATOM      9  C   UNL d   1      -2.401  -3.479  -3.918  0.00  0.00     0.018 C 
ENDBRANCH   1   8
TORSDOF 1
ENDMDL
