MODEL 1
REMARK minimizedAffinity 0.0897577479
REMARK minimizedRMSD -1
REMARK  1 active torsions:
REMARK  status: ('A' for Active; 'I' for Inactive)
REMARK    1  A    between atoms: C1_2  and  C2_3 
ROOT
ATOM      1  C2  UNL d   1       4.374   2.847  -2.975  0.00  0.00    -0.081 A 
ATOM      2  C3  UNL d   1       3.975   2.961  -4.313  0.00  0.00     0.006 A 
ATOM      3  C4  UNL d   1       4.495   2.101  -5.282  0.00  0.00     0.002 A 
ATOM      4  C5  UNL d   1       5.416   1.108  -4.931  0.00  0.00    -0.080 A 
ATOM      5  C6  UNL d   1       5.959   0.159  -5.957  0.00  0.00     0.076 C 
ATOM      6  C7  UNL d   1       5.829   1.006  -3.598  0.00  0.00     0.002 A 
ATOM      7  C8  UNL d   1       5.310   1.867  -2.628  0.00  0.00     0.006 A 
ENDROOT
BRANCH   1   8
ATOM      8  C1  UNL d   1       3.767   3.731  -1.916  0.00  0.00     0.054 C 
ATOM      9  C   UNL d   1       3.080   4.942  -2.533  0.00  0.00     0.018 C 
ENDBRANCH   1   8
TORSDOF 1
ENDMDL
