MODEL 1
REMARK minimizedAffinity 6.36468697
REMARK minimizedRMSD -1
REMARK  1 active torsions:
REMARK  status: ('A' for Active; 'I' for Inactive)
REMARK    1  A    between atoms: C1_2  and  C2_3 
ROOT
ATOM      1  C2  UNL d   1      -1.804  -1.928  -1.297  0.00  0.00    -0.081 A 
ATOM      2  C3  UNL d   1      -0.708  -2.502  -0.643  0.00  0.00     0.006 A 
ATOM      3  C4  UNL d   1      -0.715  -2.660   0.745  0.00  0.00     0.002 A 
ATOM      4  C5  UNL d   1      -1.821  -2.255   1.500  0.00  0.00    -0.080 A 
ATOM      5  C6  UNL d   1      -1.854  -2.447   2.987  0.00  0.00     0.076 C 
ATOM      6  C7  UNL d   1      -2.909  -1.666   0.848  0.00  0.00     0.002 A 
ATOM      7  C8  UNL d   1      -2.902  -1.506  -0.540  0.00  0.00     0.006 A 
ENDROOT
BRANCH   1   8
ATOM      8  C1  UNL d   1      -1.826  -1.815  -2.800  0.00  0.00     0.054 C 
ATOM      9  C   UNL d   1      -2.117  -3.159  -3.452  0.00  0.00     0.018 C 
ENDBRANCH   1   8
TORSDOF 1
ENDMDL
