MODEL 1
REMARK minimizedAffinity 10.9645329
REMARK minimizedRMSD -1
REMARK  1 active torsions:
REMARK  status: ('A' for Active; 'I' for Inactive)
REMARK    1  A    between atoms: C1_2  and  C2_3 
ROOT
ATOM      1  C2  UNL d   1       0.643   0.463   2.602  0.00  0.00    -0.081 A 
ATOM      2  C3  UNL d   1       0.368  -0.570   1.697  0.00  0.00     0.006 A 
ATOM      3  C4  UNL d   1      -0.626  -1.511   1.977  0.00  0.00     0.002 A 
ATOM      4  C5  UNL d   1      -1.367  -1.430   3.161  0.00  0.00    -0.080 A 
ATOM      5  C6  UNL d   1      -2.458  -2.415   3.459  0.00  0.00     0.076 C 
ATOM      6  C7  UNL d   1      -1.081  -0.408   4.073  0.00  0.00     0.002 A 
ATOM      7  C8  UNL d   1      -0.086   0.532   3.794  0.00  0.00     0.006 A 
ENDROOT
BRANCH   1   8
ATOM      8  C1  UNL d   1       1.670   1.516   2.274  0.00  0.00     0.054 C 
ATOM      9  C   UNL d   1       2.853   0.920   1.525  0.00  0.00     0.018 C 
ENDBRANCH   1   8
TORSDOF 1
ENDMDL
