MODEL 1
REMARK minimizedAffinity -1.53416204
REMARK minimizedRMSD -1
REMARK  1 active torsions:
REMARK  status: ('A' for Active; 'I' for Inactive)
REMARK    1  A    between atoms: C1_2  and  C2_3 
ROOT
ATOM      1  C2  UNL d   1       3.738   2.087   0.860  0.00  0.00    -0.081 A 
ATOM      2  C3  UNL d   1       3.092   0.975   1.414  0.00  0.00     0.006 A 
ATOM      3  C4  UNL d   1       3.806   0.047   2.174  0.00  0.00     0.002 A 
ATOM      4  C5  UNL d   1       5.176   0.218   2.400  0.00  0.00    -0.080 A 
ATOM      5  C6  UNL d   1       5.949  -0.755   3.240  0.00  0.00     0.076 C 
ATOM      6  C7  UNL d   1       5.826   1.320   1.832  0.00  0.00     0.002 A 
ATOM      7  C8  UNL d   1       5.112   2.248   1.071  0.00  0.00     0.006 A 
ENDROOT
BRANCH   1   8
ATOM      8  C1  UNL d   1       2.958   3.125   0.094  0.00  0.00     0.054 C 
ATOM      9  C   UNL d   1       2.186   4.041   1.032  0.00  0.00     0.018 C 
ENDBRANCH   1   8
TORSDOF 1
ENDMDL
