MODEL 1
REMARK minimizedAffinity 0.450699806
REMARK minimizedRMSD -1
REMARK  1 active torsions:
REMARK  status: ('A' for Active; 'I' for Inactive)
REMARK    1  A    between atoms: C1_2  and  C2_3 
ROOT
ATOM      1  C2  UNL d   1       4.095   4.211  -5.846  0.00  0.00    -0.081 A 
ATOM      2  C3  UNL d   1       3.506   2.946  -5.954  0.00  0.00     0.006 A 
ATOM      3  C4  UNL d   1       2.116   2.811  -5.980  0.00  0.00     0.002 A 
ATOM      4  C5  UNL d   1       1.292   3.940  -5.907  0.00  0.00    -0.080 A 
ATOM      5  C6  UNL d   1      -0.201   3.812  -5.965  0.00  0.00     0.076 C 
ATOM      6  C7  UNL d   1       1.880   5.203  -5.782  0.00  0.00     0.002 A 
ATOM      7  C8  UNL d   1       3.270   5.338  -5.755  0.00  0.00     0.006 A 
ENDROOT
BRANCH   1   8
ATOM      8  C1  UNL d   1       5.594   4.365  -5.882  0.00  0.00     0.054 C 
ATOM      9  C   UNL d   1       6.000   5.832  -5.896  0.00  0.00     0.018 C 
ENDBRANCH   1   8
TORSDOF 1
ENDMDL
