MODEL 1
REMARK minimizedAffinity -3.60079336
REMARK minimizedRMSD -1
REMARK  1 active torsions:
REMARK  status: ('A' for Active; 'I' for Inactive)
REMARK    1  A    between atoms: C1_2  and  C2_3 
ROOT
ATOM      1  C2  UNL d   1       5.165   2.430  -5.817  0.00  0.00    -0.081 A 
ATOM      2  C3  UNL d   1       5.783   3.684  -5.733  0.00  0.00     0.006 A 
ATOM      3  C4  UNL d   1       5.017   4.842  -5.578  0.00  0.00     0.002 A 
ATOM      4  C5  UNL d   1       3.622   4.765  -5.495  0.00  0.00    -0.080 A 
ATOM      5  C6  UNL d   1       2.791   5.998  -5.298  0.00  0.00     0.076 C 
ATOM      6  C7  UNL d   1       3.004   3.515  -5.596  0.00  0.00     0.002 A 
ATOM      7  C8  UNL d   1       3.769   2.357  -5.752  0.00  0.00     0.006 A 
ENDROOT
BRANCH   1   8
ATOM      8  C1  UNL d   1       5.991   1.174  -5.919  0.00  0.00     0.054 C 
ATOM      9  C   UNL d   1       6.000   0.409  -4.604  0.00  0.00     0.018 C 
ENDBRANCH   1   8
TORSDOF 1
ENDMDL
