MODEL 1
REMARK minimizedAffinity 3.29093099
REMARK minimizedRMSD -1
REMARK  1 active torsions:
REMARK  status: ('A' for Active; 'I' for Inactive)
REMARK    1  A    between atoms: C1_2  and  C2_3 
ROOT
ATOM      1  C2  UNL d   1       4.005   3.259  -5.593  0.00  0.00    -0.081 A 
ATOM      2  C3  UNL d   1       3.537   2.002  -5.995  0.00  0.00     0.006 A 
ATOM      3  C4  UNL d   1       4.187   0.838  -5.577  0.00  0.00     0.002 A 
ATOM      4  C5  UNL d   1       5.310   0.911  -4.746  0.00  0.00    -0.080 A 
ATOM      5  C6  UNL d   1       5.999  -0.332  -4.267  0.00  0.00     0.076 C 
ATOM      6  C7  UNL d   1       5.788   2.168  -4.359  0.00  0.00     0.002 A 
ATOM      7  C8  UNL d   1       5.139   3.332  -4.777  0.00  0.00     0.006 A 
ENDROOT
BRANCH   1   8
ATOM      8  C1  UNL d   1       3.268   4.513  -5.989  0.00  0.00     0.054 C 
ATOM      9  C   UNL d   1       1.763   4.292  -5.995  0.00  0.00     0.018 C 
ENDBRANCH   1   8
TORSDOF 1
ENDMDL
