MODEL 1
REMARK minimizedAffinity 1.87090945
REMARK minimizedRMSD -1
REMARK  1 active torsions:
REMARK  status: ('A' for Active; 'I' for Inactive)
REMARK    1  A    between atoms: C1_2  and  C2_3 
ROOT
ATOM      1  C2  UNL d   1       2.419   1.003   2.107  0.00  0.00    -0.081 A 
ATOM      2  C3  UNL d   1       3.658   0.364   2.233  0.00  0.00     0.006 A 
ATOM      3  C4  UNL d   1       4.818   0.962   1.734  0.00  0.00     0.002 A 
ATOM      4  C5  UNL d   1       4.758   2.212   1.108  0.00  0.00    -0.080 A 
ATOM      5  C6  UNL d   1       6.000   2.879   0.595  0.00  0.00     0.076 C 
ATOM      6  C7  UNL d   1       3.517   2.842   0.966  0.00  0.00     0.002 A 
ATOM      7  C8  UNL d   1       2.358   2.244   1.464  0.00  0.00     0.006 A 
ENDROOT
BRANCH   1   8
ATOM      8  C1  UNL d   1       1.177   0.390   2.701  0.00  0.00     0.054 C 
ATOM      9  C   UNL d   1       0.774   1.094   3.989  0.00  0.00     0.018 C 
ENDBRANCH   1   8
TORSDOF 1
ENDMDL
