MODEL 1
REMARK minimizedAffinity -0.558027029
REMARK minimizedRMSD -1
REMARK  1 active torsions:
REMARK  status: ('A' for Active; 'I' for Inactive)
REMARK    1  A    between atoms: N_2  and  C1_3 
ROOT
ATOM      1  C1  UNL d   1      -2.545  -5.556  -4.730  0.00  0.00     0.143 A 
ATOM      2  C2  UNL d   1      -1.759  -5.075  -3.677  0.00  0.00    -0.057 A 
ATOM      3  C3  UNL d   1      -0.365  -4.996  -3.789  0.00  0.00     0.033 A 
ATOM      4  C4  UNL d   1       0.271  -5.424  -4.949  0.00  0.00    -0.042 A 
ATOM      5  C5  UNL d   1      -0.488  -5.928  -5.999  0.00  0.00     0.033 A 
ATOM      6  C6  UNL d   1      -1.880  -5.999  -5.884  0.00  0.00    -0.057 A 
ENDROOT
BRANCH   1   7
ATOM      7  N   UNL d   1      -3.925  -5.752  -4.643  0.00  0.00    -0.732 N 
ATOM      8  C   UNL d   1      -4.711  -5.999  -5.833  0.00  0.00     0.284 C 
ATOM      9  H3  UNL d   1      -4.187  -6.327  -3.846  0.00  0.00     0.395 HD
ENDBRANCH   1   7
TORSDOF 1
ENDMDL
