MODEL 1
REMARK minimizedAffinity 9.42214775
REMARK minimizedRMSD -1
REMARK  1 active torsions:
REMARK  status: ('A' for Active; 'I' for Inactive)
REMARK    1  A    between atoms: N_2  and  C1_3 
ROOT
ATOM      1  C1  UNL d   1       4.701   3.933  -4.075  0.00  0.00     0.143 A 
ATOM      2  C2  UNL d   1       4.095   2.864  -4.745  0.00  0.00    -0.057 A 
ATOM      3  C3  UNL d   1       2.942   2.251  -4.239  0.00  0.00     0.033 A 
ATOM      4  C4  UNL d   1       2.391   2.678  -3.035  0.00  0.00    -0.042 A 
ATOM      5  C5  UNL d   1       2.991   3.722  -2.341  0.00  0.00     0.033 A 
ATOM      6  C6  UNL d   1       4.138   4.335  -2.854  0.00  0.00    -0.057 A 
ENDROOT
BRANCH   1   7
ATOM      7  N   UNL d   1       5.904   4.520  -4.476  0.00  0.00    -0.732 N 
ATOM      8  C   UNL d   1       5.995   5.950  -4.678  0.00  0.00     0.284 C 
ATOM      9  H3  UNL d   1       6.709   4.115  -4.005  0.00  0.00     0.395 HD
ENDBRANCH   1   7
TORSDOF 1
ENDMDL
