MODEL 1
REMARK minimizedAffinity 0.423480839
REMARK minimizedRMSD -1
REMARK  1 active torsions:
REMARK  status: ('A' for Active; 'I' for Inactive)
REMARK    1  A    between atoms: N_2  and  C1_3 
ROOT
ATOM      1  C1  UNL d   1       0.079  -5.299  -4.324  0.00  0.00     0.143 A 
ATOM      2  C2  UNL d   1      -0.283  -5.894  -5.537  0.00  0.00    -0.057 A 
ATOM      3  C3  UNL d   1      -1.626  -6.000  -5.921  0.00  0.00     0.033 A 
ATOM      4  C4  UNL d   1      -2.634  -5.538  -5.082  0.00  0.00    -0.042 A 
ATOM      5  C5  UNL d   1      -2.298  -4.966  -3.860  0.00  0.00     0.033 A 
ATOM      6  C6  UNL d   1      -0.955  -4.857  -3.485  0.00  0.00    -0.057 A 
ENDROOT
BRANCH   1   7
ATOM      7  N   UNL d   1       1.390  -5.253  -3.842  0.00  0.00    -0.732 N 
ATOM      8  C   UNL d   1       2.443  -6.000  -4.496  0.00  0.00     0.284 C 
ATOM      9  H3  UNL d   1       1.663  -4.317  -3.550  0.00  0.00     0.395 HD
ENDBRANCH   1   7
TORSDOF 1
ENDMDL
