MODEL 1
REMARK minimizedAffinity 8.46693707
REMARK minimizedRMSD -1
REMARK  1 active torsions:
REMARK  status: ('A' for Active; 'I' for Inactive)
REMARK    1  A    between atoms: N_2  and  C1_3 
ROOT
ATOM      1  C1  UNL d   1       5.136   2.942   1.179  0.00  0.00     0.143 A 
ATOM      2  C2  UNL d   1       5.281   1.822   2.004  0.00  0.00    -0.057 A 
ATOM      3  C3  UNL d   1       4.364   0.764   1.961  0.00  0.00     0.033 A 
ATOM      4  C4  UNL d   1       3.266   0.822   1.109  0.00  0.00    -0.042 A 
ATOM      5  C5  UNL d   1       3.088   1.937   0.297  0.00  0.00     0.033 A 
ATOM      6  C6  UNL d   1       4.010   2.987   0.340  0.00  0.00    -0.057 A 
ENDROOT
BRANCH   1   7
ATOM      7  N   UNL d   1       5.958   4.069   1.246  0.00  0.00    -0.732 N 
ATOM      8  C   UNL d   1       5.998   5.019   0.154  0.00  0.00     0.284 C 
ATOM      9  H3  UNL d   1       5.956   4.497   2.169  0.00  0.00     0.395 HD
ENDBRANCH   1   7
TORSDOF 1
ENDMDL
