MODEL 1
REMARK minimizedAffinity 13.381341
REMARK minimizedRMSD -1
REMARK  1 active torsions:
REMARK  status: ('A' for Active; 'I' for Inactive)
REMARK    1  A    between atoms: N_2  and  C1_3 
ROOT
ATOM      1  C1  UNL d   1      -3.328  -0.037   1.576  0.00  0.00     0.143 A 
ATOM      2  C2  UNL d   1      -2.773   0.662   2.654  0.00  0.00    -0.057 A 
ATOM      3  C3  UNL d   1      -1.499   0.349   3.144  0.00  0.00     0.033 A 
ATOM      4  C4  UNL d   1      -0.766  -0.690   2.580  0.00  0.00    -0.042 A 
ATOM      5  C5  UNL d   1      -1.308  -1.414   1.524  0.00  0.00     0.033 A 
ATOM      6  C6  UNL d   1      -2.578  -1.093   1.035  0.00  0.00    -0.057 A 
ENDROOT
BRANCH   1   7
ATOM      7  N   UNL d   1      -4.629   0.161   1.108  0.00  0.00    -0.732 N 
ATOM      8  C   UNL d   1      -4.884   1.045  -0.009  0.00  0.00     0.284 C 
ATOM      9  H3  UNL d   1      -5.170  -0.701   1.088  0.00  0.00     0.395 HD
ENDBRANCH   1   7
TORSDOF 1
ENDMDL
