MODEL 1
REMARK minimizedAffinity 7.05088186
REMARK minimizedRMSD -1
REMARK  1 active torsions:
REMARK  status: ('A' for Active; 'I' for Inactive)
REMARK    1  A    between atoms: N_2  and  C1_3 
ROOT
ATOM      1  C1  UNL d   1       2.047   4.161  -3.346  0.00  0.00     0.143 A 
ATOM      2  C2  UNL d   1       2.447   5.135  -2.424  0.00  0.00    -0.057 A 
ATOM      3  C3  UNL d   1       1.518   6.000  -1.833  0.00  0.00     0.033 A 
ATOM      4  C4  UNL d   1       0.172   5.924  -2.176  0.00  0.00    -0.042 A 
ATOM      5  C5  UNL d   1      -0.244   4.981  -3.108  0.00  0.00     0.033 A 
ATOM      6  C6  UNL d   1       0.687   4.116  -3.690  0.00  0.00    -0.057 A 
ENDROOT
BRANCH   1   7
ATOM      7  N   UNL d   1       2.936   3.338  -4.042  0.00  0.00    -0.732 N 
ATOM      8  C   UNL d   1       3.548   3.788  -5.273  0.00  0.00     0.284 C 
ATOM      9  H3  UNL d   1       3.569   2.838  -3.422  0.00  0.00     0.395 HD
ENDBRANCH   1   7
TORSDOF 1
ENDMDL
