MODEL 1
REMARK minimizedAffinity 12.4469957
REMARK minimizedRMSD -1
REMARK  1 active torsions:
REMARK  status: ('A' for Active; 'I' for Inactive)
REMARK    1  A    between atoms: N_2  and  C1_3 
ROOT
ATOM      1  C1  UNL d   1       3.268   3.408  -3.706  0.00  0.00     0.143 A 
ATOM      2  C2  UNL d   1       4.257   4.165  -3.070  0.00  0.00    -0.057 A 
ATOM      3  C3  UNL d   1       5.434   4.528  -3.735  0.00  0.00     0.033 A 
ATOM      4  C4  UNL d   1       5.657   4.113  -5.044  0.00  0.00    -0.042 A 
ATOM      5  C5  UNL d   1       4.699   3.338  -5.688  0.00  0.00     0.033 A 
ATOM      6  C6  UNL d   1       3.522   2.985  -5.021  0.00  0.00    -0.057 A 
ENDROOT
BRANCH   1   7
ATOM      7  N   UNL d   1       2.121   2.932  -3.067  0.00  0.00    -0.732 N 
ATOM      8  C   UNL d   1       2.222   1.975  -1.986  0.00  0.00     0.284 C 
ATOM      9  H3  UNL d   1       1.431   3.664  -2.911  0.00  0.00     0.395 HD
ENDBRANCH   1   7
TORSDOF 1
ENDMDL
