MODEL 1
REMARK minimizedAffinity 6.00966167
REMARK minimizedRMSD -1
REMARK  1 active torsions:
REMARK  status: ('A' for Active; 'I' for Inactive)
REMARK    1  A    between atoms: N_2  and  C1_3 
ROOT
ATOM      1  C1  UNL d   1       4.067   1.897   0.034  0.00  0.00     0.143 A 
ATOM      2  C2  UNL d   1       3.574   2.447   1.222  0.00  0.00    -0.057 A 
ATOM      3  C3  UNL d   1       4.262   3.467   1.890  0.00  0.00     0.033 A 
ATOM      4  C4  UNL d   1       5.474   3.937   1.395  0.00  0.00    -0.042 A 
ATOM      5  C5  UNL d   1       5.996   3.387   0.229  0.00  0.00     0.033 A 
ATOM      6  C6  UNL d   1       5.301   2.373  -0.437  0.00  0.00    -0.057 A 
ENDROOT
BRANCH   1   7
ATOM      7  N   UNL d   1       3.480   0.813  -0.624  0.00  0.00    -0.732 N 
ATOM      8  C   UNL d   1       4.224  -0.409  -0.840  0.00  0.00     0.284 C 
ATOM      9  H3  UNL d   1       2.512   0.667  -0.345  0.00  0.00     0.395 HD
ENDBRANCH   1   7
TORSDOF 1
ENDMDL
