MODEL 1
REMARK minimizedAffinity 17.5599442
REMARK minimizedRMSD -1
REMARK  1 active torsions:
REMARK  status: ('A' for Active; 'I' for Inactive)
REMARK    1  A    between atoms: N_2  and  C1_3 
ROOT
ATOM      1  C1  UNL d   1       0.195  -1.511   3.356  0.00  0.00     0.143 A 
ATOM      2  C2  UNL d   1      -0.587  -0.468   3.863  0.00  0.00    -0.057 A 
ATOM      3  C3  UNL d   1      -1.777  -0.081   3.235  0.00  0.00     0.033 A 
ATOM      4  C4  UNL d   1      -2.193  -0.714   2.069  0.00  0.00    -0.042 A 
ATOM      5  C5  UNL d   1      -1.418  -1.737   1.533  0.00  0.00     0.033 A 
ATOM      6  C6  UNL d   1      -0.234  -2.123   2.168  0.00  0.00    -0.057 A 
ENDROOT
BRANCH   1   7
ATOM      7  N   UNL d   1       1.438  -1.876   3.879  0.00  0.00    -0.732 N 
ATOM      8  C   UNL d   1       2.636  -1.772   3.073  0.00  0.00     0.284 C 
ATOM      9  H3  UNL d   1       1.558  -1.574   4.843  0.00  0.00     0.395 HD
ENDBRANCH   1   7
TORSDOF 1
ENDMDL
