MODEL 1
REMARK minimizedAffinity 6.83374357
REMARK minimizedRMSD -1
REMARK  1 active torsions:
REMARK  status: ('A' for Active; 'I' for Inactive)
REMARK    1  A    between atoms: N_2  and  C1_3 
ROOT
ATOM      1  C1  UNL d   1       3.348   4.241  -3.260  0.00  0.00     0.143 A 
ATOM      2  C2  UNL d   1       3.184   3.704  -4.542  0.00  0.00    -0.057 A 
ATOM      3  C3  UNL d   1       4.237   3.696  -5.465  0.00  0.00     0.033 A 
ATOM      4  C4  UNL d   1       5.467   4.253  -5.132  0.00  0.00    -0.042 A 
ATOM      5  C5  UNL d   1       5.644   4.815  -3.873  0.00  0.00     0.033 A 
ATOM      6  C6  UNL d   1       4.592   4.814  -2.952  0.00  0.00    -0.057 A 
ENDROOT
BRANCH   1   7
ATOM      7  N   UNL d   1       2.311   4.368  -2.332  0.00  0.00    -0.732 N 
ATOM      8  C   UNL d   1       1.554   5.598  -2.236  0.00  0.00     0.284 C 
ATOM      9  H3  UNL d   1       1.746   3.525  -2.264  0.00  0.00     0.395 HD
ENDBRANCH   1   7
TORSDOF 1
ENDMDL
