MODEL 1
REMARK minimizedAffinity 15.1419449
REMARK minimizedRMSD -1
REMARK  1 active torsions:
REMARK  status: ('A' for Active; 'I' for Inactive)
REMARK    1  A    between atoms: N_2  and  C1_3 
ROOT
ATOM      1  C1  UNL d   1       5.232   5.195  -3.086  0.00  0.00     0.143 A 
ATOM      2  C2  UNL d   1       5.903   4.792  -4.246  0.00  0.00    -0.057 A 
ATOM      3  C3  UNL d   1       5.303   3.925  -5.167  0.00  0.00     0.033 A 
ATOM      4  C4  UNL d   1       4.029   3.420  -4.929  0.00  0.00    -0.042 A 
ATOM      5  C5  UNL d   1       3.354   3.787  -3.770  0.00  0.00     0.033 A 
ATOM      6  C6  UNL d   1       3.955   4.659  -2.857  0.00  0.00    -0.057 A 
ENDROOT
BRANCH   1   7
ATOM      7  N   UNL d   1       5.812   5.977  -2.084  0.00  0.00    -0.732 N 
ATOM      8  C   UNL d   1       6.000   5.446  -0.750  0.00  0.00     0.284 C 
ATOM      9  H3  UNL d   1       6.596   6.528  -2.426  0.00  0.00     0.395 HD
ENDBRANCH   1   7
TORSDOF 1
ENDMDL
