MODEL 1
REMARK minimizedAffinity 12.0690365
REMARK minimizedRMSD -1
REMARK  1 active torsions:
REMARK  status: ('A' for Active; 'I' for Inactive)
REMARK    1  A    between atoms: N_2  and  C1_3 
ROOT
ATOM      1  C1  UNL d   1       4.825   4.330  -2.604  0.00  0.00     0.143 A 
ATOM      2  C2  UNL d   1       5.290   4.122  -3.907  0.00  0.00    -0.057 A 
ATOM      3  C3  UNL d   1       4.499   3.477  -4.866  0.00  0.00     0.033 A 
ATOM      4  C4  UNL d   1       3.237   3.000  -4.529  0.00  0.00    -0.042 A 
ATOM      5  C5  UNL d   1       2.765   3.172  -3.233  0.00  0.00     0.033 A 
ATOM      6  C6  UNL d   1       3.556   3.824  -2.282  0.00  0.00    -0.057 A 
ENDROOT
BRANCH   1   7
ATOM      7  N   UNL d   1       5.601   4.877  -1.580  0.00  0.00    -0.732 N 
ATOM      8  C   UNL d   1       6.000   4.071  -0.446  0.00  0.00     0.284 C 
ATOM      9  H3  UNL d   1       6.332   5.490  -1.932  0.00  0.00     0.395 HD
ENDBRANCH   1   7
TORSDOF 1
ENDMDL
