MODEL 1
REMARK minimizedAffinity 15.3168764
REMARK minimizedRMSD -1
REMARK  1 active torsions:
REMARK  status: ('A' for Active; 'I' for Inactive)
REMARK    1  A    between atoms: N_2  and  C1_3 
ROOT
ATOM      1  C1  UNL d   1      -0.366   4.311  -3.942  0.00  0.00     0.143 A 
ATOM      2  C2  UNL d   1      -0.221   5.216  -2.885  0.00  0.00    -0.057 A 
ATOM      3  C3  UNL d   1       0.886   5.161  -2.028  0.00  0.00     0.033 A 
ATOM      4  C4  UNL d   1       1.855   4.178  -2.197  0.00  0.00    -0.042 A 
ATOM      5  C5  UNL d   1       1.719   3.252  -3.225  0.00  0.00     0.033 A 
ATOM      6  C6  UNL d   1       0.615   3.316  -4.081  0.00  0.00    -0.057 A 
ENDROOT
BRANCH   1   7
ATOM      7  N   UNL d   1      -1.491   4.252  -4.766  0.00  0.00    -0.732 N 
ATOM      8  C   UNL d   1      -1.584   5.082  -5.948  0.00  0.00     0.284 C 
ATOM      9  H3  UNL d   1      -1.826   3.300  -4.900  0.00  0.00     0.395 HD
ENDBRANCH   1   7
TORSDOF 1
ENDMDL
