MODEL 1
REMARK minimizedAffinity 1.11428785
REMARK minimizedRMSD -1
REMARK  1 active torsions:
REMARK  status: ('A' for Active; 'I' for Inactive)
REMARK    1  A    between atoms: N_2  and  C1_3 
ROOT
ATOM      1  C1  UNL d   1      -3.341   1.134   3.288  0.00  0.00     0.143 A 
ATOM      2  C2  UNL d   1      -2.197   0.334   3.369  0.00  0.00    -0.057 A 
ATOM      3  C3  UNL d   1      -1.972  -0.706   2.458  0.00  0.00     0.033 A 
ATOM      4  C4  UNL d   1      -2.906  -0.981   1.464  0.00  0.00    -0.042 A 
ATOM      5  C5  UNL d   1      -4.063  -0.214   1.381  0.00  0.00     0.033 A 
ATOM      6  C6  UNL d   1      -4.278   0.826   2.289  0.00  0.00    -0.057 A 
ENDROOT
BRANCH   1   7
ATOM      7  N   UNL d   1      -3.669   2.118   4.224  0.00  0.00    -0.732 N 
ATOM      8  C   UNL d   1      -4.837   1.975   5.067  0.00  0.00     0.284 C 
ATOM      9  H3  UNL d   1      -2.852   2.484   4.706  0.00  0.00     0.395 HD
ENDBRANCH   1   7
TORSDOF 1
ENDMDL
