MODEL 1
REMARK minimizedAffinity 18.8113976
REMARK minimizedRMSD -1
REMARK  1 active torsions:
REMARK  status: ('A' for Active; 'I' for Inactive)
REMARK    1  A    between atoms: N_2  and  C1_3 
ROOT
ATOM      1  C1  UNL d   1      -3.172  -0.228   1.467  0.00  0.00     0.143 A 
ATOM      2  C2  UNL d   1      -2.570   0.455   2.529  0.00  0.00    -0.057 A 
ATOM      3  C3  UNL d   1      -1.365   0.011   3.088  0.00  0.00     0.033 A 
ATOM      4  C4  UNL d   1      -0.754  -1.145   2.612  0.00  0.00    -0.042 A 
ATOM      5  C5  UNL d   1      -1.348  -1.854   1.574  0.00  0.00     0.033 A 
ATOM      6  C6  UNL d   1      -2.547  -1.402   1.016  0.00  0.00    -0.057 A 
ENDROOT
BRANCH   1   7
ATOM      7  N   UNL d   1      -4.419   0.107   0.934  0.00  0.00    -0.732 N 
ATOM      8  C   UNL d   1      -4.816  -0.376  -0.371  0.00  0.00     0.284 C 
ATOM      9  H3  UNL d   1      -5.160   0.078   1.631  0.00  0.00     0.395 HD
ENDBRANCH   1   7
TORSDOF 1
ENDMDL
