MODEL 1
REMARK minimizedAffinity 2.39264083
REMARK minimizedRMSD -1
REMARK  0 active torsions:
REMARK  status: ('A' for Active; 'I' for Inactive)
ROOT
ATOM      1  C1  BNZ d   1       2.827   5.809   5.937  0.00  0.00     0.000 A 
ATOM      2  C2  BNZ d   1       3.460   5.807   4.723  0.00  0.00     0.000 A 
ATOM      3  C3  BNZ d   1       2.748   5.922   3.562  0.00  0.00     0.000 A 
ATOM      4  C4  BNZ d   1       1.403   6.000   3.614  0.00  0.00     0.000 A 
ATOM      5  C5  BNZ d   1       0.749   5.994   4.830  0.00  0.00     0.000 A 
ATOM      6  C6  BNZ d   1       1.472   5.917   5.999  0.00  0.00     0.000 A 
ENDROOT
TORSDOF 0
ENDMDL
