MODEL 1
REMARK minimizedAffinity 2.21293592
REMARK minimizedRMSD -1
REMARK  0 active torsions:
REMARK  status: ('A' for Active; 'I' for Inactive)
ROOT
ATOM      1  C1  BNZ d   1      -0.255   0.366   3.380  0.00  0.00     0.000 A 
ATOM      2  C2  BNZ d   1      -0.656  -0.622   2.521  0.00  0.00     0.000 A 
ATOM      3  C3  BNZ d   1       0.212  -1.145   1.602  0.00  0.00     0.000 A 
ATOM      4  C4  BNZ d   1       1.464  -0.651   1.517  0.00  0.00     0.000 A 
ATOM      5  C5  BNZ d   1       1.879   0.352   2.370  0.00  0.00     0.000 A 
ATOM      6  C6  BNZ d   1       1.016   0.848   3.319  0.00  0.00     0.000 A 
ENDROOT
TORSDOF 0
ENDMDL
