MODEL 1
REMARK minimizedAffinity 3.66764951
REMARK minimizedRMSD -1
REMARK  0 active torsions:
REMARK  status: ('A' for Active; 'I' for Inactive)
ROOT
ATOM      1  C1  BNZ d   1       1.068  -1.432   1.300  0.00  0.00     0.000 A 
ATOM      2  C2  BNZ d   1       1.706  -2.644   1.301  0.00  0.00     0.000 A 
ATOM      3  C3  BNZ d   1       3.011  -2.748   0.906  0.00  0.00     0.000 A 
ATOM      4  C4  BNZ d   1       3.662  -1.649   0.473  0.00  0.00     0.000 A 
ATOM      5  C5  BNZ d   1       3.029  -0.422   0.458  0.00  0.00     0.000 A 
ATOM      6  C6  BNZ d   1       1.728  -0.314   0.893  0.00  0.00     0.000 A 
ENDROOT
TORSDOF 0
ENDMDL
