MODEL 1
REMARK minimizedAffinity 0.458876759
REMARK minimizedRMSD -1
REMARK  0 active torsions:
REMARK  status: ('A' for Active; 'I' for Inactive)
ROOT
ATOM      1  C1  BNZ d   1       3.424   5.811   3.634  0.00  0.00     0.000 A 
ATOM      2  C2  BNZ d   1       4.790   5.915   3.646  0.00  0.00     0.000 A 
ATOM      3  C3  BNZ d   1       5.475   5.989   4.827  0.00  0.00     0.000 A 
ATOM      4  C4  BNZ d   1       4.793   6.000   5.990  0.00  0.00     0.000 A 
ATOM      5  C5  BNZ d   1       3.416   5.905   5.993  0.00  0.00     0.000 A 
ATOM      6  C6  BNZ d   1       2.732   5.792   4.805  0.00  0.00     0.000 A 
ENDROOT
TORSDOF 0
ENDMDL
