MODEL 1
REMARK minimizedAffinity -2.15572619
REMARK minimizedRMSD -1
REMARK  0 active torsions:
REMARK  status: ('A' for Active; 'I' for Inactive)
ROOT
ATOM      1  C1  BNZ d   1       3.975   5.278   5.270  0.00  0.00     0.000 A 
ATOM      2  C2  BNZ d   1       3.557   4.585   4.165  0.00  0.00     0.000 A 
ATOM      3  C3  BNZ d   1       2.248   4.615   3.773  0.00  0.00     0.000 A 
ATOM      4  C4  BNZ d   1       1.352   5.304   4.509  0.00  0.00     0.000 A 
ATOM      5  C5  BNZ d   1       1.756   6.000   5.631  0.00  0.00     0.000 A 
ATOM      6  C6  BNZ d   1       3.081   5.999   6.000  0.00  0.00     0.000 A 
ENDROOT
TORSDOF 0
ENDMDL
