MODEL 1
REMARK minimizedAffinity 6.94272423
REMARK minimizedRMSD -1
REMARK  0 active torsions:
REMARK  status: ('A' for Active; 'I' for Inactive)
ROOT
ATOM      1  C1  BNZ d   1      -3.631   4.470  -5.535  0.00  0.00     0.000 A 
ATOM      2  C2  BNZ d   1      -4.832   5.062  -5.820  0.00  0.00     0.000 A 
ATOM      3  C3  BNZ d   1      -5.985   4.329  -5.845  0.00  0.00     0.000 A 
ATOM      4  C4  BNZ d   1      -5.931   2.999  -5.624  0.00  0.00     0.000 A 
ATOM      5  C5  BNZ d   1      -4.726   2.386  -5.345  0.00  0.00     0.000 A 
ATOM      6  C6  BNZ d   1      -3.573   3.134  -5.282  0.00  0.00     0.000 A 
ENDROOT
TORSDOF 0
ENDMDL
