MODEL 1
REMARK minimizedAffinity 4.49865866
REMARK minimizedRMSD -1
REMARK  0 active torsions:
REMARK  status: ('A' for Active; 'I' for Inactive)
ROOT
ATOM      1  C1  BNZ d   1       3.766   5.255   3.834  0.00  0.00     0.000 A 
ATOM      2  C2  BNZ d   1       3.776   4.882   5.152  0.00  0.00     0.000 A 
ATOM      3  C3  BNZ d   1       4.882   5.087   5.929  0.00  0.00     0.000 A 
ATOM      4  C4  BNZ d   1       5.989   5.626   5.378  0.00  0.00     0.000 A 
ATOM      5  C5  BNZ d   1       5.998   5.999   4.048  0.00  0.00     0.000 A 
ATOM      6  C6  BNZ d   1       4.870   5.827   3.280  0.00  0.00     0.000 A 
ENDROOT
TORSDOF 0
ENDMDL
