MODEL 1
REMARK minimizedAffinity 9.48498154
REMARK minimizedRMSD -1
REMARK  0 active torsions:
REMARK  status: ('A' for Active; 'I' for Inactive)
ROOT
ATOM      1  C   UNL d   1       5.648  -3.476   5.998  0.00  0.00     0.023 A 
ATOM      2  C1  UNL d   1       5.665  -2.679   4.853  0.00  0.00     0.003 A 
ATOM      3  C2  UNL d   1       5.290  -3.218   3.621  0.00  0.00     0.048 A 
ATOM      4  C3  UNL d   1       4.898  -4.553   3.540  0.00  0.00     0.023 A 
ATOM      5  C4  UNL d   1       4.878  -5.354   4.683  0.00  0.00     0.048 A 
ATOM      6  C5  UNL d   1       5.255  -4.812   5.913  0.00  0.00     0.003 A 
ATOM      7  I   UNL d   1       4.338  -5.357   1.706  0.00  0.00    -0.146 I 
ENDROOT
TORSDOF 0
ENDMDL
