MODEL 1
REMARK minimizedAffinity 5.49882221
REMARK minimizedRMSD -1
REMARK  0 active torsions:
REMARK  status: ('A' for Active; 'I' for Inactive)
ROOT
ATOM      1  C   UNL d   1       0.988   2.103  -5.862  0.00  0.00     0.023 A 
ATOM      2  C1  UNL d   1       0.753   3.477  -5.813  0.00  0.00     0.003 A 
ATOM      3  C2  UNL d   1       1.825   4.372  -5.852  0.00  0.00     0.048 A 
ATOM      4  C3  UNL d   1       3.129   3.885  -5.941  0.00  0.00     0.023 A 
ATOM      5  C4  UNL d   1       3.368   2.511  -5.991  0.00  0.00     0.048 A 
ATOM      6  C5  UNL d   1       2.294   1.621  -5.950  0.00  0.00     0.003 A 
ATOM      7  I   UNL d   1       4.725   5.215  -6.000  0.00  0.00    -0.146 I 
ENDROOT
TORSDOF 0
ENDMDL
