MODEL 1
REMARK minimizedAffinity -0.421985418
REMARK minimizedRMSD -1
REMARK  0 active torsions:
REMARK  status: ('A' for Active; 'I' for Inactive)
ROOT
ATOM      1  C   UNL d   1       4.508  -4.550   6.000  0.00  0.00     0.023 A 
ATOM      2  C1  UNL d   1       4.495  -5.659   5.153  0.00  0.00     0.003 A 
ATOM      3  C2  UNL d   1       4.486  -5.481   3.768  0.00  0.00     0.048 A 
ATOM      4  C3  UNL d   1       4.492  -4.191   3.236  0.00  0.00     0.023 A 
ATOM      5  C4  UNL d   1       4.506  -3.079   4.080  0.00  0.00     0.048 A 
ATOM      6  C5  UNL d   1       4.514  -3.262   5.464  0.00  0.00     0.003 A 
ATOM      7  I   UNL d   1       4.479  -3.924   1.175  0.00  0.00    -0.146 I 
ENDROOT
TORSDOF 0
ENDMDL
