MODEL 1
REMARK minimizedAffinity -1.89634418
REMARK minimizedRMSD -1
REMARK  0 active torsions:
REMARK  status: ('A' for Active; 'I' for Inactive)
ROOT
ATOM      1  C   UNL d   1       1.151   2.369  -5.932  0.00  0.00     0.023 A 
ATOM      2  C1  UNL d   1       0.723   3.696  -5.969  0.00  0.00     0.003 A 
ATOM      3  C2  UNL d   1       1.658   4.733  -5.989  0.00  0.00     0.048 A 
ATOM      4  C3  UNL d   1       3.020   4.436  -5.971  0.00  0.00     0.023 A 
ATOM      5  C4  UNL d   1       3.454   3.109  -5.934  0.00  0.00     0.048 A 
ATOM      6  C5  UNL d   1       2.515   2.076  -5.914  0.00  0.00     0.003 A 
ATOM      7  I   UNL d   1       4.414   5.977  -6.000  0.00  0.00    -0.146 I 
ENDROOT
TORSDOF 0
ENDMDL
