MODEL 1
REMARK minimizedAffinity 3.53850651
REMARK minimizedRMSD -1
REMARK  0 active torsions:
REMARK  status: ('A' for Active; 'I' for Inactive)
ROOT
ATOM      1  C   UNL d   1       5.516  -4.749   5.996  0.00  0.00     0.023 A 
ATOM      2  C1  UNL d   1       5.441  -3.444   5.509  0.00  0.00     0.003 A 
ATOM      3  C2  UNL d   1       5.031  -3.210   4.195  0.00  0.00     0.048 A 
ATOM      4  C3  UNL d   1       4.696  -4.286   3.373  0.00  0.00     0.023 A 
ATOM      5  C4  UNL d   1       4.769  -5.594   3.856  0.00  0.00     0.048 A 
ATOM      6  C5  UNL d   1       5.181  -5.823   5.170  0.00  0.00     0.003 A 
ATOM      7  I   UNL d   1       4.085  -3.940   1.417  0.00  0.00    -0.146 I 
ENDROOT
TORSDOF 0
ENDMDL
