MODEL 1
REMARK minimizedAffinity 8.37409401
REMARK minimizedRMSD -1
REMARK  0 active torsions:
REMARK  status: ('A' for Active; 'I' for Inactive)
ROOT
ATOM      1  C   UNL d   1       3.872   3.978  -5.983  0.00  0.00     0.023 A 
ATOM      2  C1  UNL d   1       3.932   2.584  -5.977  0.00  0.00     0.003 A 
ATOM      3  C2  UNL d   1       2.755   1.834  -5.981  0.00  0.00     0.048 A 
ATOM      4  C3  UNL d   1       1.521   2.483  -5.992  0.00  0.00     0.023 A 
ATOM      5  C4  UNL d   1       1.456   3.877  -5.999  0.00  0.00     0.048 A 
ATOM      6  C5  UNL d   1       2.636   4.624  -5.994  0.00  0.00     0.003 A 
ATOM      7  I   UNL d   1      -0.233   1.368  -5.999  0.00  0.00    -0.146 I 
ENDROOT
TORSDOF 0
ENDMDL
