MODEL 1
REMARK minimizedAffinity 10.2389832
REMARK minimizedRMSD -1
REMARK  1 active torsions:
REMARK  status: ('A' for Active; 'I' for Inactive)
REMARK    1  A    between atoms: C1_2  and  C2_3 
ROOT
ATOM      1  C2  UNL d   1       5.029  -4.807   0.016  0.00  0.00    -0.081 A 
ATOM      2  C3  UNL d   1       5.493  -3.606   0.566  0.00  0.00     0.006 A 
ATOM      3  C4  UNL d   1       4.593  -2.651   1.044  0.00  0.00     0.002 A 
ATOM      4  C5  UNL d   1       3.214  -2.884   0.986  0.00  0.00    -0.080 A 
ATOM      5  C6  UNL d   1       2.238  -1.880   1.523  0.00  0.00     0.076 C 
ATOM      6  C7  UNL d   1       2.750  -4.076   0.421  0.00  0.00     0.002 A 
ATOM      7  C8  UNL d   1       3.650  -5.031  -0.058  0.00  0.00     0.006 A 
ENDROOT
BRANCH   1   8
ATOM      8  C1  UNL d   1       6.000  -5.866  -0.441  0.00  0.00     0.054 C 
ATOM      9  C   UNL d   1       6.000  -6.000  -1.957  0.00  0.00     0.018 C 
ENDBRANCH   1   8
TORSDOF 1
ENDMDL
