MODEL 1
REMARK minimizedAffinity 18.9103546
REMARK minimizedRMSD -1
REMARK  1 active torsions:
REMARK  status: ('A' for Active; 'I' for Inactive)
REMARK    1  A    between atoms: C1_2  and  C2_3 
ROOT
ATOM      1  C2  UNL d   1      -4.871  -0.370  -3.065  0.00  0.00    -0.081 A 
ATOM      2  C3  UNL d   1      -4.351   0.695  -2.320  0.00  0.00     0.006 A 
ATOM      3  C4  UNL d   1      -3.266   0.496  -1.463  0.00  0.00     0.002 A 
ATOM      4  C5  UNL d   1      -2.679  -0.768  -1.343  0.00  0.00    -0.080 A 
ATOM      5  C6  UNL d   1      -1.494  -0.988  -0.449  0.00  0.00     0.076 C 
ATOM      6  C7  UNL d   1      -3.209  -1.836  -2.074  0.00  0.00     0.002 A 
ATOM      7  C8  UNL d   1      -4.295  -1.638  -2.930  0.00  0.00     0.006 A 
ENDROOT
BRANCH   1   8
ATOM      8  C1  UNL d   1      -6.000  -0.146  -4.039  0.00  0.00     0.054 C 
ATOM      9  C   UNL d   1      -5.849   1.184  -4.763  0.00  0.00     0.018 C 
ENDBRANCH   1   8
TORSDOF 1
ENDMDL
