MODEL 1
REMARK minimizedAffinity 4.45148659
REMARK minimizedRMSD -1
REMARK  1 active torsions:
REMARK  status: ('A' for Active; 'I' for Inactive)
REMARK    1  A    between atoms: C1_2  and  C2_3 
ROOT
ATOM      1  C2  UNL d   1      -3.072   0.639  -2.986  0.00  0.00    -0.081 A 
ATOM      2  C3  UNL d   1      -4.153   0.696  -3.874  0.00  0.00     0.006 A 
ATOM      3  C4  UNL d   1      -5.061  -0.363  -3.953  0.00  0.00     0.002 A 
ATOM      4  C5  UNL d   1      -4.909  -1.491  -3.140  0.00  0.00    -0.080 A 
ATOM      5  C6  UNL d   1      -5.894  -2.620  -3.194  0.00  0.00     0.076 C 
ATOM      6  C7  UNL d   1      -3.819  -1.555  -2.265  0.00  0.00     0.002 A 
ATOM      7  C8  UNL d   1      -2.911  -0.498  -2.186  0.00  0.00     0.006 A 
ENDROOT
BRANCH   1   8
ATOM      8  C1  UNL d   1      -2.128   1.806  -2.852  0.00  0.00     0.054 C 
ATOM      9  C   UNL d   1      -2.613   3.006  -3.652  0.00  0.00     0.018 C 
ENDBRANCH   1   8
TORSDOF 1
ENDMDL
