MODEL 1
REMARK minimizedAffinity 2.95306683
REMARK minimizedRMSD -1
REMARK  1 active torsions:
REMARK  status: ('A' for Active; 'I' for Inactive)
REMARK    1  A    between atoms: C1_2  and  C2_3 
ROOT
ATOM      1  C2  UNL d   1       4.738  -3.671   3.318  0.00  0.00    -0.081 A 
ATOM      2  C3  UNL d   1       3.408  -3.313   3.063  0.00  0.00     0.006 A 
ATOM      3  C4  UNL d   1       2.973  -3.094   1.754  0.00  0.00     0.002 A 
ATOM      4  C5  UNL d   1       3.857  -3.235   0.679  0.00  0.00    -0.080 A 
ATOM      5  C6  UNL d   1       3.395  -3.032  -0.734  0.00  0.00     0.076 C 
ATOM      6  C7  UNL d   1       5.189  -3.575   0.935  0.00  0.00     0.002 A 
ATOM      7  C8  UNL d   1       5.625  -3.794   2.243  0.00  0.00     0.006 A 
ENDROOT
BRANCH   1   8
ATOM      8  C1  UNL d   1       5.194  -3.971   4.723  0.00  0.00     0.054 C 
ATOM      9  C   UNL d   1       5.172  -2.722   5.591  0.00  0.00     0.018 C 
ENDBRANCH   1   8
TORSDOF 1
ENDMDL
