MODEL 1
REMARK minimizedAffinity 1.8609041
REMARK minimizedRMSD -1
REMARK  0 active torsions:
REMARK  status: ('A' for Active; 'I' for Inactive)
ROOT
ATOM      1  C   UNL d   1       1.464  -1.127  -1.184  0.00  0.00     0.124 A 
ATOM      2  C1  UNL d   1       0.264  -0.430  -1.135  0.00  0.00     0.062 A 
ATOM      3  C2  UNL d   1      -0.185   0.105   0.068  0.00  0.00     0.162 A 
ATOM      4  C3  UNL d   1       0.565  -0.053   1.233  0.00  0.00    -0.034 A 
ATOM      5  C4  UNL d   1       1.770  -0.756   1.176  0.00  0.00     0.162 A 
ATOM      6  C5  UNL d   1       2.215  -1.289  -0.029  0.00  0.00     0.062 A 
ATOM      7  F   UNL d   1       3.374  -1.962  -0.075  0.00  0.00    -0.097 F 
ATOM      8  F1  UNL d   1       2.517  -0.927   2.277  0.00  0.00    -0.096 F 
ATOM      9  I   UNL d   1      -0.104   0.746   3.035  0.00  0.00    -0.060 I 
ATOM     10  F2  UNL d   1      -1.348   0.774   0.087  0.00  0.00    -0.096 F 
ATOM     11  F3  UNL d   1      -0.464  -0.272  -2.250  0.00  0.00    -0.097 F 
ATOM     12  F4  UNL d   1       1.894  -1.641  -2.344  0.00  0.00    -0.092 F 
ENDROOT
TORSDOF 0
ENDMDL
