MODEL 1
REMARK minimizedAffinity -1.04940486
REMARK minimizedRMSD -1
REMARK  0 active torsions:
REMARK  status: ('A' for Active; 'I' for Inactive)
ROOT
ATOM      1  C   UNL d   1      -0.032  -1.311  -0.817  0.00  0.00     0.124 A 
ATOM      2  C1  UNL d   1      -1.322  -0.989  -0.417  0.00  0.00     0.062 A 
ATOM      3  C2  UNL d   1      -1.528  -0.197   0.708  0.00  0.00     0.162 A 
ATOM      4  C3  UNL d   1      -0.442   0.281   1.442  0.00  0.00    -0.034 A 
ATOM      5  C4  UNL d   1       0.852  -0.048   1.034  0.00  0.00     0.162 A 
ATOM      6  C5  UNL d   1       1.053  -0.841  -0.092  0.00  0.00     0.062 A 
ATOM      7  F   UNL d   1       2.300  -1.151  -0.477  0.00  0.00    -0.097 F 
ATOM      8  F1  UNL d   1       1.919   0.394   1.716  0.00  0.00    -0.096 F 
ATOM      9  I   UNL d   1      -0.746   1.466   3.125  0.00  0.00    -0.060 I 
ATOM     10  F2  UNL d   1      -2.785   0.099   1.072  0.00  0.00    -0.096 F 
ATOM     11  F3  UNL d   1      -2.372  -1.443  -1.116  0.00  0.00    -0.097 F 
ATOM     12  F4  UNL d   1       0.163  -2.075  -1.900  0.00  0.00    -0.092 F 
ENDROOT
TORSDOF 0
ENDMDL
