MODEL 1
REMARK minimizedAffinity 2.13319159
REMARK minimizedRMSD -1
REMARK  0 active torsions:
REMARK  status: ('A' for Active; 'I' for Inactive)
ROOT
ATOM      1  C   UNL d   1      -1.858   0.874   1.419  0.00  0.00     0.124 A 
ATOM      2  C1  UNL d   1      -0.612   0.634   1.982  0.00  0.00     0.062 A 
ATOM      3  C2  UNL d   1       0.402   0.064   1.219  0.00  0.00     0.162 A 
ATOM      4  C3  UNL d   1       0.176  -0.271  -0.117  0.00  0.00    -0.034 A 
ATOM      5  C4  UNL d   1      -1.080  -0.027  -0.675  0.00  0.00     0.162 A 
ATOM      6  C5  UNL d   1      -2.091   0.543   0.092  0.00  0.00     0.062 A 
ATOM      7  F   UNL d   1      -3.294   0.774  -0.454  0.00  0.00    -0.097 F 
ATOM      8  F1  UNL d   1      -1.332  -0.336  -1.956  0.00  0.00    -0.096 F 
ATOM      9  I   UNL d   1       1.690  -1.124  -1.261  0.00  0.00    -0.060 I 
ATOM     10  F2  UNL d   1       1.597  -0.157   1.788  0.00  0.00    -0.096 F 
ATOM     11  F3  UNL d   1      -0.385   0.952   3.264  0.00  0.00    -0.097 F 
ATOM     12  F4  UNL d   1      -2.833   1.422   2.156  0.00  0.00    -0.092 F 
ENDROOT
TORSDOF 0
ENDMDL
