MODEL 1
REMARK minimizedAffinity -2.92387104
REMARK minimizedRMSD -1
REMARK  0 active torsions:
REMARK  status: ('A' for Active; 'I' for Inactive)
ROOT
ATOM      1  C   UNL d   1       1.316   0.432   1.618  0.00  0.00     0.124 A 
ATOM      2  C1  UNL d   1       1.331  -0.548   0.636  0.00  0.00     0.062 A 
ATOM      3  C2  UNL d   1       0.148  -0.933   0.012  0.00  0.00     0.162 A 
ATOM      4  C3  UNL d   1      -1.062  -0.337   0.369  0.00  0.00    -0.034 A 
ATOM      5  C4  UNL d   1      -1.070   0.647   1.359  0.00  0.00     0.162 A 
ATOM      6  C5  UNL d   1       0.116   1.029   1.979  0.00  0.00     0.062 A 
ATOM      7  F   UNL d   1       0.098   1.976   2.928  0.00  0.00    -0.097 F 
ATOM      8  F1  UNL d   1      -2.215   1.241   1.726  0.00  0.00    -0.096 F 
ATOM      9  I   UNL d   1      -2.833  -0.911  -0.561  0.00  0.00    -0.060 I 
ATOM     10  F2  UNL d   1       0.193  -1.883  -0.934  0.00  0.00    -0.096 F 
ATOM     11  F3  UNL d   1       2.489  -1.126   0.286  0.00  0.00    -0.097 F 
ATOM     12  F4  UNL d   1       2.456   0.800   2.217  0.00  0.00    -0.092 F 
ENDROOT
TORSDOF 0
ENDMDL
