MODEL 1
REMARK minimizedAffinity -2.21673489
REMARK minimizedRMSD -1
REMARK  0 active torsions:
REMARK  status: ('A' for Active; 'I' for Inactive)
ROOT
ATOM      1  C   UNL d   1       0.782   0.745   1.995  0.00  0.00     0.124 A 
ATOM      2  C1  UNL d   1       1.541  -0.284   1.454  0.00  0.00     0.062 A 
ATOM      3  C2  UNL d   1       1.315  -0.710   0.149  0.00  0.00     0.162 A 
ATOM      4  C3  UNL d   1       0.324  -0.106  -0.626  0.00  0.00    -0.034 A 
ATOM      5  C4  UNL d   1      -0.436   0.927  -0.076  0.00  0.00     0.162 A 
ATOM      6  C5  UNL d   1      -0.205   1.349   1.230  0.00  0.00     0.062 A 
ATOM      7  F   UNL d   1      -0.940   2.343   1.750  0.00  0.00    -0.097 F 
ATOM      8  F1  UNL d   1      -1.396   1.529  -0.793  0.00  0.00    -0.096 F 
ATOM      9  I   UNL d   1      -0.018  -0.740  -2.579  0.00  0.00    -0.060 I 
ATOM     10  F2  UNL d   1       2.063  -1.706  -0.348  0.00  0.00    -0.096 F 
ATOM     11  F3  UNL d   1       2.495  -0.870   2.192  0.00  0.00    -0.097 F 
ATOM     12  F4  UNL d   1       1.002   1.152   3.252  0.00  0.00    -0.092 F 
ENDROOT
TORSDOF 0
ENDMDL
