MODEL 1
REMARK minimizedAffinity -3.77122998
REMARK minimizedRMSD -1
REMARK  0 active torsions:
REMARK  status: ('A' for Active; 'I' for Inactive)
ROOT
ATOM      1  C   UNL d   1      -0.039  -0.098   2.857  0.00  0.00     0.124 A 
ATOM      2  C1  UNL d   1      -0.997   0.376   1.971  0.00  0.00     0.062 A 
ATOM      3  C2  UNL d   1      -0.777   0.305   0.599  0.00  0.00     0.162 A 
ATOM      4  C3  UNL d   1       0.406  -0.244   0.103  0.00  0.00    -0.034 A 
ATOM      5  C4  UNL d   1       1.365  -0.718   1.000  0.00  0.00     0.162 A 
ATOM      6  C5  UNL d   1       1.140  -0.645   2.371  0.00  0.00     0.062 A 
ATOM      7  F   UNL d   1       2.067  -1.103   3.225  0.00  0.00    -0.097 F 
ATOM      8  F1  UNL d   1       2.513  -1.252   0.557  0.00  0.00    -0.096 F 
ATOM      9  I   UNL d   1       0.738  -0.352  -1.949  0.00  0.00    -0.060 I 
ATOM     10  F2  UNL d   1      -1.720   0.771  -0.234  0.00  0.00    -0.096 F 
ATOM     11  F3  UNL d   1      -2.136   0.905   2.439  0.00  0.00    -0.097 F 
ATOM     12  F4  UNL d   1      -0.253  -0.028   4.177  0.00  0.00    -0.092 F 
ENDROOT
TORSDOF 0
ENDMDL
