MODEL 1
REMARK minimizedAffinity -0.320783406
REMARK minimizedRMSD -1
REMARK  0 active torsions:
REMARK  status: ('A' for Active; 'I' for Inactive)
ROOT
ATOM      1  C   UNL d   1      -0.244   0.252   1.728  0.00  0.00     0.124 A 
ATOM      2  C1  UNL d   1       0.846  -0.376   1.140  0.00  0.00     0.062 A 
ATOM      3  C2  UNL d   1       0.882  -0.572  -0.237  0.00  0.00     0.162 A 
ATOM      4  C3  UNL d   1      -0.175  -0.139  -1.037  0.00  0.00    -0.034 A 
ATOM      5  C4  UNL d   1      -1.268   0.490  -0.439  0.00  0.00     0.162 A 
ATOM      6  C5  UNL d   1      -1.299   0.685   0.938  0.00  0.00     0.062 A 
ATOM      7  F   UNL d   1      -2.353   1.292   1.503  0.00  0.00    -0.097 F 
ATOM      8  F1  UNL d   1      -2.302   0.919  -1.179  0.00  0.00    -0.096 F 
ATOM      9  I   UNL d   1      -0.126  -0.432  -3.097  0.00  0.00    -0.060 I 
ATOM     10  F2  UNL d   1       1.947  -1.182  -0.777  0.00  0.00    -0.096 F 
ATOM     11  F3  UNL d   1       1.867  -0.795   1.902  0.00  0.00    -0.097 F 
ATOM     12  F4  UNL d   1      -0.276   0.440   3.053  0.00  0.00    -0.092 F 
ENDROOT
TORSDOF 0
ENDMDL
