MODEL 1
REMARK minimizedAffinity 3.1161387
REMARK minimizedRMSD -1
REMARK  0 active torsions:
REMARK  status: ('A' for Active; 'I' for Inactive)
ROOT
ATOM      1  C   UNL d   1      -0.433   0.083   2.203  0.00  0.00     0.124 A 
ATOM      2  C1  UNL d   1      -1.471   0.557   1.412  0.00  0.00     0.062 A 
ATOM      3  C2  UNL d   1      -1.374   0.502   0.024  0.00  0.00     0.162 A 
ATOM      4  C3  UNL d   1      -0.236  -0.029  -0.582  0.00  0.00    -0.034 A 
ATOM      5  C4  UNL d   1       0.804  -0.503   0.220  0.00  0.00     0.162 A 
ATOM      6  C5  UNL d   1       0.703  -0.446   1.607  0.00  0.00     0.062 A 
ATOM      7  F   UNL d   1       1.706  -0.904   2.369  0.00  0.00    -0.097 F 
ATOM      8  F1  UNL d   1       1.912  -1.020  -0.329  0.00  0.00    -0.096 F 
ATOM      9  I   UNL d   1      -0.088  -0.113  -2.656  0.00  0.00    -0.060 I 
ATOM     10  F2  UNL d   1      -2.392   0.967  -0.715  0.00  0.00    -0.096 F 
ATOM     11  F3  UNL d   1      -2.569   1.070   1.985  0.00  0.00    -0.097 F 
ATOM     12  F4  UNL d   1      -0.528   0.138   3.538  0.00  0.00    -0.092 F 
ENDROOT
TORSDOF 0
ENDMDL
