MODEL 1
REMARK minimizedAffinity -5.82322359
REMARK minimizedRMSD -1
REMARK  1 active torsions:
REMARK  status: ('A' for Active; 'I' for Inactive)
REMARK    1  A    between atoms: C1_2  and  C2_3 
ROOT
ATOM      1  C2  UNL d   1      -0.019  -0.514   0.098  0.00  0.00    -0.076 A 
ATOM      2  C3  UNL d   1      -0.476   0.156  -1.051  0.00  0.00     0.004 A 
ATOM      3  C4  UNL d   1      -1.824   0.140  -1.402  0.00  0.00    -0.003 A 
ATOM      4  C5  UNL d   1      -2.739  -0.545  -0.610  0.00  0.00     0.000 A 
ATOM      5  C6  UNL d   1      -2.307  -1.200   0.543  0.00  0.00     0.000 A 
ATOM      6  C7  UNL d   1      -0.953  -1.180   0.920  0.00  0.00    -0.073 A 
ATOM      7  C8  UNL d   1      -0.541  -1.908   2.170  0.00  0.00     0.078 C 
ENDROOT
BRANCH   1   8
ATOM      8  C1  UNL d   1       1.459  -0.484   0.414  0.00  0.00     0.053 C 
ATOM      9  C   UNL d   1       2.103   0.849   0.067  0.00  0.00     0.018 C 
ENDBRANCH   1   8
TORSDOF 1
ENDMDL
