MODEL 1
REMARK minimizedAffinity -5.38321543
REMARK minimizedRMSD -1
REMARK  1 active torsions:
REMARK  status: ('A' for Active; 'I' for Inactive)
REMARK    1  A    between atoms: C1_2  and  C2_3 
ROOT
ATOM      1  C2  UNL d   1      -1.128  -0.396  -0.752  0.00  0.00    -0.076 A 
ATOM      2  C3  UNL d   1      -0.604  -1.064   0.368  0.00  0.00     0.004 A 
ATOM      3  C4  UNL d   1       0.684  -0.792   0.827  0.00  0.00    -0.003 A 
ATOM      4  C5  UNL d   1       1.469   0.151   0.172  0.00  0.00     0.000 A 
ATOM      5  C6  UNL d   1       0.958   0.836  -0.930  0.00  0.00     0.000 A 
ATOM      6  C7  UNL d   1      -0.345   0.586  -1.395  0.00  0.00    -0.073 A 
ATOM      7  C8  UNL d   1      -0.843   1.349  -2.592  0.00  0.00     0.078 C 
ENDROOT
BRANCH   1   8
ATOM      8  C1  UNL d   1      -2.522  -0.752  -1.220  0.00  0.00     0.053 C 
ATOM      9  C   UNL d   1      -3.588  -0.397  -0.196  0.00  0.00     0.018 C 
ENDBRANCH   1   8
TORSDOF 1
ENDMDL
