MODEL 1
REMARK minimizedAffinity -3.40397239
REMARK minimizedRMSD -1
REMARK  1 active torsions:
REMARK  status: ('A' for Active; 'I' for Inactive)
REMARK    1  A    between atoms: C1_2  and  C2_3 
ROOT
ATOM      1  C2  UNL d   1      -0.106   0.127  -0.309  0.00  0.00    -0.076 A 
ATOM      2  C3  UNL d   1      -0.579   0.947  -1.348  0.00  0.00     0.004 A 
ATOM      3  C4  UNL d   1      -1.895   0.848  -1.798  0.00  0.00    -0.003 A 
ATOM      4  C5  UNL d   1      -2.759  -0.073  -1.215  0.00  0.00     0.000 A 
ATOM      5  C6  UNL d   1      -2.311  -0.882  -0.171  0.00  0.00     0.000 A 
ATOM      6  C7  UNL d   1      -0.993  -0.783   0.305  0.00  0.00    -0.073 A 
ATOM      7  C8  UNL d   1      -0.562  -1.685   1.429  0.00  0.00     0.078 C 
ENDROOT
BRANCH   1   8
ATOM      8  C1  UNL d   1       1.338   0.260   0.118  0.00  0.00     0.053 C 
ATOM      9  C   UNL d   1       1.592   1.522   0.928  0.00  0.00     0.018 C 
ENDBRANCH   1   8
TORSDOF 1
ENDMDL
