MODEL 1
REMARK minimizedAffinity -2.47806692
REMARK minimizedRMSD -1
REMARK  1 active torsions:
REMARK  status: ('A' for Active; 'I' for Inactive)
REMARK    1  A    between atoms: C1_2  and  C2_3 
ROOT
ATOM      1  C2  UNL d   1       0.123  -0.401  -0.097  0.00  0.00    -0.076 A 
ATOM      2  C3  UNL d   1      -0.419   0.289  -1.195  0.00  0.00     0.004 A 
ATOM      3  C4  UNL d   1      -1.746   0.100  -1.577  0.00  0.00    -0.003 A 
ATOM      4  C5  UNL d   1      -2.553  -0.782  -0.867  0.00  0.00     0.000 A 
ATOM      5  C6  UNL d   1      -2.036  -1.462   0.236  0.00  0.00     0.000 A 
ATOM      6  C7  UNL d   1      -0.705  -1.270   0.644  0.00  0.00    -0.073 A 
ATOM      7  C8  UNL d   1      -0.199  -2.034   1.837  0.00  0.00     0.078 C 
ENDROOT
BRANCH   1   8
ATOM      8  C1  UNL d   1       1.577  -0.175   0.253  0.00  0.00     0.053 C 
ATOM      9  C   UNL d   1       1.884   1.284   0.552  0.00  0.00     0.018 C 
ENDBRANCH   1   8
TORSDOF 1
ENDMDL
