MODEL 1
REMARK minimizedAffinity -2.81202793
REMARK minimizedRMSD -1
REMARK  1 active torsions:
REMARK  status: ('A' for Active; 'I' for Inactive)
REMARK    1  A    between atoms: C1_2  and  C2_3 
ROOT
ATOM      1  C2  UNL d   1      -1.167  -0.939  -0.506  0.00  0.00    -0.076 A 
ATOM      2  C3  UNL d   1      -0.730  -0.055  -1.508  0.00  0.00     0.004 A 
ATOM      3  C4  UNL d   1       0.477   0.631  -1.383  0.00  0.00    -0.003 A 
ATOM      4  C5  UNL d   1       1.267   0.444  -0.254  0.00  0.00     0.000 A 
ATOM      5  C6  UNL d   1       0.857  -0.442   0.742  0.00  0.00     0.000 A 
ATOM      6  C7  UNL d   1      -0.349  -1.154   0.624  0.00  0.00    -0.073 A 
ATOM      7  C8  UNL d   1      -0.744  -2.093   1.731  0.00  0.00     0.078 C 
ENDROOT
BRANCH   1   8
ATOM      8  C1  UNL d   1      -2.497  -1.634  -0.684  0.00  0.00     0.053 C 
ATOM      9  C   UNL d   1      -2.698  -2.155  -2.098  0.00  0.00     0.018 C 
ENDBRANCH   1   8
TORSDOF 1
ENDMDL
