MODEL 1
REMARK minimizedAffinity -4.95223093
REMARK minimizedRMSD -1
REMARK  1 active torsions:
REMARK  status: ('A' for Active; 'I' for Inactive)
REMARK    1  A    between atoms: C1_2  and  C2_3 
ROOT
ATOM      1  C2  UNL d   1      -0.010  -0.190   0.038  0.00  0.00    -0.076 A 
ATOM      2  C3  UNL d   1      -0.383   0.435  -1.165  0.00  0.00     0.004 A 
ATOM      3  C4  UNL d   1      -1.687   0.342  -1.647  0.00  0.00    -0.003 A 
ATOM      4  C5  UNL d   1      -2.640  -0.378  -0.934  0.00  0.00     0.000 A 
ATOM      5  C6  UNL d   1      -2.292  -0.989   0.270  0.00  0.00     0.000 A 
ATOM      6  C7  UNL d   1      -0.986  -0.891   0.779  0.00  0.00    -0.073 A 
ATOM      7  C8  UNL d   1      -0.664  -1.575   2.079  0.00  0.00     0.078 C 
ENDROOT
BRANCH   1   8
ATOM      8  C1  UNL d   1       1.426  -0.077   0.498  0.00  0.00     0.053 C 
ATOM      9  C   UNL d   1       1.902   1.366   0.574  0.00  0.00     0.018 C 
ENDBRANCH   1   8
TORSDOF 1
ENDMDL
