MODEL 1
REMARK minimizedAffinity -4.37584877
REMARK minimizedRMSD -1
REMARK  1 active torsions:
REMARK  status: ('A' for Active; 'I' for Inactive)
REMARK    1  A    between atoms: C1_2  and  C2_3 
ROOT
ATOM      1  C2  UNL d   1      -0.171   0.024   0.284  0.00  0.00    -0.076 A 
ATOM      2  C3  UNL d   1      -0.532   0.546  -0.970  0.00  0.00     0.004 A 
ATOM      3  C4  UNL d   1      -1.754   0.222  -1.558  0.00  0.00    -0.003 A 
ATOM      4  C5  UNL d   1      -2.635  -0.628  -0.900  0.00  0.00     0.000 A 
ATOM      5  C6  UNL d   1      -2.301  -1.141   0.353  0.00  0.00     0.000 A 
ATOM      6  C7  UNL d   1      -1.080  -0.812   0.967  0.00  0.00    -0.073 A 
ATOM      7  C8  UNL d   1      -0.768  -1.399   2.316  0.00  0.00     0.078 C 
ENDROOT
BRANCH   1   8
ATOM      8  C1  UNL d   1       1.179   0.389   0.859  0.00  0.00     0.053 C 
ATOM      9  C   UNL d   1       1.220   1.812   1.393  0.00  0.00     0.018 C 
ENDBRANCH   1   8
TORSDOF 1
ENDMDL
