MODEL 1
REMARK minimizedAffinity -5.73868799
REMARK minimizedRMSD -1
REMARK  1 active torsions:
REMARK  status: ('A' for Active; 'I' for Inactive)
REMARK    1  A    between atoms: C1_2  and  C2_3 
ROOT
ATOM      1  C2  UNL d   1      -0.063  -0.294   0.488  0.00  0.00    -0.076 A 
ATOM      2  C3  UNL d   1      -0.755  -0.928   1.534  0.00  0.00     0.004 A 
ATOM      3  C4  UNL d   1      -2.088  -1.307   1.387  0.00  0.00    -0.003 A 
ATOM      4  C5  UNL d   1      -2.750  -1.059   0.189  0.00  0.00     0.000 A 
ATOM      5  C6  UNL d   1      -2.074  -0.447  -0.865  0.00  0.00     0.000 A 
ATOM      6  C7  UNL d   1      -0.725  -0.073  -0.738  0.00  0.00    -0.073 A 
ATOM      7  C8  UNL d   1      -0.047   0.589  -1.906  0.00  0.00     0.078 C 
ENDROOT
BRANCH   1   8
ATOM      8  C1  UNL d   1       1.374   0.119   0.716  0.00  0.00     0.053 C 
ATOM      9  C   UNL d   1       1.490   1.481   1.383  0.00  0.00     0.018 C 
ENDBRANCH   1   8
TORSDOF 1
ENDMDL
