MODEL 1
REMARK minimizedAffinity -2.00783873
REMARK minimizedRMSD -1
REMARK  1 active torsions:
REMARK  status: ('A' for Active; 'I' for Inactive)
REMARK    1  A    between atoms: C1_2  and  C2_3 
ROOT
ATOM      1  C2  UNL d   1       2.199   1.380   0.535  0.00  0.00    -0.076 A 
ATOM      2  C3  UNL d   1       1.752   1.601   1.849  0.00  0.00     0.004 A 
ATOM      3  C4  UNL d   1       2.304   2.611   2.634  0.00  0.00    -0.003 A 
ATOM      4  C5  UNL d   1       3.313   3.417   2.118  0.00  0.00     0.000 A 
ATOM      5  C6  UNL d   1       3.757   3.223   0.811  0.00  0.00     0.000 A 
ATOM      6  C7  UNL d   1       3.199   2.220  -0.000  0.00  0.00    -0.073 A 
ATOM      7  C8  UNL d   1       3.720   2.051  -1.401  0.00  0.00     0.078 C 
ENDROOT
BRANCH   1   8
ATOM      8  C1  UNL d   1       1.582   0.252  -0.260  0.00  0.00     0.053 C 
ATOM      9  C   UNL d   1       0.072   0.179  -0.092  0.00  0.00     0.018 C 
ENDBRANCH   1   8
TORSDOF 1
ENDMDL
