MODEL 1
REMARK minimizedAffinity -1.95763576
REMARK minimizedRMSD -1
REMARK  0 active torsions:
REMARK  status: ('A' for Active; 'I' for Inactive)
ROOT
ATOM      1  C2' OXE d   1       1.725  -1.104  -0.290  0.00  0.00     0.078 C 
ATOM      2  C1' OXE d   1       0.045   1.144  -0.246  0.00  0.00     0.078 C 
ATOM      3  C1  OXE d   1      -0.383  -0.069   0.541  0.00  0.00    -0.078 A 
ATOM      4  C2  OXE d   1       0.422  -1.181   0.476  0.00  0.00    -0.078 A 
ATOM      5  C3  OXE d   1       0.102  -2.309   1.227  0.00  0.00     0.003 A 
ATOM      6  C4  OXE d   1      -1.110  -2.375   1.924  0.00  0.00    -0.002 A 
ATOM      7  C5  OXE d   1      -1.964  -1.268   1.971  0.00  0.00    -0.002 A 
ATOM      8  C6  OXE d   1      -1.595  -0.095   1.321  0.00  0.00     0.003 A 
ENDROOT
TORSDOF 0
ENDMDL
