MODEL 1
REMARK minimizedAffinity -5.7907548
REMARK minimizedRMSD -1
REMARK  0 active torsions:
REMARK  status: ('A' for Active; 'I' for Inactive)
ROOT
ATOM      1  C2' OXE d   1       1.062  -1.163   0.058  0.00  0.00     0.078 C 
ATOM      2  C1' OXE d   1      -0.271   1.298   0.277  0.00  0.00     0.078 C 
ATOM      3  C1  OXE d   1      -0.950   0.077   0.845  0.00  0.00    -0.078 A 
ATOM      4  C2  OXE d   1      -0.312  -1.130   0.692  0.00  0.00    -0.078 A 
ATOM      5  C3  OXE d   1      -0.868  -2.280   1.246  0.00  0.00     0.003 A 
ATOM      6  C4  OXE d   1      -2.144  -2.243   1.822  0.00  0.00    -0.002 A 
ATOM      7  C5  OXE d   1      -2.829  -1.030   1.953  0.00  0.00    -0.002 A 
ATOM      8  C6  OXE d   1      -2.229   0.143   1.509  0.00  0.00     0.003 A 
ENDROOT
TORSDOF 0
ENDMDL
