MODEL 1
REMARK minimizedAffinity -3.07566142
REMARK minimizedRMSD -1
REMARK  0 active torsions:
REMARK  status: ('A' for Active; 'I' for Inactive)
ROOT
ATOM      1  C2' OXE d   1       0.698  -1.525   0.301  0.00  0.00     0.078 C 
ATOM      2  C1' OXE d   1      -0.202   1.115  -0.018  0.00  0.00     0.078 C 
ATOM      3  C1  OXE d   1      -1.015   0.195   0.859  0.00  0.00    -0.078 A 
ATOM      4  C2  OXE d   1      -0.593  -1.108   0.972  0.00  0.00    -0.078 A 
ATOM      5  C3  OXE d   1      -1.276  -1.983   1.811  0.00  0.00     0.003 A 
ATOM      6  C4  OXE d   1      -2.474  -1.592   2.420  0.00  0.00    -0.002 A 
ATOM      7  C5  OXE d   1      -2.943  -0.281   2.286  0.00  0.00    -0.002 A 
ATOM      8  C6  OXE d   1      -2.205   0.635   1.545  0.00  0.00     0.003 A 
ENDROOT
TORSDOF 0
ENDMDL
