MODEL 1
REMARK minimizedAffinity -5.63669395
REMARK minimizedRMSD -1
REMARK  0 active torsions:
REMARK  status: ('A' for Active; 'I' for Inactive)
ROOT
ATOM      1  C2' OXE d   1      -2.364  -2.835   1.476  0.00  0.00     0.078 C 
ATOM      2  C1' OXE d   1      -2.998  -0.112   1.225  0.00  0.00     0.078 C 
ATOM      3  C1  OXE d   1      -1.595  -0.543   0.876  0.00  0.00    -0.078 A 
ATOM      4  C2  OXE d   1      -1.281  -1.870   1.046  0.00  0.00    -0.078 A 
ATOM      5  C3  OXE d   1      -0.017  -2.330   0.687  0.00  0.00     0.003 A 
ATOM      6  C4  OXE d   1       0.982  -1.428   0.300  0.00  0.00    -0.002 A 
ATOM      7  C5  OXE d   1       0.694  -0.067   0.158  0.00  0.00    -0.002 A 
ATOM      8  C6  OXE d   1      -0.599   0.385   0.400  0.00  0.00     0.003 A 
ENDROOT
TORSDOF 0
ENDMDL
