MODEL 1
REMARK minimizedAffinity -0.762097061
REMARK minimizedRMSD -1
REMARK  0 active torsions:
REMARK  status: ('A' for Active; 'I' for Inactive)
ROOT
ATOM      1  C2' OXE d   1      -1.682  -2.889   1.272  0.00  0.00     0.078 C 
ATOM      2  C1' OXE d   1       1.057  -3.003   0.665  0.00  0.00     0.078 C 
ATOM      3  C1  OXE d   1       0.389  -1.650   0.653  0.00  0.00    -0.078 A 
ATOM      4  C2  OXE d   1      -0.961  -1.610   0.906  0.00  0.00    -0.078 A 
ATOM      5  C3  OXE d   1      -1.616  -0.382   0.961  0.00  0.00     0.003 A 
ATOM      6  C4  OXE d   1      -0.944   0.795   0.611  0.00  0.00    -0.002 A 
ATOM      7  C5  OXE d   1       0.422   0.771   0.312  0.00  0.00    -0.002 A 
ATOM      8  C6  OXE d   1       1.111  -0.435   0.370  0.00  0.00     0.003 A 
ENDROOT
TORSDOF 0
ENDMDL
