MODEL 1
REMARK minimizedAffinity -2.97135067
REMARK minimizedRMSD -1
REMARK  0 active torsions:
REMARK  status: ('A' for Active; 'I' for Inactive)
ROOT
ATOM      1  C2' OXE d   1      -3.234   0.183   0.857  0.00  0.00     0.078 C 
ATOM      2  C1' OXE d   1      -1.898  -2.284   0.957  0.00  0.00     0.078 C 
ATOM      3  C1  OXE d   1      -1.071  -1.046   0.721  0.00  0.00    -0.078 A 
ATOM      4  C2  OXE d   1      -1.738   0.152   0.626  0.00  0.00    -0.078 A 
ATOM      5  C3  OXE d   1      -1.017   1.331   0.464  0.00  0.00     0.003 A 
ATOM      6  C4  OXE d   1       0.365   1.293   0.242  0.00  0.00    -0.002 A 
ATOM      7  C5  OXE d   1       1.059   0.079   0.294  0.00  0.00    -0.002 A 
ATOM      8  C6  OXE d   1       0.363  -1.092   0.574  0.00  0.00     0.003 A 
ENDROOT
TORSDOF 0
ENDMDL
