MODEL 1
REMARK minimizedAffinity -2.21715856
REMARK minimizedRMSD -1
REMARK  0 active torsions:
REMARK  status: ('A' for Active; 'I' for Inactive)
ROOT
ATOM      1  C2' OXE d   1       1.294  -1.426   0.152  0.00  0.00     0.078 C 
ATOM      2  C1' OXE d   1      -0.179   0.955  -0.050  0.00  0.00     0.078 C 
ATOM      3  C1  OXE d   1      -0.818  -0.208   0.667  0.00  0.00    -0.078 A 
ATOM      4  C2  OXE d   1      -0.108  -1.384   0.720  0.00  0.00    -0.078 A 
ATOM      5  C3  OXE d   1      -0.628  -2.472   1.416  0.00  0.00     0.003 A 
ATOM      6  C4  OXE d   1      -1.930  -2.428   1.929  0.00  0.00    -0.002 A 
ATOM      7  C5  OXE d   1      -2.685  -1.253   1.851  0.00  0.00    -0.002 A 
ATOM      8  C6  OXE d   1      -2.128  -0.123   1.262  0.00  0.00     0.003 A 
ENDROOT
TORSDOF 0
ENDMDL
