MODEL 1
REMARK minimizedAffinity -5.69294167
REMARK minimizedRMSD -1
REMARK  0 active torsions:
REMARK  status: ('A' for Active; 'I' for Inactive)
ROOT
ATOM      1  C2' OXE d   1       2.262  -1.596   0.114  0.00  0.00     0.078 C 
ATOM      2  C1' OXE d   1       0.975   0.873  -0.244  0.00  0.00     0.078 C 
ATOM      3  C1  OXE d   1       0.148  -0.286   0.253  0.00  0.00    -0.078 A 
ATOM      4  C2  OXE d   1       0.776  -1.502   0.380  0.00  0.00    -0.078 A 
ATOM      5  C3  OXE d   1       0.072  -2.591   0.886  0.00  0.00     0.003 A 
ATOM      6  C4  OXE d   1      -1.305  -2.499   1.120  0.00  0.00    -0.002 A 
ATOM      7  C5  OXE d   1      -1.973  -1.280   0.959  0.00  0.00    -0.002 A 
ATOM      8  C6  OXE d   1      -1.253  -0.156   0.568  0.00  0.00     0.003 A 
ENDROOT
TORSDOF 0
ENDMDL
