MODEL 1
REMARK minimizedAffinity -2.51494813
REMARK minimizedRMSD -1
REMARK  0 active torsions:
REMARK  status: ('A' for Active; 'I' for Inactive)
ROOT
ATOM      1  C2' OXE d   1       0.208   1.175  -0.073  0.00  0.00     0.078 C 
ATOM      2  C1' OXE d   1      -2.156   1.112   1.440  0.00  0.00     0.078 C 
ATOM      3  C1  OXE d   1      -1.311  -0.137   1.402  0.00  0.00    -0.078 A 
ATOM      4  C2  OXE d   1      -0.180  -0.112   0.622  0.00  0.00    -0.078 A 
ATOM      5  C3  OXE d   1       0.664  -1.219   0.595  0.00  0.00     0.003 A 
ATOM      6  C4  OXE d   1       0.292  -2.409   1.232  0.00  0.00    -0.002 A 
ATOM      7  C5  OXE d   1      -0.875  -2.468   2.000  0.00  0.00    -0.002 A 
ATOM      8  C6  OXE d   1      -1.664  -1.331   2.130  0.00  0.00     0.003 A 
ENDROOT
TORSDOF 0
ENDMDL
