MODEL 1
REMARK minimizedAffinity -5.2458272
REMARK minimizedRMSD -1
REMARK  0 active torsions:
REMARK  status: ('A' for Active; 'I' for Inactive)
ROOT
ATOM      1  C2' OXE d   1       1.302  -2.463   0.394  0.00  0.00     0.078 C 
ATOM      2  C1' OXE d   1      -1.493  -2.679   0.532  0.00  0.00     0.078 C 
ATOM      3  C1  OXE d   1      -0.895  -1.295   0.508  0.00  0.00    -0.078 A 
ATOM      4  C2  OXE d   1       0.475  -1.198   0.488  0.00  0.00    -0.078 A 
ATOM      5  C3  OXE d   1       1.078   0.054   0.410  0.00  0.00     0.003 A 
ATOM      6  C4  OXE d   1       0.306   1.219   0.508  0.00  0.00    -0.002 A 
ATOM      7  C5  OXE d   1      -1.089   1.143   0.569  0.00  0.00    -0.002 A 
ATOM      8  C6  OXE d   1      -1.706  -0.103   0.527  0.00  0.00     0.003 A 
ENDROOT
TORSDOF 0
ENDMDL
