MODEL 1
REMARK minimizedAffinity -1.65901411
REMARK minimizedRMSD -1
REMARK  0 active torsions:
REMARK  status: ('A' for Active; 'I' for Inactive)
ROOT
ATOM      1  C2' OXE d   1       1.526  -0.864   0.571  0.00  0.00     0.078 C 
ATOM      2  C1' OXE d   1      -0.435   1.075   0.048  0.00  0.00     0.078 C 
ATOM      3  C1  OXE d   1      -0.877  -0.363   0.145  0.00  0.00    -0.078 A 
ATOM      4  C2  OXE d   1       0.096  -1.311   0.355  0.00  0.00    -0.078 A 
ATOM      5  C3  OXE d   1      -0.264  -2.647   0.507  0.00  0.00     0.003 A 
ATOM      6  C4  OXE d   1      -1.587  -3.053   0.295  0.00  0.00    -0.002 A 
ATOM      7  C5  OXE d   1      -2.587  -2.109   0.041  0.00  0.00    -0.002 A 
ATOM      8  C6  OXE d   1      -2.257  -0.758   0.005  0.00  0.00     0.003 A 
ENDROOT
TORSDOF 0
ENDMDL
