MODEL 1
REMARK minimizedAffinity -5.22064066
REMARK minimizedRMSD -1
REMARK  0 active torsions:
REMARK  status: ('A' for Active; 'I' for Inactive)
ROOT
ATOM      1  C2' OXE d   1      -0.082   0.205  -0.107  0.00  0.00     0.078 C 
ATOM      2  C1' OXE d   1      -2.289   1.427   1.125  0.00  0.00     0.078 C 
ATOM      3  C1  OXE d   1      -2.141  -0.067   1.269  0.00  0.00    -0.078 A 
ATOM      4  C2  OXE d   1      -1.084  -0.663   0.624  0.00  0.00    -0.078 A 
ATOM      5  C3  OXE d   1      -0.871  -2.031   0.769  0.00  0.00     0.003 A 
ATOM      6  C4  OXE d   1      -1.808  -2.827   1.439  0.00  0.00    -0.002 A 
ATOM      7  C5  OXE d   1      -2.913  -2.246   2.069  0.00  0.00    -0.002 A 
ATOM      8  C6  OXE d   1      -3.071  -0.865   2.030  0.00  0.00     0.003 A 
ENDROOT
TORSDOF 0
ENDMDL
