MODEL 1
REMARK minimizedAffinity -2.36325002
REMARK minimizedRMSD -1
REMARK  0 active torsions:
REMARK  status: ('A' for Active; 'I' for Inactive)
ROOT
ATOM      1  C2' OXE d   1      -0.604  -2.434   1.070  0.00  0.00     0.078 C 
ATOM      2  C1' OXE d   1       2.048  -1.809   0.394  0.00  0.00     0.078 C 
ATOM      3  C1  OXE d   1       0.998  -0.748   0.178  0.00  0.00    -0.078 A 
ATOM      4  C2  OXE d   1      -0.304  -1.079   0.468  0.00  0.00    -0.078 A 
ATOM      5  C3  OXE d   1      -1.304  -0.119   0.338  0.00  0.00     0.003 A 
ATOM      6  C4  OXE d   1      -1.019   1.129  -0.229  0.00  0.00    -0.002 A 
ATOM      7  C5  OXE d   1       0.294   1.472  -0.567  0.00  0.00    -0.002 A 
ATOM      8  C6  OXE d   1       1.318   0.563  -0.331  0.00  0.00     0.003 A 
ENDROOT
TORSDOF 0
ENDMDL
