MODEL 1
REMARK minimizedAffinity -3.4037106
REMARK minimizedRMSD -1
REMARK  0 active torsions:
REMARK  status: ('A' for Active; 'I' for Inactive)
ROOT
ATOM      1  C2' OXE d   1       1.771  -1.582   0.077  0.00  0.00     0.078 C 
ATOM      2  C1' OXE d   1       0.219   0.711  -0.387  0.00  0.00     0.078 C 
ATOM      3  C1  OXE d   1      -0.453  -0.474   0.260  0.00  0.00    -0.078 A 
ATOM      4  C2  OXE d   1       0.302  -1.608   0.441  0.00  0.00    -0.078 A 
ATOM      5  C3  OXE d   1      -0.253  -2.711   1.083  0.00  0.00     0.003 A 
ATOM      6  C4  OXE d   1      -1.615  -2.731   1.407  0.00  0.00    -0.002 A 
ATOM      7  C5  OXE d   1      -2.412  -1.601   1.195  0.00  0.00    -0.002 A 
ATOM      8  C6  OXE d   1      -1.837  -0.452   0.663  0.00  0.00     0.003 A 
ENDROOT
TORSDOF 0
ENDMDL
