MODEL 1
REMARK minimizedAffinity 0.374113202
REMARK minimizedRMSD -1
REMARK  0 active torsions:
REMARK  status: ('A' for Active; 'I' for Inactive)
ROOT
ATOM      1  C2' OXE d   1       0.080   1.453  -0.460  0.00  0.00     0.078 C 
ATOM      2  C1' OXE d   1      -2.259   0.641   0.863  0.00  0.00     0.078 C 
ATOM      3  C1  OXE d   1      -1.142  -0.363   0.729  0.00  0.00    -0.078 A 
ATOM      4  C2  OXE d   1      -0.019   0.028   0.039  0.00  0.00    -0.078 A 
ATOM      5  C3  OXE d   1       1.063  -0.842  -0.065  0.00  0.00     0.003 A 
ATOM      6  C4  OXE d   1       0.959  -2.161   0.391  0.00  0.00    -0.002 A 
ATOM      7  C5  OXE d   1      -0.191  -2.592   1.061  0.00  0.00    -0.002 A 
ATOM      8  C6  OXE d   1      -1.231  -1.695   1.276  0.00  0.00     0.003 A 
ENDROOT
TORSDOF 0
ENDMDL
