MODEL 1
REMARK minimizedAffinity -4.93040419
REMARK minimizedRMSD -1
REMARK  0 active torsions:
REMARK  status: ('A' for Active; 'I' for Inactive)
ROOT
ATOM      1  C2' OXE d   1       2.090  -1.220   0.703  0.00  0.00     0.078 C 
ATOM      2  C1' OXE d   1       0.498   0.478  -0.867  0.00  0.00     0.078 C 
ATOM      3  C1  OXE d   1      -0.186  -0.645  -0.129  0.00  0.00    -0.078 A 
ATOM      4  C2  OXE d   1       0.606  -1.499   0.599  0.00  0.00    -0.078 A 
ATOM      5  C3  OXE d   1       0.020  -2.519   1.343  0.00  0.00     0.003 A 
ATOM      6  C4  OXE d   1      -1.352  -2.776   1.234  0.00  0.00    -0.002 A 
ATOM      7  C5  OXE d   1      -2.172  -1.943   0.466  0.00  0.00    -0.002 A 
ATOM      8  C6  OXE d   1      -1.613  -0.850  -0.186  0.00  0.00     0.003 A 
ENDROOT
TORSDOF 0
ENDMDL
