MODEL 1
REMARK minimizedAffinity -5.02246571
REMARK minimizedRMSD -1
REMARK  0 active torsions:
REMARK  status: ('A' for Active; 'I' for Inactive)
ROOT
ATOM      1  C2' OXE d   1       1.823  -1.440   0.404  0.00  0.00     0.078 C 
ATOM      2  C1' OXE d   1       0.321   0.776  -0.438  0.00  0.00     0.078 C 
ATOM      3  C1  OXE d   1      -0.428  -0.421   0.092  0.00  0.00    -0.078 A 
ATOM      4  C2  OXE d   1       0.313  -1.519   0.458  0.00  0.00    -0.078 A 
ATOM      5  C3  OXE d   1      -0.324  -2.629   1.005  0.00  0.00     0.003 A 
ATOM      6  C4  OXE d   1      -1.722  -2.697   1.042  0.00  0.00    -0.002 A 
ATOM      7  C5  OXE d   1      -2.497  -1.605   0.637  0.00  0.00    -0.002 A 
ATOM      8  C6  OXE d   1      -1.866  -0.446   0.200  0.00  0.00     0.003 A 
ENDROOT
TORSDOF 0
ENDMDL
