MODEL 1
REMARK minimizedAffinity -3.15966439
REMARK minimizedRMSD -1
REMARK  1 active torsions:
REMARK  status: ('A' for Active; 'I' for Inactive)
REMARK    1  A    between atoms: C1_2  and  C2_3 
ROOT
ATOM      1  C2  UNL d   1       0.054  -0.336  -0.577  0.00  0.00    -0.076 A 
ATOM      2  C3  UNL d   1      -0.934   0.592  -0.205  0.00  0.00     0.004 A 
ATOM      3  C4  UNL d   1      -0.932   1.174   1.061  0.00  0.00    -0.003 A 
ATOM      4  C5  UNL d   1       0.059   0.838   1.977  0.00  0.00     0.000 A 
ATOM      5  C6  UNL d   1       1.057  -0.068   1.619  0.00  0.00     0.000 A 
ATOM      6  C7  UNL d   1       1.079  -0.651   0.341  0.00  0.00    -0.073 A 
ATOM      7  C8  UNL d   1       2.176  -1.626   0.011  0.00  0.00     0.078 C 
ENDROOT
BRANCH   1   8
ATOM      8  C1  UNL d   1      -0.015  -0.955  -1.954  0.00  0.00     0.053 C 
ATOM      9  C   UNL d   1       0.652  -0.092  -3.015  0.00  0.00     0.018 C 
ENDBRANCH   1   8
TORSDOF 1
ENDMDL
