MODEL 1
REMARK minimizedAffinity -0.0529273599
REMARK minimizedRMSD -1
REMARK  1 active torsions:
REMARK  status: ('A' for Active; 'I' for Inactive)
REMARK    1  A    between atoms: C1_2  and  C2_3 
ROOT
ATOM      1  C2  UNL d   1       0.804  -0.019   0.168  0.00  0.00    -0.076 A 
ATOM      2  C3  UNL d   1      -0.069   0.914   0.754  0.00  0.00     0.004 A 
ATOM      3  C4  UNL d   1       0.136   1.371   2.054  0.00  0.00    -0.003 A 
ATOM      4  C5  UNL d   1       1.219   0.903   2.790  0.00  0.00     0.000 A 
ATOM      5  C6  UNL d   1       2.105  -0.010   2.219  0.00  0.00     0.000 A 
ATOM      6  C7  UNL d   1       1.921  -0.468   0.903  0.00  0.00    -0.073 A 
ATOM      7  C8  UNL d   1       2.905  -1.457   0.340  0.00  0.00     0.078 C 
ENDROOT
BRANCH   1   8
ATOM      8  C1  UNL d   1       0.515  -0.499  -1.236  0.00  0.00     0.053 C 
ATOM      9  C   UNL d   1       0.710   0.593  -2.277  0.00  0.00     0.018 C 
ENDBRANCH   1   8
TORSDOF 1
ENDMDL
