MODEL 1
REMARK minimizedAffinity -0.723766267
REMARK minimizedRMSD -1
REMARK  1 active torsions:
REMARK  status: ('A' for Active; 'I' for Inactive)
REMARK    1  A    between atoms: C1_2  and  C2_3 
ROOT
ATOM      1  C2  UNL d   1       0.766  -0.309  -2.837  0.00  0.00    -0.076 A 
ATOM      2  C3  UNL d   1      -0.316  -0.983  -3.430  0.00  0.00     0.004 A 
ATOM      3  C4  UNL d   1      -0.712  -0.695  -4.735  0.00  0.00    -0.003 A 
ATOM      4  C5  UNL d   1      -0.032   0.271  -5.468  0.00  0.00     0.000 A 
ATOM      5  C6  UNL d   1       1.055   0.937  -4.902  0.00  0.00     0.000 A 
ATOM      6  C7  UNL d   1       1.477   0.647  -3.593  0.00  0.00    -0.073 A 
ATOM      7  C8  UNL d   1       2.651   1.400  -3.030  0.00  0.00     0.078 C 
ENDROOT
BRANCH   1   8
ATOM      8  C1  UNL d   1       1.133  -0.644  -1.409  0.00  0.00     0.053 C 
ATOM      9  C   UNL d   1       0.429   0.252  -0.401  0.00  0.00     0.018 C 
ENDBRANCH   1   8
TORSDOF 1
ENDMDL
