MODEL 1
REMARK minimizedAffinity -0.111906245
REMARK minimizedRMSD -1
REMARK  1 active torsions:
REMARK  status: ('A' for Active; 'I' for Inactive)
REMARK    1  A    between atoms: C1_2  and  C2_3 
ROOT
ATOM      1  C2  UNL d   1      -0.317   0.061   0.259  0.00  0.00    -0.076 A 
ATOM      2  C3  UNL d   1       0.982   0.104   0.796  0.00  0.00     0.004 A 
ATOM      3  C4  UNL d   1       1.223   0.672   2.046  0.00  0.00    -0.003 A 
ATOM      4  C5  UNL d   1       0.169   1.205   2.780  0.00  0.00     0.000 A 
ATOM      5  C6  UNL d   1      -1.128   1.156   2.270  0.00  0.00     0.000 A 
ATOM      6  C7  UNL d   1      -1.391   0.572   1.019  0.00  0.00    -0.073 A 
ATOM      7  C8  UNL d   1      -2.808   0.551   0.515  0.00  0.00     0.078 C 
ENDROOT
BRANCH   1   8
ATOM      8  C1  UNL d   1      -0.513  -0.543  -1.113  0.00  0.00     0.053 C 
ATOM      9  C   UNL d   1       0.065   0.325  -2.220  0.00  0.00     0.018 C 
ENDBRANCH   1   8
TORSDOF 1
ENDMDL
