MODEL 1
REMARK minimizedAffinity -1.18030107
REMARK minimizedRMSD -1
REMARK  1 active torsions:
REMARK  status: ('A' for Active; 'I' for Inactive)
REMARK    1  A    between atoms: C1_2  and  C2_3 
ROOT
ATOM      1  C2  UNL d   1       0.333   0.095   0.663  0.00  0.00    -0.076 A 
ATOM      2  C3  UNL d   1       0.826   1.086   1.529  0.00  0.00     0.004 A 
ATOM      3  C4  UNL d   1       0.021   1.634   2.526  0.00  0.00    -0.003 A 
ATOM      4  C5  UNL d   1      -1.292   1.199   2.673  0.00  0.00     0.000 A 
ATOM      5  C6  UNL d   1      -1.792   0.203   1.835  0.00  0.00     0.000 A 
ATOM      6  C7  UNL d   1      -0.988  -0.371   0.836  0.00  0.00    -0.073 A 
ATOM      7  C8  UNL d   1      -1.581  -1.437  -0.044  0.00  0.00     0.078 C 
ENDROOT
BRANCH   1   8
ATOM      8  C1  UNL d   1       1.245  -0.443  -0.417  0.00  0.00     0.053 C 
ATOM      9  C   UNL d   1       1.171   0.370  -1.700  0.00  0.00     0.018 C 
ENDBRANCH   1   8
TORSDOF 1
ENDMDL
