MODEL 1
REMARK minimizedAffinity -4.55968332
REMARK minimizedRMSD -1
REMARK  1 active torsions:
REMARK  status: ('A' for Active; 'I' for Inactive)
REMARK    1  A    between atoms: C1_2  and  C2_3 
ROOT
ATOM      1  C2  UNL d   1       1.205   0.128  -4.171  0.00  0.00    -0.076 A 
ATOM      2  C3  UNL d   1       0.904   0.107  -5.544  0.00  0.00     0.004 A 
ATOM      3  C4  UNL d   1      -0.365  -0.250  -5.995  0.00  0.00    -0.003 A 
ATOM      4  C5  UNL d   1      -1.356  -0.590  -5.080  0.00  0.00     0.000 A 
ATOM      5  C6  UNL d   1      -1.080  -0.557  -3.713  0.00  0.00     0.000 A 
ATOM      6  C7  UNL d   1       0.191  -0.184  -3.241  0.00  0.00    -0.073 A 
ATOM      7  C8  UNL d   1       0.435  -0.172  -1.757  0.00  0.00     0.078 C 
ENDROOT
BRANCH   1   8
ATOM      8  C1  UNL d   1       2.608   0.496  -3.743  0.00  0.00     0.053 C 
ATOM      9  C   UNL d   1       3.573  -0.675  -3.839  0.00  0.00     0.018 C 
ENDBRANCH   1   8
TORSDOF 1
ENDMDL
