MODEL 1
REMARK minimizedAffinity -1.76356053
REMARK minimizedRMSD -1
REMARK  1 active torsions:
REMARK  status: ('A' for Active; 'I' for Inactive)
REMARK    1  A    between atoms: C1_2  and  C2_3 
ROOT
ATOM      1  C2  UNL d   1       0.324   0.065   0.024  0.00  0.00    -0.076 A 
ATOM      2  C3  UNL d   1      -0.671   0.953   0.470  0.00  0.00     0.004 A 
ATOM      3  C4  UNL d   1      -0.599   1.535   1.734  0.00  0.00    -0.003 A 
ATOM      4  C5  UNL d   1       0.469   1.238   2.574  0.00  0.00     0.000 A 
ATOM      5  C6  UNL d   1       1.473   0.373   2.142  0.00  0.00     0.000 A 
ATOM      6  C7  UNL d   1       1.425  -0.209   0.864  0.00  0.00    -0.073 A 
ATOM      7  C8  UNL d   1       2.532  -1.139   0.452  0.00  0.00     0.078 C 
ENDROOT
BRANCH   1   8
ATOM      8  C1  UNL d   1       0.179  -0.556  -1.346  0.00  0.00     0.053 C 
ATOM      9  C   UNL d   1       0.650   0.369  -2.458  0.00  0.00     0.018 C 
ENDBRANCH   1   8
TORSDOF 1
ENDMDL
