MODEL 1
REMARK minimizedAffinity 6.84730387
REMARK minimizedRMSD -1
REMARK  1 active torsions:
REMARK  status: ('A' for Active; 'I' for Inactive)
REMARK    1  A    between atoms: C3_4  and  O_7 
ROOT
ATOM      1  C   UNL d   1      -3.489  -3.195  -5.219  0.00  0.00    -0.033 A 
ATOM      2  C1  UNL d   1      -2.943  -1.914  -5.108  0.00  0.00     0.039 A 
ATOM      3  C2  UNL d   1      -1.832  -1.695  -4.291  0.00  0.00    -0.080 A 
ATOM      4  C3  UNL d   1      -1.276  -2.764  -3.593  0.00  0.00     0.150 A 
ATOM      5  C4  UNL d   1      -1.812  -4.043  -3.702  0.00  0.00    -0.007 A 
ATOM      6  C5  UNL d   1      -2.922  -4.259  -4.517  0.00  0.00     0.039 A 
ENDROOT
BRANCH   4   7
ATOM      7  O   UNL d   1      -0.195  -2.598  -2.780  0.00  0.00    -0.526 OA
ATOM      8  H5  UNL d   1       0.049  -1.657  -2.780  0.00  0.00     0.418 HD
ENDBRANCH   4   7
TORSDOF 1
ENDMDL
