MODEL 1
REMARK minimizedAffinity 5.48137426
REMARK minimizedRMSD -1
REMARK  1 active torsions:
REMARK  status: ('A' for Active; 'I' for Inactive)
REMARK    1  A    between atoms: C3_4  and  O_7 
ROOT
ATOM      1  C   UNL d   1      -0.883  -0.920  -1.763  0.00  0.00    -0.033 A 
ATOM      2  C1  UNL d   1      -0.656  -2.190  -2.297  0.00  0.00     0.039 A 
ATOM      3  C2  UNL d   1      -1.327  -2.593  -3.454  0.00  0.00    -0.080 A 
ATOM      4  C3  UNL d   1      -2.219  -1.717  -4.067  0.00  0.00     0.150 A 
ATOM      5  C4  UNL d   1      -2.446  -0.449  -3.543  0.00  0.00    -0.007 A 
ATOM      6  C5  UNL d   1      -1.777  -0.049  -2.387  0.00  0.00     0.039 A 
ENDROOT
BRANCH   4   7
ATOM      7  O   UNL d   1      -2.900  -2.067  -5.195  0.00  0.00    -0.526 OA
ATOM      8  H5  UNL d   1      -2.664  -2.981  -5.425  0.00  0.00     0.418 HD
ENDBRANCH   4   7
TORSDOF 1
ENDMDL
