MODEL 1
REMARK minimizedAffinity -0.830148876
REMARK minimizedRMSD -1
REMARK  1 active torsions:
REMARK  status: ('A' for Active; 'I' for Inactive)
REMARK    1  A    between atoms: C3_4  and  O_7 
ROOT
ATOM      1  C   UNL d   1       5.242   3.004  -0.264  0.00  0.00    -0.033 A 
ATOM      2  C1  UNL d   1       6.000   3.211  -1.418  0.00  0.00     0.039 A 
ATOM      3  C2  UNL d   1       5.639   2.587  -2.614  0.00  0.00    -0.080 A 
ATOM      4  C3  UNL d   1       4.520   1.760  -2.643  0.00  0.00     0.150 A 
ATOM      5  C4  UNL d   1       3.758   1.552  -1.498  0.00  0.00    -0.007 A 
ATOM      6  C5  UNL d   1       4.120   2.176  -0.305  0.00  0.00     0.039 A 
ENDROOT
BRANCH   4   7
ATOM      7  O   UNL d   1       4.132   1.126  -3.785  0.00  0.00    -0.526 OA
ATOM      8  H5  UNL d   1       4.768   1.340  -4.488  0.00  0.00     0.418 HD
ENDBRANCH   4   7
TORSDOF 1
ENDMDL
