MODEL 1
REMARK minimizedAffinity 5.37332487
REMARK minimizedRMSD -1
REMARK  1 active torsions:
REMARK  status: ('A' for Active; 'I' for Inactive)
REMARK    1  A    between atoms: C3_4  and  O_7 
ROOT
ATOM      1  C   UNL d   1       2.394   1.701  -0.133  0.00  0.00    -0.033 A 
ATOM      2  C1  UNL d   1       1.143   2.294   0.047  0.00  0.00     0.039 A 
ATOM      3  C2  UNL d   1       0.857   2.982   1.228  0.00  0.00    -0.080 A 
ATOM      4  C3  UNL d   1       1.831   3.071   2.219  0.00  0.00     0.150 A 
ATOM      5  C4  UNL d   1       3.080   2.485   2.045  0.00  0.00    -0.007 A 
ATOM      6  C5  UNL d   1       3.363   1.798   0.866  0.00  0.00     0.039 A 
ENDROOT
BRANCH   4   7
ATOM      7  O   UNL d   1       1.597   3.728   3.390  0.00  0.00    -0.526 OA
ATOM      8  H5  UNL d   1       0.682   4.056   3.382  0.00  0.00     0.418 HD
ENDBRANCH   4   7
TORSDOF 1
ENDMDL
