MODEL 1
REMARK minimizedAffinity 5.70204687
REMARK minimizedRMSD -1
REMARK  1 active torsions:
REMARK  status: ('A' for Active; 'I' for Inactive)
REMARK    1  A    between atoms: C3_4  and  O_7 
ROOT
ATOM      1  C   UNL d   1       2.771   0.504  -0.364  0.00  0.00    -0.033 A 
ATOM      2  C1  UNL d   1       3.518   1.387   0.417  0.00  0.00     0.039 A 
ATOM      3  C2  UNL d   1       3.869   1.041   1.723  0.00  0.00    -0.080 A 
ATOM      4  C3  UNL d   1       3.468  -0.190   2.235  0.00  0.00     0.150 A 
ATOM      5  C4  UNL d   1       2.727  -1.076   1.461  0.00  0.00    -0.007 A 
ATOM      6  C5  UNL d   1       2.377  -0.729   0.157  0.00  0.00     0.039 A 
ENDROOT
BRANCH   4   7
ATOM      7  O   UNL d   1       3.782  -0.569   3.507  0.00  0.00    -0.526 OA
ATOM      8  H5  UNL d   1       4.271   0.155   3.932  0.00  0.00     0.418 HD
ENDBRANCH   4   7
TORSDOF 1
ENDMDL
