MODEL 1
REMARK minimizedAffinity 3.88834143
REMARK minimizedRMSD -1
REMARK  1 active torsions:
REMARK  status: ('A' for Active; 'I' for Inactive)
REMARK    1  A    between atoms: C3_4  and  O_7 
ROOT
ATOM      1  C   UNL d   1       2.853   0.681   0.321  0.00  0.00    -0.033 A 
ATOM      2  C1  UNL d   1       2.923   0.760  -1.071  0.00  0.00     0.039 A 
ATOM      3  C2  UNL d   1       3.902   1.549  -1.679  0.00  0.00    -0.080 A 
ATOM      4  C3  UNL d   1       4.803   2.252  -0.884  0.00  0.00     0.150 A 
ATOM      5  C4  UNL d   1       4.741   2.175   0.503  0.00  0.00    -0.007 A 
ATOM      6  C5  UNL d   1       3.763   1.388   1.108  0.00  0.00     0.039 A 
ENDROOT
BRANCH   4   7
ATOM      7  O   UNL d   1       5.773   3.039  -1.432  0.00  0.00    -0.526 OA
ATOM      8  H5  UNL d   1       5.676   3.018  -2.399  0.00  0.00     0.418 HD
ENDBRANCH   4   7
TORSDOF 1
ENDMDL
