MODEL 1
REMARK minimizedAffinity -3.45342827
REMARK minimizedRMSD -1
REMARK  0 active torsions:
REMARK  status: ('A' for Active; 'I' for Inactive)
ROOT
ATOM      1  C   UNL d   1       0.783   0.607  -0.214  0.00  0.00     0.078 C 
ATOM      2  C1  UNL d   1       1.935   1.382   0.350  0.00  0.00    -0.077 A 
ATOM      3  C2  UNL d   1       2.789   2.114  -0.484  0.00  0.00    -0.001 A 
ATOM      4  C3  UNL d   1       3.864   2.823   0.054  0.00  0.00     0.003 A 
ATOM      5  C4  UNL d   1       4.096   2.807   1.428  0.00  0.00    -0.005 A 
ATOM      6  C5  UNL d   1       3.253   2.080   2.266  0.00  0.00     0.003 A 
ATOM      7  C6  UNL d   1       2.177   1.370   1.729  0.00  0.00    -0.001 A 
ENDROOT
TORSDOF 0
ENDMDL
