MODEL 1
REMARK minimizedAffinity -2.13515258
REMARK minimizedRMSD -1
REMARK  0 active torsions:
REMARK  status: ('A' for Active; 'I' for Inactive)
ROOT
ATOM      1  C   UNL d   1      -2.516  -1.259  -1.040  0.00  0.00     0.078 C 
ATOM      2  C1  UNL d   1      -1.197  -0.733  -0.558  0.00  0.00    -0.077 A 
ATOM      3  C2  UNL d   1      -0.574   0.346  -1.197  0.00  0.00    -0.001 A 
ATOM      4  C3  UNL d   1       0.659   0.819  -0.743  0.00  0.00     0.003 A 
ATOM      5  C4  UNL d   1       1.280   0.218   0.350  0.00  0.00    -0.005 A 
ATOM      6  C5  UNL d   1       0.668  -0.858   0.990  0.00  0.00     0.003 A 
ATOM      7  C6  UNL d   1      -0.564  -1.332   0.538  0.00  0.00    -0.001 A 
ENDROOT
TORSDOF 0
ENDMDL
