MODEL 1
REMARK minimizedAffinity -3.33960629
REMARK minimizedRMSD -1
REMARK  0 active torsions:
REMARK  status: ('A' for Active; 'I' for Inactive)
ROOT
ATOM      1  C   UNL d   1       1.510  -0.503  -0.000  0.00  0.00     0.078 C 
ATOM      2  C1  UNL d   1       2.041   0.873   0.267  0.00  0.00    -0.077 A 
ATOM      3  C2  UNL d   1       1.845   1.494   1.507  0.00  0.00    -0.001 A 
ATOM      4  C3  UNL d   1       2.337   2.779   1.739  0.00  0.00     0.003 A 
ATOM      5  C4  UNL d   1       3.026   3.456   0.735  0.00  0.00    -0.005 A 
ATOM      6  C5  UNL d   1       3.224   2.848  -0.503  0.00  0.00     0.003 A 
ATOM      7  C6  UNL d   1       2.733   1.563  -0.737  0.00  0.00    -0.001 A 
ENDROOT
TORSDOF 0
ENDMDL
