MODEL 1
REMARK minimizedAffinity -0.0756954774
REMARK minimizedRMSD -1
REMARK  0 active torsions:
REMARK  status: ('A' for Active; 'I' for Inactive)
ROOT
ATOM      1  C   UNL d   1      -2.511  -0.629  -1.422  0.00  0.00     0.078 C 
ATOM      2  C1  UNL d   1      -1.101  -0.303  -1.029  0.00  0.00    -0.077 A 
ATOM      3  C2  UNL d   1      -0.241   0.362  -1.913  0.00  0.00    -0.001 A 
ATOM      4  C3  UNL d   1       1.072   0.650  -1.537  0.00  0.00     0.003 A 
ATOM      5  C4  UNL d   1       1.538   0.275  -0.278  0.00  0.00    -0.005 A 
ATOM      6  C5  UNL d   1       0.691  -0.389   0.606  0.00  0.00     0.003 A 
ATOM      7  C6  UNL d   1      -0.623  -0.677   0.233  0.00  0.00    -0.001 A 
ENDROOT
TORSDOF 0
ENDMDL
