MODEL 1
REMARK minimizedAffinity -3.83629012
REMARK minimizedRMSD -1
REMARK  0 active torsions:
REMARK  status: ('A' for Active; 'I' for Inactive)
ROOT
ATOM      1  C   UNL d   1       4.508   3.314  -2.006  0.00  0.00     0.078 C 
ATOM      2  C1  UNL d   1       3.650   3.022  -0.811  0.00  0.00    -0.077 A 
ATOM      3  C2  UNL d   1       3.446   1.708  -0.373  0.00  0.00    -0.001 A 
ATOM      4  C3  UNL d   1       2.637   1.451   0.734  0.00  0.00     0.003 A 
ATOM      5  C4  UNL d   1       2.025   2.502   1.413  0.00  0.00    -0.005 A 
ATOM      6  C5  UNL d   1       2.220   3.813   0.984  0.00  0.00     0.003 A 
ATOM      7  C6  UNL d   1       3.029   4.073  -0.124  0.00  0.00    -0.001 A 
ENDROOT
TORSDOF 0
ENDMDL
