MODEL 1
REMARK minimizedAffinity -2.4256041
REMARK minimizedRMSD -1
REMARK  0 active torsions:
REMARK  status: ('A' for Active; 'I' for Inactive)
ROOT
ATOM      1  C   UNL d   1       5.326   3.565  -2.778  0.00  0.00     0.078 C 
ATOM      2  C1  UNL d   1       4.672   3.634  -1.430  0.00  0.00    -0.077 A 
ATOM      3  C2  UNL d   1       4.601   4.840  -0.724  0.00  0.00    -0.001 A 
ATOM      4  C3  UNL d   1       3.998   4.888   0.534  0.00  0.00     0.003 A 
ATOM      5  C4  UNL d   1       3.462   3.731   1.097  0.00  0.00    -0.005 A 
ATOM      6  C5  UNL d   1       3.529   2.525   0.402  0.00  0.00     0.003 A 
ATOM      7  C6  UNL d   1       4.132   2.476  -0.856  0.00  0.00    -0.001 A 
ENDROOT
TORSDOF 0
ENDMDL
