MODEL 1
REMARK minimizedAffinity -2.72765112
REMARK minimizedRMSD -1
REMARK  0 active torsions:
REMARK  status: ('A' for Active; 'I' for Inactive)
ROOT
ATOM      1  C   UNL d   1       1.431   1.163   0.445  0.00  0.00     0.078 C 
ATOM      2  C1  UNL d   1       0.291   0.468  -0.239  0.00  0.00    -0.077 A 
ATOM      3  C2  UNL d   1      -0.087  -0.829   0.129  0.00  0.00    -0.001 A 
ATOM      4  C3  UNL d   1      -1.144  -1.467  -0.523  0.00  0.00     0.003 A 
ATOM      5  C4  UNL d   1      -1.829  -0.817  -1.547  0.00  0.00    -0.005 A 
ATOM      6  C5  UNL d   1      -1.458   0.473  -1.921  0.00  0.00     0.003 A 
ATOM      7  C6  UNL d   1      -0.402   1.113  -1.270  0.00  0.00    -0.001 A 
ENDROOT
TORSDOF 0
ENDMDL
