MODEL 1
REMARK minimizedAffinity 1.17956865
REMARK minimizedRMSD -1
REMARK  0 active torsions:
REMARK  status: ('A' for Active; 'I' for Inactive)
ROOT
ATOM      1  C   UNL d   1      -1.771   1.556  -3.253  0.00  0.00     0.078 C 
ATOM      2  C1  UNL d   1      -1.967   0.297  -2.463  0.00  0.00    -0.077 A 
ATOM      3  C2  UNL d   1      -1.394  -0.912  -2.877  0.00  0.00    -0.001 A 
ATOM      4  C3  UNL d   1      -1.593  -2.078  -2.137  0.00  0.00     0.003 A 
ATOM      5  C4  UNL d   1      -2.367  -2.048  -0.979  0.00  0.00    -0.005 A 
ATOM      6  C5  UNL d   1      -2.943  -0.851  -0.559  0.00  0.00     0.003 A 
ATOM      7  C6  UNL d   1      -2.745   0.316  -1.298  0.00  0.00    -0.001 A 
ENDROOT
TORSDOF 0
ENDMDL
