MODEL 1
REMARK minimizedAffinity -3.70489526
REMARK minimizedRMSD -1
REMARK  0 active torsions:
REMARK  status: ('A' for Active; 'I' for Inactive)
ROOT
ATOM      1  C   UNL d   1       0.350   0.112  -0.446  0.00  0.00     0.078 C 
ATOM      2  C1  UNL d   1       1.434   0.877   0.251  0.00  0.00    -0.077 A 
ATOM      3  C2  UNL d   1       1.580   0.815   1.643  0.00  0.00    -0.001 A 
ATOM      4  C3  UNL d   1       2.587   1.541   2.280  0.00  0.00     0.003 A 
ATOM      5  C4  UNL d   1       3.457   2.335   1.534  0.00  0.00    -0.005 A 
ATOM      6  C5  UNL d   1       3.318   2.404   0.149  0.00  0.00     0.003 A 
ATOM      7  C6  UNL d   1       2.311   1.679  -0.490  0.00  0.00    -0.001 A 
ENDROOT
TORSDOF 0
ENDMDL
