MODEL 1
REMARK minimizedAffinity -0.450468391
REMARK minimizedRMSD -1
REMARK  0 active torsions:
REMARK  status: ('A' for Active; 'I' for Inactive)
ROOT
ATOM      1  C   UNL d   1       1.798  -0.212   0.293  0.00  0.00     0.078 C 
ATOM      2  C1  UNL d   1       2.185   1.226   0.475  0.00  0.00    -0.077 A 
ATOM      3  C2  UNL d   1       2.223   1.807   1.748  0.00  0.00    -0.001 A 
ATOM      4  C3  UNL d   1       2.575   3.149   1.902  0.00  0.00     0.003 A 
ATOM      5  C4  UNL d   1       2.890   3.921   0.786  0.00  0.00    -0.005 A 
ATOM      6  C5  UNL d   1       2.853   3.353  -0.486  0.00  0.00     0.003 A 
ATOM      7  C6  UNL d   1       2.501   2.011  -0.641  0.00  0.00    -0.001 A 
ENDROOT
TORSDOF 0
ENDMDL
