MODEL 1
REMARK minimizedAffinity -2.05319428
REMARK minimizedRMSD -1
REMARK  0 active torsions:
REMARK  status: ('A' for Active; 'I' for Inactive)
ROOT
ATOM      1  C   UNL d   1       1.375   0.646  -0.097  0.00  0.00     0.078 C 
ATOM      2  C1  UNL d   1       0.071   0.131  -0.628  0.00  0.00    -0.077 A 
ATOM      3  C2  UNL d   1      -0.519   0.697  -1.764  0.00  0.00    -0.001 A 
ATOM      4  C3  UNL d   1      -1.738   0.214  -2.242  0.00  0.00     0.003 A 
ATOM      5  C4  UNL d   1      -2.378  -0.838  -1.589  0.00  0.00    -0.005 A 
ATOM      6  C5  UNL d   1      -1.800  -1.406  -0.456  0.00  0.00     0.003 A 
ATOM      7  C6  UNL d   1      -0.581  -0.924   0.023  0.00  0.00    -0.001 A 
ENDROOT
TORSDOF 0
ENDMDL
