MODEL 1
REMARK minimizedAffinity -3.81468153
REMARK minimizedRMSD -1
REMARK  0 active torsions:
REMARK  status: ('A' for Active; 'I' for Inactive)
ROOT
ATOM      1  C   UNL d   1       0.543   0.408   0.105  0.00  0.00     0.078 C 
ATOM      2  C1  UNL d   1      -0.653  -0.488  -0.025  0.00  0.00    -0.077 A 
ATOM      3  C2  UNL d   1      -0.692  -1.735   0.611  0.00  0.00    -0.001 A 
ATOM      4  C3  UNL d   1      -1.808  -2.563   0.473  0.00  0.00     0.003 A 
ATOM      5  C4  UNL d   1      -2.892  -2.153  -0.301  0.00  0.00    -0.005 A 
ATOM      6  C5  UNL d   1      -2.861  -0.914  -0.938  0.00  0.00     0.003 A 
ATOM      7  C6  UNL d   1      -1.746  -0.085  -0.802  0.00  0.00    -0.001 A 
ENDROOT
TORSDOF 0
ENDMDL
