MODEL 1
REMARK minimizedAffinity -2.50854611
REMARK minimizedRMSD -1
REMARK  0 active torsions:
REMARK  status: ('A' for Active; 'I' for Inactive)
ROOT
ATOM      1  C   UNL d   1       1.620   0.909   0.435  0.00  0.00     0.078 C 
ATOM      2  C1  UNL d   1       0.386   0.341  -0.199  0.00  0.00    -0.077 A 
ATOM      3  C2  UNL d   1      -0.190  -0.843   0.279  0.00  0.00    -0.001 A 
ATOM      4  C3  UNL d   1      -1.334  -1.366  -0.327  0.00  0.00     0.003 A 
ATOM      5  C4  UNL d   1      -1.911  -0.712  -1.414  0.00  0.00    -0.005 A 
ATOM      6  C5  UNL d   1      -1.343   0.465  -1.898  0.00  0.00     0.003 A 
ATOM      7  C6  UNL d   1      -0.200   0.989  -1.293  0.00  0.00    -0.001 A 
ENDROOT
TORSDOF 0
ENDMDL
