MODEL 1
REMARK minimizedAffinity -1.29246461
REMARK minimizedRMSD -1
REMARK  0 active torsions:
REMARK  status: ('A' for Active; 'I' for Inactive)
ROOT
ATOM      1  C   UNL d   1      -0.112   0.690  -0.771  0.00  0.00     0.078 C 
ATOM      2  C1  UNL d   1      -0.874  -0.514  -0.303  0.00  0.00    -0.077 A 
ATOM      3  C2  UNL d   1      -0.399  -1.303   0.751  0.00  0.00    -0.001 A 
ATOM      4  C3  UNL d   1      -1.114  -2.426   1.170  0.00  0.00     0.003 A 
ATOM      5  C4  UNL d   1      -2.308  -2.771   0.540  0.00  0.00    -0.005 A 
ATOM      6  C5  UNL d   1      -2.788  -1.992  -0.512  0.00  0.00     0.003 A 
ATOM      7  C6  UNL d   1      -2.074  -0.869  -0.932  0.00  0.00    -0.001 A 
ENDROOT
TORSDOF 0
ENDMDL
