MODEL 1
REMARK minimizedAffinity -2.95820165
REMARK minimizedRMSD -1
REMARK  0 active torsions:
REMARK  status: ('A' for Active; 'I' for Inactive)
ROOT
ATOM      1  C   UNL d   1       4.273   4.125  -1.866  0.00  0.00     0.078 C 
ATOM      2  C1  UNL d   1       3.623   3.492  -0.672  0.00  0.00    -0.077 A 
ATOM      3  C2  UNL d   1       3.333   4.243   0.474  0.00  0.00    -0.001 A 
ATOM      4  C3  UNL d   1       2.736   3.639   1.581  0.00  0.00     0.003 A 
ATOM      5  C4  UNL d   1       2.425   2.281   1.555  0.00  0.00    -0.005 A 
ATOM      6  C5  UNL d   1       2.713   1.525   0.420  0.00  0.00     0.003 A 
ATOM      7  C6  UNL d   1       3.309   2.128  -0.689  0.00  0.00    -0.001 A 
ENDROOT
TORSDOF 0
ENDMDL
