MODEL 1
REMARK minimizedAffinity 2.86148334
REMARK minimizedRMSD -1
REMARK  0 active torsions:
REMARK  status: ('A' for Active; 'I' for Inactive)
ROOT
ATOM      1  C2' OXE d   1      -0.673  -2.333  -0.937  0.00  0.00     0.078 C 
ATOM      2  C1' OXE d   1      -0.681  -2.011   1.852  0.00  0.00     0.078 C 
ATOM      3  C1  OXE d   1      -0.431  -0.789   1.003  0.00  0.00    -0.078 A 
ATOM      4  C2  OXE d   1      -0.383  -0.965  -0.359  0.00  0.00    -0.078 A 
ATOM      5  C3  OXE d   1      -0.211   0.138  -1.191  0.00  0.00     0.003 A 
ATOM      6  C4  OXE d   1       0.067   1.398  -0.648  0.00  0.00    -0.002 A 
ATOM      7  C5  OXE d   1       0.062   1.592   0.737  0.00  0.00    -0.002 A 
ATOM      8  C6  OXE d   1      -0.227   0.519   1.574  0.00  0.00     0.003 A 
ENDROOT
TORSDOF 0
ENDMDL
