MODEL 1
REMARK minimizedAffinity -1.72701681
REMARK minimizedRMSD -1
REMARK  0 active torsions:
REMARK  status: ('A' for Active; 'I' for Inactive)
ROOT
ATOM      1  C2' OXE d   1       1.507  -0.804   2.934  0.00  0.00     0.078 C 
ATOM      2  C1' OXE d   1      -0.907  -1.063   1.526  0.00  0.00     0.078 C 
ATOM      3  C1  OXE d   1       0.017   0.063   1.136  0.00  0.00    -0.078 A 
ATOM      4  C2  OXE d   1       1.175   0.211   1.861  0.00  0.00    -0.078 A 
ATOM      5  C3  OXE d   1       2.088   1.199   1.507  0.00  0.00     0.003 A 
ATOM      6  C4  OXE d   1       1.768   2.140   0.521  0.00  0.00    -0.002 A 
ATOM      7  C5  OXE d   1       0.576   2.032  -0.203  0.00  0.00    -0.002 A 
ATOM      8  C6  OXE d   1      -0.289   0.976   0.063  0.00  0.00     0.003 A 
ENDROOT
TORSDOF 0
ENDMDL
