MODEL 1
REMARK minimizedAffinity 6.1838522
REMARK minimizedRMSD -1
REMARK  0 active torsions:
REMARK  status: ('A' for Active; 'I' for Inactive)
ROOT
ATOM      1  C2' OXE d   1       1.769   1.368  -0.010  0.00  0.00     0.078 C 
ATOM      2  C1' OXE d   1       1.234  -0.893   1.566  0.00  0.00     0.078 C 
ATOM      3  C1  OXE d   1       1.818   0.319   2.249  0.00  0.00    -0.078 A 
ATOM      4  C2  OXE d   1       2.120   1.404   1.462  0.00  0.00    -0.078 A 
ATOM      5  C3  OXE d   1       2.609   2.567   2.050  0.00  0.00     0.003 A 
ATOM      6  C4  OXE d   1       2.940   2.589   3.410  0.00  0.00    -0.002 A 
ATOM      7  C5  OXE d   1       2.678   1.480   4.223  0.00  0.00    -0.002 A 
ATOM      8  C6  OXE d   1       2.079   0.355   3.667  0.00  0.00     0.003 A 
ENDROOT
TORSDOF 0
ENDMDL
