MODEL 1
REMARK minimizedAffinity -4.19562101
REMARK minimizedRMSD -1
REMARK  0 active torsions:
REMARK  status: ('A' for Active; 'I' for Inactive)
ROOT
ATOM      1  C2' OXE d   1       3.438  -4.871  -5.995  0.00  0.00     0.078 C 
ATOM      2  C1' OXE d   1       4.665  -4.945  -3.471  0.00  0.00     0.078 C 
ATOM      3  C1  OXE d   1       4.476  -3.598  -4.122  0.00  0.00    -0.078 A 
ATOM      4  C2  OXE d   1       3.917  -3.575  -5.377  0.00  0.00    -0.078 A 
ATOM      5  C3  OXE d   1       3.669  -2.355  -6.000  0.00  0.00     0.003 A 
ATOM      6  C4  OXE d   1       4.125  -1.162  -5.427  0.00  0.00    -0.002 A 
ATOM      7  C5  OXE d   1       4.733  -1.166  -4.167  0.00  0.00    -0.002 A 
ATOM      8  C6  OXE d   1       4.877  -2.369  -3.484  0.00  0.00     0.003 A 
ENDROOT
TORSDOF 0
ENDMDL
