MODEL 1
REMARK minimizedAffinity 7.98594046
REMARK minimizedRMSD -1
REMARK  0 active torsions:
REMARK  status: ('A' for Active; 'I' for Inactive)
ROOT
ATOM      1  C2' OXE d   1       1.343   3.320  -0.659  0.00  0.00     0.078 C 
ATOM      2  C1' OXE d   1       2.805   1.294   0.619  0.00  0.00     0.078 C 
ATOM      3  C1  OXE d   1       1.352   1.027   0.314  0.00  0.00    -0.078 A 
ATOM      4  C2  OXE d   1       0.633   2.042  -0.269  0.00  0.00    -0.078 A 
ATOM      5  C3  OXE d   1      -0.697   1.830  -0.621  0.00  0.00     0.003 A 
ATOM      6  C4  OXE d   1      -1.350   0.649  -0.248  0.00  0.00    -0.002 A 
ATOM      7  C5  OXE d   1      -0.645  -0.382   0.383  0.00  0.00    -0.002 A 
ATOM      8  C6  OXE d   1       0.714  -0.226   0.632  0.00  0.00     0.003 A 
ENDROOT
TORSDOF 0
ENDMDL
