MODEL 1
REMARK minimizedAffinity -4.60273695
REMARK minimizedRMSD -1
REMARK  0 active torsions:
REMARK  status: ('A' for Active; 'I' for Inactive)
ROOT
ATOM      1  C2' OXE d   1       4.502  -4.387  -3.638  0.00  0.00     0.078 C 
ATOM      2  C1' OXE d   1       3.001  -4.163  -5.999  0.00  0.00     0.078 C 
ATOM      3  C1  OXE d   1       3.554  -2.897  -5.395  0.00  0.00    -0.078 A 
ATOM      4  C2  OXE d   1       4.248  -3.011  -4.214  0.00  0.00    -0.078 A 
ATOM      5  C3  OXE d   1       4.826  -1.881  -3.643  0.00  0.00     0.003 A 
ATOM      6  C4  OXE d   1       4.578  -0.611  -4.176  0.00  0.00    -0.002 A 
ATOM      7  C5  OXE d   1       3.840  -0.468  -5.356  0.00  0.00    -0.002 A 
ATOM      8  C6  OXE d   1       3.358  -1.603  -6.000  0.00  0.00     0.003 A 
ENDROOT
TORSDOF 0
ENDMDL
