MODEL 1
REMARK minimizedAffinity 3.77557087
REMARK minimizedRMSD -1
REMARK  0 active torsions:
REMARK  status: ('A' for Active; 'I' for Inactive)
ROOT
ATOM      1  C2' OXE d   1      -0.207  -1.802  -1.651  0.00  0.00     0.078 C 
ATOM      2  C1' OXE d   1      -0.609   0.411   0.028  0.00  0.00     0.078 C 
ATOM      3  C1  OXE d   1      -1.313   0.403  -1.305  0.00  0.00    -0.078 A 
ATOM      4  C2  OXE d   1      -1.074  -0.662  -2.140  0.00  0.00    -0.078 A 
ATOM      5  C3  OXE d   1      -1.741  -0.745  -3.359  0.00  0.00     0.003 A 
ATOM      6  C4  OXE d   1      -2.533   0.318  -3.808  0.00  0.00    -0.002 A 
ATOM      7  C5  OXE d   1      -2.758   1.431  -2.990  0.00  0.00    -0.002 A 
ATOM      8  C6  OXE d   1      -2.191   1.469  -1.721  0.00  0.00     0.003 A 
ENDROOT
TORSDOF 0
ENDMDL
