MODEL 1
REMARK minimizedAffinity 7.93849039
REMARK minimizedRMSD -1
REMARK  0 active torsions:
REMARK  status: ('A' for Active; 'I' for Inactive)
ROOT
ATOM      1  C2' OXE d   1       2.531  -0.589   2.950  0.00  0.00     0.078 C 
ATOM      2  C1' OXE d   1       0.247  -1.572   1.648  0.00  0.00     0.078 C 
ATOM      3  C1  OXE d   1       0.704  -0.175   1.309  0.00  0.00    -0.078 A 
ATOM      4  C2  OXE d   1       1.795   0.315   1.985  0.00  0.00    -0.078 A 
ATOM      5  C3  OXE d   1       2.292   1.577   1.671  0.00  0.00     0.003 A 
ATOM      6  C4  OXE d   1       1.599   2.410   0.784  0.00  0.00    -0.002 A 
ATOM      7  C5  OXE d   1       0.462   1.945   0.114  0.00  0.00    -0.002 A 
ATOM      8  C6  OXE d   1       0.028   0.643   0.333  0.00  0.00     0.003 A 
ENDROOT
TORSDOF 0
ENDMDL
