MODEL 1
REMARK minimizedAffinity -1.34519732
REMARK minimizedRMSD -1
REMARK  0 active torsions:
REMARK  status: ('A' for Active; 'I' for Inactive)
ROOT
ATOM      1  C2' OXE d   1       1.773  -1.565   4.322  0.00  0.00     0.078 C 
ATOM      2  C1' OXE d   1       1.982  -2.682   1.756  0.00  0.00     0.078 C 
ATOM      3  C1  OXE d   1       2.237  -1.203   1.902  0.00  0.00    -0.078 A 
ATOM      4  C2  OXE d   1       2.087  -0.656   3.154  0.00  0.00    -0.078 A 
ATOM      5  C3  OXE d   1       2.363   0.693   3.354  0.00  0.00     0.003 A 
ATOM      6  C4  OXE d   1       2.643   1.529   2.266  0.00  0.00    -0.002 A 
ATOM      7  C5  OXE d   1       2.761   1.000   0.977  0.00  0.00    -0.002 A 
ATOM      8  C6  OXE d   1       2.604  -0.368   0.784  0.00  0.00     0.003 A 
ENDROOT
TORSDOF 0
ENDMDL
