MODEL 1
REMARK minimizedAffinity -1.02237642
REMARK minimizedRMSD -1
REMARK  0 active torsions:
REMARK  status: ('A' for Active; 'I' for Inactive)
ROOT
ATOM      1  C2' OXE d   1       3.700  -2.149  -3.317  0.00  0.00     0.078 C 
ATOM      2  C1' OXE d   1       4.525  -2.273  -5.998  0.00  0.00     0.078 C 
ATOM      3  C1  OXE d   1       4.151  -3.565  -5.316  0.00  0.00    -0.078 A 
ATOM      4  C2  OXE d   1       3.793  -3.501  -3.991  0.00  0.00    -0.078 A 
ATOM      5  C3  OXE d   1       3.386  -4.656  -3.330  0.00  0.00     0.003 A 
ATOM      6  C4  OXE d   1       3.485  -5.904  -3.958  0.00  0.00    -0.002 A 
ATOM      7  C5  OXE d   1       3.885  -5.996  -5.295  0.00  0.00    -0.002 A 
ATOM      8  C6  OXE d   1       4.180  -4.835  -6.000  0.00  0.00     0.003 A 
ENDROOT
TORSDOF 0
ENDMDL
