MODEL 1
REMARK minimizedAffinity 5.42765808
REMARK minimizedRMSD -1
REMARK  0 active torsions:
REMARK  status: ('A' for Active; 'I' for Inactive)
ROOT
ATOM      1  C2' OXE d   1      -2.011   0.732   0.241  0.00  0.00     0.078 C 
ATOM      2  C1' OXE d   1      -0.018  -1.097   0.992  0.00  0.00     0.078 C 
ATOM      3  C1  OXE d   1       0.413   0.299   0.619  0.00  0.00    -0.078 A 
ATOM      4  C2  OXE d   1      -0.563   1.174   0.208  0.00  0.00    -0.078 A 
ATOM      5  C3  OXE d   1      -0.227   2.490  -0.094  0.00  0.00     0.003 A 
ATOM      6  C4  OXE d   1       1.115   2.888  -0.132  0.00  0.00    -0.002 A 
ATOM      7  C5  OXE d   1       2.129   2.001   0.245  0.00  0.00    -0.002 A 
ATOM      8  C6  OXE d   1       1.792   0.719   0.663  0.00  0.00     0.003 A 
ENDROOT
TORSDOF 0
ENDMDL
