MODEL 1
REMARK minimizedAffinity 4.86011314
REMARK minimizedRMSD -1
REMARK  0 active torsions:
REMARK  status: ('A' for Active; 'I' for Inactive)
ROOT
ATOM      1  C   UNL d   1       3.520   1.135   0.981  0.00  0.00     0.020 A 
ATOM      2  C1  UNL d   1       2.571   0.866   1.966  0.00  0.00     0.020 A 
ATOM      3  C2  UNL d   1       1.214   0.828   1.637  0.00  0.00     0.034 A 
ATOM      4  C3  UNL d   1       0.802   1.061   0.320  0.00  0.00     0.017 A 
ATOM      5  C4  UNL d   1       1.756   1.332  -0.669  0.00  0.00     0.017 A 
ATOM      6  C5  UNL d   1       3.113   1.368  -0.334  0.00  0.00     0.034 A 
ATOM      7 Cl   UNL d   1       1.324   1.629  -2.316  0.00  0.00    -0.070 Cl
ATOM      8 Cl1  UNL d   1      -0.892   1.000  -0.016  0.00  0.00    -0.070 Cl
ENDROOT
TORSDOF 0
ENDMDL
