MODEL 1
REMARK minimizedAffinity -3.27599263
REMARK minimizedRMSD -1
REMARK  0 active torsions:
REMARK  status: ('A' for Active; 'I' for Inactive)
ROOT
ATOM      1  C   UNL d   1       0.589   1.185  -0.491  0.00  0.00     0.020 A 
ATOM      2  C1  UNL d   1       0.599   0.747   0.833  0.00  0.00     0.020 A 
ATOM      3  C2  UNL d   1       1.691   0.025   1.321  0.00  0.00     0.034 A 
ATOM      4  C3  UNL d   1       2.777  -0.260   0.485  0.00  0.00     0.017 A 
ATOM      5  C4  UNL d   1       2.766   0.181  -0.843  0.00  0.00     0.017 A 
ATOM      6  C5  UNL d   1       1.670   0.903  -1.327  0.00  0.00     0.034 A 
ATOM      7 Cl   UNL d   1       4.069  -0.132  -1.935  0.00  0.00    -0.070 Cl
ATOM      8 Cl1  UNL d   1       4.093  -1.156   1.156  0.00  0.00    -0.070 Cl
ENDROOT
TORSDOF 0
ENDMDL
