MODEL 1
REMARK minimizedAffinity -3.09100389
REMARK minimizedRMSD -1
REMARK  0 active torsions:
REMARK  status: ('A' for Active; 'I' for Inactive)
ROOT
ATOM      1  C   UNL d   1       2.885  -0.635   0.746  0.00  0.00     0.020 A 
ATOM      2  C1  UNL d   1       1.749  -1.433   0.880  0.00  0.00     0.020 A 
ATOM      3  C2  UNL d   1       0.481  -0.882   0.684  0.00  0.00     0.034 A 
ATOM      4  C3  UNL d   1       0.345   0.471   0.352  0.00  0.00     0.017 A 
ATOM      5  C4  UNL d   1       1.486   1.271   0.217  0.00  0.00     0.017 A 
ATOM      6  C5  UNL d   1       2.753   0.714   0.414  0.00  0.00     0.034 A 
ATOM      7 Cl   UNL d   1       1.398   2.949  -0.191  0.00  0.00    -0.070 Cl
ATOM      8 Cl1  UNL d   1      -1.253   1.086   0.123  0.00  0.00    -0.070 Cl
ENDROOT
TORSDOF 0
ENDMDL
