MODEL 1
REMARK minimizedAffinity -0.55560863
REMARK minimizedRMSD -1
REMARK  0 active torsions:
REMARK  status: ('A' for Active; 'I' for Inactive)
ROOT
ATOM      1  C   UNL d   1       1.595   1.433  -0.140  0.00  0.00     0.020 A 
ATOM      2  C1  UNL d   1       1.763   0.797   1.089  0.00  0.00     0.020 A 
ATOM      3  C2  UNL d   1       0.802  -0.109   1.543  0.00  0.00     0.034 A 
ATOM      4  C3  UNL d   1      -0.331  -0.381   0.768  0.00  0.00     0.017 A 
ATOM      5  C4  UNL d   1      -0.498   0.258  -0.466  0.00  0.00     0.017 A 
ATOM      6  C5  UNL d   1       0.467   1.164  -0.916  0.00  0.00     0.034 A 
ATOM      7 Cl   UNL d   1      -1.870  -0.027  -1.479  0.00  0.00    -0.070 Cl
ATOM      8 Cl1  UNL d   1      -1.479  -1.513   1.391  0.00  0.00    -0.070 Cl
ENDROOT
TORSDOF 0
ENDMDL
