MODEL 1
REMARK minimizedAffinity -1.13165915
REMARK minimizedRMSD -1
REMARK  0 active torsions:
REMARK  status: ('A' for Active; 'I' for Inactive)
ROOT
ATOM      1  C   UNL d   1      -1.982   0.729  -0.405  0.00  0.00     0.020 A 
ATOM      2  C1  UNL d   1      -1.072   1.774  -0.255  0.00  0.00     0.020 A 
ATOM      3  C2  UNL d   1       0.117   1.569   0.448  0.00  0.00     0.034 A 
ATOM      4  C3  UNL d   1       0.398   0.316   1.005  0.00  0.00     0.017 A 
ATOM      5  C4  UNL d   1      -0.516  -0.733   0.855  0.00  0.00     0.017 A 
ATOM      6  C5  UNL d   1      -1.705  -0.522   0.149  0.00  0.00     0.034 A 
ATOM      7 Cl   UNL d   1      -0.239  -2.307   1.513  0.00  0.00    -0.070 Cl
ATOM      8 Cl1  UNL d   1       1.888   0.133   1.862  0.00  0.00    -0.070 Cl
ENDROOT
TORSDOF 0
ENDMDL
