MODEL 1
REMARK minimizedAffinity -2.47137856
REMARK minimizedRMSD -1
REMARK  0 active torsions:
REMARK  status: ('A' for Active; 'I' for Inactive)
ROOT
ATOM      1  C   UNL d   1       1.224   1.325  -0.189  0.00  0.00     0.020 A 
ATOM      2  C1  UNL d   1       1.547   0.394   0.798  0.00  0.00     0.020 A 
ATOM      3  C2  UNL d   1       0.663  -0.646   1.092  0.00  0.00     0.034 A 
ATOM      4  C3  UNL d   1      -0.548  -0.758   0.400  0.00  0.00     0.017 A 
ATOM      5  C4  UNL d   1      -0.872   0.177  -0.590  0.00  0.00     0.017 A 
ATOM      6  C5  UNL d   1       0.017   1.217  -0.881  0.00  0.00     0.034 A 
ATOM      7 Cl   UNL d   1      -2.347   0.105  -1.487  0.00  0.00    -0.070 Cl
ATOM      8 Cl1  UNL d   1      -1.594  -2.069   0.816  0.00  0.00    -0.070 Cl
ENDROOT
TORSDOF 0
ENDMDL
