MODEL 1
REMARK minimizedAffinity -4.7107954
REMARK minimizedRMSD -1
REMARK  0 active torsions:
REMARK  status: ('A' for Active; 'I' for Inactive)
ROOT
ATOM      1  C   UNL d   1       2.689  -0.345   1.775  0.00  0.00     0.020 A 
ATOM      2  C1  UNL d   1       2.136  -1.477   1.178  0.00  0.00     0.020 A 
ATOM      3  C2  UNL d   1       1.064  -1.348   0.294  0.00  0.00     0.034 A 
ATOM      4  C3  UNL d   1       0.540  -0.083   0.003  0.00  0.00     0.017 A 
ATOM      5  C4  UNL d   1       1.096   1.054   0.602  0.00  0.00     0.017 A 
ATOM      6  C5  UNL d   1       2.170   0.918   1.487  0.00  0.00     0.034 A 
ATOM      7 Cl   UNL d   1       0.504   2.648   0.293  0.00  0.00    -0.070 Cl
ATOM      8 Cl1  UNL d   1      -0.787   0.004  -1.100  0.00  0.00    -0.070 Cl
ENDROOT
TORSDOF 0
ENDMDL
