MODEL 1
REMARK minimizedAffinity -3.27851748
REMARK minimizedRMSD -1
REMARK  0 active torsions:
REMARK  status: ('A' for Active; 'I' for Inactive)
ROOT
ATOM      1  C   UNL d   1       1.919  -1.508   0.583  0.00  0.00     0.020 A 
ATOM      2  C1  UNL d   1       2.412  -0.401   1.273  0.00  0.00     0.020 A 
ATOM      3  C2  UNL d   1       1.804   0.847   1.117  0.00  0.00     0.034 A 
ATOM      4  C3  UNL d   1       0.699   0.990   0.269  0.00  0.00     0.017 A 
ATOM      5  C4  UNL d   1       0.205  -0.122  -0.423  0.00  0.00     0.017 A 
ATOM      6  C5  UNL d   1       0.818  -1.368  -0.263  0.00  0.00     0.034 A 
ATOM      7 Cl   UNL d   1      -1.153  -0.023  -1.486  0.00  0.00    -0.070 Cl
ATOM      8 Cl1  UNL d   1      -0.003   2.562   0.124  0.00  0.00    -0.070 Cl
ENDROOT
TORSDOF 0
ENDMDL
