MODEL 1
REMARK minimizedAffinity -5.38599777
REMARK minimizedRMSD -1
REMARK  0 active torsions:
REMARK  status: ('A' for Active; 'I' for Inactive)
ROOT
ATOM      1  C   UNL d   1       3.046  -0.188   0.651  0.00  0.00     0.020 A 
ATOM      2  C1  UNL d   1       2.529  -1.289  -0.030  0.00  0.00     0.020 A 
ATOM      3  C2  UNL d   1       1.269  -1.213  -0.626  0.00  0.00     0.034 A 
ATOM      4  C3  UNL d   1       0.521  -0.033  -0.542  0.00  0.00     0.017 A 
ATOM      5  C4  UNL d   1       1.040   1.072   0.142  0.00  0.00     0.017 A 
ATOM      6  C5  UNL d   1       2.303   0.990   0.737  0.00  0.00     0.034 A 
ATOM      7 Cl   UNL d   1       0.177   2.562   0.289  0.00  0.00    -0.070 Cl
ATOM      8 Cl1  UNL d   1      -1.031  -0.008  -1.303  0.00  0.00    -0.070 Cl
ENDROOT
TORSDOF 0
ENDMDL
