MODEL 1
REMARK minimizedAffinity 8.78270054
REMARK minimizedRMSD -1
REMARK  1 active torsions:
REMARK  status: ('A' for Active; 'I' for Inactive)
REMARK    1  A    between atoms: N_2  and  C1_3 
ROOT
ATOM      1  C1  UNL d   1      -1.357  -2.727  -3.564  0.00  0.00     0.143 A 
ATOM      2  C2  UNL d   1      -1.885  -1.670  -4.312  0.00  0.00    -0.057 A 
ATOM      3  C3  UNL d   1      -2.960  -1.865  -5.188  0.00  0.00     0.033 A 
ATOM      4  C4  UNL d   1      -3.508  -3.133  -5.354  0.00  0.00    -0.042 A 
ATOM      5  C5  UNL d   1      -2.983  -4.204  -4.639  0.00  0.00     0.033 A 
ATOM      6  C6  UNL d   1      -1.914  -4.001  -3.761  0.00  0.00    -0.057 A 
ENDROOT
BRANCH   1   7
ATOM      7  N   UNL d   1      -0.227  -2.617  -2.751  0.00  0.00    -0.732 N 
ATOM      8  C   UNL d   1      -0.315  -1.996  -1.446  0.00  0.00     0.284 C 
ATOM      9  H3  UNL d   1       0.353  -3.453  -2.775  0.00  0.00     0.395 HD
ENDBRANCH   1   7
TORSDOF 1
ENDMDL
