MODEL 1
REMARK minimizedAffinity 5.13758516
REMARK minimizedRMSD -1
REMARK  1 active torsions:
REMARK  status: ('A' for Active; 'I' for Inactive)
REMARK    1  A    between atoms: N_2  and  C1_3 
ROOT
ATOM      1  C1  UNL d   1       4.105   1.894  -0.225  0.00  0.00     0.143 A 
ATOM      2  C2  UNL d   1       3.599   1.648  -1.506  0.00  0.00    -0.057 A 
ATOM      3  C3  UNL d   1       4.289   2.061  -2.651  0.00  0.00     0.033 A 
ATOM      4  C4  UNL d   1       5.489   2.755  -2.535  0.00  0.00    -0.042 A 
ATOM      5  C5  UNL d   1       5.999   3.033  -1.272  0.00  0.00     0.033 A 
ATOM      6  C6  UNL d   1       5.308   2.612  -0.132  0.00  0.00    -0.057 A 
ENDROOT
BRANCH   1   7
ATOM      7  N   UNL d   1       3.418   1.596   0.954  0.00  0.00    -0.732 N 
ATOM      8  C   UNL d   1       3.814   2.196   2.210  0.00  0.00     0.284 C 
ATOM      9  H3  UNL d   1       2.411   1.549   0.815  0.00  0.00     0.395 HD
ENDBRANCH   1   7
TORSDOF 1
ENDMDL
