MODEL 1
REMARK minimizedAffinity 7.85859442
REMARK minimizedRMSD -1
REMARK  1 active torsions:
REMARK  status: ('A' for Active; 'I' for Inactive)
REMARK    1  A    between atoms: N_2  and  C1_3 
ROOT
ATOM      1  C1  UNL d   1      -1.245  -2.017  -3.107  0.00  0.00     0.143 A 
ATOM      2  C2  UNL d   1      -1.789  -3.288  -3.317  0.00  0.00    -0.057 A 
ATOM      3  C3  UNL d   1      -2.852  -3.485  -4.207  0.00  0.00     0.033 A 
ATOM      4  C4  UNL d   1      -3.410  -2.405  -4.884  0.00  0.00    -0.042 A 
ATOM      5  C5  UNL d   1      -2.901  -1.129  -4.671  0.00  0.00     0.033 A 
ATOM      6  C6  UNL d   1      -1.835  -0.940  -3.786  0.00  0.00    -0.057 A 
ENDROOT
BRANCH   1   7
ATOM      7  N   UNL d   1      -0.254  -1.742  -2.162  0.00  0.00    -0.732 N 
ATOM      8  C   UNL d   1      -0.604  -1.236  -0.852  0.00  0.00     0.284 C 
ATOM      9  H3  UNL d   1       0.481  -2.446  -2.153  0.00  0.00     0.395 HD
ENDBRANCH   1   7
TORSDOF 1
ENDMDL
