MODEL 1
REMARK minimizedAffinity 5.3696661
REMARK minimizedRMSD -1
REMARK  1 active torsions:
REMARK  status: ('A' for Active; 'I' for Inactive)
REMARK    1  A    between atoms: N_2  and  C1_3 
ROOT
ATOM      1  C1  UNL d   1       3.238   0.825   0.210  0.00  0.00     0.143 A 
ATOM      2  C2  UNL d   1       4.226   1.544   0.892  0.00  0.00    -0.057 A 
ATOM      3  C3  UNL d   1       5.109   2.390   0.210  0.00  0.00     0.033 A 
ATOM      4  C4  UNL d   1       5.039   2.509  -1.174  0.00  0.00    -0.042 A 
ATOM      5  C5  UNL d   1       4.081   1.784  -1.875  0.00  0.00     0.033 A 
ATOM      6  C6  UNL d   1       3.197   0.947  -1.188  0.00  0.00    -0.057 A 
ENDROOT
BRANCH   1   7
ATOM      7  N   UNL d   1       2.394  -0.107   0.820  0.00  0.00    -0.732 N 
ATOM      8  C   UNL d   1       2.863  -0.913   1.926  0.00  0.00     0.284 C 
ATOM      9  H3  UNL d   1       1.446   0.244   0.933  0.00  0.00     0.395 HD
ENDBRANCH   1   7
TORSDOF 1
ENDMDL
