MODEL 1
REMARK minimizedAffinity 0.56747663
REMARK minimizedRMSD -1
REMARK  1 active torsions:
REMARK  status: ('A' for Active; 'I' for Inactive)
REMARK    1  A    between atoms: N_2  and  C1_3 
ROOT
ATOM      1  C1  UNL d   1       5.122   2.279  -1.545  0.00  0.00     0.143 A 
ATOM      2  C2  UNL d   1       3.781   1.893  -1.645  0.00  0.00    -0.057 A 
ATOM      3  C3  UNL d   1       2.984   1.733  -0.505  0.00  0.00     0.033 A 
ATOM      4  C4  UNL d   1       3.525   1.928   0.762  0.00  0.00    -0.042 A 
ATOM      5  C5  UNL d   1       4.862   2.287   0.887  0.00  0.00     0.033 A 
ATOM      6  C6  UNL d   1       5.651   2.452  -0.256  0.00  0.00    -0.057 A 
ENDROOT
BRANCH   1   7
ATOM      7  N   UNL d   1       5.992   2.359  -2.635  0.00  0.00    -0.732 N 
ATOM      8  C   UNL d   1       5.994   1.330  -3.653  0.00  0.00     0.284 C 
ATOM      9  H3  UNL d   1       6.071   3.305  -3.000  0.00  0.00     0.395 HD
ENDBRANCH   1   7
TORSDOF 1
ENDMDL
