MODEL 1
REMARK minimizedAffinity 5.67156792
REMARK minimizedRMSD -1
REMARK  1 active torsions:
REMARK  status: ('A' for Active; 'I' for Inactive)
REMARK    1  A    between atoms: N_2  and  C1_3 
ROOT
ATOM      1  C1  UNL d   1       1.942   2.959   2.184  0.00  0.00     0.143 A 
ATOM      2  C2  UNL d   1       3.183   2.367   1.925  0.00  0.00    -0.057 A 
ATOM      3  C3  UNL d   1       3.448   1.739   0.702  0.00  0.00     0.033 A 
ATOM      4  C4  UNL d   1       2.461   1.666  -0.276  0.00  0.00    -0.042 A 
ATOM      5  C5  UNL d   1       1.212   2.225  -0.032  0.00  0.00     0.033 A 
ATOM      6  C6  UNL d   1       0.957   2.857   1.189  0.00  0.00    -0.057 A 
ENDROOT
BRANCH   1   7
ATOM      7  N   UNL d   1       1.586   3.512   3.416  0.00  0.00    -0.732 N 
ATOM      8  C   UNL d   1       1.173   2.663   4.513  0.00  0.00     0.284 C 
ATOM      9  H3  UNL d   1       2.198   4.277   3.690  0.00  0.00     0.395 HD
ENDBRANCH   1   7
TORSDOF 1
ENDMDL
