MODEL 1
REMARK minimizedAffinity 15.5740128
REMARK minimizedRMSD -1
REMARK  1 active torsions:
REMARK  status: ('A' for Active; 'I' for Inactive)
REMARK    1  A    between atoms: N_2  and  C1_3 
ROOT
ATOM      1  C1  UNL d   1       2.750  -0.565   1.589  0.00  0.00     0.143 A 
ATOM      2  C2  UNL d   1       3.720   0.442   1.612  0.00  0.00    -0.057 A 
ATOM      3  C3  UNL d   1       3.892   1.309   0.526  0.00  0.00     0.033 A 
ATOM      4  C4  UNL d   1       3.113   1.165  -0.617  0.00  0.00    -0.042 A 
ATOM      5  C5  UNL d   1       2.159   0.155  -0.672  0.00  0.00     0.033 A 
ATOM      6  C6  UNL d   1       1.988  -0.704   0.418  0.00  0.00    -0.057 A 
ENDROOT
BRANCH   1   7
ATOM      7  N   UNL d   1       2.597  -1.521   2.597  0.00  0.00    -0.732 N 
ATOM      8  C   UNL d   1       1.454  -2.409   2.603  0.00  0.00     0.284 C 
ATOM      9  H3  UNL d   1       3.475  -1.972   2.841  0.00  0.00     0.395 HD
ENDBRANCH   1   7
TORSDOF 1
ENDMDL
