MODEL 1
REMARK minimizedAffinity 2.01041794
REMARK minimizedRMSD -1
REMARK  2 active torsions:
REMARK  status: ('A' for Active; 'I' for Inactive)
REMARK    1  A    between atoms: C1_2  and  C2_3 
REMARK    2  A    between atoms: C2_3  and  C3_4 
ROOT
ATOM      1  C3  UNL d   1      -4.411  -0.595  -4.179  0.00  0.00    -0.075 A 
ATOM      2  C4  UNL d   1      -3.448  -0.156  -5.099  0.00  0.00     0.002 A 
ATOM      3  C5  UNL d   1      -3.744   0.868  -6.000  0.00  0.00     0.002 A 
ATOM      4  C6  UNL d   1      -5.007   1.456  -6.000  0.00  0.00    -0.004 A 
ATOM      5  C7  UNL d   1      -5.976   1.017  -5.101  0.00  0.00     0.002 A 
ATOM      6  C8  UNL d   1      -5.681  -0.004  -4.195  0.00  0.00     0.002 A 
ENDROOT
BRANCH   1   7
ATOM      7  C2  UNL d   1      -4.087  -1.681  -3.181  0.00  0.00     0.056 C 
BRANCH   7   8
ATOM      8  C1  UNL d   1      -3.366  -1.181  -1.925  0.00  0.00     0.007 C 
ATOM      9  C   UNL d   1      -3.382   0.336  -1.788  0.00  0.00     0.009 C 
ENDBRANCH   7   8
ENDBRANCH   1   7
TORSDOF 2
ENDMDL
