MODEL 1
REMARK minimizedAffinity -0.262002498
REMARK minimizedRMSD -1
REMARK  2 active torsions:
REMARK  status: ('A' for Active; 'I' for Inactive)
REMARK    1  A    between atoms: C1_2  and  C2_3 
REMARK    2  A    between atoms: C2_3  and  C3_4 
ROOT
ATOM      1  C3  UNL d   1      -4.581  -0.808  -4.550  0.00  0.00    -0.075 A 
ATOM      2  C4  UNL d   1      -3.343  -0.363  -5.037  0.00  0.00     0.002 A 
ATOM      3  C5  UNL d   1      -3.251   0.832  -5.752  0.00  0.00     0.002 A 
ATOM      4  C6  UNL d   1      -4.394   1.590  -5.997  0.00  0.00    -0.004 A 
ATOM      5  C7  UNL d   1      -5.631   1.149  -5.532  0.00  0.00     0.002 A 
ATOM      6  C8  UNL d   1      -5.725  -0.044  -4.813  0.00  0.00     0.002 A 
ENDROOT
BRANCH   1   7
ATOM      7  C2  UNL d   1      -4.682  -2.085  -3.750  0.00  0.00     0.056 C 
BRANCH   7   8
ATOM      8  C1  UNL d   1      -3.995  -2.021  -2.382  0.00  0.00     0.007 C 
ATOM      9  C   UNL d   1      -3.416  -0.648  -2.065  0.00  0.00     0.009 C 
ENDBRANCH   7   8
ENDBRANCH   1   7
TORSDOF 2
ENDMDL
