MODEL 1
REMARK minimizedAffinity 0.256244928
REMARK minimizedRMSD -1
REMARK  2 active torsions:
REMARK  status: ('A' for Active; 'I' for Inactive)
REMARK    1  A    between atoms: C1_2  and  C2_3 
REMARK    2  A    between atoms: C2_3  and  C3_4 
ROOT
ATOM      1  C3  UNL d   1      -4.221  -0.826  -3.282  0.00  0.00    -0.075 A 
ATOM      2  C4  UNL d   1      -3.165  -0.854  -4.204  0.00  0.00     0.002 A 
ATOM      3  C5  UNL d   1      -3.296  -0.241  -5.451  0.00  0.00     0.002 A 
ATOM      4  C6  UNL d   1      -4.485   0.398  -5.795  0.00  0.00    -0.004 A 
ATOM      5  C7  UNL d   1      -5.547   0.418  -4.893  0.00  0.00     0.002 A 
ATOM      6  C8  UNL d   1      -5.417  -0.191  -3.643  0.00  0.00     0.002 A 
ENDROOT
BRANCH   1   7
ATOM      7  C2  UNL d   1      -4.075  -1.461  -1.921  0.00  0.00     0.056 C 
BRANCH   7   8
ATOM      8  C1  UNL d   1      -3.075  -0.750  -1.004  0.00  0.00     0.007 C 
ATOM      9  C   UNL d   1      -3.138  -1.229   0.440  0.00  0.00     0.009 C 
ENDBRANCH   7   8
ENDBRANCH   1   7
TORSDOF 2
ENDMDL
