MODEL 1
REMARK minimizedAffinity 4.80911732
REMARK minimizedRMSD -1
REMARK  2 active torsions:
REMARK  status: ('A' for Active; 'I' for Inactive)
REMARK    1  A    between atoms: C1_2  and  C2_3 
REMARK    2  A    between atoms: C2_3  and  C3_4 
ROOT
ATOM      1  C3  UNL d   1       1.709  -0.760   1.264  0.00  0.00    -0.075 A 
ATOM      2  C4  UNL d   1       0.818  -0.953   2.330  0.00  0.00     0.002 A 
ATOM      3  C5  UNL d   1       0.609  -2.227   2.858  0.00  0.00     0.002 A 
ATOM      4  C6  UNL d   1       1.279  -3.325   2.322  0.00  0.00    -0.004 A 
ATOM      5  C7  UNL d   1       2.154  -3.148   1.252  0.00  0.00     0.002 A 
ATOM      6  C8  UNL d   1       2.368  -1.873   0.725  0.00  0.00     0.002 A 
ENDROOT
BRANCH   1   7
ATOM      7  C2  UNL d   1       1.962   0.621   0.708  0.00  0.00     0.056 C 
BRANCH   7   8
ATOM      8  C1  UNL d   1       3.411   0.863   0.276  0.00  0.00     0.007 C 
ATOM      9  C   UNL d   1       3.597   2.160  -0.501  0.00  0.00     0.009 C 
ENDBRANCH   7   8
ENDBRANCH   1   7
TORSDOF 2
ENDMDL
