MODEL 1
REMARK minimizedAffinity -1.38983476
REMARK minimizedRMSD -1
REMARK  2 active torsions:
REMARK  status: ('A' for Active; 'I' for Inactive)
REMARK    1  A    between atoms: C1_2  and  C2_3 
REMARK    2  A    between atoms: C2_3  and  C3_4 
ROOT
ATOM      1  C3  UNL d   1      -3.394   0.786  -4.466  0.00  0.00    -0.075 A 
ATOM      2  C4  UNL d   1      -4.771   0.717  -4.721  0.00  0.00     0.002 A 
ATOM      3  C5  UNL d   1      -5.473  -0.469  -4.504  0.00  0.00     0.002 A 
ATOM      4  C6  UNL d   1      -4.807  -1.602  -4.041  0.00  0.00    -0.004 A 
ATOM      5  C7  UNL d   1      -3.435  -1.549  -3.800  0.00  0.00     0.002 A 
ATOM      6  C8  UNL d   1      -2.732  -0.362  -4.012  0.00  0.00     0.002 A 
ENDROOT
BRANCH   1   7
ATOM      7  C2  UNL d   1      -2.634   2.075  -4.670  0.00  0.00     0.056 C 
BRANCH   7   8
ATOM      8  C1  UNL d   1      -2.751   3.060  -3.502  0.00  0.00     0.007 C 
ATOM      9  C   UNL d   1      -2.759   2.378  -2.140  0.00  0.00     0.009 C 
ENDBRANCH   7   8
ENDBRANCH   1   7
TORSDOF 2
ENDMDL
