MODEL 1
REMARK minimizedAffinity 0.928545892
REMARK minimizedRMSD -1
REMARK  2 active torsions:
REMARK  status: ('A' for Active; 'I' for Inactive)
REMARK    1  A    between atoms: C1_2  and  C2_3 
REMARK    2  A    between atoms: C2_3  and  C3_4 
ROOT
ATOM      1  C3  UNL d   1       2.208  -2.575   1.339  0.00  0.00    -0.075 A 
ATOM      2  C4  UNL d   1       3.111  -3.557   1.771  0.00  0.00     0.002 A 
ATOM      3  C5  UNL d   1       4.439  -3.536   1.344  0.00  0.00     0.002 A 
ATOM      4  C6  UNL d   1       4.878  -2.542   0.472  0.00  0.00    -0.004 A 
ATOM      5  C7  UNL d   1       3.985  -1.571   0.022  0.00  0.00     0.002 A 
ATOM      6  C8  UNL d   1       2.657  -1.587   0.452  0.00  0.00     0.002 A 
ENDROOT
BRANCH   1   7
ATOM      7  C2  UNL d   1       0.777  -2.575   1.821  0.00  0.00     0.056 C 
BRANCH   7   8
ATOM      8  C1  UNL d   1       0.531  -1.684   3.043  0.00  0.00     0.007 C 
ATOM      9  C   UNL d   1      -0.940  -1.356   3.260  0.00  0.00     0.009 C 
ENDBRANCH   7   8
ENDBRANCH   1   7
TORSDOF 2
ENDMDL
