MODEL 1
REMARK minimizedAffinity 0.59182322
REMARK minimizedRMSD -1
REMARK  2 active torsions:
REMARK  status: ('A' for Active; 'I' for Inactive)
REMARK    1  A    between atoms: C1_2  and  C2_3 
REMARK    2  A    between atoms: C2_3  and  C3_4 
ROOT
ATOM      1  C3  UNL d   1       3.560  -0.317  -0.028  0.00  0.00    -0.075 A 
ATOM      2  C4  UNL d   1       3.644   1.026  -0.424  0.00  0.00     0.002 A 
ATOM      3  C5  UNL d   1       4.858   1.710  -0.354  0.00  0.00     0.002 A 
ATOM      4  C6  UNL d   1       5.998   1.065   0.122  0.00  0.00    -0.004 A 
ATOM      5  C7  UNL d   1       5.922  -0.264   0.533  0.00  0.00     0.002 A 
ATOM      6  C8  UNL d   1       4.710  -0.952   0.460  0.00  0.00     0.002 A 
ENDROOT
BRANCH   1   7
ATOM      7  C2  UNL d   1       2.256  -1.072  -0.129  0.00  0.00     0.056 C 
BRANCH   7   8
ATOM      8  C1  UNL d   1       2.118  -2.217   0.879  0.00  0.00     0.007 C 
ATOM      9  C   UNL d   1       2.879  -3.472   0.471  0.00  0.00     0.009 C 
ENDBRANCH   7   8
ENDBRANCH   1   7
TORSDOF 2
ENDMDL
