MODEL 1
REMARK minimizedAffinity 0.826914132
REMARK minimizedRMSD -1
REMARK  2 active torsions:
REMARK  status: ('A' for Active; 'I' for Inactive)
REMARK    1  A    between atoms: C1_2  and  C2_3 
REMARK    2  A    between atoms: C2_3  and  C3_4 
ROOT
ATOM      1  C3  UNL d   1       4.904  -4.395   3.233  0.00  0.00    -0.075 A 
ATOM      2  C4  UNL d   1       4.235  -5.233   4.137  0.00  0.00     0.002 A 
ATOM      3  C5  UNL d   1       4.414  -5.079   5.512  0.00  0.00     0.002 A 
ATOM      4  C6  UNL d   1       5.270  -4.094   6.000  0.00  0.00    -0.004 A 
ATOM      5  C7  UNL d   1       5.953  -3.266   5.110  0.00  0.00     0.002 A 
ATOM      6  C8  UNL d   1       5.772  -3.416   3.734  0.00  0.00     0.002 A 
ENDROOT
BRANCH   1   7
ATOM      7  C2  UNL d   1       4.692  -4.538   1.745  0.00  0.00     0.056 C 
BRANCH   7   8
ATOM      8  C1  UNL d   1       3.221  -4.491   1.317  0.00  0.00     0.007 C 
ATOM      9  C   UNL d   1       2.725  -3.081   1.027  0.00  0.00     0.009 C 
ENDBRANCH   7   8
ENDBRANCH   1   7
TORSDOF 2
ENDMDL
