MODEL 1
REMARK minimizedAffinity 1.43136537
REMARK minimizedRMSD -1
REMARK  0 active torsions:
REMARK  status: ('A' for Active; 'I' for Inactive)
ROOT
ATOM      1  C   UNL d   1      -0.756   2.947  -0.010  0.00  0.00     0.172 C 
ATOM      2  N   UNL d   1      -0.251   4.117  -0.689  0.00  0.00    -0.070 N 
ATOM      3  C1  UNL d   1       1.065   4.486  -0.773  0.00  0.00    -0.004 A 
ATOM      4  C2  UNL d   1       1.131   5.654  -1.502  0.00  0.00    -0.047 A 
ATOM      5  C3  UNL d   1      -0.192   5.999  -1.868  0.00  0.00    -0.047 A 
ATOM      6  C4  UNL d   1      -1.027   5.031  -1.352  0.00  0.00    -0.004 A 
ENDROOT
TORSDOF 0
ENDMDL
