MODEL 1
REMARK minimizedAffinity -0.065578334
REMARK minimizedRMSD -1
REMARK  0 active torsions:
REMARK  status: ('A' for Active; 'I' for Inactive)
ROOT
ATOM      1  C   UNL d   1      -2.693   3.503   0.809  0.00  0.00     0.172 C 
ATOM      2  N   UNL d   1      -3.877   4.282   1.087  0.00  0.00    -0.070 N 
ATOM      3  C1  UNL d   1      -3.930   5.647   1.183  0.00  0.00    -0.004 A 
ATOM      4  C2  UNL d   1      -5.234   6.000   1.456  0.00  0.00    -0.047 A 
ATOM      5  C3  UNL d   1      -5.990   4.806   1.528  0.00  0.00    -0.047 A 
ATOM      6  C4  UNL d   1      -5.125   3.757   1.296  0.00  0.00    -0.004 A 
ENDROOT
TORSDOF 0
ENDMDL
