MODEL 1
REMARK minimizedAffinity 3.35353041
REMARK minimizedRMSD -1
REMARK  0 active torsions:
REMARK  status: ('A' for Active; 'I' for Inactive)
ROOT
ATOM      1  C   UNL d   1       0.323   2.518  -1.133  0.00  0.00     0.172 C 
ATOM      2  N   UNL d   1       0.359   3.932  -1.423  0.00  0.00    -0.070 N 
ATOM      3  C1  UNL d   1       1.487   4.704  -1.492  0.00  0.00    -0.004 A 
ATOM      4  C2  UNL d   1       1.099   5.993  -1.791  0.00  0.00    -0.047 A 
ATOM      5  C3  UNL d   1      -0.311   5.994  -1.905  0.00  0.00    -0.047 A 
ATOM      6  C4  UNL d   1      -0.743   4.706  -1.673  0.00  0.00    -0.004 A 
ENDROOT
TORSDOF 0
ENDMDL
