MODEL 1
REMARK minimizedAffinity -1.15063691
REMARK minimizedRMSD -1
REMARK  0 active torsions:
REMARK  status: ('A' for Active; 'I' for Inactive)
ROOT
ATOM      1  C   UNL d   1      -1.490   3.146   0.618  0.00  0.00     0.172 C 
ATOM      2  N   UNL d   1      -2.471   4.103   1.071  0.00  0.00    -0.070 N 
ATOM      3  C1  UNL d   1      -3.348   3.918   2.106  0.00  0.00    -0.004 A 
ATOM      4  C2  UNL d   1      -4.113   5.059   2.221  0.00  0.00    -0.047 A 
ATOM      5  C3  UNL d   1      -3.681   5.960   1.219  0.00  0.00    -0.047 A 
ATOM      6  C4  UNL d   1      -2.664   5.343   0.522  0.00  0.00    -0.004 A 
ENDROOT
TORSDOF 0
ENDMDL
