MODEL 1
REMARK minimizedAffinity 8.22047138
REMARK minimizedRMSD -1
REMARK  0 active torsions:
REMARK  status: ('A' for Active; 'I' for Inactive)
ROOT
ATOM      1  C   UNL d   1      -2.146   1.141  -3.941  0.00  0.00     0.172 C 
ATOM      2  N   UNL d   1      -3.430   1.166  -3.281  0.00  0.00    -0.070 N 
ATOM      3  C1  UNL d   1      -4.275   0.099  -3.138  0.00  0.00    -0.004 A 
ATOM      4  C2  UNL d   1      -5.390   0.532  -2.452  0.00  0.00    -0.047 A 
ATOM      5  C3  UNL d   1      -5.208   1.908  -2.175  0.00  0.00    -0.047 A 
ATOM      6  C4  UNL d   1      -3.986   2.275  -2.699  0.00  0.00    -0.004 A 
ENDROOT
TORSDOF 0
ENDMDL
