MODEL 1
REMARK minimizedAffinity -3.10282946
REMARK minimizedRMSD -1
REMARK  0 active torsions:
REMARK  status: ('A' for Active; 'I' for Inactive)
ROOT
ATOM      1  C   UNL d   1      -3.852   5.865   1.420  0.00  0.00     0.172 C 
ATOM      2  N   UNL d   1      -3.062   4.701   1.094  0.00  0.00    -0.070 N 
ATOM      3  C1  UNL d   1      -3.069   3.514   1.777  0.00  0.00    -0.004 A 
ATOM      4  C2  UNL d   1      -2.183   2.662   1.153  0.00  0.00    -0.047 A 
ATOM      5  C3  UNL d   1      -1.624   3.362   0.058  0.00  0.00    -0.047 A 
ATOM      6  C4  UNL d   1      -2.185   4.621   0.045  0.00  0.00    -0.004 A 
ENDROOT
TORSDOF 0
ENDMDL
