MODEL 1
REMARK minimizedAffinity 5.17821312
REMARK minimizedRMSD -1
REMARK  0 active torsions:
REMARK  status: ('A' for Active; 'I' for Inactive)
ROOT
ATOM      1  C   UNL d   1      -0.530  -4.873  -1.377  0.00  0.00     0.172 C 
ATOM      2  N   UNL d   1       0.790  -5.234  -0.917  0.00  0.00    -0.070 N 
ATOM      3  C1  UNL d   1       1.085  -5.815   0.288  0.00  0.00    -0.004 A 
ATOM      4  C2  UNL d   1       2.449  -6.000   0.345  0.00  0.00    -0.047 A 
ATOM      5  C3  UNL d   1       2.994  -5.512  -0.867  0.00  0.00    -0.047 A 
ATOM      6  C4  UNL d   1       1.944  -5.044  -1.630  0.00  0.00    -0.004 A 
ENDROOT
TORSDOF 0
ENDMDL
