MODEL 1
REMARK minimizedAffinity 6.77279997
REMARK minimizedRMSD -1
REMARK  0 active torsions:
REMARK  status: ('A' for Active; 'I' for Inactive)
ROOT
ATOM      1  C   UNL d   1       5.478  -2.606   2.334  0.00  0.00     0.172 C 
ATOM      2  N   UNL d   1       4.222  -1.901   2.236  0.00  0.00    -0.070 N 
ATOM      3  C1  UNL d   1       3.505  -1.398   3.289  0.00  0.00    -0.004 A 
ATOM      4  C2  UNL d   1       2.372  -0.800   2.780  0.00  0.00    -0.047 A 
ATOM      5  C3  UNL d   1       2.409  -0.950   1.373  0.00  0.00    -0.047 A 
ATOM      6  C4  UNL d   1       3.565  -1.635   1.064  0.00  0.00    -0.004 A 
ENDROOT
TORSDOF 0
ENDMDL
