MODEL 1
REMARK minimizedAffinity 1.63894999
REMARK minimizedRMSD -1
REMARK  0 active torsions:
REMARK  status: ('A' for Active; 'I' for Inactive)
ROOT
ATOM      1  C   UNL d   1       2.301  -0.683   2.254  0.00  0.00     0.172 C 
ATOM      2  N   UNL d   1       3.377  -1.611   1.999  0.00  0.00    -0.070 N 
ATOM      3  C1  UNL d   1       3.918  -1.889   0.772  0.00  0.00    -0.004 A 
ATOM      4  C2  UNL d   1       4.917  -2.821   0.952  0.00  0.00    -0.047 A 
ATOM      5  C3  UNL d   1       4.977  -3.115   2.335  0.00  0.00    -0.047 A 
ATOM      6  C4  UNL d   1       4.013  -2.352   2.960  0.00  0.00    -0.004 A 
ENDROOT
TORSDOF 0
ENDMDL
