MODEL 1
REMARK minimizedAffinity 3.89327645
REMARK minimizedRMSD -1
REMARK  0 active torsions:
REMARK  status: ('A' for Active; 'I' for Inactive)
ROOT
ATOM      1  C   UNL d   1       0.753  -2.533  -0.023  0.00  0.00     0.172 C 
ATOM      2  N   UNL d   1       0.954  -3.943  -0.261  0.00  0.00    -0.070 N 
ATOM      3  C1  UNL d   1       0.243  -4.714  -1.142  0.00  0.00    -0.004 A 
ATOM      4  C2  UNL d   1       0.738  -5.998  -1.073  0.00  0.00    -0.047 A 
ATOM      5  C3  UNL d   1       1.781  -6.000  -0.118  0.00  0.00    -0.047 A 
ATOM      6  C4  UNL d   1       1.894  -4.715   0.370  0.00  0.00    -0.004 A 
ENDROOT
TORSDOF 0
ENDMDL
