MODEL 1
REMARK minimizedAffinity 0.57382226
REMARK minimizedRMSD -1
REMARK  0 active torsions:
REMARK  status: ('A' for Active; 'I' for Inactive)
ROOT
ATOM      1  C   UNL d   1      -0.426  -1.960   0.902  0.00  0.00     0.124 A 
ATOM      2  C1  UNL d   1      -1.339  -1.502   1.842  0.00  0.00     0.062 A 
ATOM      3  C2  UNL d   1      -1.970  -0.274   1.665  0.00  0.00     0.162 A 
ATOM      4  C3  UNL d   1      -1.691   0.505   0.542  0.00  0.00    -0.034 A 
ATOM      5  C4  UNL d   1      -0.771   0.038  -0.399  0.00  0.00     0.162 A 
ATOM      6  C5  UNL d   1      -0.144  -1.190  -0.217  0.00  0.00     0.062 A 
ATOM      7  F   UNL d   1       0.738  -1.631  -1.127  0.00  0.00    -0.097 F 
ATOM      8  F1  UNL d   1      -0.480   0.762  -1.490  0.00  0.00    -0.096 F 
ATOM      9  I   UNL d   1      -2.632   2.342   0.273  0.00  0.00    -0.060 I 
ATOM     10  F2  UNL d   1      -2.848   0.144   2.589  0.00  0.00    -0.096 F 
ATOM     11  F3  UNL d   1      -1.614  -2.244   2.925  0.00  0.00    -0.097 F 
ATOM     12  F4  UNL d   1       0.180  -3.141   1.075  0.00  0.00    -0.092 F 
ENDROOT
TORSDOF 0
ENDMDL
