MODEL 1
REMARK minimizedAffinity -1.5555836
REMARK minimizedRMSD -1
REMARK  0 active torsions:
REMARK  status: ('A' for Active; 'I' for Inactive)
ROOT
ATOM      1  C   UNL d   1      -0.560  -0.551  -0.058  0.00  0.00     0.124 A 
ATOM      2  C1  UNL d   1      -0.826  -0.954   1.243  0.00  0.00     0.062 A 
ATOM      3  C2  UNL d   1      -1.902  -0.409   1.938  0.00  0.00     0.162 A 
ATOM      4  C3  UNL d   1      -2.721   0.544   1.333  0.00  0.00    -0.034 A 
ATOM      5  C4  UNL d   1      -2.446   0.945   0.024  0.00  0.00     0.162 A 
ATOM      6  C5  UNL d   1      -1.370   0.397  -0.666  0.00  0.00     0.062 A 
ATOM      7  F   UNL d   1      -1.114   0.788  -1.924  0.00  0.00    -0.097 F 
ATOM      8  F1  UNL d   1      -3.214   1.859  -0.588  0.00  0.00    -0.096 F 
ATOM      9  I   UNL d   1      -4.331   1.361   2.369  0.00  0.00    -0.060 I 
ATOM     10  F2  UNL d   1      -2.135  -0.817   3.195  0.00  0.00    -0.096 F 
ATOM     11  F3  UNL d   1      -0.044  -1.869   1.833  0.00  0.00    -0.097 F 
ATOM     12  F4  UNL d   1       0.477  -1.076  -0.724  0.00  0.00    -0.092 F 
ENDROOT
TORSDOF 0
ENDMDL
