MODEL 1
REMARK minimizedAffinity 2.65490818
REMARK minimizedRMSD -1
REMARK  0 active torsions:
REMARK  status: ('A' for Active; 'I' for Inactive)
ROOT
ATOM      1  C   UNL d   1      -4.663   1.839   1.927  0.00  0.00     0.124 A 
ATOM      2  C1  UNL d   1      -4.081   1.856   0.667  0.00  0.00     0.062 A 
ATOM      3  C2  UNL d   1      -2.946   1.092   0.410  0.00  0.00     0.162 A 
ATOM      4  C3  UNL d   1      -2.387   0.303   1.414  0.00  0.00    -0.034 A 
ATOM      5  C4  UNL d   1      -2.977   0.291   2.679  0.00  0.00     0.162 A 
ATOM      6  C5  UNL d   1      -4.111   1.056   2.932  0.00  0.00     0.062 A 
ATOM      7  F   UNL d   1      -4.672   1.038   4.149  0.00  0.00    -0.097 F 
ATOM      8  F1  UNL d   1      -2.465  -0.457   3.668  0.00  0.00    -0.096 F 
ATOM      9  I   UNL d   1      -0.690  -0.841   1.033  0.00  0.00    -0.060 I 
ATOM     10  F2  UNL d   1      -2.405   1.128  -0.817  0.00  0.00    -0.096 F 
ATOM     11  F3  UNL d   1      -4.612   2.612  -0.305  0.00  0.00    -0.097 F 
ATOM     12  F4  UNL d   1      -5.754   2.576   2.173  0.00  0.00    -0.092 F 
ENDROOT
TORSDOF 0
ENDMDL
