MODEL 1
REMARK minimizedAffinity -0.951224208
REMARK minimizedRMSD -1
REMARK  0 active torsions:
REMARK  status: ('A' for Active; 'I' for Inactive)
ROOT
ATOM      1  C   UNL d   1       0.486   0.459   0.210  0.00  0.00     0.124 A 
ATOM      2  C1  UNL d   1       0.340   1.836   0.296  0.00  0.00     0.062 A 
ATOM      3  C2  UNL d   1      -0.918   2.396   0.499  0.00  0.00     0.162 A 
ATOM      4  C3  UNL d   1      -2.041   1.577   0.618  0.00  0.00    -0.034 A 
ATOM      5  C4  UNL d   1      -1.887   0.193   0.529  0.00  0.00     0.162 A 
ATOM      6  C5  UNL d   1      -0.627  -0.362   0.327  0.00  0.00     0.062 A 
ATOM      7  F   UNL d   1      -0.488  -1.693   0.244  0.00  0.00    -0.097 F 
ATOM      8  F1  UNL d   1      -2.945  -0.623   0.640  0.00  0.00    -0.096 F 
ATOM      9  I   UNL d   1      -3.924   2.410   0.921  0.00  0.00    -0.060 I 
ATOM     10  F2  UNL d   1      -1.029   3.730   0.577  0.00  0.00    -0.096 F 
ATOM     11  F3  UNL d   1       1.414   2.631   0.183  0.00  0.00    -0.097 F 
ATOM     12  F4  UNL d   1       1.698  -0.077   0.015  0.00  0.00    -0.092 F 
ENDROOT
TORSDOF 0
ENDMDL
