MODEL 1
REMARK minimizedAffinity -1.30513322
REMARK minimizedRMSD -1
REMARK  0 active torsions:
REMARK  status: ('A' for Active; 'I' for Inactive)
ROOT
ATOM      1  C   UNL d   1      -0.045  -2.765   0.006  0.00  0.00     0.124 A 
ATOM      2  C1  UNL d   1       0.635  -2.016  -0.944  0.00  0.00     0.062 A 
ATOM      3  C2  UNL d   1       0.604  -0.625  -0.893  0.00  0.00     0.162 A 
ATOM      4  C3  UNL d   1      -0.109   0.026   0.115  0.00  0.00    -0.034 A 
ATOM      5  C4  UNL d   1      -0.790  -0.734   1.067  0.00  0.00     0.162 A 
ATOM      6  C5  UNL d   1      -0.756  -2.124   1.011  0.00  0.00     0.062 A 
ATOM      7  F   UNL d   1      -1.413  -2.846   1.930  0.00  0.00    -0.097 F 
ATOM      8  F1  UNL d   1      -1.485  -0.140   2.049  0.00  0.00    -0.096 F 
ATOM      9  I   UNL d   1      -0.157   2.105   0.195  0.00  0.00    -0.060 I 
ATOM     10  F2  UNL d   1       1.269   0.073  -1.825  0.00  0.00    -0.096 F 
ATOM     11  F3  UNL d   1       1.322  -2.633  -1.916  0.00  0.00    -0.097 F 
ATOM     12  F4  UNL d   1      -0.014  -4.103  -0.046  0.00  0.00    -0.092 F 
ENDROOT
TORSDOF 0
ENDMDL
