MODEL 1
REMARK minimizedAffinity 2.67940998
REMARK minimizedRMSD -1
REMARK  0 active torsions:
REMARK  status: ('A' for Active; 'I' for Inactive)
ROOT
ATOM      1  C   UNL d   1      -0.582  -2.350  -0.579  0.00  0.00     0.124 A 
ATOM      2  C1  UNL d   1      -0.263  -1.521  -1.645  0.00  0.00     0.062 A 
ATOM      3  C2  UNL d   1       0.254  -0.250  -1.413  0.00  0.00     0.162 A 
ATOM      4  C3  UNL d   1       0.455   0.200  -0.108  0.00  0.00    -0.034 A 
ATOM      5  C4  UNL d   1       0.130  -0.639   0.959  0.00  0.00     0.162 A 
ATOM      6  C5  UNL d   1      -0.386  -1.909   0.722  0.00  0.00     0.062 A 
ATOM      7  F   UNL d   1      -0.694  -2.709   1.753  0.00  0.00    -0.097 F 
ATOM      8  F1  UNL d   1       0.311  -0.238   2.226  0.00  0.00    -0.096 F 
ATOM      9  I   UNL d   1       1.228   2.101   0.244  0.00  0.00    -0.060 I 
ATOM     10  F2  UNL d   1       0.554   0.530  -2.462  0.00  0.00    -0.096 F 
ATOM     11  F3  UNL d   1      -0.453  -1.945  -2.903  0.00  0.00    -0.097 F 
ATOM     12  F4  UNL d   1      -1.080  -3.573  -0.806  0.00  0.00    -0.092 F 
ENDROOT
TORSDOF 0
ENDMDL
