MODEL 1
REMARK minimizedAffinity -3.13819432
REMARK minimizedRMSD -1
REMARK  0 active torsions:
REMARK  status: ('A' for Active; 'I' for Inactive)
ROOT
ATOM      1  C   UNL d   1       0.603  -1.688  -0.871  0.00  0.00     0.124 A 
ATOM      2  C1  UNL d   1       0.015  -2.491   0.097  0.00  0.00     0.062 A 
ATOM      3  C2  UNL d   1      -0.995  -1.982   0.909  0.00  0.00     0.162 A 
ATOM      4  C3  UNL d   1      -1.425  -0.664   0.755  0.00  0.00    -0.034 A 
ATOM      5  C4  UNL d   1      -0.828   0.137  -0.220  0.00  0.00     0.162 A 
ATOM      6  C5  UNL d   1       0.181  -0.376  -1.029  0.00  0.00     0.062 A 
ATOM      7  F   UNL d   1       0.748   0.401  -1.963  0.00  0.00    -0.097 F 
ATOM      8  F1  UNL d   1      -1.218   1.409  -0.395  0.00  0.00    -0.096 F 
ATOM      9  I   UNL d   1      -2.936   0.099   1.966  0.00  0.00    -0.060 I 
ATOM     10  F2  UNL d   1      -1.546  -2.780   1.836  0.00  0.00    -0.096 F 
ATOM     11  F3  UNL d   1       0.421  -3.759   0.252  0.00  0.00    -0.097 F 
ATOM     12  F4  UNL d   1       1.575  -2.180  -1.649  0.00  0.00    -0.092 F 
ENDROOT
TORSDOF 0
ENDMDL
