MODEL 1
REMARK minimizedAffinity -0.772009075
REMARK minimizedRMSD -1
REMARK  0 active torsions:
REMARK  status: ('A' for Active; 'I' for Inactive)
ROOT
ATOM      1  C   UNL d   1       0.274  -2.392  -0.428  0.00  0.00     0.124 A 
ATOM      2  C1  UNL d   1       0.148  -1.382  -1.372  0.00  0.00     0.062 A 
ATOM      3  C2  UNL d   1       0.418  -0.062  -1.024  0.00  0.00     0.162 A 
ATOM      4  C3  UNL d   1       0.818   0.256   0.274  0.00  0.00    -0.034 A 
ATOM      5  C4  UNL d   1       0.942  -0.765   1.218  0.00  0.00     0.162 A 
ATOM      6  C5  UNL d   1       0.670  -2.083   0.865  0.00  0.00     0.062 A 
ATOM      7  F   UNL d   1       0.792  -3.058   1.778  0.00  0.00    -0.097 F 
ATOM      8  F1  UNL d   1       1.324  -0.495   2.475  0.00  0.00    -0.096 F 
ATOM      9  I   UNL d   1       1.224   2.229   0.799  0.00  0.00    -0.060 I 
ATOM     10  F2  UNL d   1       0.289   0.894  -1.956  0.00  0.00    -0.096 F 
ATOM     11  F3  UNL d   1      -0.236  -1.678  -2.622  0.00  0.00    -0.097 F 
ATOM     12  F4  UNL d   1       0.012  -3.661  -0.766  0.00  0.00    -0.092 F 
ENDROOT
TORSDOF 0
ENDMDL
