MODEL 1
REMARK minimizedAffinity 0.7202636
REMARK minimizedRMSD -1
REMARK  0 active torsions:
REMARK  status: ('A' for Active; 'I' for Inactive)
ROOT
ATOM      1  C   UNL d   1       2.017   3.799   0.896  0.00  0.00     0.124 A 
ATOM      2  C1  UNL d   1       0.659   4.049   1.044  0.00  0.00     0.062 A 
ATOM      3  C2  UNL d   1      -0.268   3.039   0.806  0.00  0.00     0.162 A 
ATOM      4  C3  UNL d   1       0.159   1.768   0.419  0.00  0.00    -0.034 A 
ATOM      5  C4  UNL d   1       1.525   1.525   0.272  0.00  0.00     0.162 A 
ATOM      6  C5  UNL d   1       2.448   2.538   0.511  0.00  0.00     0.062 A 
ATOM      7  F   UNL d   1       3.759   2.295   0.368  0.00  0.00    -0.097 F 
ATOM      8  F1  UNL d   1       1.970   0.315  -0.099  0.00  0.00    -0.096 F 
ATOM      9  I   UNL d   1      -1.225   0.255   0.062  0.00  0.00    -0.060 I 
ATOM     10  F2  UNL d   1      -1.574   3.308   0.955  0.00  0.00    -0.096 F 
ATOM     11  F3  UNL d   1       0.239   5.267   1.415  0.00  0.00    -0.097 F 
ATOM     12  F4  UNL d   1       2.907   4.773   1.125  0.00  0.00    -0.092 F 
ENDROOT
TORSDOF 0
ENDMDL
