MODEL 1
REMARK minimizedAffinity 4.03083515
REMARK minimizedRMSD -1
REMARK  0 active torsions:
REMARK  status: ('A' for Active; 'I' for Inactive)
ROOT
ATOM      1  C   UNL d   1       1.876   4.165   1.122  0.00  0.00     0.124 A 
ATOM      2  C1  UNL d   1       0.490   4.097   1.079  0.00  0.00     0.062 A 
ATOM      3  C2  UNL d   1      -0.143   2.894   0.780  0.00  0.00     0.162 A 
ATOM      4  C3  UNL d   1       0.610   1.748   0.523  0.00  0.00    -0.034 A 
ATOM      5  C4  UNL d   1       2.003   1.825   0.568  0.00  0.00     0.162 A 
ATOM      6  C5  UNL d   1       2.631   3.030   0.867  0.00  0.00     0.062 A 
ATOM      7  F   UNL d   1       3.969   3.093   0.908  0.00  0.00    -0.097 F 
ATOM      8  F1  UNL d   1       2.757   0.742   0.326  0.00  0.00    -0.096 F 
ATOM      9  I   UNL d   1      -0.332  -0.053   0.076  0.00  0.00    -0.060 I 
ATOM     10  F2  UNL d   1      -1.483   2.857   0.746  0.00  0.00    -0.096 F 
ATOM     11  F3  UNL d   1      -0.242   5.194   1.325  0.00  0.00    -0.097 F 
ATOM     12  F4  UNL d   1       2.482   5.325   1.409  0.00  0.00    -0.092 F 
ENDROOT
TORSDOF 0
ENDMDL
