MODEL 1
REMARK minimizedAffinity -3.50798512
REMARK minimizedRMSD -1
REMARK  0 active torsions:
REMARK  status: ('A' for Active; 'I' for Inactive)
ROOT
ATOM      1  C   UNL d   1       1.393  -3.235  -1.948  0.00  0.00     0.124 A 
ATOM      2  C1  UNL d   1       2.079  -2.112  -1.508  0.00  0.00     0.062 A 
ATOM      3  C2  UNL d   1       1.382  -0.963  -1.145  0.00  0.00     0.162 A 
ATOM      4  C3  UNL d   1      -0.011  -0.932  -1.219  0.00  0.00    -0.034 A 
ATOM      5  C4  UNL d   1      -0.694  -2.066  -1.663  0.00  0.00     0.162 A 
ATOM      6  C5  UNL d   1       0.007  -3.211  -2.025  0.00  0.00     0.062 A 
ATOM      7  F   UNL d   1      -0.657  -4.296  -2.449  0.00  0.00    -0.097 F 
ATOM      8  F1  UNL d   1      -2.033  -2.071  -1.746  0.00  0.00    -0.096 F 
ATOM      9  I   UNL d   1      -1.057   0.783  -0.677  0.00  0.00    -0.060 I 
ATOM     10  F2  UNL d   1       2.071   0.108  -0.724  0.00  0.00    -0.096 F 
ATOM     11  F3  UNL d   1       3.418  -2.132  -1.434  0.00  0.00    -0.097 F 
ATOM     12  F4  UNL d   1       2.066  -4.339  -2.297  0.00  0.00    -0.092 F 
ENDROOT
TORSDOF 0
ENDMDL
