MODEL 1
REMARK minimizedAffinity 13.5552034
REMARK minimizedRMSD -1
REMARK  0 active torsions:
REMARK  status: ('A' for Active; 'I' for Inactive)
ROOT
ATOM      1  C   UNL d   1       3.736   4.683   0.850  0.00  0.00     0.124 A 
ATOM      2  C1  UNL d   1       3.952   3.572   0.046  0.00  0.00     0.062 A 
ATOM      3  C2  UNL d   1       3.002   2.556  -0.013  0.00  0.00     0.162 A 
ATOM      4  C3  UNL d   1       1.827   2.647   0.732  0.00  0.00    -0.034 A 
ATOM      5  C4  UNL d   1       1.618   3.767   1.539  0.00  0.00     0.162 A 
ATOM      6  C5  UNL d   1       2.570   4.779   1.595  0.00  0.00     0.062 A 
ATOM      7  F   UNL d   1       2.360   5.852   2.372  0.00  0.00    -0.097 F 
ATOM      8  F1  UNL d   1       0.499   3.886   2.269  0.00  0.00    -0.096 F 
ATOM      9  I   UNL d   1       0.405   1.130   0.646  0.00  0.00    -0.060 I 
ATOM     10  F2  UNL d   1       3.237   1.494  -0.798  0.00  0.00    -0.096 F 
ATOM     11  F3  UNL d   1       5.079   3.476  -0.674  0.00  0.00    -0.097 F 
ATOM     12  F4  UNL d   1       4.652   5.658   0.906  0.00  0.00    -0.092 F 
ENDROOT
TORSDOF 0
ENDMDL
