MODEL 1
REMARK minimizedAffinity 9.84777737
REMARK minimizedRMSD -1
REMARK  0 active torsions:
REMARK  status: ('A' for Active; 'I' for Inactive)
ROOT
ATOM      1  C   UNL d   1       0.474   2.064   1.305  0.00  0.00     0.124 A 
ATOM      2  C1  UNL d   1      -0.901   2.030   1.117  0.00  0.00     0.062 A 
ATOM      3  C2  UNL d   1      -1.722   2.926   1.795  0.00  0.00     0.162 A 
ATOM      4  C3  UNL d   1      -1.171   3.865   2.667  0.00  0.00    -0.034 A 
ATOM      5  C4  UNL d   1       0.212   3.892   2.852  0.00  0.00     0.162 A 
ATOM      6  C5  UNL d   1       1.029   2.995   2.172  0.00  0.00     0.062 A 
ATOM      7  F   UNL d   1       2.357   3.029   2.355  0.00  0.00    -0.097 F 
ATOM      8  F1  UNL d   1       0.776   4.782   3.683  0.00  0.00    -0.096 F 
ATOM      9  I   UNL d   1      -2.396   5.207   3.682  0.00  0.00    -0.060 I 
ATOM     10  F2  UNL d   1      -3.047   2.871   1.594  0.00  0.00    -0.096 F 
ATOM     11  F3  UNL d   1      -1.440   1.132   0.281  0.00  0.00    -0.097 F 
ATOM     12  F4  UNL d   1       1.262   1.200   0.652  0.00  0.00    -0.092 F 
ENDROOT
TORSDOF 0
ENDMDL
