MODEL 1
REMARK minimizedAffinity 11.30264
REMARK minimizedRMSD -1
REMARK  0 active torsions:
REMARK  status: ('A' for Active; 'I' for Inactive)
ROOT
ATOM      1  C   UNL d   1      -1.255   0.866   0.893  0.00  0.00     0.124 A 
ATOM      2  C1  UNL d   1      -1.136   2.115   0.299  0.00  0.00     0.062 A 
ATOM      3  C2  UNL d   1      -0.450   3.137   0.949  0.00  0.00     0.162 A 
ATOM      4  C3  UNL d   1       0.124   2.914   2.200  0.00  0.00    -0.034 A 
ATOM      5  C4  UNL d   1      -0.000   1.655   2.792  0.00  0.00     0.162 A 
ATOM      6  C5  UNL d   1      -0.687   0.637   2.138  0.00  0.00     0.062 A 
ATOM      7  F   UNL d   1      -0.801  -0.569   2.713  0.00  0.00    -0.097 F 
ATOM      8  F1  UNL d   1       0.540   1.407   3.994  0.00  0.00    -0.096 F 
ATOM      9  I   UNL d   1       1.151   4.439   3.175  0.00  0.00    -0.060 I 
ATOM     10  F2  UNL d   1      -0.351   4.333   0.351  0.00  0.00    -0.096 F 
ATOM     11  F3  UNL d   1      -1.685   2.339  -0.904  0.00  0.00    -0.097 F 
ATOM     12  F4  UNL d   1      -1.917  -0.115   0.266  0.00  0.00    -0.092 F 
ENDROOT
TORSDOF 0
ENDMDL
