MODEL 1
REMARK minimizedAffinity 15.4297104
REMARK minimizedRMSD -1
REMARK  0 active torsions:
REMARK  status: ('A' for Active; 'I' for Inactive)
ROOT
ATOM      1  C   UNL d   1      -3.013  -3.939  -2.238  0.00  0.00     0.124 A 
ATOM      2  C1  UNL d   1      -1.874  -3.189  -1.982  0.00  0.00     0.062 A 
ATOM      3  C2  UNL d   1      -0.723  -3.382  -2.741  0.00  0.00     0.162 A 
ATOM      4  C3  UNL d   1      -0.706  -4.329  -3.765  0.00  0.00    -0.034 A 
ATOM      5  C4  UNL d   1      -1.856  -5.081  -4.016  0.00  0.00     0.162 A 
ATOM      6  C5  UNL d   1      -3.003  -4.884  -3.254  0.00  0.00     0.062 A 
ATOM      7  F   UNL d   1      -4.103  -5.610  -3.503  0.00  0.00    -0.097 F 
ATOM      8  F1  UNL d   1      -1.874  -6.000  -4.993  0.00  0.00    -0.096 F 
ATOM      9  I   UNL d   1       1.012  -4.620  -4.902  0.00  0.00    -0.060 I 
ATOM     10  F2  UNL d   1       0.363  -2.643  -2.471  0.00  0.00    -0.096 F 
ATOM     11  F3  UNL d   1      -1.881  -2.276  -0.999  0.00  0.00    -0.097 F 
ATOM     12  F4  UNL d   1      -4.119  -3.753  -1.505  0.00  0.00    -0.092 F 
ENDROOT
TORSDOF 0
ENDMDL
