MODEL 1
REMARK minimizedAffinity 14.9056702
REMARK minimizedRMSD -1
REMARK  0 active torsions:
REMARK  status: ('A' for Active; 'I' for Inactive)
ROOT
ATOM      1  C   UNL d   1      -2.582  -4.816  -2.301  0.00  0.00     0.124 A 
ATOM      2  C1  UNL d   1      -3.308  -4.009  -1.437  0.00  0.00     0.062 A 
ATOM      3  C2  UNL d   1      -2.753  -2.831  -0.945  0.00  0.00     0.162 A 
ATOM      4  C3  UNL d   1      -1.463  -2.453  -1.317  0.00  0.00    -0.034 A 
ATOM      5  C4  UNL d   1      -0.738  -3.270  -2.186  0.00  0.00     0.162 A 
ATOM      6  C5  UNL d   1      -1.298  -4.446  -2.675  0.00  0.00     0.062 A 
ATOM      7  F   UNL d   1      -0.594  -5.224  -3.510  0.00  0.00    -0.097 F 
ATOM      8  F1  UNL d   1       0.505  -2.936  -2.565  0.00  0.00    -0.096 F 
ATOM      9  I   UNL d   1      -0.628  -0.693  -0.584  0.00  0.00    -0.060 I 
ATOM     10  F2  UNL d   1      -3.478  -2.071  -0.111  0.00  0.00    -0.096 F 
ATOM     11  F3  UNL d   1      -4.549  -4.365  -1.073  0.00  0.00    -0.097 F 
ATOM     12  F4  UNL d   1      -3.119  -5.949  -2.772  0.00  0.00    -0.092 F 
ENDROOT
TORSDOF 0
ENDMDL
