MODEL 1
REMARK minimizedAffinity 17.0898628
REMARK minimizedRMSD -1
REMARK  0 active torsions:
REMARK  status: ('A' for Active; 'I' for Inactive)
ROOT
ATOM      1  C   UNL d   1       2.612  -2.356   4.646  0.00  0.00     0.124 A 
ATOM      2  C1  UNL d   1       3.851  -1.956   5.127  0.00  0.00     0.062 A 
ATOM      3  C2  UNL d   1       4.795  -2.906   5.506  0.00  0.00     0.162 A 
ATOM      4  C3  UNL d   1       4.504  -4.267   5.406  0.00  0.00    -0.034 A 
ATOM      5  C4  UNL d   1       3.255  -4.662   4.922  0.00  0.00     0.162 A 
ATOM      6  C5  UNL d   1       2.316  -3.708   4.544  0.00  0.00     0.062 A 
ATOM      7  F   UNL d   1       1.119  -4.097   4.080  0.00  0.00    -0.097 F 
ATOM      8  F1  UNL d   1       2.943  -5.961   4.812  0.00  0.00    -0.096 F 
ATOM      9  I   UNL d   1       5.912  -5.690   5.972  0.00  0.00    -0.060 I 
ATOM     10  F2  UNL d   1       5.984  -2.491   5.968  0.00  0.00    -0.096 F 
ATOM     11  F3  UNL d   1       4.140  -0.651   5.227  0.00  0.00    -0.097 F 
ATOM     12  F4  UNL d   1       1.706  -1.440   4.282  0.00  0.00    -0.092 F 
ENDROOT
TORSDOF 0
ENDMDL
