MODEL 1
REMARK minimizedAffinity 0.935486674
REMARK minimizedRMSD -1
REMARK  0 active torsions:
REMARK  status: ('A' for Active; 'I' for Inactive)
ROOT
ATOM      1  C2' OXE d   1      -2.022  -1.027   2.964  0.00  0.00     0.078 C 
ATOM      2  C1' OXE d   1       0.315  -1.021   1.409  0.00  0.00     0.078 C 
ATOM      3  C1  OXE d   1       0.262  -1.950   2.596  0.00  0.00    -0.078 A 
ATOM      4  C2  OXE d   1      -0.867  -1.913   3.378  0.00  0.00    -0.078 A 
ATOM      5  C3  OXE d   1      -0.991  -2.789   4.453  0.00  0.00     0.003 A 
ATOM      6  C4  OXE d   1       0.087  -3.598   4.835  0.00  0.00    -0.002 A 
ATOM      7  C5  OXE d   1       1.261  -3.622   4.076  0.00  0.00    -0.002 A 
ATOM      8  C6  OXE d   1       1.348  -2.837   2.931  0.00  0.00     0.003 A 
ENDROOT
TORSDOF 0
ENDMDL
