MODEL 1
REMARK minimizedAffinity 4.81958389
REMARK minimizedRMSD -1
REMARK  0 active torsions:
REMARK  status: ('A' for Active; 'I' for Inactive)
ROOT
ATOM      1  C2' OXE d   1      -0.520  -0.040   0.587  0.00  0.00     0.078 C 
ATOM      2  C1' OXE d   1       0.630  -2.470   1.395  0.00  0.00     0.078 C 
ATOM      3  C1  OXE d   1       1.559  -1.334   1.047  0.00  0.00    -0.078 A 
ATOM      4  C2  OXE d   1       0.989  -0.163   0.608  0.00  0.00    -0.078 A 
ATOM      5  C3  OXE d   1       1.797   0.934   0.326  0.00  0.00     0.003 A 
ATOM      6  C4  OXE d   1       3.192   0.809   0.338  0.00  0.00    -0.002 A 
ATOM      7  C5  OXE d   1       3.794  -0.387   0.744  0.00  0.00    -0.002 A 
ATOM      8  C6  OXE d   1       2.993  -1.452   1.141  0.00  0.00     0.003 A 
ENDROOT
TORSDOF 0
ENDMDL
