MODEL 1
REMARK minimizedAffinity 0.396239251
REMARK minimizedRMSD -1
REMARK  0 active torsions:
REMARK  status: ('A' for Active; 'I' for Inactive)
ROOT
ATOM      1  C2' OXE d   1      -0.292  -0.177   0.435  0.00  0.00     0.078 C 
ATOM      2  C1' OXE d   1       1.912  -1.830  -0.106  0.00  0.00     0.078 C 
ATOM      3  C1  OXE d   1       1.119  -2.103   1.148  0.00  0.00    -0.078 A 
ATOM      4  C2  OXE d   1       0.071  -1.260   1.429  0.00  0.00    -0.078 A 
ATOM      5  C3  OXE d   1      -0.727  -1.500   2.544  0.00  0.00     0.003 A 
ATOM      6  C4  OXE d   1      -0.379  -2.497   3.463  0.00  0.00    -0.002 A 
ATOM      7  C5  OXE d   1       0.708  -3.342   3.216  0.00  0.00    -0.002 A 
ATOM      8  C6  OXE d   1       1.440  -3.186   2.044  0.00  0.00     0.003 A 
ENDROOT
TORSDOF 0
ENDMDL
