MODEL 1
REMARK minimizedAffinity 4.1145463
REMARK minimizedRMSD -1
REMARK  0 active torsions:
REMARK  status: ('A' for Active; 'I' for Inactive)
ROOT
ATOM      1  C2' OXE d   1       5.477  -1.400   1.317  0.00  0.00     0.078 C 
ATOM      2  C1' OXE d   1       3.884  -3.521   0.399  0.00  0.00     0.078 C 
ATOM      3  C1  OXE d   1       3.226  -2.177   0.583  0.00  0.00    -0.078 A 
ATOM      4  C2  OXE d   1       4.002  -1.156   1.077  0.00  0.00    -0.078 A 
ATOM      5  C3  OXE d   1       3.459   0.118   1.215  0.00  0.00     0.003 A 
ATOM      6  C4  OXE d   1       2.092   0.333   1.001  0.00  0.00    -0.002 A 
ATOM      7  C5  OXE d   1       1.275  -0.702   0.535  0.00  0.00    -0.002 A 
ATOM      8  C6  OXE d   1       1.835  -1.950   0.281  0.00  0.00     0.003 A 
ENDROOT
TORSDOF 0
ENDMDL
