MODEL 1
REMARK minimizedAffinity -0.952524781
REMARK minimizedRMSD -1
REMARK  0 active torsions:
REMARK  status: ('A' for Active; 'I' for Inactive)
ROOT
ATOM      1  C2' OXE d   1      -3.469  -3.944  -5.598  0.00  0.00     0.078 C 
ATOM      2  C1' OXE d   1      -2.906  -3.950  -2.848  0.00  0.00     0.078 C 
ATOM      3  C1  OXE d   1      -1.942  -4.660  -3.765  0.00  0.00    -0.078 A 
ATOM      4  C2  OXE d   1      -2.250  -4.693  -5.104  0.00  0.00    -0.078 A 
ATOM      5  C3  OXE d   1      -1.367  -5.288  -6.000  0.00  0.00     0.003 A 
ATOM      6  C4  OXE d   1      -0.247  -5.986  -5.533  0.00  0.00    -0.002 A 
ATOM      7  C5  OXE d   1       0.064  -6.000  -4.169  0.00  0.00    -0.002 A 
ATOM      8  C6  OXE d   1      -0.748  -5.307  -3.279  0.00  0.00     0.003 A 
ENDROOT
TORSDOF 0
ENDMDL
