MODEL 1
REMARK minimizedAffinity 2.60115314
REMARK minimizedRMSD -1
REMARK  0 active torsions:
REMARK  status: ('A' for Active; 'I' for Inactive)
ROOT
ATOM      1  C2' OXE d   1      -0.992  -2.339   3.453  0.00  0.00     0.078 C 
ATOM      2  C1' OXE d   1       1.532  -3.534   3.162  0.00  0.00     0.078 C 
ATOM      3  C1  OXE d   1       1.121  -2.501   2.143  0.00  0.00    -0.078 A 
ATOM      4  C2  OXE d   1      -0.134  -1.955   2.267  0.00  0.00    -0.078 A 
ATOM      5  C3  OXE d   1      -0.542  -0.958   1.386  0.00  0.00     0.003 A 
ATOM      6  C4  OXE d   1       0.253  -0.616   0.285  0.00  0.00    -0.002 A 
ATOM      7  C5  OXE d   1       1.519  -1.188   0.118  0.00  0.00    -0.002 A 
ATOM      8  C6  OXE d   1       1.984  -2.099   1.060  0.00  0.00     0.003 A 
ENDROOT
TORSDOF 0
ENDMDL
