MODEL 1
REMARK minimizedAffinity 1.19071198
REMARK minimizedRMSD -1
REMARK  0 active torsions:
REMARK  status: ('A' for Active; 'I' for Inactive)
ROOT
ATOM      1  C2' OXE d   1      -2.358  -2.753  -1.917  0.00  0.00     0.078 C 
ATOM      2  C1' OXE d   1      -3.866  -0.508  -1.164  0.00  0.00     0.078 C 
ATOM      3  C1  OXE d   1      -2.438  -0.589  -0.685  0.00  0.00    -0.078 A 
ATOM      4  C2  OXE d   1      -1.722  -1.713  -1.019  0.00  0.00    -0.078 A 
ATOM      5  C3  OXE d   1      -0.384  -1.813  -0.649  0.00  0.00     0.003 A 
ATOM      6  C4  OXE d   1       0.193  -0.852   0.190  0.00  0.00    -0.002 A 
ATOM      7  C5  OXE d   1      -0.531   0.281   0.574  0.00  0.00    -0.002 A 
ATOM      8  C6  OXE d   1      -1.831   0.449   0.112  0.00  0.00     0.003 A 
ENDROOT
TORSDOF 0
ENDMDL
