MODEL 1
REMARK minimizedAffinity 6.55957794
REMARK minimizedRMSD -1
REMARK  0 active torsions:
REMARK  status: ('A' for Active; 'I' for Inactive)
ROOT
ATOM      1  C2' OXE d   1       2.101  -2.605   1.241  0.00  0.00     0.078 C 
ATOM      2  C1' OXE d   1      -0.278  -1.121   1.092  0.00  0.00     0.078 C 
ATOM      3  C1  OXE d   1      -0.000  -1.879   2.366  0.00  0.00    -0.078 A 
ATOM      4  C2  OXE d   1       1.143  -2.640   2.413  0.00  0.00    -0.078 A 
ATOM      5  C3  OXE d   1       1.474  -3.315   3.584  0.00  0.00     0.003 A 
ATOM      6  C4  OXE d   1       0.578  -3.351   4.659  0.00  0.00    -0.002 A 
ATOM      7  C5  OXE d   1      -0.611  -2.615   4.617  0.00  0.00    -0.002 A 
ATOM      8  C6  OXE d   1      -0.894  -1.842   3.497  0.00  0.00     0.003 A 
ENDROOT
TORSDOF 0
ENDMDL
