MODEL 1
REMARK minimizedAffinity 6.34819889
REMARK minimizedRMSD -1
REMARK  0 active torsions:
REMARK  status: ('A' for Active; 'I' for Inactive)
ROOT
ATOM      1  C2' OXE d   1       3.372   1.229  -3.914  0.00  0.00     0.078 C 
ATOM      2  C1' OXE d   1       2.249   1.322  -1.343  0.00  0.00     0.078 C 
ATOM      3  C1  OXE d   1       1.402   1.795  -2.498  0.00  0.00    -0.078 A 
ATOM      4  C2  OXE d   1       1.976   1.790  -3.746  0.00  0.00    -0.078 A 
ATOM      5  C3  OXE d   1       1.221   2.164  -4.854  0.00  0.00     0.003 A 
ATOM      6  C4  OXE d   1      -0.066   2.691  -4.689  0.00  0.00    -0.002 A 
ATOM      7  C5  OXE d   1      -0.655   2.742  -3.421  0.00  0.00    -0.002 A 
ATOM      8  C6  OXE d   1       0.048   2.259  -2.323  0.00  0.00     0.003 A 
ENDROOT
TORSDOF 0
ENDMDL
