MODEL 1
REMARK minimizedAffinity 5.60640669
REMARK minimizedRMSD -1
REMARK  0 active torsions:
REMARK  status: ('A' for Active; 'I' for Inactive)
ROOT
ATOM      1  C2' OXE d   1      -2.444   2.303  -1.309  0.00  0.00     0.078 C 
ATOM      2  C1' OXE d   1      -2.904   2.889  -4.016  0.00  0.00     0.078 C 
ATOM      3  C1  OXE d   1      -1.486   2.604  -3.589  0.00  0.00    -0.078 A 
ATOM      4  C2  OXE d   1      -1.263   2.364  -2.254  0.00  0.00    -0.078 A 
ATOM      5  C3  OXE d   1       0.018   2.042  -1.816  0.00  0.00     0.003 A 
ATOM      6  C4  OXE d   1       1.106   2.111  -2.694  0.00  0.00    -0.002 A 
ATOM      7  C5  OXE d   1       0.907   2.392  -4.050  0.00  0.00    -0.002 A 
ATOM      8  C6  OXE d   1      -0.385   2.599  -4.521  0.00  0.00     0.003 A 
ENDROOT
TORSDOF 0
ENDMDL
