MODEL 1
REMARK minimizedAffinity 10.1626873
REMARK minimizedRMSD -1
REMARK  0 active torsions:
REMARK  status: ('A' for Active; 'I' for Inactive)
ROOT
ATOM      1  C2' OXE d   1       2.115  -1.890   1.014  0.00  0.00     0.078 C 
ATOM      2  C1' OXE d   1      -0.657  -1.508   1.232  0.00  0.00     0.078 C 
ATOM      3  C1  OXE d   1       0.050  -2.197   2.372  0.00  0.00    -0.078 A 
ATOM      4  C2  OXE d   1       1.399  -2.421   2.237  0.00  0.00    -0.078 A 
ATOM      5  C3  OXE d   1       2.109  -3.003   3.283  0.00  0.00     0.003 A 
ATOM      6  C4  OXE d   1       1.437  -3.500   4.406  0.00  0.00    -0.002 A 
ATOM      7  C5  OXE d   1       0.058  -3.318   4.546  0.00  0.00    -0.002 A 
ATOM      8  C6  OXE d   1      -0.643  -2.632   3.560  0.00  0.00     0.003 A 
ENDROOT
TORSDOF 0
ENDMDL
