MODEL 1
REMARK minimizedAffinity 2.4863975
REMARK minimizedRMSD -1
REMARK  0 active torsions:
REMARK  status: ('A' for Active; 'I' for Inactive)
ROOT
ATOM      1  C2' OXE d   1       1.615  -1.888   0.751  0.00  0.00     0.078 C 
ATOM      2  C1' OXE d   1       0.598   0.716   1.013  0.00  0.00     0.078 C 
ATOM      3  C1  OXE d   1      -0.321  -0.347   0.465  0.00  0.00    -0.078 A 
ATOM      4  C2  OXE d   1       0.199  -1.607   0.296  0.00  0.00    -0.078 A 
ATOM      5  C3  OXE d   1      -0.622  -2.637  -0.154  0.00  0.00     0.003 A 
ATOM      6  C4  OXE d   1      -1.928  -2.367  -0.582  0.00  0.00    -0.002 A 
ATOM      7  C5  OXE d   1      -2.465  -1.082  -0.456  0.00  0.00    -0.002 A 
ATOM      8  C6  OXE d   1      -1.690  -0.072   0.104  0.00  0.00     0.003 A 
ENDROOT
TORSDOF 0
ENDMDL
