MODEL 1
REMARK minimizedAffinity 8.59022427
REMARK minimizedRMSD -1
REMARK  0 active torsions:
REMARK  status: ('A' for Active; 'I' for Inactive)
ROOT
ATOM      1  C2' OXE d   1       0.509  -0.230   0.711  0.00  0.00     0.078 C 
ATOM      2  C1' OXE d   1       2.510   1.556   1.539  0.00  0.00     0.078 C 
ATOM      3  C1  OXE d   1       2.487   1.150   0.087  0.00  0.00    -0.078 A 
ATOM      4  C2  OXE d   1       1.533   0.239  -0.300  0.00  0.00    -0.078 A 
ATOM      5  C3  OXE d   1       1.433  -0.128  -1.639  0.00  0.00     0.003 A 
ATOM      6  C4  OXE d   1       2.391   0.304  -2.565  0.00  0.00    -0.002 A 
ATOM      7  C5  OXE d   1       3.394   1.201  -2.184  0.00  0.00    -0.002 A 
ATOM      8  C6  OXE d   1       3.430   1.666  -0.874  0.00  0.00     0.003 A 
ENDROOT
TORSDOF 0
ENDMDL
