MODEL 1
REMARK minimizedAffinity 1.28378868
REMARK minimizedRMSD -1
REMARK  0 active torsions:
REMARK  status: ('A' for Active; 'I' for Inactive)
ROOT
ATOM      1  C2' OXE d   1       2.734   1.630  -3.100  0.00  0.00     0.078 C 
ATOM      2  C1' OXE d   1       2.688   4.084  -1.739  0.00  0.00     0.078 C 
ATOM      3  C1  OXE d   1       1.519   3.753  -2.632  0.00  0.00    -0.078 A 
ATOM      4  C2  OXE d   1       1.572   2.571  -3.330  0.00  0.00    -0.078 A 
ATOM      5  C3  OXE d   1       0.494   2.191  -4.126  0.00  0.00     0.003 A 
ATOM      6  C4  OXE d   1      -0.573   3.072  -4.341  0.00  0.00    -0.002 A 
ATOM      7  C5  OXE d   1      -0.627   4.299  -3.671  0.00  0.00    -0.002 A 
ATOM      8  C6  OXE d   1       0.388   4.635  -2.782  0.00  0.00     0.003 A 
ENDROOT
TORSDOF 0
ENDMDL
