MODEL 1
REMARK minimizedAffinity 12.5957203
REMARK minimizedRMSD -1
REMARK  0 active torsions:
REMARK  status: ('A' for Active; 'I' for Inactive)
ROOT
ATOM      1  C2' OXE d   1      -4.109   4.303  -1.223  0.00  0.00     0.078 C 
ATOM      2  C1' OXE d   1      -1.860   2.749  -0.587  0.00  0.00     0.078 C 
ATOM      3  C1  OXE d   1      -2.119   3.048  -2.042  0.00  0.00    -0.078 A 
ATOM      4  C2  OXE d   1      -3.248   3.770  -2.347  0.00  0.00    -0.078 A 
ATOM      5  C3  OXE d   1      -3.505   4.121  -3.670  0.00  0.00     0.003 A 
ATOM      6  C4  OXE d   1      -2.709   3.615  -4.705  0.00  0.00    -0.002 A 
ATOM      7  C5  OXE d   1      -1.577   2.845  -4.418  0.00  0.00    -0.002 A 
ATOM      8  C6  OXE d   1      -1.245   2.589  -3.092  0.00  0.00     0.003 A 
ENDROOT
TORSDOF 0
ENDMDL
