MODEL 1
REMARK minimizedAffinity -1.42081285
REMARK minimizedRMSD -1
REMARK  0 active torsions:
REMARK  status: ('A' for Active; 'I' for Inactive)
ROOT
ATOM      1  C2' OXE d   1      -5.403  -3.091  -5.922  0.00  0.00     0.078 C 
ATOM      2  C1' OXE d   1      -5.498  -5.896  -6.000  0.00  0.00     0.078 C 
ATOM      3  C1  OXE d   1      -4.141  -5.239  -5.936  0.00  0.00    -0.078 A 
ATOM      4  C2  OXE d   1      -4.103  -3.866  -5.946  0.00  0.00    -0.078 A 
ATOM      5  C3  OXE d   1      -2.880  -3.210  -5.833  0.00  0.00     0.003 A 
ATOM      6  C4  OXE d   1      -1.682  -3.933  -5.866  0.00  0.00    -0.002 A 
ATOM      7  C5  OXE d   1      -1.698  -5.332  -5.896  0.00  0.00    -0.002 A 
ATOM      8  C6  OXE d   1      -2.917  -6.000  -5.889  0.00  0.00     0.003 A 
ENDROOT
TORSDOF 0
ENDMDL
