MODEL 1
REMARK minimizedAffinity -1.85778773
REMARK minimizedRMSD -1
REMARK  0 active torsions:
REMARK  status: ('A' for Active; 'I' for Inactive)
ROOT
ATOM      1  C2' OXE d   1      -5.180  -5.916  -5.966  0.00  0.00     0.078 C 
ATOM      2  C1' OXE d   1      -2.374  -5.951  -5.920  0.00  0.00     0.078 C 
ATOM      3  C1  OXE d   1      -3.061  -4.608  -5.930  0.00  0.00    -0.078 A 
ATOM      4  C2  OXE d   1      -4.433  -4.600  -6.000  0.00  0.00    -0.078 A 
ATOM      5  C3  OXE d   1      -5.119  -3.390  -5.957  0.00  0.00     0.003 A 
ATOM      6  C4  OXE d   1      -4.420  -2.177  -5.998  0.00  0.00    -0.002 A 
ATOM      7  C5  OXE d   1      -3.021  -2.163  -5.967  0.00  0.00    -0.002 A 
ATOM      8  C6  OXE d   1      -2.329  -3.366  -5.890  0.00  0.00     0.003 A 
ENDROOT
TORSDOF 0
ENDMDL
