MODEL 1
REMARK minimizedAffinity -6.64363146
REMARK minimizedRMSD -1
REMARK  1 active torsions:
REMARK  status: ('A' for Active; 'I' for Inactive)
REMARK    1  A    between atoms: C1_2  and  C2_3 
ROOT
ATOM      1  C2  UNL d   1      -0.998  -1.342   0.080  0.00  0.00    -0.076 A 
ATOM      2  C3  UNL d   1      -2.089  -0.950  -0.715  0.00  0.00     0.004 A 
ATOM      3  C4  UNL d   1      -1.950   0.042  -1.684  0.00  0.00    -0.003 A 
ATOM      4  C5  UNL d   1      -0.718   0.658  -1.874  0.00  0.00     0.000 A 
ATOM      5  C6  UNL d   1       0.379   0.270  -1.106  0.00  0.00     0.000 A 
ATOM      6  C7  UNL d   1       0.260  -0.740  -0.136  0.00  0.00    -0.073 A 
ATOM      7  C8  UNL d   1       1.475  -1.116   0.668  0.00  0.00     0.078 C 
ENDROOT
BRANCH   1   8
ATOM      8  C1  UNL d   1      -1.215  -2.404   1.134  0.00  0.00     0.053 C 
ATOM      9  C   UNL d   1      -2.673  -2.820   1.251  0.00  0.00     0.018 C 
ENDBRANCH   1   8
TORSDOF 1
ENDMDL
