MODEL 1
REMARK minimizedAffinity -4.21859169
REMARK minimizedRMSD -1
REMARK  1 active torsions:
REMARK  status: ('A' for Active; 'I' for Inactive)
REMARK    1  A    between atoms: C1_2  and  C2_3 
ROOT
ATOM      1  C2  UNL d   1       0.523  -0.122  -0.064  0.00  0.00    -0.076 A 
ATOM      2  C3  UNL d   1      -0.023  -0.579   1.148  0.00  0.00     0.004 A 
ATOM      3  C4  UNL d   1      -1.363  -0.951   1.236  0.00  0.00    -0.003 A 
ATOM      4  C5  UNL d   1      -2.180  -0.874   0.113  0.00  0.00     0.000 A 
ATOM      5  C6  UNL d   1      -1.651  -0.440  -1.102  0.00  0.00     0.000 A 
ATOM      6  C7  UNL d   1      -0.298  -0.076  -1.212  0.00  0.00    -0.073 A 
ATOM      7  C8  UNL d   1       0.218   0.390  -2.545  0.00  0.00     0.078 C 
ENDROOT
BRANCH   1   8
ATOM      8  C1  UNL d   1       1.976   0.294  -0.093  0.00  0.00     0.053 C 
ATOM      9  C   UNL d   1       2.258   1.490   0.802  0.00  0.00     0.018 C 
ENDBRANCH   1   8
TORSDOF 1
ENDMDL
