MODEL 1
REMARK minimizedAffinity -3.71421266
REMARK minimizedRMSD -1
REMARK  1 active torsions:
REMARK  status: ('A' for Active; 'I' for Inactive)
REMARK    1  A    between atoms: C1_2  and  C2_3 
ROOT
ATOM      1  C2  UNL d   1      -0.335   0.199   0.383  0.00  0.00    -0.076 A 
ATOM      2  C3  UNL d   1      -1.366   0.216   1.339  0.00  0.00     0.004 A 
ATOM      3  C4  UNL d   1      -2.696   0.035   0.962  0.00  0.00    -0.003 A 
ATOM      4  C5  UNL d   1      -3.017  -0.166  -0.375  0.00  0.00     0.000 A 
ATOM      5  C6  UNL d   1      -2.005  -0.204  -1.335  0.00  0.00     0.000 A 
ATOM      6  C7  UNL d   1      -0.658  -0.040  -0.970  0.00  0.00    -0.073 A 
ATOM      7  C8  UNL d   1       0.392  -0.083  -2.047  0.00  0.00     0.078 C 
ENDROOT
BRANCH   1   8
ATOM      8  C1  UNL d   1       1.086   0.427   0.846  0.00  0.00     0.053 C 
ATOM      9  C   UNL d   1       1.299   1.826   1.404  0.00  0.00     0.018 C 
ENDBRANCH   1   8
TORSDOF 1
ENDMDL
