MODEL 1
REMARK minimizedAffinity -6.31169653
REMARK minimizedRMSD -1
REMARK  1 active torsions:
REMARK  status: ('A' for Active; 'I' for Inactive)
REMARK    1  A    between atoms: C1_2  and  C2_3 
ROOT
ATOM      1  C2  UNL d   1      -0.039  -0.398   0.117  0.00  0.00    -0.076 A 
ATOM      2  C3  UNL d   1      -0.502   0.147  -1.093  0.00  0.00     0.004 A 
ATOM      3  C4  UNL d   1      -1.864   0.187  -1.387  0.00  0.00    -0.003 A 
ATOM      4  C5  UNL d   1      -2.785  -0.318  -0.475  0.00  0.00     0.000 A 
ATOM      5  C6  UNL d   1      -2.344  -0.846   0.738  0.00  0.00     0.000 A 
ATOM      6  C7  UNL d   1      -0.976  -0.879   1.057  0.00  0.00    -0.073 A 
ATOM      7  C8  UNL d   1      -0.556  -1.466   2.376  0.00  0.00     0.078 C 
ENDROOT
BRANCH   1   8
ATOM      8  C1  UNL d   1       1.451  -0.439   0.369  0.00  0.00     0.053 C 
ATOM      9  C   UNL d   1       2.115   0.913   0.159  0.00  0.00     0.018 C 
ENDBRANCH   1   8
TORSDOF 1
ENDMDL
