MODEL 1
REMARK minimizedAffinity -5.8446784
REMARK minimizedRMSD -1
REMARK  1 active torsions:
REMARK  status: ('A' for Active; 'I' for Inactive)
REMARK    1  A    between atoms: C1_2  and  C2_3 
ROOT
ATOM      1  C2  UNL d   1      -0.227  -0.309   0.090  0.00  0.00    -0.076 A 
ATOM      2  C3  UNL d   1      -0.759   0.278  -1.071  0.00  0.00     0.004 A 
ATOM      3  C4  UNL d   1      -2.125   0.221  -1.342  0.00  0.00    -0.003 A 
ATOM      4  C5  UNL d   1      -2.981  -0.424  -0.456  0.00  0.00     0.000 A 
ATOM      5  C6  UNL d   1      -2.473  -0.996   0.709  0.00  0.00     0.000 A 
ATOM      6  C7  UNL d   1      -1.101  -0.933   1.006  0.00  0.00    -0.073 A 
ATOM      7  C8  UNL d   1      -0.606  -1.573   2.275  0.00  0.00     0.078 C 
ENDROOT
BRANCH   1   8
ATOM      8  C1  UNL d   1       1.266  -0.238   0.318  0.00  0.00     0.053 C 
ATOM      9  C   UNL d   1       1.744   1.174   0.616  0.00  0.00     0.018 C 
ENDBRANCH   1   8
TORSDOF 1
ENDMDL
