MODEL 1
REMARK minimizedAffinity -4.34542227
REMARK minimizedRMSD -1
REMARK  1 active torsions:
REMARK  status: ('A' for Active; 'I' for Inactive)
REMARK    1  A    between atoms: C1_2  and  C2_3 
ROOT
ATOM      1  C2  UNL d   1      -0.407  -0.235   0.189  0.00  0.00    -0.076 A 
ATOM      2  C3  UNL d   1      -0.913  -1.034   1.228  0.00  0.00     0.004 A 
ATOM      3  C4  UNL d   1      -2.063  -1.801   1.049  0.00  0.00    -0.003 A 
ATOM      4  C5  UNL d   1      -2.726  -1.781  -0.174  0.00  0.00     0.000 A 
ATOM      5  C6  UNL d   1      -2.228  -1.007  -1.221  0.00  0.00     0.000 A 
ATOM      6  C7  UNL d   1      -1.060  -0.241  -1.062  0.00  0.00    -0.073 A 
ATOM      7  C8  UNL d   1      -0.571   0.579  -2.224  0.00  0.00     0.078 C 
ENDROOT
BRANCH   1   8
ATOM      8  C1  UNL d   1       0.829   0.596   0.450  0.00  0.00     0.053 C 
ATOM      9  C   UNL d   1       2.019  -0.249   0.878  0.00  0.00     0.018 C 
ENDBRANCH   1   8
TORSDOF 1
ENDMDL
