MODEL 1
REMARK minimizedAffinity -3.37468767
REMARK minimizedRMSD -1
REMARK  1 active torsions:
REMARK  status: ('A' for Active; 'I' for Inactive)
REMARK    1  A    between atoms: C1_2  and  C2_3 
ROOT
ATOM      1  C2  UNL d   1       2.932   2.419  -0.721  0.00  0.00    -0.076 A 
ATOM      2  C3  UNL d   1       3.500   2.114  -1.971  0.00  0.00     0.004 A 
ATOM      3  C4  UNL d   1       4.183   3.083  -2.705  0.00  0.00    -0.003 A 
ATOM      4  C5  UNL d   1       4.310   4.372  -2.200  0.00  0.00     0.000 A 
ATOM      5  C6  UNL d   1       3.769   4.688  -0.954  0.00  0.00     0.000 A 
ATOM      6  C7  UNL d   1       3.092   3.719  -0.195  0.00  0.00    -0.073 A 
ATOM      7  C8  UNL d   1       2.522   4.116   1.140  0.00  0.00     0.078 C 
ENDROOT
BRANCH   1   8
ATOM      8  C1  UNL d   1       2.180   1.335   0.016  0.00  0.00     0.053 C 
ATOM      9  C   UNL d   1       1.055   0.738  -0.815  0.00  0.00     0.018 C 
ENDBRANCH   1   8
TORSDOF 1
ENDMDL
