MODEL 1
REMARK minimizedAffinity -3.06655979
REMARK minimizedRMSD -1
REMARK  1 active torsions:
REMARK  status: ('A' for Active; 'I' for Inactive)
REMARK    1  A    between atoms: C1_2  and  C2_3 
ROOT
ATOM      1  C2  UNL d   1      -0.494  -1.038   0.083  0.00  0.00    -0.076 A 
ATOM      2  C3  UNL d   1      -1.355  -0.691  -0.972  0.00  0.00     0.004 A 
ATOM      3  C4  UNL d   1      -2.497  -1.442  -1.243  0.00  0.00    -0.003 A 
ATOM      4  C5  UNL d   1      -2.798  -2.552  -0.463  0.00  0.00     0.000 A 
ATOM      5  C6  UNL d   1      -1.964  -2.901   0.600  0.00  0.00     0.000 A 
ATOM      6  C7  UNL d   1      -0.817  -2.145   0.897  0.00  0.00    -0.073 A 
ATOM      7  C8  UNL d   1       0.049  -2.571   2.050  0.00  0.00     0.078 C 
ENDROOT
BRANCH   1   8
ATOM      8  C1  UNL d   1       0.745  -0.202   0.313  0.00  0.00     0.053 C 
ATOM      9  C   UNL d   1       1.618  -0.100  -0.929  0.00  0.00     0.018 C 
ENDBRANCH   1   8
TORSDOF 1
ENDMDL
