MODEL 1
REMARK minimizedAffinity -5.59115028
REMARK minimizedRMSD -1
REMARK  1 active torsions:
REMARK  status: ('A' for Active; 'I' for Inactive)
REMARK    1  A    between atoms: C1_2  and  C2_3 
ROOT
ATOM      1  C2  UNL d   1      -1.130  -1.253   0.104  0.00  0.00    -0.076 A 
ATOM      2  C3  UNL d   1      -0.974  -0.215  -0.832  0.00  0.00     0.004 A 
ATOM      3  C4  UNL d   1       0.224   0.490  -0.929  0.00  0.00    -0.003 A 
ATOM      4  C5  UNL d   1       1.287   0.168  -0.093  0.00  0.00     0.000 A 
ATOM      5  C6  UNL d   1       1.157  -0.870   0.829  0.00  0.00     0.000 A 
ATOM      6  C7  UNL d   1      -0.039  -1.601   0.929  0.00  0.00    -0.073 A 
ATOM      7  C8  UNL d   1      -0.127  -2.706   1.946  0.00  0.00     0.078 C 
ENDROOT
BRANCH   1   8
ATOM      8  C1  UNL d   1      -2.462  -1.964   0.182  0.00  0.00     0.053 C 
ATOM      9  C   UNL d   1      -3.486  -1.391  -0.786  0.00  0.00     0.018 C 
ENDBRANCH   1   8
TORSDOF 1
ENDMDL
