MODEL 1
REMARK minimizedAffinity -3.54912639
REMARK minimizedRMSD -1
REMARK  1 active torsions:
REMARK  status: ('A' for Active; 'I' for Inactive)
REMARK    1  A    between atoms: C1_2  and  C2_3 
ROOT
ATOM      1  C2  UNL d   1       2.488   2.261  -0.444  0.00  0.00    -0.076 A 
ATOM      2  C3  UNL d   1       3.008   1.968  -1.717  0.00  0.00     0.004 A 
ATOM      3  C4  UNL d   1       3.738   2.919  -2.429  0.00  0.00    -0.003 A 
ATOM      4  C5  UNL d   1       3.960   4.177  -1.880  0.00  0.00     0.000 A 
ATOM      5  C6  UNL d   1       3.467   4.478  -0.611  0.00  0.00     0.000 A 
ATOM      6  C7  UNL d   1       2.743   3.526   0.128  0.00  0.00    -0.073 A 
ATOM      7  C8  UNL d   1       2.229   3.907   1.489  0.00  0.00     0.078 C 
ENDROOT
BRANCH   1   8
ATOM      8  C1  UNL d   1       1.682   1.200   0.270  0.00  0.00     0.053 C 
ATOM      9  C   UNL d   1       0.618   0.578  -0.622  0.00  0.00     0.018 C 
ENDBRANCH   1   8
TORSDOF 1
ENDMDL
