MODEL 1
REMARK minimizedAffinity -4.81844711
REMARK minimizedRMSD -1
REMARK  1 active torsions:
REMARK  status: ('A' for Active; 'I' for Inactive)
REMARK    1  A    between atoms: C1_2  and  C2_3 
ROOT
ATOM      1  C2  UNL d   1       0.431  -0.840  -0.238  0.00  0.00    -0.076 A 
ATOM      2  C3  UNL d   1       0.110  -0.009  -1.325  0.00  0.00     0.004 A 
ATOM      3  C4  UNL d   1      -1.099  -0.150  -2.003  0.00  0.00    -0.003 A 
ATOM      4  C5  UNL d   1      -2.007  -1.125  -1.605  0.00  0.00     0.000 A 
ATOM      5  C6  UNL d   1      -1.713  -1.947  -0.518  0.00  0.00     0.000 A 
ATOM      6  C7  UNL d   1      -0.505  -1.807   0.187  0.00  0.00    -0.073 A 
ATOM      7  C8  UNL d   1      -0.236  -2.724   1.348  0.00  0.00     0.078 C 
ENDROOT
BRANCH   1   8
ATOM      8  C1  UNL d   1       1.770  -0.658   0.442  0.00  0.00     0.053 C 
ATOM      9  C   UNL d   1       2.326   0.746   0.267  0.00  0.00     0.018 C 
ENDBRANCH   1   8
TORSDOF 1
ENDMDL
