MODEL 1
REMARK minimizedAffinity -4.22624016
REMARK minimizedRMSD -1
REMARK  1 active torsions:
REMARK  status: ('A' for Active; 'I' for Inactive)
REMARK    1  A    between atoms: C1_2  and  C2_3 
ROOT
ATOM      1  C2  UNL d   1       0.522  -0.246  -0.052  0.00  0.00    -0.076 A 
ATOM      2  C3  UNL d   1       0.027   0.343  -1.227  0.00  0.00     0.004 A 
ATOM      3  C4  UNL d   1      -1.145  -0.120  -1.824  0.00  0.00    -0.003 A 
ATOM      4  C5  UNL d   1      -1.840  -1.181  -1.254  0.00  0.00     0.000 A 
ATOM      5  C6  UNL d   1      -1.373  -1.766  -0.078  0.00  0.00     0.000 A 
ATOM      6  C7  UNL d   1      -0.202  -1.300   0.545  0.00  0.00    -0.073 A 
ATOM      7  C8  UNL d   1       0.260  -1.973   1.809  0.00  0.00     0.078 C 
ENDROOT
BRANCH   1   8
ATOM      8  C1  UNL d   1       1.812   0.281   0.535  0.00  0.00     0.053 C 
ATOM      9  C   UNL d   1       2.223   1.616  -0.066  0.00  0.00     0.018 C 
ENDBRANCH   1   8
TORSDOF 1
ENDMDL
