MODEL 1
REMARK minimizedAffinity -4.11494255
REMARK minimizedRMSD -1
REMARK  1 active torsions:
REMARK  status: ('A' for Active; 'I' for Inactive)
REMARK    1  A    between atoms: C1_2  and  C2_3 
ROOT
ATOM      1  C2  UNL d   1       2.338   2.136  -0.130  0.00  0.00    -0.076 A 
ATOM      2  C3  UNL d   1       2.726   2.261  -1.475  0.00  0.00     0.004 A 
ATOM      3  C4  UNL d   1       3.322   3.431  -1.944  0.00  0.00    -0.003 A 
ATOM      4  C5  UNL d   1       3.539   4.495  -1.075  0.00  0.00     0.000 A 
ATOM      5  C6  UNL d   1       3.176   4.382   0.266  0.00  0.00     0.000 A 
ATOM      6  C7  UNL d   1       2.589   3.203   0.759  0.00  0.00    -0.073 A 
ATOM      7  C8  UNL d   1       2.212   3.138   2.214  0.00  0.00     0.078 C 
ENDROOT
BRANCH   1   8
ATOM      8  C1  UNL d   1       1.672   0.854   0.315  0.00  0.00     0.053 C 
ATOM      9  C   UNL d   1       0.371   0.585  -0.426  0.00  0.00     0.018 C 
ENDBRANCH   1   8
TORSDOF 1
ENDMDL
