MODEL 1
REMARK minimizedAffinity -2.70586228
REMARK minimizedRMSD -1
REMARK  0 active torsions:
REMARK  status: ('A' for Active; 'I' for Inactive)
ROOT
ATOM      1  C   UNL d   1       0.441   0.497   2.150  0.00  0.00     0.124 A 
ATOM      2  C1  UNL d   1       1.050   0.954   0.990  0.00  0.00     0.062 A 
ATOM      3  C2  UNL d   1       0.726   0.390  -0.241  0.00  0.00     0.162 A 
ATOM      4  C3  UNL d   1      -0.214  -0.638  -0.317  0.00  0.00    -0.034 A 
ATOM      5  C4  UNL d   1      -0.822  -1.093   0.854  0.00  0.00     0.162 A 
ATOM      6  C5  UNL d   1      -0.495  -0.525   2.081  0.00  0.00     0.062 A 
ATOM      7  F   UNL d   1      -1.084  -0.968   3.201  0.00  0.00    -0.097 F 
ATOM      8  F1  UNL d   1      -1.730  -2.079   0.816  0.00  0.00    -0.096 F 
ATOM      9  I   UNL d   1      -0.702  -1.485  -2.155  0.00  0.00    -0.060 I 
ATOM     10  F2  UNL d   1       1.330   0.851  -1.345  0.00  0.00    -0.096 F 
ATOM     11  F3  UNL d   1       1.955   1.942   1.054  0.00  0.00    -0.097 F 
ATOM     12  F4  UNL d   1       0.755   1.042   3.332  0.00  0.00    -0.092 F 
ENDROOT
TORSDOF 0
ENDMDL
