MODEL 1
REMARK minimizedAffinity -1.46634674
REMARK minimizedRMSD -1
REMARK  0 active torsions:
REMARK  status: ('A' for Active; 'I' for Inactive)
ROOT
ATOM      1  C   UNL d   1      -0.555   0.066   2.598  0.00  0.00     0.124 A 
ATOM      2  C1  UNL d   1      -1.458  -0.333   1.622  0.00  0.00     0.062 A 
ATOM      3  C2  UNL d   1      -1.103  -0.282   0.277  0.00  0.00     0.162 A 
ATOM      4  C3  UNL d   1       0.162   0.169  -0.100  0.00  0.00    -0.034 A 
ATOM      5  C4  UNL d   1       1.064   0.570   0.887  0.00  0.00     0.162 A 
ATOM      6  C5  UNL d   1       0.705   0.517   2.230  0.00  0.00     0.062 A 
ATOM      7  F   UNL d   1       1.578   0.903   3.171  0.00  0.00    -0.097 F 
ATOM      8  F1  UNL d   1       2.288   1.009   0.559  0.00  0.00    -0.096 F 
ATOM      9  I   UNL d   1       0.696   0.247  -2.110  0.00  0.00    -0.060 I 
ATOM     10  F2  UNL d   1      -1.995  -0.674  -0.644  0.00  0.00    -0.096 F 
ATOM     11  F3  UNL d   1      -2.676  -0.769   1.976  0.00  0.00    -0.097 F 
ATOM     12  F4  UNL d   1      -0.899   0.017   3.891  0.00  0.00    -0.092 F 
ENDROOT
TORSDOF 0
ENDMDL
