MODEL 1
REMARK minimizedAffinity -1.79862106
REMARK minimizedRMSD -1
REMARK  0 active torsions:
REMARK  status: ('A' for Active; 'I' for Inactive)
ROOT
ATOM      1  C   UNL d   1      -0.785   0.031   2.307  0.00  0.00     0.124 A 
ATOM      2  C1  UNL d   1       0.573   0.315   2.295  0.00  0.00     0.062 A 
ATOM      3  C2  UNL d   1       1.288   0.264   1.101  0.00  0.00     0.162 A 
ATOM      4  C3  UNL d   1       0.645  -0.072  -0.090  0.00  0.00    -0.034 A 
ATOM      5  C4  UNL d   1      -0.721  -0.358  -0.069  0.00  0.00     0.162 A 
ATOM      6  C5  UNL d   1      -1.431  -0.305   1.126  0.00  0.00     0.062 A 
ATOM      7  F   UNL d   1      -2.744  -0.580   1.136  0.00  0.00    -0.097 F 
ATOM      8  F1  UNL d   1      -1.371  -0.684  -1.196  0.00  0.00    -0.096 F 
ATOM      9  I   UNL d   1       1.710  -0.150  -1.876  0.00  0.00    -0.060 I 
ATOM     10  F2  UNL d   1       2.600   0.543   1.119  0.00  0.00    -0.096 F 
ATOM     11  F3  UNL d   1       1.200   0.639   3.435  0.00  0.00    -0.097 F 
ATOM     12  F4  UNL d   1      -1.470   0.081   3.457  0.00  0.00    -0.092 F 
ENDROOT
TORSDOF 0
ENDMDL
