MODEL 1
REMARK minimizedAffinity -2.26959991
REMARK minimizedRMSD -1
REMARK  0 active torsions:
REMARK  status: ('A' for Active; 'I' for Inactive)
ROOT
ATOM      1  C   UNL d   1      -0.834  -0.655   1.446  0.00  0.00     0.124 A 
ATOM      2  C1  UNL d   1      -0.178  -0.389   0.252  0.00  0.00     0.062 A 
ATOM      3  C2  UNL d   1       0.880   0.515   0.222  0.00  0.00     0.162 A 
ATOM      4  C3  UNL d   1       1.290   1.159   1.389  0.00  0.00    -0.034 A 
ATOM      5  C4  UNL d   1       0.624   0.886   2.586  0.00  0.00     0.162 A 
ATOM      6  C5  UNL d   1      -0.433  -0.018   2.611  0.00  0.00     0.062 A 
ATOM      7  F   UNL d   1      -1.065  -0.275   3.765  0.00  0.00    -0.097 F 
ATOM      8  F1  UNL d   1       0.992   1.487   3.727  0.00  0.00    -0.096 F 
ATOM      9  I   UNL d   1       2.871   2.511   1.348  0.00  0.00    -0.060 I 
ATOM     10  F2  UNL d   1       1.496   0.754  -0.946  0.00  0.00    -0.096 F 
ATOM     11  F3  UNL d   1      -0.565  -1.002  -0.876  0.00  0.00    -0.097 F 
ATOM     12  F4  UNL d   1      -1.852  -1.525   1.472  0.00  0.00    -0.092 F 
ENDROOT
TORSDOF 0
ENDMDL
