MODEL 1
REMARK minimizedAffinity -4.19842052
REMARK minimizedRMSD -1
REMARK  0 active torsions:
REMARK  status: ('A' for Active; 'I' for Inactive)
ROOT
ATOM      1  C   UNL d   1       0.482  -0.045   2.522  0.00  0.00     0.124 A 
ATOM      2  C1  UNL d   1      -0.839  -0.217   2.134  0.00  0.00     0.062 A 
ATOM      3  C2  UNL d   1      -1.231   0.081   0.832  0.00  0.00     0.162 A 
ATOM      4  C3  UNL d   1      -0.300   0.554  -0.092  0.00  0.00    -0.034 A 
ATOM      5  C4  UNL d   1       1.027   0.726   0.305  0.00  0.00     0.162 A 
ATOM      6  C5  UNL d   1       1.414   0.426   1.607  0.00  0.00     0.062 A 
ATOM      7  F   UNL d   1       2.691   0.593   1.980  0.00  0.00    -0.097 F 
ATOM      8  F1  UNL d   1       1.948   1.179  -0.558  0.00  0.00    -0.096 F 
ATOM      9  I   UNL d   1      -0.882   1.001  -2.040  0.00  0.00    -0.060 I 
ATOM     10  F2  UNL d   1      -2.515  -0.095   0.485  0.00  0.00    -0.096 F 
ATOM     11  F3  UNL d   1      -1.741  -0.671   3.016  0.00  0.00    -0.097 F 
ATOM     12  F4  UNL d   1       0.857  -0.332   3.775  0.00  0.00    -0.092 F 
ENDROOT
TORSDOF 0
ENDMDL
