MODEL 1
REMARK minimizedAffinity -3.29415298
REMARK minimizedRMSD -1
REMARK  0 active torsions:
REMARK  status: ('A' for Active; 'I' for Inactive)
ROOT
ATOM      1  C   UNL d   1       0.507   0.264   2.059  0.00  0.00     0.124 A 
ATOM      2  C1  UNL d   1      -0.743  -0.173   1.644  0.00  0.00     0.062 A 
ATOM      3  C2  UNL d   1      -1.006  -0.357   0.289  0.00  0.00     0.162 A 
ATOM      4  C3  UNL d   1      -0.017  -0.105  -0.661  0.00  0.00    -0.034 A 
ATOM      5  C4  UNL d   1       1.238   0.336  -0.236  0.00  0.00     0.162 A 
ATOM      6  C5  UNL d   1       1.496   0.518   1.119  0.00  0.00     0.062 A 
ATOM      7  F   UNL d   1       2.705   0.940   1.518  0.00  0.00    -0.097 F 
ATOM      8  F1  UNL d   1       2.213   0.587  -1.122  0.00  0.00    -0.096 F 
ATOM      9  I   UNL d   1      -0.406  -0.379  -2.687  0.00  0.00    -0.060 I 
ATOM     10  F2  UNL d   1      -2.224  -0.780  -0.083  0.00  0.00    -0.096 F 
ATOM     11  F3  UNL d   1      -1.701  -0.418   2.549  0.00  0.00    -0.097 F 
ATOM     12  F4  UNL d   1       0.757   0.441   3.362  0.00  0.00    -0.092 F 
ENDROOT
TORSDOF 0
ENDMDL
