MODEL 1
REMARK minimizedAffinity 0.347307473
REMARK minimizedRMSD -1
REMARK  0 active torsions:
REMARK  status: ('A' for Active; 'I' for Inactive)
ROOT
ATOM      1  C   UNL d   1      -0.222  -0.035   2.668  0.00  0.00     0.124 A 
ATOM      2  C1  UNL d   1       0.871   0.702   2.235  0.00  0.00     0.062 A 
ATOM      3  C2  UNL d   1       1.205   0.731   0.884  0.00  0.00     0.162 A 
ATOM      4  C3  UNL d   1       0.444   0.022  -0.045  0.00  0.00    -0.034 A 
ATOM      5  C4  UNL d   1      -0.654  -0.717   0.399  0.00  0.00     0.162 A 
ATOM      6  C5  UNL d   1      -0.984  -0.744   1.750  0.00  0.00     0.062 A 
ATOM      7  F   UNL d   1      -2.041  -1.456   2.166  0.00  0.00    -0.097 F 
ATOM      8  F1  UNL d   1      -1.408  -1.411  -0.468  0.00  0.00    -0.096 F 
ATOM      9  I   UNL d   1       0.939   0.064  -2.065  0.00  0.00    -0.060 I 
ATOM     10  F2  UNL d   1       2.267   1.452   0.494  0.00  0.00    -0.096 F 
ATOM     11  F3  UNL d   1       1.609   1.387   3.121  0.00  0.00    -0.097 F 
ATOM     12  F4  UNL d   1      -0.541  -0.063   3.969  0.00  0.00    -0.092 F 
ENDROOT
TORSDOF 0
ENDMDL
