MODEL 1
REMARK minimizedAffinity -3.19031715
REMARK minimizedRMSD -1
REMARK  0 active torsions:
REMARK  status: ('A' for Active; 'I' for Inactive)
ROOT
ATOM      1  C   UNL d   1      -0.584  -0.328   2.258  0.00  0.00     0.124 A 
ATOM      2  C1  UNL d   1       0.697   0.029   1.859  0.00  0.00     0.062 A 
ATOM      3  C2  UNL d   1       0.942   0.395   0.539  0.00  0.00     0.162 A 
ATOM      4  C3  UNL d   1      -0.096   0.409  -0.392  0.00  0.00    -0.034 A 
ATOM      5  C4  UNL d   1      -1.382   0.048   0.016  0.00  0.00     0.162 A 
ATOM      6  C5  UNL d   1      -1.622  -0.318   1.337  0.00  0.00     0.062 A 
ATOM      7  F   UNL d   1      -2.860  -0.662   1.720  0.00  0.00    -0.097 F 
ATOM      8  F1  UNL d   1      -2.403   0.050  -0.853  0.00  0.00    -0.096 F 
ATOM      9  I   UNL d   1       0.266   0.956  -2.367  0.00  0.00    -0.060 I 
ATOM     10  F2  UNL d   1       2.189   0.735   0.181  0.00  0.00    -0.096 F 
ATOM     11  F3  UNL d   1       1.701   0.019   2.747  0.00  0.00    -0.097 F 
ATOM     12  F4  UNL d   1      -0.817  -0.681   3.529  0.00  0.00    -0.092 F 
ENDROOT
TORSDOF 0
ENDMDL
