MODEL 1
REMARK minimizedAffinity -2.93557286
REMARK minimizedRMSD -1
REMARK  0 active torsions:
REMARK  status: ('A' for Active; 'I' for Inactive)
ROOT
ATOM      1  C   UNL d   1      -0.527  -0.267   2.479  0.00  0.00     0.124 A 
ATOM      2  C1  UNL d   1       0.819   0.010   2.279  0.00  0.00     0.062 A 
ATOM      3  C2  UNL d   1       1.310   0.202   0.991  0.00  0.00     0.162 A 
ATOM      4  C3  UNL d   1       0.455   0.119  -0.108  0.00  0.00    -0.034 A 
ATOM      5  C4  UNL d   1      -0.896  -0.161   0.101  0.00  0.00     0.162 A 
ATOM      6  C5  UNL d   1      -1.383  -0.352   1.390  0.00  0.00     0.062 A 
ATOM      7  F   UNL d   1      -2.683  -0.620   1.581  0.00  0.00    -0.097 F 
ATOM      8  F1  UNL d   1      -1.746  -0.249  -0.934  0.00  0.00    -0.096 F 
ATOM      9  I   UNL d   1       1.186   0.405  -2.036  0.00  0.00    -0.060 I 
ATOM     10  F2  UNL d   1       2.614   0.469   0.828  0.00  0.00    -0.096 F 
ATOM     11  F3  UNL d   1       1.648   0.093   3.329  0.00  0.00    -0.097 F 
ATOM     12  F4  UNL d   1      -0.996  -0.452   3.719  0.00  0.00    -0.092 F 
ENDROOT
TORSDOF 0
ENDMDL
