MODEL 1
REMARK minimizedAffinity -2.68891978
REMARK minimizedRMSD -1
REMARK  0 active torsions:
REMARK  status: ('A' for Active; 'I' for Inactive)
ROOT
ATOM      1  C   UNL d   1      -1.131  -0.786   1.516  0.00  0.00     0.124 A 
ATOM      2  C1  UNL d   1      -1.559   0.115   0.551  0.00  0.00     0.062 A 
ATOM      3  C2  UNL d   1      -0.776   0.361  -0.573  0.00  0.00     0.162 A 
ATOM      4  C3  UNL d   1       0.443  -0.296  -0.739  0.00  0.00    -0.034 A 
ATOM      5  C4  UNL d   1       0.868  -1.200   0.236  0.00  0.00     0.162 A 
ATOM      6  C5  UNL d   1       0.082  -1.442   1.358  0.00  0.00     0.062 A 
ATOM      7  F   UNL d   1       0.497  -2.313   2.290  0.00  0.00    -0.097 F 
ATOM      8  F1  UNL d   1       2.034  -1.849   0.108  0.00  0.00    -0.096 F 
ATOM      9  I   UNL d   1       1.616   0.069  -2.419  0.00  0.00    -0.060 I 
ATOM     10  F2  UNL d   1      -1.215   1.236  -1.490  0.00  0.00    -0.096 F 
ATOM     11  F3  UNL d   1      -2.730   0.751   0.702  0.00  0.00    -0.097 F 
ATOM     12  F4  UNL d   1      -1.886  -1.020   2.598  0.00  0.00    -0.092 F 
ENDROOT
TORSDOF 0
ENDMDL
