MODEL 1
REMARK minimizedAffinity -1.02806246
REMARK minimizedRMSD -1
REMARK  0 active torsions:
REMARK  status: ('A' for Active; 'I' for Inactive)
ROOT
ATOM      1  C   UNL d   1      -0.574  -0.093   2.711  0.00  0.00     0.124 A 
ATOM      2  C1  UNL d   1      -1.447  -0.214   1.639  0.00  0.00     0.062 A 
ATOM      3  C2  UNL d   1      -0.964  -0.172   0.334  0.00  0.00     0.162 A 
ATOM      4  C3  UNL d   1       0.401  -0.008   0.094  0.00  0.00    -0.034 A 
ATOM      5  C4  UNL d   1       1.272   0.115   1.178  0.00  0.00     0.162 A 
ATOM      6  C5  UNL d   1       0.784   0.072   2.480  0.00  0.00     0.062 A 
ATOM      7  F   UNL d   1       1.629   0.189   3.514  0.00  0.00    -0.097 F 
ATOM      8  F1  UNL d   1       2.590   0.274   0.983  0.00  0.00    -0.096 F 
ATOM      9  I   UNL d   1       1.128   0.057  -1.855  0.00  0.00    -0.060 I 
ATOM     10  F2  UNL d   1      -1.830  -0.292  -0.683  0.00  0.00    -0.096 F 
ATOM     11  F3  UNL d   1      -2.760  -0.372   1.859  0.00  0.00    -0.097 F 
ATOM     12  F4  UNL d   1      -1.043  -0.133   3.965  0.00  0.00    -0.092 F 
ENDROOT
TORSDOF 0
ENDMDL
