MODEL 1
REMARK minimizedAffinity -0.586470962
REMARK minimizedRMSD -1
REMARK  0 active torsions:
REMARK  status: ('A' for Active; 'I' for Inactive)
ROOT
ATOM      1  C   UNL d   1       1.009   0.223   2.765  0.00  0.00     0.124 A 
ATOM      2  C1  UNL d   1      -0.337   0.073   2.459  0.00  0.00     0.062 A 
ATOM      3  C2  UNL d   1      -0.737  -0.131   1.141  0.00  0.00     0.162 A 
ATOM      4  C3  UNL d   1       0.211  -0.187   0.119  0.00  0.00    -0.034 A 
ATOM      5  C4  UNL d   1       1.562  -0.035   0.434  0.00  0.00     0.162 A 
ATOM      6  C5  UNL d   1       1.957   0.169   1.753  0.00  0.00     0.062 A 
ATOM      7  F   UNL d   1       3.257   0.313   2.046  0.00  0.00    -0.097 F 
ATOM      8  F1  UNL d   1       2.499  -0.084  -0.524  0.00  0.00    -0.096 F 
ATOM      9  I   UNL d   1      -0.383  -0.492  -1.852  0.00  0.00    -0.060 I 
ATOM     10  F2  UNL d   1      -2.044  -0.273   0.874  0.00  0.00    -0.096 F 
ATOM     11  F3  UNL d   1      -1.255   0.126   3.434  0.00  0.00    -0.097 F 
ATOM     12  F4  UNL d   1       1.390   0.420   4.033  0.00  0.00    -0.092 F 
ENDROOT
TORSDOF 0
ENDMDL
