MODEL 1
REMARK minimizedAffinity -0.231783956
REMARK minimizedRMSD -1
REMARK  0 active torsions:
REMARK  status: ('A' for Active; 'I' for Inactive)
ROOT
ATOM      1  C   UNL d   1      -0.994  -0.250   1.923  0.00  0.00     0.124 A 
ATOM      2  C1  UNL d   1      -1.518   0.362   0.793  0.00  0.00     0.062 A 
ATOM      3  C2  UNL d   1      -0.824   0.316  -0.413  0.00  0.00     0.162 A 
ATOM      4  C3  UNL d   1       0.401  -0.346  -0.495  0.00  0.00    -0.034 A 
ATOM      5  C4  UNL d   1       0.921  -0.959   0.646  0.00  0.00     0.162 A 
ATOM      6  C5  UNL d   1       0.224  -0.910   1.849  0.00  0.00     0.062 A 
ATOM      7  F   UNL d   1       0.732  -1.502   2.939  0.00  0.00    -0.097 F 
ATOM      8  F1  UNL d   1       2.097  -1.604   0.601  0.00  0.00    -0.096 F 
ATOM      9  I   UNL d   1       1.441  -0.417  -2.297  0.00  0.00    -0.060 I 
ATOM     10  F2  UNL d   1      -1.354   0.917  -1.489  0.00  0.00    -0.096 F 
ATOM     11  F3  UNL d   1      -2.695   1.001   0.863  0.00  0.00    -0.097 F 
ATOM     12  F4  UNL d   1      -1.663  -0.204   3.083  0.00  0.00    -0.092 F 
ENDROOT
TORSDOF 0
ENDMDL
