MODEL 1
REMARK minimizedAffinity -1.63137352
REMARK minimizedRMSD -1
REMARK  0 active torsions:
REMARK  status: ('A' for Active; 'I' for Inactive)
ROOT
ATOM      1  C   UNL d   1      -0.513  -0.575   2.381  0.00  0.00     0.124 A 
ATOM      2  C1  UNL d   1       0.775  -0.060   2.331  0.00  0.00     0.062 A 
ATOM      3  C2  UNL d   1       1.424   0.086   1.108  0.00  0.00     0.162 A 
ATOM      4  C3  UNL d   1       0.785  -0.282  -0.076  0.00  0.00    -0.034 A 
ATOM      5  C4  UNL d   1      -0.510  -0.799  -0.018  0.00  0.00     0.162 A 
ATOM      6  C5  UNL d   1      -1.154  -0.944   1.207  0.00  0.00     0.062 A 
ATOM      7  F   UNL d   1      -2.399  -1.441   1.252  0.00  0.00    -0.097 F 
ATOM      8  F1  UNL d   1      -1.153  -1.163  -1.137  0.00  0.00    -0.096 F 
ATOM      9  I   UNL d   1       1.752  -0.064  -1.906  0.00  0.00    -0.060 I 
ATOM     10  F2  UNL d   1       2.669   0.586   1.090  0.00  0.00    -0.096 F 
ATOM     11  F3  UNL d   1       1.398   0.296   3.464  0.00  0.00    -0.097 F 
ATOM     12  F4  UNL d   1      -1.134  -0.715   3.559  0.00  0.00    -0.092 F 
ENDROOT
TORSDOF 0
ENDMDL
