MODEL 1
REMARK minimizedAffinity -0.304135889
REMARK minimizedRMSD -1
REMARK  0 active torsions:
REMARK  status: ('A' for Active; 'I' for Inactive)
ROOT
ATOM      1  C   UNL d   1      -0.677   0.077   2.757  0.00  0.00     0.124 A 
ATOM      2  C1  UNL d   1      -1.455  -0.408   1.715  0.00  0.00     0.062 A 
ATOM      3  C2  UNL d   1      -0.963  -0.405   0.413  0.00  0.00     0.162 A 
ATOM      4  C3  UNL d   1       0.316   0.083   0.146  0.00  0.00    -0.034 A 
ATOM      5  C4  UNL d   1       1.093   0.570   1.199  0.00  0.00     0.162 A 
ATOM      6  C5  UNL d   1       0.596   0.565   2.498  0.00  0.00     0.062 A 
ATOM      7  F   UNL d   1       1.350   1.033   3.504  0.00  0.00    -0.097 F 
ATOM      8  F1  UNL d   1       2.327   1.046   0.977  0.00  0.00    -0.096 F 
ATOM      9  I   UNL d   1       1.057   0.089  -1.799  0.00  0.00    -0.060 I 
ATOM     10  F2  UNL d   1      -1.737  -0.879  -0.574  0.00  0.00    -0.096 F 
ATOM     11  F3  UNL d   1      -2.686  -0.879   1.962  0.00  0.00    -0.097 F 
ATOM     12  F4  UNL d   1      -1.154   0.074   4.008  0.00  0.00    -0.092 F 
ENDROOT
TORSDOF 0
ENDMDL
