MODEL 1
REMARK minimizedAffinity -2.92274237
REMARK minimizedRMSD -1
REMARK  0 active torsions:
REMARK  status: ('A' for Active; 'I' for Inactive)
ROOT
ATOM      1  C   UNL d   1      -0.921   0.132   3.017  0.00  0.00     0.124 A 
ATOM      2  C1  UNL d   1       0.415   0.247   2.660  0.00  0.00     0.062 A 
ATOM      3  C2  UNL d   1       0.782   0.264   1.317  0.00  0.00     0.162 A 
ATOM      4  C3  UNL d   1      -0.189   0.167   0.321  0.00  0.00    -0.034 A 
ATOM      5  C4  UNL d   1      -1.531   0.051   0.688  0.00  0.00     0.162 A 
ATOM      6  C5  UNL d   1      -1.893   0.034   2.031  0.00  0.00     0.062 A 
ATOM      7  F   UNL d   1      -3.184  -0.077   2.374  0.00  0.00    -0.097 F 
ATOM      8  F1  UNL d   1      -2.491  -0.044  -0.244  0.00  0.00    -0.096 F 
ATOM      9  I   UNL d   1       0.355   0.193  -1.688  0.00  0.00    -0.060 I 
ATOM     10  F2  UNL d   1       2.081   0.377   1.001  0.00  0.00    -0.096 F 
ATOM     11  F3  UNL d   1       1.356   0.341   3.611  0.00  0.00    -0.097 F 
ATOM     12  F4  UNL d   1      -1.271   0.115   4.309  0.00  0.00    -0.092 F 
ENDROOT
TORSDOF 0
ENDMDL
