MODEL 1
REMARK minimizedAffinity -6.52896738
REMARK minimizedRMSD -1
REMARK  0 active torsions:
REMARK  status: ('A' for Active; 'I' for Inactive)
ROOT
ATOM      1  C   UNL d   1      -1.286  -0.041   2.619  0.00  0.00     0.124 A 
ATOM      2  C1  UNL d   1       0.082  -0.211   2.457  0.00  0.00     0.062 A 
ATOM      3  C2  UNL d   1       0.667  -0.025   1.209  0.00  0.00     0.162 A 
ATOM      4  C3  UNL d   1      -0.115   0.335   0.111  0.00  0.00    -0.034 A 
ATOM      5  C4  UNL d   1      -1.490   0.504   0.281  0.00  0.00     0.162 A 
ATOM      6  C5  UNL d   1      -2.071   0.316   1.532  0.00  0.00     0.062 A 
ATOM      7  F   UNL d   1      -3.393   0.481   1.686  0.00  0.00    -0.097 F 
ATOM      8  F1  UNL d   1      -2.272   0.849  -0.753  0.00  0.00    -0.096 F 
ATOM      9  I   UNL d   1       0.757   0.614  -1.758  0.00  0.00    -0.060 I 
ATOM     10  F2  UNL d   1       1.992  -0.196   1.081  0.00  0.00    -0.096 F 
ATOM     11  F3  UNL d   1       0.842  -0.557   3.507  0.00  0.00    -0.097 F 
ATOM     12  F4  UNL d   1      -1.847  -0.221   3.822  0.00  0.00    -0.092 F 
ENDROOT
TORSDOF 0
ENDMDL
