MODEL 1
REMARK minimizedAffinity -4.69759655
REMARK minimizedRMSD -1
REMARK  0 active torsions:
REMARK  status: ('A' for Active; 'I' for Inactive)
ROOT
ATOM      1  C   UNL d   1      -0.411   1.259   1.390  0.00  0.00     0.077 C 
ATOM      2  C1  UNL d   1       0.037   0.612   0.113  0.00  0.00    -0.074 A 
ATOM      3  C2  UNL d   1       0.250   1.372  -1.042  0.00  0.00    -0.005 A 
ATOM      4  C3  UNL d   1       0.676   0.757  -2.219  0.00  0.00     0.006 A 
ATOM      5  C4  UNL d   1       0.892  -0.621  -2.254  0.00  0.00    -0.005 A 
ATOM      6  C5  UNL d   1       0.684  -1.397  -1.109  0.00  0.00    -0.074 A 
ATOM      7  C6  UNL d   1       0.920  -2.878  -1.127  0.00  0.00     0.077 C 
ATOM      8  C7  UNL d   1       0.263  -0.771   0.072  0.00  0.00    -0.001 A 
ENDROOT
TORSDOF 0
ENDMDL
