MODEL 1
REMARK minimizedAffinity -2.8817718
REMARK minimizedRMSD -1
REMARK  0 active torsions:
REMARK  status: ('A' for Active; 'I' for Inactive)
ROOT
ATOM      1  C   UNL d   1      -0.993   2.376   1.965  0.00  0.00     0.077 C 
ATOM      2  C1  UNL d   1      -0.669   1.705   0.664  0.00  0.00    -0.074 A 
ATOM      3  C2  UNL d   1      -0.780   2.394  -0.548  0.00  0.00    -0.005 A 
ATOM      4  C3  UNL d   1      -0.465   1.759  -1.750  0.00  0.00     0.006 A 
ATOM      5  C4  UNL d   1      -0.038   0.431  -1.752  0.00  0.00    -0.005 A 
ATOM      6  C5  UNL d   1       0.080  -0.274  -0.550  0.00  0.00    -0.074 A 
ATOM      7  C6  UNL d   1       0.548  -1.699  -0.533  0.00  0.00     0.077 C 
ATOM      8  C7  UNL d   1      -0.231   0.373   0.654  0.00  0.00    -0.001 A 
ENDROOT
TORSDOF 0
ENDMDL
