MODEL 1
REMARK minimizedAffinity -4.40778303
REMARK minimizedRMSD -1
REMARK  0 active torsions:
REMARK  status: ('A' for Active; 'I' for Inactive)
ROOT
ATOM      1  C   UNL d   1      -2.144   2.499   1.490  0.00  0.00     0.077 C 
ATOM      2  C1  UNL d   1      -1.105   1.436   1.289  0.00  0.00    -0.074 A 
ATOM      3  C2  UNL d   1      -0.177   1.139   2.293  0.00  0.00    -0.005 A 
ATOM      4  C3  UNL d   1       0.777   0.141   2.095  0.00  0.00     0.006 A 
ATOM      5  C4  UNL d   1       0.813  -0.569   0.894  0.00  0.00    -0.005 A 
ATOM      6  C5  UNL d   1      -0.107  -0.286  -0.120  0.00  0.00    -0.074 A 
ATOM      7  C6  UNL d   1      -0.089  -1.046  -1.413  0.00  0.00     0.077 C 
ATOM      8  C7  UNL d   1      -1.068   0.713   0.089  0.00  0.00    -0.001 A 
ENDROOT
TORSDOF 0
ENDMDL
