MODEL 1
REMARK minimizedAffinity -2.92363453
REMARK minimizedRMSD -1
REMARK  0 active torsions:
REMARK  status: ('A' for Active; 'I' for Inactive)
ROOT
ATOM      1  C   UNL d   1      -2.007   2.294   1.055  0.00  0.00     0.077 C 
ATOM      2  C1  UNL d   1      -1.124   1.597   0.063  0.00  0.00    -0.074 A 
ATOM      3  C2  UNL d   1      -0.620   2.276  -1.051  0.00  0.00    -0.005 A 
ATOM      4  C3  UNL d   1       0.208   1.617  -1.960  0.00  0.00     0.006 A 
ATOM      5  C4  UNL d   1       0.540   0.276  -1.764  0.00  0.00    -0.005 A 
ATOM      6  C5  UNL d   1       0.046  -0.419  -0.655  0.00  0.00    -0.074 A 
ATOM      7  C6  UNL d   1       0.400  -1.858  -0.424  0.00  0.00     0.077 C 
ATOM      8  C7  UNL d   1      -0.780   0.252   0.257  0.00  0.00    -0.001 A 
ENDROOT
TORSDOF 0
ENDMDL
