MODEL 1
REMARK minimizedAffinity -5.49629831
REMARK minimizedRMSD -1
REMARK  0 active torsions:
REMARK  status: ('A' for Active; 'I' for Inactive)
ROOT
ATOM      1  C   UNL d   1      -0.373  -0.820   3.968  0.00  0.00     0.077 C 
ATOM      2  C1  UNL d   1      -0.369  -0.134   2.635  0.00  0.00    -0.074 A 
ATOM      3  C2  UNL d   1      -0.728   1.213   2.518  0.00  0.00    -0.005 A 
ATOM      4  C3  UNL d   1      -0.711   1.840   1.273  0.00  0.00     0.006 A 
ATOM      5  C4  UNL d   1      -0.335   1.128   0.133  0.00  0.00    -0.005 A 
ATOM      6  C5  UNL d   1       0.027  -0.219   0.230  0.00  0.00    -0.074 A 
ATOM      7  C6  UNL d   1       0.442  -0.996  -0.984  0.00  0.00     0.077 C 
ATOM      8  C7  UNL d   1       0.014  -0.840   1.486  0.00  0.00    -0.001 A 
ENDROOT
TORSDOF 0
ENDMDL
