MODEL 1
REMARK minimizedAffinity -4.18449211
REMARK minimizedRMSD -1
REMARK  0 active torsions:
REMARK  status: ('A' for Active; 'I' for Inactive)
ROOT
ATOM      1  C   UNL d   1       1.487  -0.237   0.607  0.00  0.00     0.077 C 
ATOM      2  C1  UNL d   1       0.243   0.599   0.642  0.00  0.00    -0.074 A 
ATOM      3  C2  UNL d   1      -0.247   1.110   1.848  0.00  0.00    -0.005 A 
ATOM      4  C3  UNL d   1      -1.400   1.894   1.863  0.00  0.00     0.006 A 
ATOM      5  C4  UNL d   1      -2.074   2.176   0.674  0.00  0.00    -0.005 A 
ATOM      6  C5  UNL d   1      -1.598   1.676  -0.542  0.00  0.00    -0.074 A 
ATOM      7  C6  UNL d   1      -2.305   1.977  -1.830  0.00  0.00     0.077 C 
ATOM      8  C7  UNL d   1      -0.435   0.894  -0.550  0.00  0.00    -0.001 A 
ENDROOT
TORSDOF 0
ENDMDL
