MODEL 1
REMARK minimizedAffinity -3.02762985
REMARK minimizedRMSD -1
REMARK  0 active torsions:
REMARK  status: ('A' for Active; 'I' for Inactive)
ROOT
ATOM      1  C   UNL d   1      -2.177   2.028   1.202  0.00  0.00     0.077 C 
ATOM      2  C1  UNL d   1      -0.986   1.327   0.619  0.00  0.00    -0.074 A 
ATOM      3  C2  UNL d   1      -0.807   1.245  -0.766  0.00  0.00    -0.005 A 
ATOM      4  C3  UNL d   1       0.311   0.598  -1.293  0.00  0.00     0.006 A 
ATOM      5  C4  UNL d   1       1.258   0.027  -0.443  0.00  0.00    -0.005 A 
ATOM      6  C5  UNL d   1       1.097   0.100   0.944  0.00  0.00    -0.074 A 
ATOM      7  C6  UNL d   1       2.111  -0.500   1.872  0.00  0.00     0.077 C 
ATOM      8  C7  UNL d   1      -0.025   0.757   1.467  0.00  0.00    -0.001 A 
ENDROOT
TORSDOF 0
ENDMDL
