MODEL 1
REMARK minimizedAffinity -4.20510054
REMARK minimizedRMSD -1
REMARK  0 active torsions:
REMARK  status: ('A' for Active; 'I' for Inactive)
ROOT
ATOM      1  C   UNL d   1       0.128   1.634  -2.660  0.00  0.00     0.077 C 
ATOM      2  C1  UNL d   1       0.030   0.999  -1.305  0.00  0.00    -0.074 A 
ATOM      3  C2  UNL d   1       0.113  -0.389  -1.153  0.00  0.00    -0.005 A 
ATOM      4  C3  UNL d   1       0.029  -0.964   0.115  0.00  0.00     0.006 A 
ATOM      5  C4  UNL d   1      -0.139  -0.158   1.242  0.00  0.00    -0.005 A 
ATOM      6  C5  UNL d   1      -0.224   1.231   1.110  0.00  0.00    -0.074 A 
ATOM      7  C6  UNL d   1      -0.395   2.112   2.312  0.00  0.00     0.077 C 
ATOM      8  C7  UNL d   1      -0.132   1.802  -0.167  0.00  0.00    -0.001 A 
ENDROOT
TORSDOF 0
ENDMDL
