MODEL 1
REMARK minimizedAffinity -1.21702242
REMARK minimizedRMSD -1
REMARK  0 active torsions:
REMARK  status: ('A' for Active; 'I' for Inactive)
ROOT
ATOM      1  C   UNL d   1       0.056  -2.586  -1.510  0.00  0.00     0.077 C 
ATOM      2  C1  UNL d   1       0.111  -1.242  -0.848  0.00  0.00    -0.074 A 
ATOM      3  C2  UNL d   1       0.524  -1.112   0.482  0.00  0.00    -0.005 A 
ATOM      4  C3  UNL d   1       0.579   0.146   1.081  0.00  0.00     0.006 A 
ATOM      5  C4  UNL d   1       0.222   1.285   0.359  0.00  0.00    -0.005 A 
ATOM      6  C5  UNL d   1      -0.193   1.175  -0.972  0.00  0.00    -0.074 A 
ATOM      7  C6  UNL d   1      -0.571   2.390  -1.766  0.00  0.00     0.077 C 
ATOM      8  C7  UNL d   1      -0.239  -0.092  -1.570  0.00  0.00    -0.001 A 
ENDROOT
TORSDOF 0
ENDMDL
