MODEL 1
REMARK minimizedAffinity -3.66671228
REMARK minimizedRMSD -1
REMARK  0 active torsions:
REMARK  status: ('A' for Active; 'I' for Inactive)
ROOT
ATOM      1  C   UNL d   1      -1.342   2.318   1.940  0.00  0.00     0.077 C 
ATOM      2  C1  UNL d   1      -0.889   1.582   0.714  0.00  0.00    -0.074 A 
ATOM      3  C2  UNL d   1      -1.029   2.148  -0.557  0.00  0.00    -0.005 A 
ATOM      4  C3  UNL d   1      -0.595   1.456  -1.687  0.00  0.00     0.006 A 
ATOM      5  C4  UNL d   1      -0.018   0.192  -1.558  0.00  0.00    -0.005 A 
ATOM      6  C5  UNL d   1       0.132  -0.390  -0.295  0.00  0.00    -0.074 A 
ATOM      7  C6  UNL d   1       0.759  -1.743  -0.138  0.00  0.00     0.077 C 
ATOM      8  C7  UNL d   1      -0.301   0.316   0.836  0.00  0.00    -0.001 A 
ENDROOT
TORSDOF 0
ENDMDL
