MODEL 1
REMARK minimizedAffinity -2.26155519
REMARK minimizedRMSD -1
REMARK  0 active torsions:
REMARK  status: ('A' for Active; 'I' for Inactive)
ROOT
ATOM      1  C   UNL d   1      -1.157   2.301   1.470  0.00  0.00     0.077 C 
ATOM      2  C1  UNL d   1      -0.684   1.555   0.258  0.00  0.00    -0.074 A 
ATOM      3  C2  UNL d   1      -0.657   2.168  -0.998  0.00  0.00    -0.005 A 
ATOM      4  C3  UNL d   1      -0.206   1.464  -2.115  0.00  0.00     0.006 A 
ATOM      5  C4  UNL d   1       0.221   0.142  -1.987  0.00  0.00    -0.005 A 
ATOM      6  C5  UNL d   1       0.202  -0.488  -0.738  0.00  0.00    -0.074 A 
ATOM      7  C6  UNL d   1       0.667  -1.905  -0.581  0.00  0.00     0.077 C 
ATOM      8  C7  UNL d   1      -0.246   0.229   0.381  0.00  0.00    -0.001 A 
ENDROOT
TORSDOF 0
ENDMDL
