MODEL 1
REMARK minimizedAffinity -0.132962242
REMARK minimizedRMSD -1
REMARK  0 active torsions:
REMARK  status: ('A' for Active; 'I' for Inactive)
ROOT
ATOM      1  C   UNL d   1       2.211   0.232  -3.749  0.00  0.00    -0.002 A 
ATOM      2  C1  UNL d   1       0.911   0.043  -4.196  0.00  0.00     0.010 A 
ATOM      3  C2  UNL d   1      -0.133  -0.138  -3.287  0.00  0.00     0.041 A 
ATOM      4  C3  UNL d   1       0.154  -0.126  -1.908  0.00  0.00    -0.075 A 
ATOM      5  S   UNL d   1      -0.965  -0.327  -0.611  0.00  0.00     0.015 SA
ATOM      6  C4  UNL d   1       0.257  -0.167   0.566  0.00  0.00     0.022 A 
ATOM      7  C5  UNL d   1       1.494   0.036   0.002  0.00  0.00     0.026 A 
ATOM      8  C6  UNL d   1       1.455   0.063  -1.433  0.00  0.00    -0.082 A 
ATOM      9  C7  UNL d   1       2.492   0.244  -2.380  0.00  0.00     0.045 A 
ENDROOT
TORSDOF 0
ENDMDL
