MODEL 1
REMARK minimizedAffinity 4.88352823
REMARK minimizedRMSD -1
REMARK  0 active torsions:
REMARK  status: ('A' for Active; 'I' for Inactive)
ROOT
ATOM      1  C   UNL d   1      -0.575  -0.775  -0.221  0.00  0.00    -0.002 A 
ATOM      2  C1  UNL d   1       0.594  -0.313   0.367  0.00  0.00     0.010 A 
ATOM      3  C2  UNL d   1       1.609   0.244  -0.413  0.00  0.00     0.041 A 
ATOM      4  C3  UNL d   1       1.427   0.332  -1.807  0.00  0.00    -0.075 A 
ATOM      5  S   UNL d   1       2.533   0.978  -2.961  0.00  0.00     0.015 SA
ATOM      6  C4  UNL d   1       1.479   0.656  -4.262  0.00  0.00     0.022 A 
ATOM      7  C5  UNL d   1       0.308   0.071  -3.844  0.00  0.00     0.026 A 
ATOM      8  C6  UNL d   1       0.258  -0.125  -2.422  0.00  0.00    -0.082 A 
ATOM      9  C7  UNL d   1      -0.752  -0.686  -1.604  0.00  0.00     0.045 A 
ENDROOT
TORSDOF 0
ENDMDL
