MODEL 1
REMARK minimizedAffinity -3.93775272
REMARK minimizedRMSD -1
REMARK  0 active torsions:
REMARK  status: ('A' for Active; 'I' for Inactive)
ROOT
ATOM      1  C   UNL d   1      -1.501   1.170   2.898  0.00  0.00    -0.002 A 
ATOM      2  C1  UNL d   1      -2.465   0.481   2.175  0.00  0.00     0.010 A 
ATOM      3  C2  UNL d   1      -2.152  -0.095   0.943  0.00  0.00     0.041 A 
ATOM      4  C3  UNL d   1      -0.840   0.032   0.445  0.00  0.00    -0.075 A 
ATOM      5  S   UNL d   1      -0.227  -0.592  -1.041  0.00  0.00     0.015 SA
ATOM      6  C4  UNL d   1       1.329   0.040  -0.750  0.00  0.00     0.022 A 
ATOM      7  C5  UNL d   1       1.397   0.714   0.446  0.00  0.00     0.026 A 
ATOM      8  C6  UNL d   1       0.148   0.720   1.155  0.00  0.00    -0.082 A 
ATOM      9  C7  UNL d   1      -0.201   1.294   2.401  0.00  0.00     0.045 A 
ENDROOT
TORSDOF 0
ENDMDL
