MODEL 1
REMARK minimizedAffinity -3.01337528
REMARK minimizedRMSD -1
REMARK  0 active torsions:
REMARK  status: ('A' for Active; 'I' for Inactive)
ROOT
ATOM      1  C   UNL d   1      -1.485   1.065   2.583  0.00  0.00    -0.002 A 
ATOM      2  C1  UNL d   1      -0.138   1.062   2.917  0.00  0.00     0.010 A 
ATOM      3  C2  UNL d   1       0.824   0.658   1.989  0.00  0.00     0.041 A 
ATOM      4  C3  UNL d   1       0.405   0.254   0.706  0.00  0.00    -0.075 A 
ATOM      5  S   UNL d   1       1.404  -0.281  -0.593  0.00  0.00     0.015 SA
ATOM      6  C4  UNL d   1       0.066  -0.517  -1.623  0.00  0.00     0.022 A 
ATOM      7  C5  UNL d   1      -1.121  -0.201  -1.007  0.00  0.00     0.026 A 
ATOM      8  C6  UNL d   1      -0.946   0.249   0.346  0.00  0.00    -0.082 A 
ATOM      9  C7  UNL d   1      -1.896   0.664   1.309  0.00  0.00     0.045 A 
ENDROOT
TORSDOF 0
ENDMDL
