MODEL 1
REMARK minimizedAffinity -1.64482927
REMARK minimizedRMSD -1
REMARK  0 active torsions:
REMARK  status: ('A' for Active; 'I' for Inactive)
ROOT
ATOM      1  C   UNL d   1      -0.776   1.593   2.521  0.00  0.00    -0.002 A 
ATOM      2  C1  UNL d   1       0.607   1.697   2.573  0.00  0.00     0.010 A 
ATOM      3  C2  UNL d   1       1.403   1.068   1.614  0.00  0.00     0.041 A 
ATOM      4  C3  UNL d   1       0.780   0.327   0.591  0.00  0.00    -0.075 A 
ATOM      5  S   UNL d   1       1.553  -0.527  -0.692  0.00  0.00     0.015 SA
ATOM      6  C4  UNL d   1       0.065  -1.049  -1.340  0.00  0.00     0.022 A 
ATOM      7  C5  UNL d   1      -1.005  -0.593  -0.608  0.00  0.00     0.026 A 
ATOM      8  C6  UNL d   1      -0.611   0.209   0.517  0.00  0.00    -0.082 A 
ATOM      9  C7  UNL d   1      -1.390   0.857   1.504  0.00  0.00     0.045 A 
ENDROOT
TORSDOF 0
ENDMDL
