MODEL 1
REMARK minimizedAffinity -2.88182259
REMARK minimizedRMSD -1
REMARK  1 active torsions:
REMARK  status: ('A' for Active; 'I' for Inactive)
REMARK    1  A    between atoms: C1_2  and  C2_3 
ROOT
ATOM      1  C2  UNL d   1      -2.593   1.222  -2.084  0.00  0.00    -0.073 A 
ATOM      2  C3  UNL d   1      -3.337   1.895  -1.108  0.00  0.00    -0.002 A 
ATOM      3  C4  UNL d   1      -3.861   3.162  -1.370  0.00  0.00     0.004 A 
ATOM      4  C5  UNL d   1      -3.653   3.765  -2.610  0.00  0.00    -0.004 A 
ATOM      5  C6  UNL d   1      -2.922   3.103  -3.603  0.00  0.00    -0.075 A 
ATOM      6  C7  UNL d   1      -2.687   3.739  -4.941  0.00  0.00     0.076 C 
ATOM      7  C8  UNL d   1      -2.397   1.833  -3.331  0.00  0.00     0.001 A 
ENDROOT
BRANCH   1   8
ATOM      8  C1  UNL d   1      -2.032  -0.149  -1.808  0.00  0.00     0.053 C 
ATOM      9  C   UNL d   1      -2.531  -0.714  -0.488  0.00  0.00     0.018 C 
ENDBRANCH   1   8
TORSDOF 1
ENDMDL
