MODEL 1
REMARK minimizedAffinity -2.94017196
REMARK minimizedRMSD -1
REMARK  1 active torsions:
REMARK  status: ('A' for Active; 'I' for Inactive)
REMARK    1  A    between atoms: C1_2  and  C2_3 
ROOT
ATOM      1  C2  UNL d   1      -2.101   4.328  -3.911  0.00  0.00    -0.073 A 
ATOM      2  C3  UNL d   1      -1.606   3.977  -2.650  0.00  0.00    -0.002 A 
ATOM      3  C4  UNL d   1      -1.993   2.777  -2.051  0.00  0.00     0.004 A 
ATOM      4  C5  UNL d   1      -2.871   1.915  -2.707  0.00  0.00    -0.004 A 
ATOM      5  C6  UNL d   1      -3.367   2.243  -3.973  0.00  0.00    -0.075 A 
ATOM      6  C7  UNL d   1      -4.314   1.328  -4.692  0.00  0.00     0.076 C 
ATOM      7  C8  UNL d   1      -2.976   3.451  -4.568  0.00  0.00     0.001 A 
ENDROOT
BRANCH   1   8
ATOM      8  C1  UNL d   1      -1.681   5.619  -4.566  0.00  0.00     0.053 C 
ATOM      9  C   UNL d   1      -0.342   5.490  -5.273  0.00  0.00     0.018 C 
ENDBRANCH   1   8
TORSDOF 1
ENDMDL
