MODEL 1
REMARK minimizedAffinity -2.74806499
REMARK minimizedRMSD -1
REMARK  1 active torsions:
REMARK  status: ('A' for Active; 'I' for Inactive)
REMARK    1  A    between atoms: C1_2  and  C2_3 
ROOT
ATOM      1  C2  UNL d   1      -2.344   3.189  -3.212  0.00  0.00    -0.073 A 
ATOM      2  C3  UNL d   1      -3.123   3.929  -2.315  0.00  0.00    -0.002 A 
ATOM      3  C4  UNL d   1      -3.465   5.251  -2.603  0.00  0.00     0.004 A 
ATOM      4  C5  UNL d   1      -3.037   5.844  -3.791  0.00  0.00    -0.004 A 
ATOM      5  C6  UNL d   1      -2.268   5.117  -4.705  0.00  0.00    -0.075 A 
ATOM      6  C7  UNL d   1      -1.798   5.741  -5.987  0.00  0.00     0.076 C 
ATOM      7  C8  UNL d   1      -1.927   3.791  -4.408  0.00  0.00     0.001 A 
ENDROOT
BRANCH   1   8
ATOM      8  C1  UNL d   1      -1.978   1.759  -2.909  0.00  0.00     0.053 C 
ATOM      9  C   UNL d   1      -3.194   0.846  -2.917  0.00  0.00     0.018 C 
ENDBRANCH   1   8
TORSDOF 1
ENDMDL
