MODEL 1
REMARK minimizedAffinity -4.40094137
REMARK minimizedRMSD -1
REMARK  1 active torsions:
REMARK  status: ('A' for Active; 'I' for Inactive)
REMARK    1  A    between atoms: C1_2  and  C2_3 
ROOT
ATOM      1  C2  UNL d   1      -0.358  -1.273   2.034  0.00  0.00    -0.073 A 
ATOM      2  C3  UNL d   1      -0.912  -1.483   0.766  0.00  0.00    -0.002 A 
ATOM      3  C4  UNL d   1      -2.235  -1.123   0.507  0.00  0.00     0.004 A 
ATOM      4  C5  UNL d   1      -3.015  -0.544   1.508  0.00  0.00    -0.004 A 
ATOM      5  C6  UNL d   1      -2.475  -0.315   2.778  0.00  0.00    -0.075 A 
ATOM      6  C7  UNL d   1      -3.300   0.304   3.867  0.00  0.00     0.076 C 
ATOM      7  C8  UNL d   1      -1.146  -0.682   3.031  0.00  0.00     0.001 A 
ENDROOT
BRANCH   1   8
ATOM      8  C1  UNL d   1       1.072  -1.655   2.316  0.00  0.00     0.053 C 
ATOM      9  C   UNL d   1       1.744  -2.283   1.106  0.00  0.00     0.018 C 
ENDBRANCH   1   8
TORSDOF 1
ENDMDL
