MODEL 1
REMARK minimizedAffinity 8.27701378
REMARK minimizedRMSD -1
REMARK  1 active torsions:
REMARK  status: ('A' for Active; 'I' for Inactive)
REMARK    1  A    between atoms: C1_2  and  C2_3 
ROOT
ATOM      1  C2  UNL d   1      -3.928   3.934  -1.743  0.00  0.00    -0.073 A 
ATOM      2  C3  UNL d   1      -3.461   5.208  -1.400  0.00  0.00    -0.002 A 
ATOM      3  C4  UNL d   1      -2.812   6.000  -2.348  0.00  0.00     0.004 A 
ATOM      4  C5  UNL d   1      -2.630   5.531  -3.649  0.00  0.00    -0.004 A 
ATOM      5  C6  UNL d   1      -3.101   4.265  -4.015  0.00  0.00    -0.075 A 
ATOM      6  C7  UNL d   1      -2.911   3.745  -5.409  0.00  0.00     0.076 C 
ATOM      7  C8  UNL d   1      -3.749   3.475  -3.056  0.00  0.00     0.001 A 
ENDROOT
BRANCH   1   8
ATOM      8  C1  UNL d   1      -4.635   3.078  -0.725  0.00  0.00     0.053 C 
ATOM      9  C   UNL d   1      -6.000   3.639  -0.357  0.00  0.00     0.018 C 
ENDBRANCH   1   8
TORSDOF 1
ENDMDL
