MODEL 1
REMARK minimizedAffinity 6.12241411
REMARK minimizedRMSD -1
REMARK  1 active torsions:
REMARK  status: ('A' for Active; 'I' for Inactive)
REMARK    1  A    between atoms: C1_2  and  C2_3 
ROOT
ATOM      1  C2  UNL d   1      -3.443   3.201  -2.174  0.00  0.00    -0.073 A 
ATOM      2  C3  UNL d   1      -3.808   4.489  -1.766  0.00  0.00    -0.002 A 
ATOM      3  C4  UNL d   1      -3.814   5.543  -2.680  0.00  0.00     0.004 A 
ATOM      4  C5  UNL d   1      -3.463   5.319  -4.012  0.00  0.00    -0.004 A 
ATOM      5  C6  UNL d   1      -3.107   4.036  -4.441  0.00  0.00    -0.075 A 
ATOM      6  C7  UNL d   1      -2.725   3.779  -5.869  0.00  0.00     0.076 C 
ATOM      7  C8  UNL d   1      -3.101   2.984  -3.516  0.00  0.00     0.001 A 
ENDROOT
BRANCH   1   8
ATOM      8  C1  UNL d   1      -3.442   2.059  -1.191  0.00  0.00     0.053 C 
ATOM      9  C   UNL d   1      -2.094   1.357  -1.135  0.00  0.00     0.018 C 
ENDBRANCH   1   8
TORSDOF 1
ENDMDL
