MODEL 1
REMARK minimizedAffinity -1.59422839
REMARK minimizedRMSD -1
REMARK  1 active torsions:
REMARK  status: ('A' for Active; 'I' for Inactive)
REMARK    1  A    between atoms: C1_2  and  C2_3 
ROOT
ATOM      1  C2  UNL d   1      -1.692  -1.099   0.410  0.00  0.00    -0.073 A 
ATOM      2  C3  UNL d   1      -0.383  -1.449   0.760  0.00  0.00    -0.002 A 
ATOM      3  C4  UNL d   1       0.095  -1.193   2.046  0.00  0.00     0.004 A 
ATOM      4  C5  UNL d   1      -0.730  -0.592   2.995  0.00  0.00    -0.004 A 
ATOM      5  C6  UNL d   1      -2.045  -0.245   2.668  0.00  0.00    -0.075 A 
ATOM      6  C7  UNL d   1      -2.946   0.405   3.678  0.00  0.00     0.076 C 
ATOM      7  C8  UNL d   1      -2.518  -0.503   1.374  0.00  0.00     0.001 A 
ENDROOT
BRANCH   1   8
ATOM      8  C1  UNL d   1      -2.216  -1.380  -0.975  0.00  0.00     0.053 C 
ATOM      9  C   UNL d   1      -2.513  -0.101  -1.742  0.00  0.00     0.018 C 
ENDBRANCH   1   8
TORSDOF 1
ENDMDL
