MODEL 1
REMARK minimizedAffinity 3.86429524
REMARK minimizedRMSD -1
REMARK  1 active torsions:
REMARK  status: ('A' for Active; 'I' for Inactive)
REMARK    1  A    between atoms: C1_2  and  C2_3 
ROOT
ATOM      1  C2  UNL d   1       0.837  -1.763  -2.444  0.00  0.00    -0.073 A 
ATOM      2  C3  UNL d   1       1.902  -1.990  -1.565  0.00  0.00    -0.002 A 
ATOM      3  C4  UNL d   1       1.709  -1.901  -0.186  0.00  0.00     0.004 A 
ATOM      4  C5  UNL d   1       0.450  -1.592   0.329  0.00  0.00    -0.004 A 
ATOM      5  C6  UNL d   1      -0.630  -1.374  -0.533  0.00  0.00    -0.075 A 
ATOM      6  C7  UNL d   1      -1.990  -1.038   0.004  0.00  0.00     0.076 C 
ATOM      7  C8  UNL d   1      -0.428  -1.462  -1.917  0.00  0.00     0.001 A 
ENDROOT
BRANCH   1   8
ATOM      8  C1  UNL d   1       1.039  -1.864  -3.934  0.00  0.00     0.053 C 
ATOM      9  C   UNL d   1       1.893  -0.726  -4.471  0.00  0.00     0.018 C 
ENDBRANCH   1   8
TORSDOF 1
ENDMDL
