MODEL 1
REMARK minimizedAffinity -2.02044249
REMARK minimizedRMSD -1
REMARK  1 active torsions:
REMARK  status: ('A' for Active; 'I' for Inactive)
REMARK    1  A    between atoms: C1_2  and  C2_3 
ROOT
ATOM      1  C2  UNL d   1      -1.730   1.619  -2.625  0.00  0.00    -0.073 A 
ATOM      2  C3  UNL d   1      -0.504   2.200  -2.281  0.00  0.00    -0.002 A 
ATOM      3  C4  UNL d   1      -0.285   3.561  -2.495  0.00  0.00     0.004 A 
ATOM      4  C5  UNL d   1      -1.289   4.356  -3.048  0.00  0.00    -0.004 A 
ATOM      5  C6  UNL d   1      -2.525   3.796  -3.387  0.00  0.00    -0.075 A 
ATOM      6  C7  UNL d   1      -3.615   4.637  -3.984  0.00  0.00     0.076 C 
ATOM      7  C8  UNL d   1      -2.737   2.428  -3.172  0.00  0.00     0.001 A 
ENDROOT
BRANCH   1   8
ATOM      8  C1  UNL d   1      -1.974   0.151  -2.390  0.00  0.00     0.053 C 
ATOM      9  C   UNL d   1      -0.868  -0.486  -1.564  0.00  0.00     0.018 C 
ENDBRANCH   1   8
TORSDOF 1
ENDMDL
