MODEL 1
REMARK minimizedAffinity -3.19148874
REMARK minimizedRMSD -1
REMARK  1 active torsions:
REMARK  status: ('A' for Active; 'I' for Inactive)
REMARK    1  A    between atoms: C1_2  and  C2_3 
ROOT
ATOM      1  C2  UNL d   1      -1.942   4.046  -4.518  0.00  0.00    -0.073 A 
ATOM      2  C3  UNL d   1      -2.561   4.792  -3.509  0.00  0.00    -0.002 A 
ATOM      3  C4  UNL d   1      -2.998   4.169  -2.339  0.00  0.00     0.004 A 
ATOM      4  C5  UNL d   1      -2.817   2.798  -2.164  0.00  0.00    -0.004 A 
ATOM      5  C6  UNL d   1      -2.190   2.037  -3.156  0.00  0.00    -0.075 A 
ATOM      6  C7  UNL d   1      -1.989   0.560  -2.984  0.00  0.00     0.076 C 
ATOM      7  C8  UNL d   1      -1.756   2.669  -4.329  0.00  0.00     0.001 A 
ENDROOT
BRANCH   1   8
ATOM      8  C1  UNL d   1      -1.462   4.715  -5.780  0.00  0.00     0.053 C 
ATOM      9  C   UNL d   1       0.029   4.515  -6.000  0.00  0.00     0.018 C 
ENDBRANCH   1   8
TORSDOF 1
ENDMDL
