MODEL 1
REMARK minimizedAffinity 7.02220011
REMARK minimizedRMSD -1
REMARK  1 active torsions:
REMARK  status: ('A' for Active; 'I' for Inactive)
REMARK    1  A    between atoms: C1_2  and  C2_3 
ROOT
ATOM      1  C2  UNL d   1       0.585  -3.877   0.911  0.00  0.00    -0.081 A 
ATOM      2  C3  UNL d   1       1.845  -3.315   1.151  0.00  0.00     0.006 A 
ATOM      3  C4  UNL d   1       2.155  -2.039   0.672  0.00  0.00     0.002 A 
ATOM      4  C5  UNL d   1       1.208  -1.302  -0.047  0.00  0.00    -0.080 A 
ATOM      5  C6  UNL d   1       1.517   0.080  -0.541  0.00  0.00     0.076 C 
ATOM      6  C7  UNL d   1      -0.045  -1.871  -0.302  0.00  0.00     0.002 A 
ATOM      7  C8  UNL d   1      -0.355  -3.146   0.176  0.00  0.00     0.006 A 
ENDROOT
BRANCH   1   8
ATOM      8  C1  UNL d   1       0.226  -5.225   1.481  0.00  0.00     0.054 C 
ATOM      9  C   UNL d   1       1.470  -6.000   1.895  0.00  0.00     0.018 C 
ENDBRANCH   1   8
TORSDOF 1
ENDMDL
