MODEL 1
REMARK minimizedAffinity 9.00795746
REMARK minimizedRMSD -1
REMARK  1 active torsions:
REMARK  status: ('A' for Active; 'I' for Inactive)
REMARK    1  A    between atoms: C1_2  and  C2_3 
ROOT
ATOM      1  C2  UNL d   1       5.913   1.256  -2.757  0.00  0.00    -0.081 A 
ATOM      2  C3  UNL d   1       5.996  -0.040  -2.233  0.00  0.00     0.006 A 
ATOM      3  C4  UNL d   1       6.000  -1.148  -3.082  0.00  0.00     0.002 A 
ATOM      4  C5  UNL d   1       5.928  -0.980  -4.469  0.00  0.00    -0.080 A 
ATOM      5  C6  UNL d   1       5.961  -2.161  -5.394  0.00  0.00     0.076 C 
ATOM      6  C7  UNL d   1       5.827   0.313  -4.992  0.00  0.00     0.002 A 
ATOM      7  C8  UNL d   1       5.823   1.422  -4.144  0.00  0.00     0.006 A 
ENDROOT
BRANCH   1   8
ATOM      8  C1  UNL d   1       5.974   2.456  -1.848  0.00  0.00     0.054 C 
ATOM      9  C   UNL d   1       4.883   3.463  -2.185  0.00  0.00     0.018 C 
ENDBRANCH   1   8
TORSDOF 1
ENDMDL
