MODEL 1
REMARK minimizedAffinity 9.96070766
REMARK minimizedRMSD -1
REMARK  1 active torsions:
REMARK  status: ('A' for Active; 'I' for Inactive)
REMARK    1  A    between atoms: C1_2  and  C2_3 
ROOT
ATOM      1  C2  UNL d   1       0.802   0.237  -1.978  0.00  0.00    -0.081 A 
ATOM      2  C3  UNL d   1       1.197   0.079  -3.312  0.00  0.00     0.006 A 
ATOM      3  C4  UNL d   1       1.527  -1.184  -3.809  0.00  0.00     0.002 A 
ATOM      4  C5  UNL d   1       1.460  -2.311  -2.982  0.00  0.00    -0.080 A 
ATOM      5  C6  UNL d   1       1.782  -3.677  -3.511  0.00  0.00     0.076 C 
ATOM      6  C7  UNL d   1       1.082  -2.151  -1.645  0.00  0.00     0.002 A 
ATOM      7  C8  UNL d   1       0.753  -0.888  -1.148  0.00  0.00     0.006 A 
ENDROOT
BRANCH   1   8
ATOM      8  C1  UNL d   1       0.384   1.588  -1.457  0.00  0.00     0.054 C 
ATOM      9  C   UNL d   1       1.204   1.990  -0.240  0.00  0.00     0.018 C 
ENDBRANCH   1   8
TORSDOF 1
ENDMDL
