MODEL 1
REMARK minimizedAffinity 5.57971525
REMARK minimizedRMSD -1
REMARK  1 active torsions:
REMARK  status: ('A' for Active; 'I' for Inactive)
REMARK    1  A    between atoms: C1_2  and  C2_3 
ROOT
ATOM      1  C2  UNL d   1      -4.137   3.007   5.392  0.00  0.00    -0.081 A 
ATOM      2  C3  UNL d   1      -4.686   1.871   6.000  0.00  0.00     0.006 A 
ATOM      3  C4  UNL d   1      -4.452   0.601   5.468  0.00  0.00     0.002 A 
ATOM      4  C5  UNL d   1      -3.661   0.444   4.325  0.00  0.00    -0.080 A 
ATOM      5  C6  UNL d   1      -3.377  -0.916   3.761  0.00  0.00     0.076 C 
ATOM      6  C7  UNL d   1      -3.127   1.581   3.707  0.00  0.00     0.002 A 
ATOM      7  C8  UNL d   1      -3.361   2.851   4.238  0.00  0.00     0.006 A 
ENDROOT
BRANCH   1   8
ATOM      8  C1  UNL d   1      -4.334   4.372   6.000  0.00  0.00     0.054 C 
ATOM      9  C   UNL d   1      -5.244   5.236   5.139  0.00  0.00     0.018 C 
ENDBRANCH   1   8
TORSDOF 1
ENDMDL
