MODEL 1
REMARK minimizedAffinity 1.48864949
REMARK minimizedRMSD -1
REMARK  1 active torsions:
REMARK  status: ('A' for Active; 'I' for Inactive)
REMARK    1  A    between atoms: C1_2  and  C2_3 
ROOT
ATOM      1  C2  UNL d   1      -4.617   4.587   1.935  0.00  0.00    -0.081 A 
ATOM      2  C3  UNL d   1      -5.880   4.784   2.506  0.00  0.00     0.006 A 
ATOM      3  C4  UNL d   1      -6.000   5.229   3.825  0.00  0.00     0.002 A 
ATOM      4  C5  UNL d   1      -4.860   5.492   4.591  0.00  0.00    -0.080 A 
ATOM      5  C6  UNL d   1      -4.974   6.000   5.998  0.00  0.00     0.076 C 
ATOM      6  C7  UNL d   1      -3.598   5.279   4.027  0.00  0.00     0.002 A 
ATOM      7  C8  UNL d   1      -3.477   4.833   2.709  0.00  0.00     0.006 A 
ENDROOT
BRANCH   1   8
ATOM      8  C1  UNL d   1      -4.484   4.169   0.493  0.00  0.00     0.054 C 
ATOM      9  C   UNL d   1      -3.375   4.941  -0.207  0.00  0.00     0.018 C 
ENDBRANCH   1   8
TORSDOF 1
ENDMDL
