MODEL 1
REMARK minimizedAffinity 2.02790475
REMARK minimizedRMSD -1
REMARK  1 active torsions:
REMARK  status: ('A' for Active; 'I' for Inactive)
REMARK    1  A    between atoms: C1_2  and  C2_3 
ROOT
ATOM      1  C2  UNL d   1       0.831   1.079  -1.615  0.00  0.00    -0.081 A 
ATOM      2  C3  UNL d   1       0.843   1.118  -3.014  0.00  0.00     0.006 A 
ATOM      3  C4  UNL d   1       0.850  -0.066  -3.756  0.00  0.00     0.002 A 
ATOM      4  C5  UNL d   1       0.838  -1.308  -3.111  0.00  0.00    -0.080 A 
ATOM      5  C6  UNL d   1       0.815  -2.586  -3.895  0.00  0.00     0.076 C 
ATOM      6  C7  UNL d   1       0.845  -1.347  -1.713  0.00  0.00     0.002 A 
ATOM      7  C8  UNL d   1       0.838  -0.164  -0.971  0.00  0.00     0.006 A 
ENDROOT
BRANCH   1   8
ATOM      8  C1  UNL d   1       0.758   2.353  -0.813  0.00  0.00     0.054 C 
ATOM      9  C   UNL d   1       1.946   2.483   0.129  0.00  0.00     0.018 C 
ENDBRANCH   1   8
TORSDOF 1
ENDMDL
