MODEL 1
REMARK minimizedAffinity 7.15136147
REMARK minimizedRMSD -1
REMARK  1 active torsions:
REMARK  status: ('A' for Active; 'I' for Inactive)
REMARK    1  A    between atoms: C1_2  and  C2_3 
ROOT
ATOM      1  C2  UNL d   1       4.522   3.518  -4.625  0.00  0.00    -0.081 A 
ATOM      2  C3  UNL d   1       5.527   2.934  -3.845  0.00  0.00     0.006 A 
ATOM      3  C4  UNL d   1       5.999   1.653  -4.141  0.00  0.00     0.002 A 
ATOM      4  C5  UNL d   1       5.481   0.939  -5.227  0.00  0.00    -0.080 A 
ATOM      5  C6  UNL d   1       6.000  -0.424  -5.575  0.00  0.00     0.076 C 
ATOM      6  C7  UNL d   1       4.464   1.516  -5.996  0.00  0.00     0.002 A 
ATOM      7  C8  UNL d   1       3.991   2.796  -5.700  0.00  0.00     0.006 A 
ENDROOT
BRANCH   1   8
ATOM      8  C1  UNL d   1       4.057   4.925  -4.347  0.00  0.00     0.054 C 
ATOM      9  C   UNL d   1       3.706   5.111  -2.878  0.00  0.00     0.018 C 
ENDBRANCH   1   8
TORSDOF 1
ENDMDL
