MODEL 1
REMARK minimizedAffinity 7.58723307
REMARK minimizedRMSD -1
REMARK  1 active torsions:
REMARK  status: ('A' for Active; 'I' for Inactive)
REMARK    1  A    between atoms: C1_2  and  C2_3 
ROOT
ATOM      1  C2  UNL d   1      -3.356   1.945   5.293  0.00  0.00    -0.081 A 
ATOM      2  C3  UNL d   1      -2.378   1.167   4.662  0.00  0.00     0.006 A 
ATOM      3  C4  UNL d   1      -2.508  -0.223   4.601  0.00  0.00     0.002 A 
ATOM      4  C5  UNL d   1      -3.621  -0.856   5.164  0.00  0.00    -0.080 A 
ATOM      5  C6  UNL d   1      -3.788  -2.345   5.079  0.00  0.00     0.076 C 
ATOM      6  C7  UNL d   1      -4.590  -0.081   5.810  0.00  0.00     0.002 A 
ATOM      7  C8  UNL d   1      -4.460   1.308   5.871  0.00  0.00     0.006 A 
ENDROOT
BRANCH   1   8
ATOM      8  C1  UNL d   1      -3.251   3.448   5.303  0.00  0.00     0.054 C 
ATOM      9  C   UNL d   1      -4.452   4.082   5.989  0.00  0.00     0.018 C 
ENDBRANCH   1   8
TORSDOF 1
ENDMDL
