MODEL 1
REMARK minimizedAffinity 2.01642346
REMARK minimizedRMSD -1
REMARK  1 active torsions:
REMARK  status: ('A' for Active; 'I' for Inactive)
REMARK    1  A    between atoms: C1_2  and  C2_3 
ROOT
ATOM      1  C2  UNL d   1       0.730   0.605  -1.921  0.00  0.00    -0.081 A 
ATOM      2  C3  UNL d   1       0.901  -0.766  -1.690  0.00  0.00     0.006 A 
ATOM      3  C4  UNL d   1       1.420  -1.593  -2.689  0.00  0.00     0.002 A 
ATOM      4  C5  UNL d   1       1.783  -1.064  -3.932  0.00  0.00    -0.080 A 
ATOM      5  C6  UNL d   1       2.369  -1.936  -5.002  0.00  0.00     0.076 C 
ATOM      6  C7  UNL d   1       1.596   0.302  -4.169  0.00  0.00     0.002 A 
ATOM      7  C8  UNL d   1       1.077   1.130  -3.171  0.00  0.00     0.006 A 
ENDROOT
BRANCH   1   8
ATOM      8  C1  UNL d   1       0.232   1.511  -0.825  0.00  0.00     0.054 C 
ATOM      9  C   UNL d   1       1.375   2.288  -0.187  0.00  0.00     0.018 C 
ENDBRANCH   1   8
TORSDOF 1
ENDMDL
