MODEL 1
REMARK minimizedAffinity 1.16333616
REMARK minimizedRMSD -1
REMARK  1 active torsions:
REMARK  status: ('A' for Active; 'I' for Inactive)
REMARK    1  A    between atoms: C1_2  and  C2_3 
ROOT
ATOM      1  C2  UNL d   1       0.940   1.351  -1.441  0.00  0.00    -0.081 A 
ATOM      2  C3  UNL d   1       0.803   0.169  -0.703  0.00  0.00     0.006 A 
ATOM      3  C4  UNL d   1       0.858  -1.073  -1.339  0.00  0.00     0.002 A 
ATOM      4  C5  UNL d   1       1.059  -1.155  -2.722  0.00  0.00    -0.080 A 
ATOM      5  C6  UNL d   1       1.150  -2.483  -3.412  0.00  0.00     0.076 C 
ATOM      6  C7  UNL d   1       1.178   0.027  -3.462  0.00  0.00     0.002 A 
ATOM      7  C8  UNL d   1       1.122   1.269  -2.826  0.00  0.00     0.006 A 
ENDROOT
BRANCH   1   8
ATOM      8  C1  UNL d   1       0.945   2.690  -0.749  0.00  0.00     0.054 C 
ATOM      9  C   UNL d   1       2.133   2.821   0.193  0.00  0.00     0.018 C 
ENDBRANCH   1   8
TORSDOF 1
ENDMDL
