MODEL 1
REMARK minimizedAffinity 6.08722258
REMARK minimizedRMSD -1
REMARK  1 active torsions:
REMARK  status: ('A' for Active; 'I' for Inactive)
REMARK    1  A    between atoms: C1_2  and  C2_3 
ROOT
ATOM      1  C2  UNL d   1       0.771   0.333  -1.704  0.00  0.00    -0.081 A 
ATOM      2  C3  UNL d   1       1.363   0.243  -2.970  0.00  0.00     0.006 A 
ATOM      3  C4  UNL d   1       1.580  -1.003  -3.564  0.00  0.00     0.002 A 
ATOM      4  C5  UNL d   1       1.201  -2.178  -2.906  0.00  0.00    -0.080 A 
ATOM      5  C6  UNL d   1       1.400  -3.520  -3.546  0.00  0.00     0.076 C 
ATOM      6  C7  UNL d   1       0.626  -2.090  -1.634  0.00  0.00     0.002 A 
ATOM      7  C8  UNL d   1       0.410  -0.844  -1.039  0.00  0.00     0.006 A 
ENDROOT
BRANCH   1   8
ATOM      8  C1  UNL d   1       0.478   1.677  -1.089  0.00  0.00     0.054 C 
ATOM      9  C   UNL d   1       1.468   2.007   0.018  0.00  0.00     0.018 C 
ENDBRANCH   1   8
TORSDOF 1
ENDMDL
