MODEL 1
REMARK minimizedAffinity 1.00502956
REMARK minimizedRMSD -1
REMARK  1 active torsions:
REMARK  status: ('A' for Active; 'I' for Inactive)
REMARK    1  A    between atoms: C1_2  and  C2_3 
ROOT
ATOM      1  C2  UNL d   1       3.600   0.767  -3.975  0.00  0.00    -0.081 A 
ATOM      2  C3  UNL d   1       4.035   0.037  -2.862  0.00  0.00     0.006 A 
ATOM      3  C4  UNL d   1       3.115  -0.437  -1.924  0.00  0.00     0.002 A 
ATOM      4  C5  UNL d   1       1.746  -0.196  -2.087  0.00  0.00    -0.080 A 
ATOM      5  C6  UNL d   1       0.746  -0.726  -1.102  0.00  0.00     0.076 C 
ATOM      6  C7  UNL d   1       1.314   0.548  -3.190  0.00  0.00     0.002 A 
ATOM      7  C8  UNL d   1       2.233   1.023  -4.128  0.00  0.00     0.006 A 
ENDROOT
BRANCH   1   8
ATOM      8  C1  UNL d   1       4.583   1.224  -5.023  0.00  0.00     0.054 C 
ATOM      9  C   UNL d   1       6.000   0.786  -4.681  0.00  0.00     0.018 C 
ENDBRANCH   1   8
TORSDOF 1
ENDMDL
