MODEL 1
REMARK minimizedAffinity 4.70044041
REMARK minimizedRMSD -1
REMARK  1 active torsions:
REMARK  status: ('A' for Active; 'I' for Inactive)
REMARK    1  A    between atoms: C1_2  and  C2_3 
ROOT
ATOM      1  C2  UNL d   1      -3.444   2.422   4.915  0.00  0.00    -0.081 A 
ATOM      2  C3  UNL d   1      -4.044   1.771   6.000  0.00  0.00     0.006 A 
ATOM      3  C4  UNL d   1      -4.190   0.382   5.999  0.00  0.00     0.002 A 
ATOM      4  C5  UNL d   1      -3.733  -0.380   4.919  0.00  0.00    -0.080 A 
ATOM      5  C6  UNL d   1      -3.857  -1.875   4.919  0.00  0.00     0.076 C 
ATOM      6  C7  UNL d   1      -3.150   0.272   3.827  0.00  0.00     0.002 A 
ATOM      7  C8  UNL d   1      -3.003   1.661   3.827  0.00  0.00     0.006 A 
ENDROOT
BRANCH   1   8
ATOM      8  C1  UNL d   1      -3.226   3.913   4.941  0.00  0.00     0.054 C 
ATOM      9  C   UNL d   1      -4.092   4.580   6.000  0.00  0.00     0.018 C 
ENDBRANCH   1   8
TORSDOF 1
ENDMDL
