MODEL 1
REMARK minimizedAffinity 1.01010227
REMARK minimizedRMSD -1
REMARK  1 active torsions:
REMARK  status: ('A' for Active; 'I' for Inactive)
REMARK    1  A    between atoms: C3_4  and  O_7 
ROOT
ATOM      1  C   UNL d   1       1.293  -0.342   1.026  0.00  0.00    -0.033 A 
ATOM      2  C1  UNL d   1       1.311  -0.468  -0.365  0.00  0.00     0.039 A 
ATOM      3  C2  UNL d   1       0.468   0.320  -1.150  0.00  0.00    -0.080 A 
ATOM      4  C3  UNL d   1      -0.387   1.230  -0.534  0.00  0.00     0.150 A 
ATOM      5  C4  UNL d   1      -0.408   1.363   0.850  0.00  0.00    -0.007 A 
ATOM      6  C5  UNL d   1       0.434   0.575   1.633  0.00  0.00     0.039 A 
ENDROOT
BRANCH   4   7
ATOM      7  O   UNL d   1      -1.231   2.018  -1.259  0.00  0.00    -0.526 OA
ATOM      8  H5  UNL d   1      -1.127   1.796  -2.199  0.00  0.00     0.418 HD
ENDBRANCH   4   7
TORSDOF 1
ENDMDL
