MODEL 1
REMARK minimizedAffinity 4.56418324
REMARK minimizedRMSD -1
REMARK  1 active torsions:
REMARK  status: ('A' for Active; 'I' for Inactive)
REMARK    1  A    between atoms: C3_4  and  O_7 
ROOT
ATOM      1  C   UNL d   1      -5.967  -1.311   1.432  0.00  0.00    -0.033 A 
ATOM      2  C1  UNL d   1      -5.949  -0.254   2.344  0.00  0.00     0.039 A 
ATOM      3  C2  UNL d   1      -5.954  -0.512   3.716  0.00  0.00    -0.080 A 
ATOM      4  C3  UNL d   1      -5.976  -1.830   4.163  0.00  0.00     0.150 A 
ATOM      5  C4  UNL d   1      -5.990  -2.889   3.260  0.00  0.00    -0.007 A 
ATOM      6  C5  UNL d   1      -5.986  -2.629   1.891  0.00  0.00     0.039 A 
ENDROOT
BRANCH   4   7
ATOM      7  O   UNL d   1      -5.987  -2.132   5.492  0.00  0.00    -0.526 OA
ATOM      8  H5  UNL d   1      -6.005  -1.301   5.996  0.00  0.00     0.418 HD
ENDBRANCH   4   7
TORSDOF 1
ENDMDL
