MODEL 1
REMARK minimizedAffinity -0.491950542
REMARK minimizedRMSD -1
REMARK  1 active torsions:
REMARK  status: ('A' for Active; 'I' for Inactive)
REMARK    1  A    between atoms: C3_4  and  O_7 
ROOT
ATOM      1  C   UNL d   1      -0.508   1.675  -0.456  0.00  0.00    -0.033 A 
ATOM      2  C1  UNL d   1       0.273   0.638  -0.967  0.00  0.00     0.039 A 
ATOM      3  C2  UNL d   1       1.005  -0.179  -0.103  0.00  0.00    -0.080 A 
ATOM      4  C3  UNL d   1       0.946   0.052   1.269  0.00  0.00     0.150 A 
ATOM      5  C4  UNL d   1       0.166   1.082   1.785  0.00  0.00    -0.007 A 
ATOM      6  C5  UNL d   1      -0.563   1.897   0.921  0.00  0.00     0.039 A 
ENDROOT
BRANCH   4   7
ATOM      7  O   UNL d   1       1.646  -0.716   2.151  0.00  0.00    -0.526 OA
ATOM      8  H5  UNL d   1       2.162  -1.369   1.649  0.00  0.00     0.418 HD
ENDBRANCH   4   7
TORSDOF 1
ENDMDL
