MODEL 1
REMARK minimizedAffinity -1.99512982
REMARK minimizedRMSD -1
REMARK  1 active torsions:
REMARK  status: ('A' for Active; 'I' for Inactive)
REMARK    1  A    between atoms: C3_4  and  O_7 
ROOT
ATOM      1  C   UNL d   1       0.069   3.421   2.081  0.00  0.00    -0.033 A 
ATOM      2  C1  UNL d   1      -0.185   2.055   2.219  0.00  0.00     0.039 A 
ATOM      3  C2  UNL d   1      -0.272   1.241   1.088  0.00  0.00    -0.080 A 
ATOM      4  C3  UNL d   1      -0.102   1.805  -0.174  0.00  0.00     0.150 A 
ATOM      5  C4  UNL d   1       0.155   3.164  -0.319  0.00  0.00    -0.007 A 
ATOM      6  C5  UNL d   1       0.241   3.975   0.812  0.00  0.00     0.039 A 
ENDROOT
BRANCH   4   7
ATOM      7  O   UNL d   1      -0.183   1.051  -1.307  0.00  0.00    -0.526 OA
ATOM      8  H5  UNL d   1      -0.393   0.137  -1.055  0.00  0.00     0.418 HD
ENDBRANCH   4   7
TORSDOF 1
ENDMDL
