MODEL 1
REMARK minimizedAffinity 5.24226141
REMARK minimizedRMSD -1
REMARK  1 active torsions:
REMARK  status: ('A' for Active; 'I' for Inactive)
REMARK    1  A    between atoms: C3_4  and  O_7 
ROOT
ATOM      1  C   UNL d   1       0.306  -1.139   0.217  0.00  0.00    -0.033 A 
ATOM      2  C1  UNL d   1       1.503  -1.227   0.929  0.00  0.00     0.039 A 
ATOM      3  C2  UNL d   1       1.811  -0.275   1.902  0.00  0.00    -0.080 A 
ATOM      4  C3  UNL d   1       0.913   0.760   2.154  0.00  0.00     0.150 A 
ATOM      5  C4  UNL d   1      -0.283   0.852   1.450  0.00  0.00    -0.007 A 
ATOM      6  C5  UNL d   1      -0.588  -0.100   0.478  0.00  0.00     0.039 A 
ENDROOT
BRANCH   4   7
ATOM      7  O   UNL d   1       1.172   1.716   3.091  0.00  0.00    -0.526 OA
ATOM      8  H5  UNL d   1       2.047   1.540   3.476  0.00  0.00     0.418 HD
ENDBRANCH   4   7
TORSDOF 1
ENDMDL
