MODEL 1
REMARK minimizedAffinity 6.63728666
REMARK minimizedRMSD -1
REMARK  1 active torsions:
REMARK  status: ('A' for Active; 'I' for Inactive)
REMARK    1  A    between atoms: C3_4  and  O_7 
ROOT
ATOM      1  C   UNL d   1      -5.949  -2.175   5.272  0.00  0.00    -0.033 A 
ATOM      2  C1  UNL d   1      -5.916  -0.784   5.390  0.00  0.00     0.039 A 
ATOM      3  C2  UNL d   1      -5.922   0.015   4.245  0.00  0.00    -0.080 A 
ATOM      4  C3  UNL d   1      -5.962  -0.588   2.991  0.00  0.00     0.150 A 
ATOM      5  C4  UNL d   1      -5.999  -1.972   2.867  0.00  0.00    -0.007 A 
ATOM      6  C5  UNL d   1      -5.992  -2.769   4.011  0.00  0.00     0.039 A 
ENDROOT
BRANCH   4   7
ATOM      7  O   UNL d   1      -5.965   0.151   1.845  0.00  0.00    -0.526 OA
ATOM      8  H5  UNL d   1      -5.908   1.091   2.085  0.00  0.00     0.418 HD
ENDBRANCH   4   7
TORSDOF 1
ENDMDL
