MODEL 1
REMARK minimizedAffinity 3.63697457
REMARK minimizedRMSD -1
REMARK  1 active torsions:
REMARK  status: ('A' for Active; 'I' for Inactive)
REMARK    1  A    between atoms: C1_2  and  C2_3 
ROOT
ATOM      1  C2  UNL d   1      -2.338  -2.142   3.504  0.00  0.00    -0.076 A 
ATOM      2  C3  UNL d   1      -2.669  -0.806   3.791  0.00  0.00     0.004 A 
ATOM      3  C4  UNL d   1      -2.324   0.222   2.915  0.00  0.00    -0.003 A 
ATOM      4  C5  UNL d   1      -1.645  -0.068   1.737  0.00  0.00     0.000 A 
ATOM      5  C6  UNL d   1      -1.325  -1.390   1.428  0.00  0.00     0.000 A 
ATOM      6  C7  UNL d   1      -1.679  -2.440   2.292  0.00  0.00    -0.073 A 
ATOM      7  C8  UNL d   1      -1.304  -3.846   1.911  0.00  0.00     0.078 C 
ENDROOT
BRANCH   1   8
ATOM      8  C1  UNL d   1      -2.714  -3.212   4.504  0.00  0.00     0.053 C 
ATOM      9  C   UNL d   1      -3.793  -2.752   5.472  0.00  0.00     0.018 C 
ENDBRANCH   1   8
TORSDOF 1
ENDMDL
