MODEL 1
REMARK minimizedAffinity 6.47064686
REMARK minimizedRMSD -1
REMARK  1 active torsions:
REMARK  status: ('A' for Active; 'I' for Inactive)
REMARK    1  A    between atoms: C1_2  and  C2_3 
ROOT
ATOM      1  C2  UNL d   1       3.457   4.216  -4.695  0.00  0.00    -0.076 A 
ATOM      2  C3  UNL d   1       2.177   3.683  -4.465  0.00  0.00     0.004 A 
ATOM      3  C4  UNL d   1       1.038   4.302  -4.978  0.00  0.00    -0.003 A 
ATOM      4  C5  UNL d   1       1.162   5.466  -5.730  0.00  0.00     0.000 A 
ATOM      5  C6  UNL d   1       2.425   5.999  -5.983  0.00  0.00     0.000 A 
ATOM      6  C7  UNL d   1       3.584   5.378  -5.486  0.00  0.00    -0.073 A 
ATOM      7  C8  UNL d   1       4.921   6.000  -5.784  0.00  0.00     0.078 C 
ENDROOT
BRANCH   1   8
ATOM      8  C1  UNL d   1       4.653   3.515  -4.090  0.00  0.00     0.053 C 
ATOM      9  C   UNL d   1       4.374   2.054  -3.776  0.00  0.00     0.018 C 
ENDBRANCH   1   8
TORSDOF 1
ENDMDL
