MODEL 1
REMARK minimizedAffinity 4.16790962
REMARK minimizedRMSD -1
REMARK  1 active torsions:
REMARK  status: ('A' for Active; 'I' for Inactive)
REMARK    1  A    between atoms: C1_2  and  C2_3 
ROOT
ATOM      1  C2  UNL d   1      -1.336   5.976  -3.931  0.00  0.00    -0.076 A 
ATOM      2  C3  UNL d   1      -1.261   5.982  -5.335  0.00  0.00     0.004 A 
ATOM      3  C4  UNL d   1      -0.029   5.988  -5.988  0.00  0.00    -0.003 A 
ATOM      4  C5  UNL d   1       1.148   5.987  -5.247  0.00  0.00     0.000 A 
ATOM      5  C6  UNL d   1       1.092   5.962  -3.854  0.00  0.00     0.000 A 
ATOM      6  C7  UNL d   1      -0.141   5.940  -3.180  0.00  0.00    -0.073 A 
ATOM      7  C8  UNL d   1      -0.142   5.920  -1.676  0.00  0.00     0.078 C 
ENDROOT
BRANCH   1   8
ATOM      8  C1  UNL d   1      -2.700   5.997  -3.278  0.00  0.00     0.053 C 
ATOM      9  C   UNL d   1      -3.832   5.965  -4.293  0.00  0.00     0.018 C 
ENDBRANCH   1   8
TORSDOF 1
ENDMDL
