MODEL 1
REMARK minimizedAffinity 0.46233809
REMARK minimizedRMSD -1
REMARK  1 active torsions:
REMARK  status: ('A' for Active; 'I' for Inactive)
REMARK    1  A    between atoms: C1_2  and  C2_3 
ROOT
ATOM      1  C2  UNL d   1      -1.588   5.982  -3.942  0.00  0.00    -0.076 A 
ATOM      2  C3  UNL d   1      -2.644   5.998  -4.870  0.00  0.00     0.004 A 
ATOM      3  C4  UNL d   1      -3.972   5.996  -4.446  0.00  0.00    -0.003 A 
ATOM      4  C5  UNL d   1      -4.265   5.980  -3.086  0.00  0.00     0.000 A 
ATOM      5  C6  UNL d   1      -3.230   5.982  -2.152  0.00  0.00     0.000 A 
ATOM      6  C7  UNL d   1      -1.886   6.000  -2.563  0.00  0.00    -0.073 A 
ATOM      7  C8  UNL d   1      -0.809   5.995  -1.512  0.00  0.00     0.078 C 
ENDROOT
BRANCH   1   8
ATOM      8  C1  UNL d   1      -0.168   5.956  -4.462  0.00  0.00     0.053 C 
ATOM      9  C   UNL d   1      -0.103   5.978  -5.981  0.00  0.00     0.018 C 
ENDBRANCH   1   8
TORSDOF 1
ENDMDL
