MODEL 1
REMARK minimizedAffinity 1.68635726
REMARK minimizedRMSD -1
REMARK  1 active torsions:
REMARK  status: ('A' for Active; 'I' for Inactive)
REMARK    1  A    between atoms: C1_2  and  C2_3 
ROOT
ATOM      1  C2  UNL d   1      -1.103   5.975  -3.771  0.00  0.00    -0.076 A 
ATOM      2  C3  UNL d   1      -0.345   5.944  -2.587  0.00  0.00     0.004 A 
ATOM      3  C4  UNL d   1      -0.964   5.950  -1.338  0.00  0.00    -0.003 A 
ATOM      4  C5  UNL d   1      -2.352   5.986  -1.253  0.00  0.00     0.000 A 
ATOM      5  C6  UNL d   1      -3.120   6.000  -2.416  0.00  0.00     0.000 A 
ATOM      6  C7  UNL d   1      -2.512   5.978  -3.683  0.00  0.00    -0.073 A 
ATOM      7  C8  UNL d   1      -3.389   6.000  -4.905  0.00  0.00     0.078 C 
ENDROOT
BRANCH   1   8
ATOM      8  C1  UNL d   1      -0.376   5.995  -5.096  0.00  0.00     0.053 C 
ATOM      9  C   UNL d   1       1.136   6.000  -4.931  0.00  0.00     0.018 C 
ENDBRANCH   1   8
TORSDOF 1
ENDMDL
