MODEL 1
REMARK minimizedAffinity 3.40959573
REMARK minimizedRMSD -1
REMARK  1 active torsions:
REMARK  status: ('A' for Active; 'I' for Inactive)
REMARK    1  A    between atoms: C1_2  and  C2_3 
ROOT
ATOM      1  C2  UNL d   1      -1.575   5.787  -3.146  0.00  0.00    -0.076 A 
ATOM      2  C3  UNL d   1      -0.677   5.690  -2.069  0.00  0.00     0.004 A 
ATOM      3  C4  UNL d   1      -1.130   5.730  -0.751  0.00  0.00    -0.003 A 
ATOM      4  C5  UNL d   1      -2.489   5.866  -0.490  0.00  0.00     0.000 A 
ATOM      5  C6  UNL d   1      -3.395   5.946  -1.546  0.00  0.00     0.000 A 
ATOM      6  C7  UNL d   1      -2.957   5.891  -2.880  0.00  0.00    -0.073 A 
ATOM      7  C8  UNL d   1      -3.978   5.987  -3.981  0.00  0.00     0.078 C 
ENDROOT
BRANCH   1   8
ATOM      8  C1  UNL d   1      -1.022   5.765  -4.553  0.00  0.00     0.053 C 
ATOM      9  C   UNL d   1       0.485   5.968  -4.591  0.00  0.00     0.018 C 
ENDBRANCH   1   8
TORSDOF 1
ENDMDL
