MODEL 1
REMARK minimizedAffinity -3.57907844
REMARK minimizedRMSD -1
REMARK  1 active torsions:
REMARK  status: ('A' for Active; 'I' for Inactive)
REMARK    1  A    between atoms: C1_2  and  C2_3 
ROOT
ATOM      1  C2  UNL d   1       1.501   1.233   1.432  0.00  0.00    -0.076 A 
ATOM      2  C3  UNL d   1       0.850   0.981   2.652  0.00  0.00     0.004 A 
ATOM      3  C4  UNL d   1      -0.537   0.861   2.713  0.00  0.00    -0.003 A 
ATOM      4  C5  UNL d   1      -1.296   0.991   1.556  0.00  0.00     0.000 A 
ATOM      5  C6  UNL d   1      -0.665   1.224   0.334  0.00  0.00     0.000 A 
ATOM      6  C7  UNL d   1       0.734   1.331   0.252  0.00  0.00    -0.073 A 
ATOM      7  C8  UNL d   1       1.360   1.588  -1.091  0.00  0.00     0.078 C 
ENDROOT
BRANCH   1   8
ATOM      8  C1  UNL d   1       3.006   1.379   1.431  0.00  0.00     0.053 C 
ATOM      9  C   UNL d   1       3.657   0.717   2.636  0.00  0.00     0.018 C 
ENDBRANCH   1   8
TORSDOF 1
ENDMDL
