MODEL 1
REMARK minimizedAffinity -1.14972126
REMARK minimizedRMSD -1
REMARK  1 active torsions:
REMARK  status: ('A' for Active; 'I' for Inactive)
REMARK    1  A    between atoms: C1_2  and  C2_3 
ROOT
ATOM      1  C2  UNL d   1      -0.670   5.983  -4.019  0.00  0.00    -0.076 A 
ATOM      2  C3  UNL d   1      -1.567   5.999  -5.102  0.00  0.00     0.004 A 
ATOM      3  C4  UNL d   1      -2.945   5.996  -4.892  0.00  0.00    -0.003 A 
ATOM      4  C5  UNL d   1      -3.449   5.979  -3.597  0.00  0.00     0.000 A 
ATOM      5  C6  UNL d   1      -2.574   5.981  -2.511  0.00  0.00     0.000 A 
ATOM      6  C7  UNL d   1      -1.182   6.000  -2.704  0.00  0.00    -0.073 A 
ATOM      7  C8  UNL d   1      -0.285   5.995  -1.497  0.00  0.00     0.078 C 
ENDROOT
BRANCH   1   8
ATOM      8  C1  UNL d   1       0.814   5.959  -4.308  0.00  0.00     0.053 C 
ATOM      9  C   UNL d   1       1.118   5.972  -5.798  0.00  0.00     0.018 C 
ENDBRANCH   1   8
TORSDOF 1
ENDMDL
