MODEL 1
REMARK minimizedAffinity 1.56486881
REMARK minimizedRMSD -1
REMARK  1 active torsions:
REMARK  status: ('A' for Active; 'I' for Inactive)
REMARK    1  A    between atoms: C1_2  and  C2_3 
ROOT
ATOM      1  C2  UNL d   1      -1.652   5.886  -4.131  0.00  0.00    -0.076 A 
ATOM      2  C3  UNL d   1      -0.675   5.858  -3.121  0.00  0.00     0.004 A 
ATOM      3  C4  UNL d   1      -1.034   5.908  -1.775  0.00  0.00    -0.003 A 
ATOM      4  C5  UNL d   1      -2.375   5.986  -1.417  0.00  0.00     0.000 A 
ATOM      5  C6  UNL d   1      -3.358   5.997  -2.406  0.00  0.00     0.000 A 
ATOM      6  C7  UNL d   1      -3.014   5.931  -3.768  0.00  0.00    -0.073 A 
ATOM      7  C8  UNL d   1      -4.115   5.952  -4.792  0.00  0.00     0.078 C 
ENDROOT
BRANCH   1   8
ATOM      8  C1  UNL d   1      -1.201   5.857  -5.574  0.00  0.00     0.053 C 
ATOM      9  C   UNL d   1       0.306   5.996  -5.717  0.00  0.00     0.018 C 
ENDBRANCH   1   8
TORSDOF 1
ENDMDL
