MODEL 1
REMARK minimizedAffinity -0.200805813
REMARK minimizedRMSD -1
REMARK  1 active torsions:
REMARK  status: ('A' for Active; 'I' for Inactive)
REMARK    1  A    between atoms: C1_2  and  C2_3 
ROOT
ATOM      1  C2  UNL d   1      -0.470   5.982  -3.523  0.00  0.00    -0.076 A 
ATOM      2  C3  UNL d   1      -0.878   5.967  -2.177  0.00  0.00     0.004 A 
ATOM      3  C4  UNL d   1      -2.229   5.976  -1.837  0.00  0.00    -0.003 A 
ATOM      4  C5  UNL d   1      -3.196   6.000  -2.837  0.00  0.00     0.000 A 
ATOM      5  C6  UNL d   1      -2.810   5.997  -4.177  0.00  0.00     0.000 A 
ATOM      6  C7  UNL d   1      -1.451   5.971  -4.537  0.00  0.00    -0.073 A 
ATOM      7  C8  UNL d   1      -1.092   5.975  -5.998  0.00  0.00     0.078 C 
ENDROOT
BRANCH   1   8
ATOM      8  C1  UNL d   1       1.010   5.998  -3.831  0.00  0.00     0.053 C 
ATOM      9  C   UNL d   1       1.403   4.949  -4.859  0.00  0.00     0.018 C 
ENDBRANCH   1   8
TORSDOF 1
ENDMDL
