MODEL 1
REMARK minimizedAffinity 3.19753551
REMARK minimizedRMSD -1
REMARK  1 active torsions:
REMARK  status: ('A' for Active; 'I' for Inactive)
REMARK    1  A    between atoms: C1_2  and  C2_3 
ROOT
ATOM      1  C2  UNL d   1      -1.046   5.979  -3.225  0.00  0.00    -0.076 A 
ATOM      2  C3  UNL d   1      -0.168   5.962  -2.127  0.00  0.00     0.004 A 
ATOM      3  C4  UNL d   1      -0.653   5.972  -0.820  0.00  0.00    -0.003 A 
ATOM      4  C5  UNL d   1      -2.024   5.998  -0.590  0.00  0.00     0.000 A 
ATOM      5  C6  UNL d   1      -2.910   5.997  -1.667  0.00  0.00     0.000 A 
ATOM      6  C7  UNL d   1      -2.437   5.971  -2.990  0.00  0.00    -0.073 A 
ATOM      7  C8  UNL d   1      -3.438   5.977  -4.114  0.00  0.00     0.078 C 
ENDROOT
BRANCH   1   8
ATOM      8  C1  UNL d   1      -0.462   5.994  -4.619  0.00  0.00     0.053 C 
ATOM      9  C   UNL d   1       1.059   5.969  -4.614  0.00  0.00     0.018 C 
ENDBRANCH   1   8
TORSDOF 1
ENDMDL
