MODEL 1
REMARK minimizedAffinity 5.77890444
REMARK minimizedRMSD -1
REMARK  1 active torsions:
REMARK  status: ('A' for Active; 'I' for Inactive)
REMARK    1  A    between atoms: C1_2  and  C2_3 
ROOT
ATOM      1  C2  UNL d   1      -3.439  -1.642  -2.640  0.00  0.00    -0.076 A 
ATOM      2  C3  UNL d   1      -4.337  -2.683  -2.936  0.00  0.00     0.004 A 
ATOM      3  C4  UNL d   1      -4.923  -3.435  -1.920  0.00  0.00    -0.003 A 
ATOM      4  C5  UNL d   1      -4.622  -3.159  -0.591  0.00  0.00     0.000 A 
ATOM      5  C6  UNL d   1      -3.747  -2.119  -0.278  0.00  0.00     0.000 A 
ATOM      6  C7  UNL d   1      -3.160  -1.340  -1.290  0.00  0.00    -0.073 A 
ATOM      7  C8  UNL d   1      -2.218  -0.235  -0.896  0.00  0.00     0.078 C 
ENDROOT
BRANCH   1   8
ATOM      8  C1  UNL d   1      -2.813  -0.878  -3.785  0.00  0.00     0.053 C 
ATOM      9  C   UNL d   1      -1.546  -1.541  -4.304  0.00  0.00     0.018 C 
ENDBRANCH   1   8
TORSDOF 1
ENDMDL
