MODEL 1
REMARK minimizedAffinity -0.588065028
REMARK minimizedRMSD -1
REMARK  1 active torsions:
REMARK  status: ('A' for Active; 'I' for Inactive)
REMARK    1  A    between atoms: C1_2  and  C2_3 
ROOT
ATOM      1  C2  UNL d   1       3.777   4.936  -3.985  0.00  0.00    -0.076 A 
ATOM      2  C3  UNL d   1       2.503   4.930  -3.390  0.00  0.00     0.004 A 
ATOM      3  C4  UNL d   1       1.397   5.455  -4.055  0.00  0.00    -0.003 A 
ATOM      4  C5  UNL d   1       1.546   5.995  -5.328  0.00  0.00     0.000 A 
ATOM      5  C6  UNL d   1       2.798   5.994  -5.942  0.00  0.00     0.000 A 
ATOM      6  C7  UNL d   1       3.921   5.453  -5.291  0.00  0.00    -0.073 A 
ATOM      7  C8  UNL d   1       5.249   5.484  -5.997  0.00  0.00     0.078 C 
ENDROOT
BRANCH   1   8
ATOM      8  C1  UNL d   1       4.945   4.378  -3.204  0.00  0.00     0.053 C 
ATOM      9  C   UNL d   1       5.113   2.879  -3.401  0.00  0.00     0.018 C 
ENDBRANCH   1   8
TORSDOF 1
ENDMDL
