MODEL 1
REMARK minimizedAffinity -3.88881731
REMARK minimizedRMSD -1
REMARK  1 active torsions:
REMARK  status: ('A' for Active; 'I' for Inactive)
REMARK    1  A    between atoms: C1_2  and  C2_3 
ROOT
ATOM      1  C2  UNL d   1      -1.149   5.994  -3.384  0.00  0.00    -0.076 A 
ATOM      2  C3  UNL d   1       0.238   6.000  -3.617  0.00  0.00     0.004 A 
ATOM      3  C4  UNL d   1       0.747   5.973  -4.914  0.00  0.00    -0.003 A 
ATOM      4  C5  UNL d   1      -0.121   5.940  -5.999  0.00  0.00     0.000 A 
ATOM      5  C6  UNL d   1      -1.499   5.952  -5.787  0.00  0.00     0.000 A 
ATOM      6  C7  UNL d   1      -2.030   5.995  -4.486  0.00  0.00    -0.073 A 
ATOM      7  C8  UNL d   1      -3.524   6.000  -4.315  0.00  0.00     0.078 C 
ENDROOT
BRANCH   1   8
ATOM      8  C1  UNL d   1      -1.643   5.996  -1.955  0.00  0.00     0.053 C 
ATOM      9  C   UNL d   1      -1.004   4.901  -1.115  0.00  0.00     0.018 C 
ENDBRANCH   1   8
TORSDOF 1
ENDMDL
