MODEL 1
REMARK minimizedAffinity 4.23631477
REMARK minimizedRMSD -1
REMARK  1 active torsions:
REMARK  status: ('A' for Active; 'I' for Inactive)
REMARK    1  A    between atoms: C1_2  and  C2_3 
ROOT
ATOM      1  C2  UNL d   1      -2.201   5.902  -3.358  0.00  0.00    -0.076 A 
ATOM      2  C3  UNL d   1      -1.897   5.842  -4.729  0.00  0.00     0.004 A 
ATOM      3  C4  UNL d   1      -0.576   5.798  -5.170  0.00  0.00    -0.003 A 
ATOM      4  C5  UNL d   1       0.464   5.813  -4.246  0.00  0.00     0.000 A 
ATOM      5  C6  UNL d   1       0.181   5.854  -2.882  0.00  0.00     0.000 A 
ATOM      6  C7  UNL d   1      -1.146   5.882  -2.420  0.00  0.00    -0.073 A 
ATOM      7  C8  UNL d   1      -1.394   5.932  -0.937  0.00  0.00     0.078 C 
ENDROOT
BRANCH   1   8
ATOM      8  C1  UNL d   1      -3.652   5.975  -2.940  0.00  0.00     0.053 C 
ATOM      9  C   UNL d   1      -4.600   5.999  -4.129  0.00  0.00     0.018 C 
ENDBRANCH   1   8
TORSDOF 1
ENDMDL
