MODEL 1
REMARK minimizedAffinity -0.981531501
REMARK minimizedRMSD -1
REMARK  1 active torsions:
REMARK  status: ('A' for Active; 'I' for Inactive)
REMARK    1  A    between atoms: C1_2  and  C2_3 
ROOT
ATOM      1  C2  UNL d   1      -1.849   0.544  -0.743  0.00  0.00    -0.081 A 
ATOM      2  C3  UNL d   1      -1.091   1.715  -0.869  0.00  0.00     0.006 A 
ATOM      3  C4  UNL d   1       0.164   1.814  -0.264  0.00  0.00     0.002 A 
ATOM      4  C5  UNL d   1       0.685   0.743   0.470  0.00  0.00    -0.080 A 
ATOM      5  C6  UNL d   1       2.044   0.826   1.099  0.00  0.00     0.076 C 
ATOM      6  C7  UNL d   1      -0.079  -0.420   0.610  0.00  0.00     0.002 A 
ATOM      7  C8  UNL d   1      -1.334  -0.520   0.006  0.00  0.00     0.006 A 
ENDROOT
BRANCH   1   8
ATOM      8  C1  UNL d   1      -3.174   0.409  -1.449  0.00  0.00     0.054 C 
ATOM      9  C   UNL d   1      -2.988   0.246  -2.950  0.00  0.00     0.018 C 
ENDBRANCH   1   8
TORSDOF 1
ENDMDL
