MODEL 1
REMARK minimizedAffinity -5.22241306
REMARK minimizedRMSD -1
REMARK  1 active torsions:
REMARK  status: ('A' for Active; 'I' for Inactive)
REMARK    1  A    between atoms: C1_2  and  C2_3 
ROOT
ATOM      1  C2  UNL d   1      -0.457   0.205  -0.447  0.00  0.00    -0.081 A 
ATOM      2  C3  UNL d   1       0.597   1.128  -0.442  0.00  0.00     0.006 A 
ATOM      3  C4  UNL d   1       1.814   0.808   0.164  0.00  0.00     0.002 A 
ATOM      4  C5  UNL d   1       2.001  -0.440   0.767  0.00  0.00    -0.080 A 
ATOM      5  C6  UNL d   1       3.313  -0.807   1.394  0.00  0.00     0.076 C 
ATOM      6  C7  UNL d   1       0.943  -1.355   0.776  0.00  0.00     0.002 A 
ATOM      7  C8  UNL d   1      -0.275  -1.036   0.171  0.00  0.00     0.006 A 
ENDROOT
BRANCH   1   8
ATOM      8  C1  UNL d   1      -1.749   0.522  -1.156  0.00  0.00     0.054 C 
ATOM      9  C   UNL d   1      -1.901  -0.304  -2.425  0.00  0.00     0.018 C 
ENDBRANCH   1   8
TORSDOF 1
ENDMDL
