MODEL 1
REMARK minimizedAffinity 8.43614483
REMARK minimizedRMSD -1
REMARK  1 active torsions:
REMARK  status: ('A' for Active; 'I' for Inactive)
REMARK    1  A    between atoms: C1_2  and  C2_3 
ROOT
ATOM      1  C2  UNL d   1       1.644  -0.622   2.590  0.00  0.00    -0.081 A 
ATOM      2  C3  UNL d   1       0.802  -0.330   1.511  0.00  0.00     0.006 A 
ATOM      3  C4  UNL d   1       1.005   0.820   0.745  0.00  0.00     0.002 A 
ATOM      4  C5  UNL d   1       2.058   1.693   1.041  0.00  0.00    -0.080 A 
ATOM      5  C6  UNL d   1       2.305   2.915   0.208  0.00  0.00     0.076 C 
ATOM      6  C7  UNL d   1       2.889   1.410   2.130  0.00  0.00     0.002 A 
ATOM      7  C8  UNL d   1       2.686   0.260   2.896  0.00  0.00     0.006 A 
ENDROOT
BRANCH   1   8
ATOM      8  C1  UNL d   1       1.467  -1.895   3.378  0.00  0.00     0.054 C 
ATOM      9  C   UNL d   1       1.990  -1.744   4.799  0.00  0.00     0.018 C 
ENDBRANCH   1   8
TORSDOF 1
ENDMDL
