MODEL 1
REMARK minimizedAffinity -5.89181662
REMARK minimizedRMSD -1
REMARK  1 active torsions:
REMARK  status: ('A' for Active; 'I' for Inactive)
REMARK    1  A    between atoms: C1_2  and  C2_3 
ROOT
ATOM      1  C2  UNL d   1      -0.408  -0.007   0.343  0.00  0.00    -0.081 A 
ATOM      2  C3  UNL d   1       0.631   0.928   0.426  0.00  0.00     0.006 A 
ATOM      3  C4  UNL d   1       1.909   0.532   0.828  0.00  0.00     0.002 A 
ATOM      4  C5  UNL d   1       2.171  -0.805   1.146  0.00  0.00    -0.080 A 
ATOM      5  C6  UNL d   1       3.546  -1.248   1.549  0.00  0.00     0.076 C 
ATOM      6  C7  UNL d   1       1.128  -1.735   1.079  0.00  0.00     0.002 A 
ATOM      7  C8  UNL d   1      -0.150  -1.340   0.679  0.00  0.00     0.006 A 
ENDROOT
BRANCH   1   8
ATOM      8  C1  UNL d   1      -1.772   0.405  -0.152  0.00  0.00     0.054 C 
ATOM      9  C   UNL d   1      -1.918   0.149  -1.645  0.00  0.00     0.018 C 
ENDBRANCH   1   8
TORSDOF 1
ENDMDL
