MODEL 1
REMARK minimizedAffinity -5.21971798
REMARK minimizedRMSD -1
REMARK  1 active torsions:
REMARK  status: ('A' for Active; 'I' for Inactive)
REMARK    1  A    between atoms: C1_2  and  C2_3 
ROOT
ATOM      1  C2  UNL d   1       0.486  -0.576   0.367  0.00  0.00    -0.081 A 
ATOM      2  C3  UNL d   1       0.523  -1.516   1.405  0.00  0.00     0.006 A 
ATOM      3  C4  UNL d   1       1.744  -1.990   1.888  0.00  0.00     0.002 A 
ATOM      4  C5  UNL d   1       2.949  -1.528   1.348  0.00  0.00    -0.080 A 
ATOM      5  C6  UNL d   1       4.268  -2.006   1.878  0.00  0.00     0.076 C 
ATOM      6  C7  UNL d   1       2.913  -0.602   0.300  0.00  0.00     0.002 A 
ATOM      7  C8  UNL d   1       1.691  -0.128  -0.185  0.00  0.00     0.006 A 
ENDROOT
BRANCH   1   8
ATOM      8  C1  UNL d   1      -0.828  -0.014  -0.112  0.00  0.00     0.054 C 
ATOM      9  C   UNL d   1      -2.004  -0.780   0.475  0.00  0.00     0.018 C 
ENDBRANCH   1   8
TORSDOF 1
ENDMDL
