MODEL 1
REMARK minimizedAffinity -1.01933336
REMARK minimizedRMSD -1
REMARK  1 active torsions:
REMARK  status: ('A' for Active; 'I' for Inactive)
REMARK    1  A    between atoms: C1_2  and  C2_3 
ROOT
ATOM      1  C2  UNL d   1      -0.991   0.246  -1.382  0.00  0.00    -0.081 A 
ATOM      2  C3  UNL d   1       0.046   1.142  -1.669  0.00  0.00     0.006 A 
ATOM      3  C4  UNL d   1       1.087   1.336  -0.758  0.00  0.00     0.002 A 
ATOM      4  C5  UNL d   1       1.112   0.633   0.451  0.00  0.00    -0.080 A 
ATOM      5  C6  UNL d   1       2.240   0.809   1.424  0.00  0.00     0.076 C 
ATOM      6  C7  UNL d   1       0.067  -0.249   0.746  0.00  0.00     0.002 A 
ATOM      7  C8  UNL d   1      -0.974  -0.443  -0.165  0.00  0.00     0.006 A 
ENDROOT
BRANCH   1   8
ATOM      8  C1  UNL d   1      -2.081  -0.013  -2.390  0.00  0.00     0.054 C 
ATOM      9  C   UNL d   1      -2.335   1.211  -3.259  0.00  0.00     0.018 C 
ENDBRANCH   1   8
TORSDOF 1
ENDMDL
