MODEL 1
REMARK minimizedAffinity -3.474015
REMARK minimizedRMSD -1
REMARK  1 active torsions:
REMARK  status: ('A' for Active; 'I' for Inactive)
REMARK    1  A    between atoms: C1_2  and  C2_3 
ROOT
ATOM      1  C2  UNL d   1      -0.644  -0.141  -0.017  0.00  0.00    -0.081 A 
ATOM      2  C3  UNL d   1       0.446   0.735  -0.072  0.00  0.00     0.006 A 
ATOM      3  C4  UNL d   1       1.598   0.480   0.675  0.00  0.00     0.002 A 
ATOM      4  C5  UNL d   1       1.683  -0.658   1.483  0.00  0.00    -0.080 A 
ATOM      5  C6  UNL d   1       2.925  -0.960   2.267  0.00  0.00     0.076 C 
ATOM      6  C7  UNL d   1       0.587  -1.525   1.552  0.00  0.00     0.002 A 
ATOM      7  C8  UNL d   1      -0.566  -1.270   0.806  0.00  0.00     0.006 A 
ENDROOT
BRANCH   1   8
ATOM      8  C1  UNL d   1      -1.863   0.097  -0.871  0.00  0.00     0.054 C 
ATOM      9  C   UNL d   1      -1.941  -0.904  -2.015  0.00  0.00     0.018 C 
ENDBRANCH   1   8
TORSDOF 1
ENDMDL
