MODEL 1
REMARK minimizedAffinity -4.57684994
REMARK minimizedRMSD -1
REMARK  1 active torsions:
REMARK  status: ('A' for Active; 'I' for Inactive)
REMARK    1  A    between atoms: C1_2  and  C2_3 
ROOT
ATOM      1  C2  UNL d   1       0.051   0.248   0.316  0.00  0.00    -0.081 A 
ATOM      2  C3  UNL d   1       1.221   0.978   0.077  0.00  0.00     0.006 A 
ATOM      3  C4  UNL d   1       2.467   0.454   0.428  0.00  0.00     0.002 A 
ATOM      4  C5  UNL d   1       2.565  -0.811   1.016  0.00  0.00    -0.080 A 
ATOM      5  C6  UNL d   1       3.899  -1.399   1.370  0.00  0.00     0.076 C 
ATOM      6  C7  UNL d   1       1.394  -1.534   1.272  0.00  0.00     0.002 A 
ATOM      7  C8  UNL d   1       0.148  -1.010   0.921  0.00  0.00     0.006 A 
ENDROOT
BRANCH   1   8
ATOM      8  C1  UNL d   1      -1.289   0.783  -0.120  0.00  0.00     0.054 C 
ATOM      9  C   UNL d   1      -1.886  -0.064  -1.235  0.00  0.00     0.018 C 
ENDBRANCH   1   8
TORSDOF 1
ENDMDL
