MODEL 1
REMARK minimizedAffinity 4.29465294
REMARK minimizedRMSD -1
REMARK  1 active torsions:
REMARK  status: ('A' for Active; 'I' for Inactive)
REMARK    1  A    between atoms: C3_4  and  O_7 
ROOT
ATOM      1  C   UNL d   1      -0.652  -1.838   1.757  0.00  0.00    -0.033 A 
ATOM      2  C1  UNL d   1      -1.560  -2.751   1.217  0.00  0.00     0.039 A 
ATOM      3  C2  UNL d   1      -1.999  -2.606  -0.100  0.00  0.00    -0.080 A 
ATOM      4  C3  UNL d   1      -1.522  -1.546  -0.866  0.00  0.00     0.150 A 
ATOM      5  C4  UNL d   1      -0.614  -0.635  -0.336  0.00  0.00    -0.007 A 
ATOM      6  C5  UNL d   1      -0.178  -0.781   0.980  0.00  0.00     0.039 A 
ENDROOT
BRANCH   4   7
ATOM      7  O   UNL d   1      -1.925  -1.360  -2.155  0.00  0.00    -0.526 OA
ATOM      8  H5  UNL d   1      -2.574  -2.048  -2.377  0.00  0.00     0.418 HD
ENDBRANCH   4   7
TORSDOF 1
ENDMDL
