MODEL 1
REMARK minimizedAffinity 7.90351772
REMARK minimizedRMSD -1
REMARK  1 active torsions:
REMARK  status: ('A' for Active; 'I' for Inactive)
REMARK    1  A    between atoms: C3_4  and  O_7 
ROOT
ATOM      1  C   UNL d   1      -4.604   1.810   2.620  0.00  0.00    -0.033 A 
ATOM      2  C1  UNL d   1      -4.307   2.171   3.936  0.00  0.00     0.039 A 
ATOM      3  C2  UNL d   1      -4.760   1.386   4.997  0.00  0.00    -0.080 A 
ATOM      4  C3  UNL d   1      -5.508   0.243   4.730  0.00  0.00     0.150 A 
ATOM      5  C4  UNL d   1      -5.805  -0.126   3.422  0.00  0.00    -0.007 A 
ATOM      6  C5  UNL d   1      -5.352   0.660   2.363  0.00  0.00     0.039 A 
ENDROOT
BRANCH   4   7
ATOM      7  O   UNL d   1      -5.977  -0.553   5.733  0.00  0.00    -0.526 OA
ATOM      8  H5  UNL d   1      -5.720  -0.159   6.584  0.00  0.00     0.418 HD
ENDBRANCH   4   7
TORSDOF 1
ENDMDL
