MODEL 1
REMARK minimizedAffinity 4.64408588
REMARK minimizedRMSD -1
REMARK  1 active torsions:
REMARK  status: ('A' for Active; 'I' for Inactive)
REMARK    1  A    between atoms: C3_4  and  O_7 
ROOT
ATOM      1  C   UNL d   1       5.344  -0.692  -1.796  0.00  0.00    -0.033 A 
ATOM      2  C1  UNL d   1       6.000  -1.703  -1.091  0.00  0.00     0.039 A 
ATOM      3  C2  UNL d   1       5.804  -1.837   0.285  0.00  0.00    -0.080 A 
ATOM      4  C3  UNL d   1       4.952  -0.955   0.943  0.00  0.00     0.150 A 
ATOM      5  C4  UNL d   1       4.293   0.053   0.247  0.00  0.00    -0.007 A 
ATOM      6  C5  UNL d   1       4.490   0.186  -1.127  0.00  0.00     0.039 A 
ENDROOT
BRANCH   4   7
ATOM      7  O   UNL d   1       4.734  -1.043   2.286  0.00  0.00    -0.526 OA
ATOM      8  H5  UNL d   1       5.277  -1.767   2.639  0.00  0.00     0.418 HD
ENDBRANCH   4   7
TORSDOF 1
ENDMDL
