MODEL 1
REMARK minimizedAffinity 6.18533707
REMARK minimizedRMSD -1
REMARK  1 active torsions:
REMARK  status: ('A' for Active; 'I' for Inactive)
REMARK    1  A    between atoms: C3_4  and  O_7 
ROOT
ATOM      1  C   UNL d   1      -5.058   0.468   3.985  0.00  0.00    -0.033 A 
ATOM      2  C1  UNL d   1      -5.620   0.643   5.251  0.00  0.00     0.039 A 
ATOM      3  C2  UNL d   1      -5.427   1.841   5.943  0.00  0.00    -0.080 A 
ATOM      4  C3  UNL d   1      -4.672   2.854   5.358  0.00  0.00     0.150 A 
ATOM      5  C4  UNL d   1      -4.112   2.687   4.096  0.00  0.00    -0.007 A 
ATOM      6  C5  UNL d   1      -4.305   1.491   3.407  0.00  0.00     0.039 A 
ENDROOT
BRANCH   4   7
ATOM      7  O   UNL d   1      -4.452   4.038   5.997  0.00  0.00    -0.526 OA
ATOM      8  H5  UNL d   1      -4.874   3.999   6.871  0.00  0.00     0.418 HD
ENDBRANCH   4   7
TORSDOF 1
ENDMDL
