MODEL 1
REMARK minimizedAffinity -2.59007692
REMARK minimizedRMSD -1
REMARK  1 active torsions:
REMARK  status: ('A' for Active; 'I' for Inactive)
REMARK    1  A    between atoms: C3_4  and  O_7 
ROOT
ATOM      1  C   UNL d   1      -5.476   0.707   4.537  0.00  0.00    -0.033 A 
ATOM      2  C1  UNL d   1      -5.997   1.192   5.738  0.00  0.00     0.039 A 
ATOM      3  C2  UNL d   1      -5.999   2.564   5.997  0.00  0.00    -0.080 A 
ATOM      4  C3  UNL d   1      -5.480   3.439   5.047  0.00  0.00     0.150 A 
ATOM      5  C4  UNL d   1      -4.963   2.963   3.846  0.00  0.00    -0.007 A 
ATOM      6  C5  UNL d   1      -4.960   1.592   3.590  0.00  0.00     0.039 A 
ENDROOT
BRANCH   4   7
ATOM      7  O   UNL d   1      -5.456   4.786   5.256  0.00  0.00    -0.526 OA
ATOM      8  H5  UNL d   1      -5.819   4.967   6.139  0.00  0.00     0.418 HD
ENDBRANCH   4   7
TORSDOF 1
ENDMDL
