MODEL 1
REMARK minimizedAffinity 6.18055058
REMARK minimizedRMSD -1
REMARK  1 active torsions:
REMARK  status: ('A' for Active; 'I' for Inactive)
REMARK    1  A    between atoms: C3_4  and  O_7 
ROOT
ATOM      1  C   UNL d   1      -1.454  -1.863  -2.671  0.00  0.00    -0.033 A 
ATOM      2  C1  UNL d   1      -2.160  -1.982  -1.472  0.00  0.00     0.039 A 
ATOM      3  C2  UNL d   1      -3.381  -2.657  -1.444  0.00  0.00    -0.080 A 
ATOM      4  C3  UNL d   1      -3.884  -3.209  -2.619  0.00  0.00     0.150 A 
ATOM      5  C4  UNL d   1      -3.184  -3.098  -3.816  0.00  0.00    -0.007 A 
ATOM      6  C5  UNL d   1      -1.965  -2.422  -3.842  0.00  0.00     0.039 A 
ENDROOT
BRANCH   4   7
ATOM      7  O   UNL d   1      -5.075  -3.874  -2.642  0.00  0.00    -0.526 OA
ATOM      8  H5  UNL d   1      -5.459  -3.847  -1.750  0.00  0.00     0.418 HD
ENDBRANCH   4   7
TORSDOF 1
ENDMDL
