MODEL 1
REMARK minimizedAffinity 7.01972628
REMARK minimizedRMSD -1
REMARK  1 active torsions:
REMARK  status: ('A' for Active; 'I' for Inactive)
REMARK    1  A    between atoms: C3_4  and  O_7 
ROOT
ATOM      1  C   UNL d   1      -5.642  -0.704   5.610  0.00  0.00    -0.033 A 
ATOM      2  C1  UNL d   1      -4.802  -0.955   4.523  0.00  0.00     0.039 A 
ATOM      3  C2  UNL d   1      -4.233   0.107   3.818  0.00  0.00    -0.080 A 
ATOM      4  C3  UNL d   1      -4.510   1.414   4.211  0.00  0.00     0.150 A 
ATOM      5  C4  UNL d   1      -5.342   1.671   5.296  0.00  0.00    -0.007 A 
ATOM      6  C5  UNL d   1      -5.911   0.609   5.997  0.00  0.00     0.039 A 
ENDROOT
BRANCH   4   7
ATOM      7  O   UNL d   1      -3.981   2.484   3.552  0.00  0.00    -0.526 OA
ATOM      8  H5  UNL d   1      -3.450   2.154   2.808  0.00  0.00     0.418 HD
ENDBRANCH   4   7
TORSDOF 1
ENDMDL
