MODEL 1
REMARK minimizedAffinity 8.30351639
REMARK minimizedRMSD -1
REMARK  1 active torsions:
REMARK  status: ('A' for Active; 'I' for Inactive)
REMARK    1  A    between atoms: C3_4  and  O_7 
ROOT
ATOM      1  C   UNL d   1       1.226   3.935  -5.953  0.00  0.00    -0.033 A 
ATOM      2  C1  UNL d   1       2.151   3.218  -5.191  0.00  0.00     0.039 A 
ATOM      3  C2  UNL d   1       3.023   3.892  -4.334  0.00  0.00    -0.080 A 
ATOM      4  C3  UNL d   1       2.960   5.280  -4.248  0.00  0.00     0.150 A 
ATOM      5  C4  UNL d   1       2.039   6.000  -5.002  0.00  0.00    -0.007 A 
ATOM      6  C5  UNL d   1       1.169   5.325  -5.858  0.00  0.00     0.039 A 
ENDROOT
BRANCH   4   7
ATOM      7  O   UNL d   1       3.794   5.982  -3.430  0.00  0.00    -0.526 OA
ATOM      8  H5  UNL d   1       4.395   5.356  -2.993  0.00  0.00     0.418 HD
ENDBRANCH   4   7
TORSDOF 1
ENDMDL
