MODEL 1
REMARK minimizedAffinity 13.7410135
REMARK minimizedRMSD -1
REMARK  1 active torsions:
REMARK  status: ('A' for Active; 'I' for Inactive)
REMARK    1  A    between atoms: C3_4  and  O_7 
ROOT
ATOM      1  C   UNL d   1      -2.619  -2.287  -0.848  0.00  0.00    -0.033 A 
ATOM      2  C1  UNL d   1      -1.486  -1.546  -1.189  0.00  0.00     0.039 A 
ATOM      3  C2  UNL d   1      -0.937  -1.654  -2.468  0.00  0.00    -0.080 A 
ATOM      4  C3  UNL d   1      -1.530  -2.506  -3.396  0.00  0.00     0.150 A 
ATOM      5  C4  UNL d   1      -2.661  -3.245  -3.065  0.00  0.00    -0.007 A 
ATOM      6  C5  UNL d   1      -3.207  -3.136  -1.787  0.00  0.00     0.039 A 
ENDROOT
BRANCH   4   7
ATOM      7  O   UNL d   1      -1.027  -2.649  -4.655  0.00  0.00    -0.526 OA
ATOM      8  H5  UNL d   1      -0.229  -2.100  -4.732  0.00  0.00     0.418 HD
ENDBRANCH   4   7
TORSDOF 1
ENDMDL
