MODEL 1
REMARK minimizedAffinity 8.03386497
REMARK minimizedRMSD -1
REMARK  1 active torsions:
REMARK  status: ('A' for Active; 'I' for Inactive)
REMARK    1  A    between atoms: C3_4  and  O_7 
ROOT
ATOM      1  C   UNL d   1      -5.844   5.996   5.037  0.00  0.00    -0.033 A 
ATOM      2  C1  UNL d   1      -6.000   5.533   3.729  0.00  0.00     0.039 A 
ATOM      3  C2  UNL d   1      -5.556   4.256   3.380  0.00  0.00    -0.080 A 
ATOM      4  C3  UNL d   1      -4.959   3.453   4.348  0.00  0.00     0.150 A 
ATOM      5  C4  UNL d   1      -4.804   3.906   5.654  0.00  0.00    -0.007 A 
ATOM      6  C5  UNL d   1      -5.248   5.181   6.000  0.00  0.00     0.039 A 
ENDROOT
BRANCH   4   7
ATOM      7  O   UNL d   1      -4.506   2.201   4.054  0.00  0.00    -0.526 OA
ATOM      8  H5  UNL d   1      -4.654   2.034   3.109  0.00  0.00     0.418 HD
ENDBRANCH   4   7
TORSDOF 1
ENDMDL
