MODEL 1
REMARK minimizedAffinity 3.80235219
REMARK minimizedRMSD -1
REMARK  1 active torsions:
REMARK  status: ('A' for Active; 'I' for Inactive)
REMARK    1  A    between atoms: C3_4  and  O_7 
ROOT
ATOM      1  C   UNL d   1      -2.219  -5.467   1.869  0.00  0.00    -0.033 A 
ATOM      2  C1  UNL d   1      -2.455  -4.091   1.861  0.00  0.00     0.039 A 
ATOM      3  C2  UNL d   1      -1.635  -3.244   1.113  0.00  0.00    -0.080 A 
ATOM      4  C3  UNL d   1      -0.585  -3.785   0.377  0.00  0.00     0.150 A 
ATOM      5  C4  UNL d   1      -0.346  -5.155   0.377  0.00  0.00    -0.007 A 
ATOM      6  C5  UNL d   1      -1.165  -5.999   1.125  0.00  0.00     0.039 A 
ENDROOT
BRANCH   4   7
ATOM      7  O   UNL d   1       0.246  -2.998  -0.364  0.00  0.00    -0.526 OA
ATOM      8  H5  UNL d   1      -0.022  -2.071  -0.246  0.00  0.00     0.418 HD
ENDBRANCH   4   7
TORSDOF 1
ENDMDL
