MODEL 1
REMARK minimizedAffinity 11.8068523
REMARK minimizedRMSD -1
REMARK  1 active torsions:
REMARK  status: ('A' for Active; 'I' for Inactive)
REMARK    1  A    between atoms: C3_4  and  O_7 
ROOT
ATOM      1  C   UNL d   1      -0.774  -5.643  -3.615  0.00  0.00    -0.033 A 
ATOM      2  C1  UNL d   1      -1.893  -5.726  -2.784  0.00  0.00     0.039 A 
ATOM      3  C2  UNL d   1      -2.496  -4.562  -2.302  0.00  0.00    -0.080 A 
ATOM      4  C3  UNL d   1      -1.970  -3.323  -2.658  0.00  0.00     0.150 A 
ATOM      5  C4  UNL d   1      -0.858  -3.233  -3.488  0.00  0.00    -0.007 A 
ATOM      6  C5  UNL d   1      -0.257  -4.396  -3.968  0.00  0.00     0.039 A 
ENDROOT
BRANCH   4   7
ATOM      7  O   UNL d   1      -2.521  -2.160  -2.208  0.00  0.00    -0.526 OA
ATOM      8  H5  UNL d   1      -3.264  -2.378  -1.622  0.00  0.00     0.418 HD
ENDBRANCH   4   7
TORSDOF 1
ENDMDL
