MODEL 1
REMARK minimizedAffinity 7.48220396
REMARK minimizedRMSD -1
REMARK  1 active torsions:
REMARK  status: ('A' for Active; 'I' for Inactive)
REMARK    1  A    between atoms: C3_4  and  O_7 
ROOT
ATOM      1  C   UNL d   1       2.547   1.144   0.161  0.00  0.00    -0.033 A 
ATOM      2  C1  UNL d   1       2.172   1.407   1.480  0.00  0.00     0.039 A 
ATOM      3  C2  UNL d   1       2.829   0.770   2.534  0.00  0.00    -0.080 A 
ATOM      4  C3  UNL d   1       3.859  -0.124   2.257  0.00  0.00     0.150 A 
ATOM      5  C4  UNL d   1       4.241  -0.387   0.945  0.00  0.00    -0.007 A 
ATOM      6  C5  UNL d   1       3.582   0.248  -0.107  0.00  0.00     0.039 A 
ENDROOT
BRANCH   4   7
ATOM      7  O   UNL d   1       4.527  -0.773   3.252  0.00  0.00    -0.526 OA
ATOM      8  H5  UNL d   1       4.137  -0.515   4.104  0.00  0.00     0.418 HD
ENDBRANCH   4   7
TORSDOF 1
ENDMDL
