MODEL 1
REMARK minimizedAffinity 9.32629681
REMARK minimizedRMSD -1
REMARK  1 active torsions:
REMARK  status: ('A' for Active; 'I' for Inactive)
REMARK    1  A    between atoms: C3_4  and  O_7 
ROOT
ATOM      1  C   UNL d   1       6.000   0.193  -5.205  0.00  0.00    -0.033 A 
ATOM      2  C1  UNL d   1       5.994  -1.193  -5.367  0.00  0.00     0.039 A 
ATOM      3  C2  UNL d   1       4.792  -1.865  -5.602  0.00  0.00    -0.080 A 
ATOM      4  C3  UNL d   1       3.606  -1.139  -5.674  0.00  0.00     0.150 A 
ATOM      5  C4  UNL d   1       3.606   0.243  -5.518  0.00  0.00    -0.007 A 
ATOM      6  C5  UNL d   1       4.806   0.912  -5.282  0.00  0.00     0.039 A 
ENDROOT
BRANCH   4   7
ATOM      7  O   UNL d   1       2.409  -1.751  -5.897  0.00  0.00    -0.526 OA
ATOM      8  H5  UNL d   1       2.559  -2.710  -5.956  0.00  0.00     0.418 HD
ENDBRANCH   4   7
TORSDOF 1
ENDMDL
