MODEL 1
REMARK minimizedAffinity 9.07419777
REMARK minimizedRMSD -1
REMARK  1 active torsions:
REMARK  status: ('A' for Active; 'I' for Inactive)
REMARK    1  A    between atoms: C1_2  and  C2_3 
ROOT
ATOM      1  C2  UNL d   1       1.226  -2.266  -3.040  0.00  0.00    -0.081 A 
ATOM      2  C3  UNL d   1      -0.016  -1.699  -3.349  0.00  0.00     0.006 A 
ATOM      3  C4  UNL d   1      -1.005  -1.581  -2.369  0.00  0.00     0.002 A 
ATOM      4  C5  UNL d   1      -0.765  -2.022  -1.063  0.00  0.00    -0.080 A 
ATOM      5  C6  UNL d   1      -1.807  -1.874   0.006  0.00  0.00     0.076 C 
ATOM      6  C7  UNL d   1       0.470  -2.605  -0.758  0.00  0.00     0.002 A 
ATOM      7  C8  UNL d   1       1.458  -2.723  -1.738  0.00  0.00     0.006 A 
ENDROOT
BRANCH   1   8
ATOM      8  C1  UNL d   1       2.316  -2.335  -4.078  0.00  0.00     0.054 C 
ATOM      9  C   UNL d   1       3.656  -1.898  -3.504  0.00  0.00     0.018 C 
ENDBRANCH   1   8
TORSDOF 1
ENDMDL
