MODEL 1
REMARK minimizedAffinity 8.06277466
REMARK minimizedRMSD -1
REMARK  1 active torsions:
REMARK  status: ('A' for Active; 'I' for Inactive)
REMARK    1  A    between atoms: C1_2  and  C2_3 
ROOT
ATOM      1  C2  UNL d   1       1.690  -1.853  -2.619  0.00  0.00    -0.081 A 
ATOM      2  C3  UNL d   1       0.968  -2.187  -3.772  0.00  0.00     0.006 A 
ATOM      3  C4  UNL d   1      -0.420  -2.336  -3.720  0.00  0.00     0.002 A 
ATOM      4  C5  UNL d   1      -1.110  -2.146  -2.518  0.00  0.00    -0.080 A 
ATOM      5  C6  UNL d   1      -2.603  -2.274  -2.456  0.00  0.00     0.076 C 
ATOM      6  C7  UNL d   1      -0.387  -1.830  -1.363  0.00  0.00     0.002 A 
ATOM      7  C8  UNL d   1       1.000  -1.681  -1.414  0.00  0.00     0.006 A 
ENDROOT
BRANCH   1   8
ATOM      8  C1  UNL d   1       3.179  -1.628  -2.685  0.00  0.00     0.054 C 
ATOM      9  C   UNL d   1       3.750  -1.301  -1.313  0.00  0.00     0.018 C 
ENDBRANCH   1   8
TORSDOF 1
ENDMDL
