MODEL 1
REMARK minimizedAffinity 6.27759171
REMARK minimizedRMSD -1
REMARK  1 active torsions:
REMARK  status: ('A' for Active; 'I' for Inactive)
REMARK    1  A    between atoms: C1_2  and  C2_3 
ROOT
ATOM      1  C2  UNL d   1       4.832   5.134  -2.600  0.00  0.00    -0.081 A 
ATOM      2  C3  UNL d   1       3.657   4.943  -3.336  0.00  0.00     0.006 A 
ATOM      3  C4  UNL d   1       3.645   4.092  -4.444  0.00  0.00     0.002 A 
ATOM      4  C5  UNL d   1       4.806   3.413  -4.829  0.00  0.00    -0.080 A 
ATOM      5  C6  UNL d   1       4.800   2.474  -5.999  0.00  0.00     0.076 C 
ATOM      6  C7  UNL d   1       5.985   3.617  -4.104  0.00  0.00     0.002 A 
ATOM      7  C8  UNL d   1       5.997   4.468  -2.997  0.00  0.00     0.006 A 
ENDROOT
BRANCH   1   8
ATOM      8  C1  UNL d   1       4.832   6.000  -1.366  0.00  0.00     0.054 C 
ATOM      9  C   UNL d   1       5.999   5.659  -0.450  0.00  0.00     0.018 C 
ENDBRANCH   1   8
TORSDOF 1
ENDMDL
