MODEL 1
REMARK minimizedAffinity 8.77769661
REMARK minimizedRMSD -1
REMARK  1 active torsions:
REMARK  status: ('A' for Active; 'I' for Inactive)
REMARK    1  A    between atoms: C1_2  and  C2_3 
ROOT
ATOM      1  C2  UNL d   1       5.011   4.380  -4.578  0.00  0.00    -0.081 A 
ATOM      2  C3  UNL d   1       3.852   5.089  -4.240  0.00  0.00     0.006 A 
ATOM      3  C4  UNL d   1       3.687   5.604  -2.952  0.00  0.00     0.002 A 
ATOM      4  C5  UNL d   1       4.680   5.425  -1.983  0.00  0.00    -0.080 A 
ATOM      5  C6  UNL d   1       4.528   5.999  -0.606  0.00  0.00     0.076 C 
ATOM      6  C7  UNL d   1       5.830   4.702  -2.315  0.00  0.00     0.002 A 
ATOM      7  C8  UNL d   1       5.996   4.186  -3.603  0.00  0.00     0.006 A 
ENDROOT
BRANCH   1   8
ATOM      8  C1  UNL d   1       5.222   3.879  -5.984  0.00  0.00     0.054 C 
ATOM      9  C   UNL d   1       5.612   2.408  -5.995  0.00  0.00     0.018 C 
ENDBRANCH   1   8
TORSDOF 1
ENDMDL
