MODEL 1
REMARK minimizedAffinity 3.89986277
REMARK minimizedRMSD -1
REMARK  1 active torsions:
REMARK  status: ('A' for Active; 'I' for Inactive)
REMARK    1  A    between atoms: C1_2  and  C2_3 
ROOT
ATOM      1  C2  UNL d   1       2.488   4.607  -1.153  0.00  0.00    -0.081 A 
ATOM      2  C3  UNL d   1       3.766   4.667  -0.583  0.00  0.00     0.006 A 
ATOM      3  C4  UNL d   1       4.904   4.494  -1.374  0.00  0.00     0.002 A 
ATOM      4  C5  UNL d   1       4.784   4.266  -2.749  0.00  0.00    -0.080 A 
ATOM      5  C6  UNL d   1       5.998   4.108  -3.616  0.00  0.00     0.076 C 
ATOM      6  C7  UNL d   1       3.507   4.188  -3.316  0.00  0.00     0.002 A 
ATOM      7  C8  UNL d   1       2.369   4.361  -2.525  0.00  0.00     0.006 A 
ENDROOT
BRANCH   1   8
ATOM      8  C1  UNL d   1       1.262   4.858  -0.314  0.00  0.00     0.054 C 
ATOM      9  C   UNL d   1       1.526   4.561   1.155  0.00  0.00     0.018 C 
ENDBRANCH   1   8
TORSDOF 1
ENDMDL
