MODEL 1
REMARK minimizedAffinity -3.49859643
REMARK minimizedRMSD -1
REMARK  1 active torsions:
REMARK  status: ('A' for Active; 'I' for Inactive)
REMARK    1  A    between atoms: C1_2  and  C2_3 
ROOT
ATOM      1  C2  UNL d   1       4.796   4.864  -3.246  0.00  0.00    -0.081 A 
ATOM      2  C3  UNL d   1       3.668   4.540  -4.010  0.00  0.00     0.006 A 
ATOM      3  C4  UNL d   1       3.705   3.474  -4.911  0.00  0.00     0.002 A 
ATOM      4  C5  UNL d   1       4.867   2.709  -5.058  0.00  0.00    -0.080 A 
ATOM      5  C6  UNL d   1       4.911   1.542  -6.000  0.00  0.00     0.076 C 
ATOM      6  C7  UNL d   1       6.000   3.043  -4.308  0.00  0.00     0.002 A 
ATOM      7  C8  UNL d   1       5.963   4.109  -3.407  0.00  0.00     0.006 A 
ENDROOT
BRANCH   1   8
ATOM      8  C1  UNL d   1       4.739   5.973  -2.227  0.00  0.00     0.054 C 
ATOM      9  C   UNL d   1       5.987   5.989  -1.356  0.00  0.00     0.018 C 
ENDBRANCH   1   8
TORSDOF 1
ENDMDL
