MODEL 1
REMARK minimizedAffinity -4.22395515
REMARK minimizedRMSD -1
REMARK  1 active torsions:
REMARK  status: ('A' for Active; 'I' for Inactive)
REMARK    1  A    between atoms: C1_2  and  C2_3 
ROOT
ATOM      1  C2  UNL d   1       4.192   3.274  -4.997  0.00  0.00    -0.081 A 
ATOM      2  C3  UNL d   1       5.530   3.233  -4.586  0.00  0.00     0.006 A 
ATOM      3  C4  UNL d   1       6.000   4.122  -3.616  0.00  0.00     0.002 A 
ATOM      4  C5  UNL d   1       5.139   5.060  -3.036  0.00  0.00    -0.080 A 
ATOM      5  C6  UNL d   1       5.624   6.000  -1.972  0.00  0.00     0.076 C 
ATOM      6  C7  UNL d   1       3.807   5.112  -3.459  0.00  0.00     0.002 A 
ATOM      7  C8  UNL d   1       3.336   4.224  -4.429  0.00  0.00     0.006 A 
ENDROOT
BRANCH   1   8
ATOM      8  C1  UNL d   1       3.666   2.274  -5.995  0.00  0.00     0.054 C 
ATOM      9  C   UNL d   1       4.085   0.857  -5.632  0.00  0.00     0.018 C 
ENDBRANCH   1   8
TORSDOF 1
ENDMDL
