MODEL 1
REMARK minimizedAffinity 2.17528248
REMARK minimizedRMSD -1
REMARK  1 active torsions:
REMARK  status: ('A' for Active; 'I' for Inactive)
REMARK    1  A    between atoms: C1_2  and  C2_3 
ROOT
ATOM      1  C2  UNL d   1       5.103   5.299  -2.186  0.00  0.00    -0.081 A 
ATOM      2  C3  UNL d   1       4.218   5.662  -3.208  0.00  0.00     0.006 A 
ATOM      3  C4  UNL d   1       4.217   4.971  -4.422  0.00  0.00     0.002 A 
ATOM      4  C5  UNL d   1       5.095   3.902  -4.632  0.00  0.00    -0.080 A 
ATOM      5  C6  UNL d   1       5.083   3.133  -5.919  0.00  0.00     0.076 C 
ATOM      6  C7  UNL d   1       5.991   3.551  -3.617  0.00  0.00     0.002 A 
ATOM      7  C8  UNL d   1       5.993   4.241  -2.403  0.00  0.00     0.006 A 
ENDROOT
BRANCH   1   8
ATOM      8  C1  UNL d   1       5.062   5.999  -0.852  0.00  0.00     0.054 C 
ATOM      9  C   UNL d   1       3.691   5.875  -0.203  0.00  0.00     0.018 C 
ENDBRANCH   1   8
TORSDOF 1
ENDMDL
