MODEL 1
REMARK minimizedAffinity -2.25288057
REMARK minimizedRMSD -1
REMARK  1 active torsions:
REMARK  status: ('A' for Active; 'I' for Inactive)
REMARK    1  A    between atoms: C1_2  and  C2_3 
ROOT
ATOM      1  C2  UNL d   1       5.193   3.309  -4.848  0.00  0.00    -0.081 A 
ATOM      2  C3  UNL d   1       3.846   3.687  -4.915  0.00  0.00     0.006 A 
ATOM      3  C4  UNL d   1       3.304   4.548  -3.957  0.00  0.00     0.002 A 
ATOM      4  C5  UNL d   1       4.100   5.051  -2.923  0.00  0.00    -0.080 A 
ATOM      5  C6  UNL d   1       3.538   6.000  -1.906  0.00  0.00     0.076 C 
ATOM      6  C7  UNL d   1       5.441   4.660  -2.846  0.00  0.00     0.002 A 
ATOM      7  C8  UNL d   1       5.984   3.799  -3.802  0.00  0.00     0.006 A 
ENDROOT
BRANCH   1   8
ATOM      8  C1  UNL d   1       5.797   2.433  -5.915  0.00  0.00     0.054 C 
ATOM      9  C   UNL d   1       5.920   0.991  -5.443  0.00  0.00     0.018 C 
ENDBRANCH   1   8
TORSDOF 1
ENDMDL
