MODEL 1
REMARK minimizedAffinity 6.91664028
REMARK minimizedRMSD -1
REMARK  1 active torsions:
REMARK  status: ('A' for Active; 'I' for Inactive)
REMARK    1  A    between atoms: C1_2  and  C2_3 
ROOT
ATOM      1  C2  UNL d   1       5.065   4.951  -3.897  0.00  0.00    -0.081 A 
ATOM      2  C3  UNL d   1       5.526   5.080  -2.581  0.00  0.00     0.006 A 
ATOM      3  C4  UNL d   1       4.676   4.819  -1.504  0.00  0.00     0.002 A 
ATOM      4  C5  UNL d   1       3.354   4.417  -1.724  0.00  0.00    -0.080 A 
ATOM      5  C6  UNL d   1       2.440   4.105  -0.577  0.00  0.00     0.076 C 
ATOM      6  C7  UNL d   1       2.888   4.305  -3.039  0.00  0.00     0.002 A 
ATOM      7  C8  UNL d   1       3.737   4.567  -4.116  0.00  0.00     0.006 A 
ENDROOT
BRANCH   1   8
ATOM      8  C1  UNL d   1       5.998   5.169  -5.061  0.00  0.00     0.054 C 
ATOM      9  C   UNL d   1       6.000   3.971  -6.000  0.00  0.00     0.018 C 
ENDBRANCH   1   8
TORSDOF 1
ENDMDL
