MODEL 1
REMARK minimizedAffinity -2.45565653
REMARK minimizedRMSD -1
REMARK  1 active torsions:
REMARK  status: ('A' for Active; 'I' for Inactive)
REMARK    1  A    between atoms: C1_2  and  C2_3 
ROOT
ATOM      1  C2  UNL d   1       4.788   3.205  -4.798  0.00  0.00    -0.081 A 
ATOM      2  C3  UNL d   1       3.592   3.757  -4.324  0.00  0.00     0.006 A 
ATOM      3  C4  UNL d   1       3.601   4.653  -3.252  0.00  0.00     0.002 A 
ATOM      4  C5  UNL d   1       4.806   5.016  -2.641  0.00  0.00    -0.080 A 
ATOM      5  C6  UNL d   1       4.834   6.000  -1.509  0.00  0.00     0.076 C 
ATOM      6  C7  UNL d   1       6.000   4.451  -3.104  0.00  0.00     0.002 A 
ATOM      7  C8  UNL d   1       5.991   3.555  -4.175  0.00  0.00     0.006 A 
ENDROOT
BRANCH   1   8
ATOM      8  C1  UNL d   1       4.787   2.289  -5.995  0.00  0.00     0.054 C 
ATOM      9  C   UNL d   1       5.741   1.119  -5.798  0.00  0.00     0.018 C 
ENDBRANCH   1   8
TORSDOF 1
ENDMDL
