MODEL 1
REMARK minimizedAffinity 10.8995943
REMARK minimizedRMSD -1
REMARK  0 active torsions:
REMARK  status: ('A' for Active; 'I' for Inactive)
ROOT
ATOM      1  C   UNL d   1       0.447   3.160   3.892  0.00  0.00    -0.002 A 
ATOM      2  C1  UNL d   1       1.407   2.904   2.923  0.00  0.00     0.010 A 
ATOM      3  C2  UNL d   1       1.031   2.589   1.616  0.00  0.00     0.041 A 
ATOM      4  C3  UNL d   1      -0.340   2.538   1.295  0.00  0.00    -0.075 A 
ATOM      5  S   UNL d   1      -1.035   2.175  -0.240  0.00  0.00     0.015 SA
ATOM      6  C4  UNL d   1      -2.623   2.352   0.353  0.00  0.00     0.022 A 
ATOM      7  C5  UNL d   1      -2.641   2.680   1.688  0.00  0.00     0.026 A 
ATOM      8  C6  UNL d   1      -1.325   2.793   2.253  0.00  0.00    -0.082 A 
ATOM      9  C7  UNL d   1      -0.912   3.108   3.570  0.00  0.00     0.045 A 
ENDROOT
TORSDOF 0
ENDMDL
