MODEL 1
REMARK minimizedAffinity 1.68154824
REMARK minimizedRMSD -1
REMARK  0 active torsions:
REMARK  status: ('A' for Active; 'I' for Inactive)
ROOT
ATOM      1  C   UNL d   1       2.441   3.408   2.421  0.00  0.00    -0.002 A 
ATOM      2  C1  UNL d   1       3.077   2.264   1.960  0.00  0.00     0.010 A 
ATOM      3  C2  UNL d   1       2.363   1.287   1.264  0.00  0.00     0.041 A 
ATOM      4  C3  UNL d   1       0.987   1.481   1.035  0.00  0.00    -0.075 A 
ATOM      5  S   UNL d   1      -0.089   0.420   0.205  0.00  0.00     0.015 SA
ATOM      6  C4  UNL d   1      -1.418   1.461   0.442  0.00  0.00     0.022 A 
ATOM      7  C5  UNL d   1      -1.067   2.595   1.136  0.00  0.00     0.026 A 
ATOM      8  C6  UNL d   1       0.325   2.626   1.489  0.00  0.00    -0.082 A 
ATOM      9  C7  UNL d   1       1.076   3.598   2.192  0.00  0.00     0.045 A 
ENDROOT
TORSDOF 0
ENDMDL
