MODEL 1
REMARK minimizedAffinity -1.30623972
REMARK minimizedRMSD -1
REMARK  0 active torsions:
REMARK  status: ('A' for Active; 'I' for Inactive)
ROOT
ATOM      1  C   UNL d   1       2.556   1.824   1.426  0.00  0.00    -0.002 A 
ATOM      2  C1  UNL d   1       2.613   2.487   2.644  0.00  0.00     0.010 A 
ATOM      3  C2  UNL d   1       1.448   2.962   3.249  0.00  0.00     0.041 A 
ATOM      4  C3  UNL d   1       0.212   2.757   2.605  0.00  0.00    -0.075 A 
ATOM      5  S   UNL d   1      -1.344   3.251   3.159  0.00  0.00     0.015 SA
ATOM      6  C4  UNL d   1      -2.121   2.593   1.793  0.00  0.00     0.022 A 
ATOM      7  C5  UNL d   1      -1.231   2.008   0.924  0.00  0.00     0.026 A 
ATOM      8  C6  UNL d   1       0.129   2.092   1.378  0.00  0.00    -0.082 A 
ATOM      9  C7  UNL d   1       1.328   1.623   0.789  0.00  0.00     0.045 A 
ENDROOT
TORSDOF 0
ENDMDL
