MODEL 1
REMARK minimizedAffinity 10.8516121
REMARK minimizedRMSD -1
REMARK  0 active torsions:
REMARK  status: ('A' for Active; 'I' for Inactive)
ROOT
ATOM      1  C   UNL d   1      -2.211   2.627   1.879  0.00  0.00    -0.002 A 
ATOM      2  C1  UNL d   1      -2.964   1.468   1.752  0.00  0.00     0.010 A 
ATOM      3  C2  UNL d   1      -2.415   0.325   1.168  0.00  0.00     0.041 A 
ATOM      4  C3  UNL d   1      -1.083   0.366   0.711  0.00  0.00    -0.075 A 
ATOM      5  S   UNL d   1      -0.202  -0.914  -0.037  0.00  0.00     0.015 SA
ATOM      6  C4  UNL d   1       1.196   0.047  -0.205  0.00  0.00     0.022 A 
ATOM      7  C5  UNL d   1       1.012   1.316   0.292  0.00  0.00     0.026 A 
ATOM      8  C6  UNL d   1      -0.305   1.520   0.828  0.00  0.00    -0.082 A 
ATOM      9  C7  UNL d   1      -0.890   2.663   1.424  0.00  0.00     0.045 A 
ENDROOT
TORSDOF 0
ENDMDL
