MODEL 1
REMARK minimizedAffinity 4.73656893
REMARK minimizedRMSD -1
REMARK  0 active torsions:
REMARK  status: ('A' for Active; 'I' for Inactive)
ROOT
ATOM      1  C   UNL d   1      -0.797   1.714   0.453  0.00  0.00    -0.002 A 
ATOM      2  C1  UNL d   1       0.015   0.683   0.003  0.00  0.00     0.010 A 
ATOM      3  C2  UNL d   1       1.377   0.666   0.310  0.00  0.00     0.041 A 
ATOM      4  C3  UNL d   1       1.914   1.712   1.086  0.00  0.00    -0.075 A 
ATOM      5  S   UNL d   1       3.553   1.899   1.585  0.00  0.00     0.015 SA
ATOM      6  C4  UNL d   1       3.214   3.352   2.409  0.00  0.00     0.022 A 
ATOM      7  C5  UNL d   1       1.888   3.701   2.315  0.00  0.00     0.026 A 
ATOM      8  C6  UNL d   1       1.116   2.761   1.551  0.00  0.00    -0.082 A 
ATOM      9  C7  UNL d   1      -0.261   2.750   1.223  0.00  0.00     0.045 A 
ENDROOT
TORSDOF 0
ENDMDL
