MODEL 1
REMARK minimizedAffinity 8.63271618
REMARK minimizedRMSD -1
REMARK  0 active torsions:
REMARK  status: ('A' for Active; 'I' for Inactive)
ROOT
ATOM      1  C   UNL d   1      -1.942   2.528   1.275  0.00  0.00    -0.002 A 
ATOM      2  C1  UNL d   1      -2.014   1.530   0.313  0.00  0.00     0.010 A 
ATOM      3  C2  UNL d   1      -0.855   0.907  -0.153  0.00  0.00     0.041 A 
ATOM      4  C3  UNL d   1       0.391   1.306   0.371  0.00  0.00    -0.075 A 
ATOM      5  S   UNL d   1       1.943   0.683  -0.049  0.00  0.00     0.015 SA
ATOM      6  C4  UNL d   1       2.738   1.726   1.040  0.00  0.00     0.022 A 
ATOM      7  C5  UNL d   1       1.856   2.537   1.715  0.00  0.00     0.026 A 
ATOM      8  C6  UNL d   1       0.489   2.308   1.341  0.00  0.00    -0.082 A 
ATOM      9  C7  UNL d   1      -0.705   2.921   1.792  0.00  0.00     0.045 A 
ENDROOT
TORSDOF 0
ENDMDL
