MODEL 1
REMARK minimizedAffinity 6.68056202
REMARK minimizedRMSD -1
REMARK  0 active torsions:
REMARK  status: ('A' for Active; 'I' for Inactive)
ROOT
ATOM      1  C   UNL d   1       1.525   2.240   1.884  0.00  0.00    -0.002 A 
ATOM      2  C1  UNL d   1       2.138   1.418   0.948  0.00  0.00     0.010 A 
ATOM      3  C2  UNL d   1       3.522   1.451   0.772  0.00  0.00     0.041 A 
ATOM      4  C3  UNL d   1       4.289   2.330   1.562  0.00  0.00    -0.075 A 
ATOM      5  S   UNL d   1       6.000   2.541   1.521  0.00  0.00     0.015 SA
ATOM      6  C4  UNL d   1       5.958   3.725   2.746  0.00  0.00     0.022 A 
ATOM      7  C5  UNL d   1       4.678   3.967   3.186  0.00  0.00     0.026 A 
ATOM      8  C6  UNL d   1       3.695   3.167   2.512  0.00  0.00    -0.082 A 
ATOM      9  C7  UNL d   1       2.289   3.111   2.665  0.00  0.00     0.045 A 
ENDROOT
TORSDOF 0
ENDMDL
