MODEL 1
REMARK minimizedAffinity 12.2811079
REMARK minimizedRMSD -1
REMARK  0 active torsions:
REMARK  status: ('A' for Active; 'I' for Inactive)
ROOT
ATOM      1  C   UNL d   1      -2.184  -0.605   0.248  0.00  0.00    -0.002 A 
ATOM      2  C1  UNL d   1      -0.810  -0.726   0.094  0.00  0.00     0.010 A 
ATOM      3  C2  UNL d   1       0.042   0.311   0.479  0.00  0.00     0.041 A 
ATOM      4  C3  UNL d   1      -0.515   1.482   1.028  0.00  0.00    -0.075 A 
ATOM      5  S   UNL d   1       0.334   2.881   1.571  0.00  0.00     0.015 SA
ATOM      6  C4  UNL d   1      -1.107   3.673   2.021  0.00  0.00     0.022 A 
ATOM      7  C5  UNL d   1      -2.218   2.903   1.770  0.00  0.00     0.026 A 
ATOM      8  C6  UNL d   1      -1.895   1.628   1.194  0.00  0.00    -0.082 A 
ATOM      9  C7  UNL d   1      -2.733   0.559   0.793  0.00  0.00     0.045 A 
ENDROOT
TORSDOF 0
ENDMDL
