MODEL 1
REMARK minimizedAffinity 9.1816988
REMARK minimizedRMSD -1
REMARK  0 active torsions:
REMARK  status: ('A' for Active; 'I' for Inactive)
ROOT
ATOM      1  C   UNL d   1      -4.242  -5.999  -0.501  0.00  0.00    -0.002 A 
ATOM      2  C1  UNL d   1      -4.408  -5.018   0.467  0.00  0.00     0.010 A 
ATOM      3  C2  UNL d   1      -3.645  -3.850   0.433  0.00  0.00     0.041 A 
ATOM      4  C3  UNL d   1      -2.703  -3.681  -0.601  0.00  0.00    -0.075 A 
ATOM      5  S   UNL d   1      -1.657  -2.332  -0.845  0.00  0.00     0.015 SA
ATOM      6  C4  UNL d   1      -0.965  -3.026  -2.240  0.00  0.00     0.022 A 
ATOM      7  C5  UNL d   1      -1.507  -4.256  -2.527  0.00  0.00     0.026 A 
ATOM      8  C6  UNL d   1      -2.518  -4.654  -1.588  0.00  0.00    -0.082 A 
ATOM      9  C7  UNL d   1      -3.306  -5.828  -1.525  0.00  0.00     0.045 A 
ENDROOT
TORSDOF 0
ENDMDL
