MODEL 1
REMARK minimizedAffinity 6.99665642
REMARK minimizedRMSD -1
REMARK  0 active torsions:
REMARK  status: ('A' for Active; 'I' for Inactive)
ROOT
ATOM      1  C   UNL d   1       2.741   0.517  -1.733  0.00  0.00    -0.002 A 
ATOM      2  C1  UNL d   1       2.979  -0.275  -0.619  0.00  0.00     0.010 A 
ATOM      3  C2  UNL d   1       1.977  -0.485   0.331  0.00  0.00     0.041 A 
ATOM      4  C3  UNL d   1       0.719   0.118   0.138  0.00  0.00    -0.075 A 
ATOM      5  S   UNL d   1      -0.659   0.001   1.168  0.00  0.00     0.015 SA
ATOM      6  C4  UNL d   1      -1.596   0.998   0.153  0.00  0.00     0.022 A 
ATOM      7  C5  UNL d   1      -0.891   1.419  -0.950  0.00  0.00     0.026 A 
ATOM      8  C6  UNL d   1       0.454   0.919  -0.976  0.00  0.00    -0.082 A 
ATOM      9  C7  UNL d   1       1.491   1.114  -1.921  0.00  0.00     0.045 A 
ENDROOT
TORSDOF 0
ENDMDL
