MODEL 1
REMARK minimizedAffinity 5.13623953
REMARK minimizedRMSD -1
REMARK  0 active torsions:
REMARK  status: ('A' for Active; 'I' for Inactive)
ROOT
ATOM      1  C   UNL d   1      -2.230   1.837   1.574  0.00  0.00    -0.002 A 
ATOM      2  C1  UNL d   1      -2.184   0.618   0.912  0.00  0.00     0.010 A 
ATOM      3  C2  UNL d   1      -0.959   0.042   0.569  0.00  0.00     0.041 A 
ATOM      4  C3  UNL d   1       0.230   0.718   0.906  0.00  0.00    -0.075 A 
ATOM      5  S   UNL d   1       1.845   0.203   0.587  0.00  0.00     0.015 SA
ATOM      6  C4  UNL d   1       2.511   1.589   1.323  0.00  0.00     0.022 A 
ATOM      7  C5  UNL d   1       1.540   2.434   1.805  0.00  0.00     0.026 A 
ATOM      8  C6  UNL d   1       0.209   1.946   1.573  0.00  0.00    -0.082 A 
ATOM      9  C7  UNL d   1      -1.048   2.504   1.907  0.00  0.00     0.045 A 
ENDROOT
TORSDOF 0
ENDMDL
