MODEL 1
REMARK minimizedAffinity 16.3055325
REMARK minimizedRMSD -1
REMARK  0 active torsions:
REMARK  status: ('A' for Active; 'I' for Inactive)
ROOT
ATOM      1  C   UNL d   1       2.738   0.747  -2.843  0.00  0.00    -0.002 A 
ATOM      2  C1  UNL d   1       2.507  -0.620  -2.787  0.00  0.00     0.010 A 
ATOM      3  C2  UNL d   1       2.025  -1.212  -1.618  0.00  0.00     0.041 A 
ATOM      4  C3  UNL d   1       1.775  -0.399  -0.495  0.00  0.00    -0.075 A 
ATOM      5  S   UNL d   1       1.182  -0.904   1.043  0.00  0.00     0.015 SA
ATOM      6  C4  UNL d   1       1.221   0.684   1.663  0.00  0.00     0.022 A 
ATOM      7  C5  UNL d   1       1.672   1.589   0.732  0.00  0.00     0.026 A 
ATOM      8  C6  UNL d   1       1.999   0.981  -0.527  0.00  0.00    -0.082 A 
ATOM      9  C7  UNL d   1       2.488   1.551  -1.727  0.00  0.00     0.045 A 
ENDROOT
TORSDOF 0
ENDMDL
