MODEL 1
REMARK minimizedAffinity -3.89906907
REMARK minimizedRMSD -1
REMARK  0 active torsions:
REMARK  status: ('A' for Active; 'I' for Inactive)
ROOT
ATOM      1  C   UNL d   1      -2.923   1.146   2.821  0.00  0.00     0.172 C 
ATOM      2  N   UNL d   1      -1.715   1.006   2.041  0.00  0.00    -0.070 N 
ATOM      3  C1  UNL d   1      -1.424  -0.036   1.202  0.00  0.00    -0.004 A 
ATOM      4  C2  UNL d   1      -0.185   0.202   0.648  0.00  0.00    -0.047 A 
ATOM      5  C3  UNL d   1       0.285   1.430   1.172  0.00  0.00    -0.047 A 
ATOM      6  C4  UNL d   1      -0.683   1.906   2.032  0.00  0.00    -0.004 A 
ENDROOT
TORSDOF 0
ENDMDL
