MODEL 1
REMARK minimizedAffinity -3.78948188
REMARK minimizedRMSD -1
REMARK  0 active torsions:
REMARK  status: ('A' for Active; 'I' for Inactive)
ROOT
ATOM      1  C   UNL d   1       0.232   1.465   1.079  0.00  0.00     0.172 C 
ATOM      2  N   UNL d   1      -1.002   1.391   1.826  0.00  0.00    -0.070 N 
ATOM      3  C1  UNL d   1      -1.767   0.269   1.995  0.00  0.00    -0.004 A 
ATOM      4  C2  UNL d   1      -2.856   0.613   2.766  0.00  0.00    -0.047 A 
ATOM      5  C3  UNL d   1      -2.742   1.990   3.071  0.00  0.00    -0.047 A 
ATOM      6  C4  UNL d   1      -1.584   2.447   2.476  0.00  0.00    -0.004 A 
ENDROOT
TORSDOF 0
ENDMDL
