MODEL 1
REMARK minimizedAffinity -0.0420035347
REMARK minimizedRMSD -1
REMARK  0 active torsions:
REMARK  status: ('A' for Active; 'I' for Inactive)
ROOT
ATOM      1  C   UNL d   1       0.633   1.448   1.181  0.00  0.00     0.172 C 
ATOM      2  N   UNL d   1      -0.737   1.336   1.624  0.00  0.00    -0.070 N 
ATOM      3  C1  UNL d   1      -1.383   0.168   1.933  0.00  0.00    -0.004 A 
ATOM      4  C2  UNL d   1      -2.669   0.485   2.312  0.00  0.00    -0.047 A 
ATOM      5  C3  UNL d   1      -2.802   1.892   2.226  0.00  0.00    -0.047 A 
ATOM      6  C4  UNL d   1      -1.591   2.393   1.798  0.00  0.00    -0.004 A 
ENDROOT
TORSDOF 0
ENDMDL
