MODEL 1
REMARK minimizedAffinity -0.478877217
REMARK minimizedRMSD -1
REMARK  0 active torsions:
REMARK  status: ('A' for Active; 'I' for Inactive)
ROOT
ATOM      1  C   UNL d   1      -3.640   1.777   3.548  0.00  0.00     0.172 C 
ATOM      2  N   UNL d   1      -2.488   1.675   2.683  0.00  0.00    -0.070 N 
ATOM      3  C1  UNL d   1      -2.084   0.546   2.022  0.00  0.00    -0.004 A 
ATOM      4  C2  UNL d   1      -0.949   0.860   1.306  0.00  0.00    -0.047 A 
ATOM      5  C3  UNL d   1      -0.661   2.225   1.546  0.00  0.00    -0.047 A 
ATOM      6  C4  UNL d   1      -1.629   2.705   2.402  0.00  0.00    -0.004 A 
ENDROOT
TORSDOF 0
ENDMDL
