MODEL 1
REMARK minimizedAffinity -2.74291515
REMARK minimizedRMSD -1
REMARK  0 active torsions:
REMARK  status: ('A' for Active; 'I' for Inactive)
ROOT
ATOM      1  C   UNL d   1      -2.860   1.066   3.023  0.00  0.00     0.172 C 
ATOM      2  N   UNL d   1      -1.600   1.141   2.320  0.00  0.00    -0.070 N 
ATOM      3  C1  UNL d   1      -0.708   0.114   2.170  0.00  0.00    -0.004 A 
ATOM      4  C2  UNL d   1       0.362   0.587   1.441  0.00  0.00    -0.047 A 
ATOM      5  C3  UNL d   1       0.103   1.947   1.144  0.00  0.00    -0.047 A 
ATOM      6  C4  UNL d   1      -1.118   2.263   1.700  0.00  0.00    -0.004 A 
ENDROOT
TORSDOF 0
ENDMDL
