MODEL 1
REMARK minimizedAffinity -3.01842237
REMARK minimizedRMSD -1
REMARK  0 active torsions:
REMARK  status: ('A' for Active; 'I' for Inactive)
ROOT
ATOM      1  C   UNL d   1      -2.535   2.055   3.070  0.00  0.00     0.172 C 
ATOM      2  N   UNL d   1      -1.608   1.249   2.311  0.00  0.00    -0.070 N 
ATOM      3  C1  UNL d   1      -1.657  -0.113   2.181  0.00  0.00    -0.004 A 
ATOM      4  C2  UNL d   1      -0.603  -0.498   1.380  0.00  0.00    -0.047 A 
ATOM      5  C3  UNL d   1       0.104   0.673   1.018  0.00  0.00    -0.047 A 
ATOM      6  C4  UNL d   1      -0.540   1.740   1.608  0.00  0.00    -0.004 A 
ENDROOT
TORSDOF 0
ENDMDL
