MODEL 1
REMARK minimizedAffinity -2.15323257
REMARK minimizedRMSD -1
REMARK  0 active torsions:
REMARK  status: ('A' for Active; 'I' for Inactive)
ROOT
ATOM      1  C   UNL d   1      -1.783  -1.114   1.743  0.00  0.00     0.172 C 
ATOM      2  N   UNL d   1      -0.998   0.090   1.608  0.00  0.00    -0.070 N 
ATOM      3  C1  UNL d   1       0.292   0.155   1.151  0.00  0.00    -0.004 A 
ATOM      4  C2  UNL d   1       0.681   1.477   1.172  0.00  0.00    -0.047 A 
ATOM      5  C3  UNL d   1      -0.412   2.232   1.660  0.00  0.00    -0.047 A 
ATOM      6  C4  UNL d   1      -1.438   1.349   1.921  0.00  0.00    -0.004 A 
ENDROOT
TORSDOF 0
ENDMDL
