MODEL 1
REMARK minimizedAffinity -2.986691
REMARK minimizedRMSD -1
REMARK  0 active torsions:
REMARK  status: ('A' for Active; 'I' for Inactive)
ROOT
ATOM      1  C   UNL d   1      -3.032   1.047   2.515  0.00  0.00     0.172 C 
ATOM      2  N   UNL d   1      -1.686   1.134   1.998  0.00  0.00    -0.070 N 
ATOM      3  C1  UNL d   1      -0.808   2.160   2.227  0.00  0.00    -0.004 A 
ATOM      4  C2  UNL d   1       0.364   1.868   1.563  0.00  0.00    -0.047 A 
ATOM      5  C3  UNL d   1       0.183   0.625   0.912  0.00  0.00    -0.047 A 
ATOM      6  C4  UNL d   1      -1.094   0.193   1.199  0.00  0.00    -0.004 A 
ENDROOT
TORSDOF 0
ENDMDL
