MODEL 1
REMARK minimizedAffinity -0.97936362
REMARK minimizedRMSD -1
REMARK  0 active torsions:
REMARK  status: ('A' for Active; 'I' for Inactive)
ROOT
ATOM      1  C   UNL d   1      -3.760   2.309   3.635  0.00  0.00     0.172 C 
ATOM      2  N   UNL d   1      -2.686   1.717   2.871  0.00  0.00    -0.070 N 
ATOM      3  C1  UNL d   1      -1.606   2.387   2.361  0.00  0.00    -0.004 A 
ATOM      4  C2  UNL d   1      -0.815   1.471   1.701  0.00  0.00    -0.047 A 
ATOM      5  C3  UNL d   1      -1.442   0.208   1.818  0.00  0.00    -0.047 A 
ATOM      6  C4  UNL d   1      -2.598   0.389   2.547  0.00  0.00    -0.004 A 
ENDROOT
TORSDOF 0
ENDMDL
