MODEL 1
REMARK minimizedAffinity -3.89483595
REMARK minimizedRMSD -1
REMARK  0 active torsions:
REMARK  status: ('A' for Active; 'I' for Inactive)
ROOT
ATOM      1  C   UNL d   1      -2.363   2.321   2.869  0.00  0.00     0.172 C 
ATOM      2  N   UNL d   1      -1.366   1.762   1.986  0.00  0.00    -0.070 N 
ATOM      3  C1  UNL d   1      -1.241   0.438   1.659  0.00  0.00    -0.004 A 
ATOM      4  C2  UNL d   1      -0.174   0.316   0.796  0.00  0.00    -0.047 A 
ATOM      5  C3  UNL d   1       0.361   1.611   0.597  0.00  0.00    -0.047 A 
ATOM      6  C4  UNL d   1      -0.396   2.487   1.346  0.00  0.00    -0.004 A 
ENDROOT
TORSDOF 0
ENDMDL
