MODEL 1
REMARK minimizedAffinity -2.12171435
REMARK minimizedRMSD -1
REMARK  0 active torsions:
REMARK  status: ('A' for Active; 'I' for Inactive)
ROOT
ATOM      1  C   UNL d   1      -2.340   2.076   2.887  0.00  0.00     0.172 C 
ATOM      2  N   UNL d   1      -1.220   1.546   2.146  0.00  0.00    -0.070 N 
ATOM      3  C1  UNL d   1      -1.053   0.239   1.776  0.00  0.00    -0.004 A 
ATOM      4  C2  UNL d   1       0.137   0.143   1.088  0.00  0.00    -0.047 A 
ATOM      5  C3  UNL d   1       0.705   1.438   1.042  0.00  0.00    -0.047 A 
ATOM      6  C4  UNL d   1      -0.155   2.288   1.705  0.00  0.00    -0.004 A 
ENDROOT
TORSDOF 0
ENDMDL
