MODEL 1
REMARK minimizedAffinity -2.50403261
REMARK minimizedRMSD -1
REMARK  0 active torsions:
REMARK  status: ('A' for Active; 'I' for Inactive)
ROOT
ATOM      1  C   UNL d   1      -2.169   2.237   2.789  0.00  0.00     0.172 C 
ATOM      2  N   UNL d   1      -1.271   1.498   1.933  0.00  0.00    -0.070 N 
ATOM      3  C1  UNL d   1      -0.290   2.040   1.147  0.00  0.00    -0.004 A 
ATOM      4  C2  UNL d   1       0.342   1.008   0.488  0.00  0.00    -0.047 A 
ATOM      5  C3  UNL d   1      -0.281  -0.197   0.892  0.00  0.00    -0.047 A 
ATOM      6  C4  UNL d   1      -1.276   0.136   1.787  0.00  0.00    -0.004 A 
ENDROOT
TORSDOF 0
ENDMDL
