MODEL 1
REMARK minimizedAffinity 1.29791105
REMARK minimizedRMSD -1
REMARK  0 active torsions:
REMARK  status: ('A' for Active; 'I' for Inactive)
ROOT
ATOM      1  C   UNL d   1       0.673   2.257   0.296  0.00  0.00     0.172 C 
ATOM      2  N   UNL d   1      -0.450   2.284   1.204  0.00  0.00    -0.070 N 
ATOM      3  C1  UNL d   1      -1.207   3.385   1.505  0.00  0.00    -0.004 A 
ATOM      4  C2  UNL d   1      -2.175   2.997   2.406  0.00  0.00    -0.047 A 
ATOM      5  C3  UNL d   1      -1.993   1.616   2.655  0.00  0.00    -0.047 A 
ATOM      6  C4  UNL d   1      -0.918   1.200   1.898  0.00  0.00    -0.004 A 
ENDROOT
TORSDOF 0
ENDMDL
