MODEL 1
REMARK minimizedAffinity -2.51246238
REMARK minimizedRMSD -1
REMARK  0 active torsions:
REMARK  status: ('A' for Active; 'I' for Inactive)
ROOT
ATOM      1  C   UNL d   1      -1.142   2.054   3.210  0.00  0.00     0.172 C 
ATOM      2  N   UNL d   1      -0.587   1.186   2.198  0.00  0.00    -0.070 N 
ATOM      3  C1  UNL d   1       0.615   1.362   1.566  0.00  0.00    -0.004 A 
ATOM      4  C2  UNL d   1       0.780   0.324   0.675  0.00  0.00    -0.047 A 
ATOM      5  C3  UNL d   1      -0.363  -0.504   0.774  0.00  0.00    -0.047 A 
ATOM      6  C4  UNL d   1      -1.192   0.052   1.724  0.00  0.00    -0.004 A 
ENDROOT
TORSDOF 0
ENDMDL
