MODEL 1
REMARK minimizedAffinity 0.663668692
REMARK minimizedRMSD -1
REMARK  0 active torsions:
REMARK  status: ('A' for Active; 'I' for Inactive)
ROOT
ATOM      1  C   UNL d   1      -0.109   1.445   1.793  0.00  0.00     0.172 C 
ATOM      2  N   UNL d   1       0.999   0.881   1.058  0.00  0.00    -0.070 N 
ATOM      3  C1  UNL d   1       1.612  -0.313   1.329  0.00  0.00    -0.004 A 
ATOM      4  C2  UNL d   1       2.618  -0.490   0.404  0.00  0.00    -0.047 A 
ATOM      5  C3  UNL d   1       2.610   0.636  -0.452  0.00  0.00    -0.047 A 
ATOM      6  C4  UNL d   1       1.598   1.470  -0.024  0.00  0.00    -0.004 A 
ENDROOT
TORSDOF 0
ENDMDL
