MODEL 1
REMARK minimizedAffinity -0.807907164
REMARK minimizedRMSD -1
REMARK  0 active torsions:
REMARK  status: ('A' for Active; 'I' for Inactive)
ROOT
ATOM      1  C   UNL d   1      -1.340   1.878   2.266  0.00  0.00     0.172 C 
ATOM      2  N   UNL d   1      -0.001   1.558   1.829  0.00  0.00    -0.070 N 
ATOM      3  C1  UNL d   1       0.805   0.591   2.369  0.00  0.00    -0.004 A 
ATOM      4  C2  UNL d   1       1.996   0.598   1.675  0.00  0.00    -0.047 A 
ATOM      5  C3  UNL d   1       1.903   1.605   0.685  0.00  0.00    -0.047 A 
ATOM      6  C4  UNL d   1       0.656   2.183   0.803  0.00  0.00    -0.004 A 
ENDROOT
TORSDOF 0
ENDMDL
