MODEL 1
REMARK minimizedAffinity -2.56853533
REMARK minimizedRMSD -1
REMARK  0 active torsions:
REMARK  status: ('A' for Active; 'I' for Inactive)
ROOT
ATOM      1  C   UNL d   1      -2.851   1.751   3.079  0.00  0.00     0.172 C 
ATOM      2  N   UNL d   1      -1.681   1.484   2.276  0.00  0.00    -0.070 N 
ATOM      3  C1  UNL d   1      -0.761   2.415   1.873  0.00  0.00    -0.004 A 
ATOM      4  C2  UNL d   1       0.198   1.764   1.127  0.00  0.00    -0.047 A 
ATOM      5  C3  UNL d   1      -0.158   0.395   1.080  0.00  0.00    -0.047 A 
ATOM      6  C4  UNL d   1      -1.326   0.250   1.799  0.00  0.00    -0.004 A 
ENDROOT
TORSDOF 0
ENDMDL
