MODEL 1
REMARK minimizedAffinity -2.94249487
REMARK minimizedRMSD -1
REMARK  0 active torsions:
REMARK  status: ('A' for Active; 'I' for Inactive)
ROOT
ATOM      1  C   UNL d   1      -5.999   3.486  -5.914  0.00  0.00     0.172 C 
ATOM      2  N   UNL d   1      -5.509   2.717  -4.795  0.00  0.00    -0.070 N 
ATOM      3  C1  UNL d   1      -4.880   1.503  -4.874  0.00  0.00    -0.004 A 
ATOM      4  C2  UNL d   1      -4.570   1.103  -3.592  0.00  0.00    -0.047 A 
ATOM      5  C3  UNL d   1      -5.030   2.111  -2.711  0.00  0.00    -0.047 A 
ATOM      6  C4  UNL d   1      -5.607   3.098  -3.483  0.00  0.00    -0.004 A 
ENDROOT
TORSDOF 0
ENDMDL
