MODEL 1
REMARK minimizedAffinity 0.730892718
REMARK minimizedRMSD -1
REMARK  0 active torsions:
REMARK  status: ('A' for Active; 'I' for Inactive)
ROOT
ATOM      1  C   UNL d   1      -6.000   2.953  -5.998  0.00  0.00     0.172 C 
ATOM      2  N   UNL d   1      -5.417   2.414  -4.792  0.00  0.00    -0.070 N 
ATOM      3  C1  UNL d   1      -4.549   1.357  -4.729  0.00  0.00    -0.004 A 
ATOM      4  C2  UNL d   1      -4.227   1.155  -3.404  0.00  0.00    -0.047 A 
ATOM      5  C3  UNL d   1      -4.926   2.123  -2.645  0.00  0.00    -0.047 A 
ATOM      6  C4  UNL d   1      -5.655   2.889  -3.530  0.00  0.00    -0.004 A 
ENDROOT
TORSDOF 0
ENDMDL
