MODEL 1
REMARK minimizedAffinity -1.09040046
REMARK minimizedRMSD -1
REMARK  0 active torsions:
REMARK  status: ('A' for Active; 'I' for Inactive)
ROOT
ATOM      1  C   UNL d   1      -3.571   2.975  -3.376  0.00  0.00     0.172 C 
ATOM      2  N   UNL d   1      -4.541   2.906  -4.443  0.00  0.00    -0.070 N 
ATOM      3  C1  UNL d   1      -5.006   1.758  -5.027  0.00  0.00    -0.004 A 
ATOM      4  C2  UNL d   1      -5.916   2.117  -5.998  0.00  0.00    -0.047 A 
ATOM      5  C3  UNL d   1      -6.000   3.530  -5.999  0.00  0.00    -0.047 A 
ATOM      6  C4  UNL d   1      -5.138   3.993  -5.026  0.00  0.00    -0.004 A 
ENDROOT
TORSDOF 0
ENDMDL
