MODEL 1
REMARK minimizedAffinity 1.14530551
REMARK minimizedRMSD -1
REMARK  0 active torsions:
REMARK  status: ('A' for Active; 'I' for Inactive)
ROOT
ATOM      1  C   UNL d   1       0.128   2.030  -0.077  0.00  0.00     0.172 C 
ATOM      2  N   UNL d   1       0.394   3.061   0.898  0.00  0.00    -0.070 N 
ATOM      3  C1  UNL d   1       0.943   4.287   0.634  0.00  0.00    -0.004 A 
ATOM      4  C2  UNL d   1       1.031   4.975   1.824  0.00  0.00    -0.047 A 
ATOM      5  C3  UNL d   1       0.518   4.133   2.840  0.00  0.00    -0.047 A 
ATOM      6  C4  UNL d   1       0.131   2.954   2.238  0.00  0.00    -0.004 A 
ENDROOT
TORSDOF 0
ENDMDL
