MODEL 1
REMARK minimizedAffinity -2.93174434
REMARK minimizedRMSD -1
REMARK  0 active torsions:
REMARK  status: ('A' for Active; 'I' for Inactive)
ROOT
ATOM      1  C   UNL d   1      -5.295   4.140  -5.255  0.00  0.00     0.172 C 
ATOM      2  N   UNL d   1      -5.214   3.498  -3.963  0.00  0.00    -0.070 N 
ATOM      3  C1  UNL d   1      -5.485   4.091  -2.759  0.00  0.00    -0.004 A 
ATOM      4  C2  UNL d   1      -5.292   3.148  -1.772  0.00  0.00    -0.047 A 
ATOM      5  C3  UNL d   1      -4.891   1.948  -2.405  0.00  0.00    -0.047 A 
ATOM      6  C4  UNL d   1      -4.851   2.193  -3.762  0.00  0.00    -0.004 A 
ENDROOT
TORSDOF 0
ENDMDL
