MODEL 1
REMARK minimizedAffinity 0.734110594
REMARK minimizedRMSD -1
REMARK  0 active torsions:
REMARK  status: ('A' for Active; 'I' for Inactive)
ROOT
ATOM      1  C   UNL d   1       0.057   2.401   1.940  0.00  0.00     0.172 C 
ATOM      2  N   UNL d   1       0.102   3.841   1.844  0.00  0.00    -0.070 N 
ATOM      3  C1  UNL d   1      -0.372   4.720   2.781  0.00  0.00    -0.004 A 
ATOM      4  C2  UNL d   1      -0.141   5.997   2.318  0.00  0.00    -0.047 A 
ATOM      5  C3  UNL d   1       0.493   5.882   1.058  0.00  0.00    -0.047 A 
ATOM      6  C4  UNL d   1       0.632   4.537   0.789  0.00  0.00    -0.004 A 
ENDROOT
TORSDOF 0
ENDMDL
