MODEL 1
REMARK minimizedAffinity -2.53064299
REMARK minimizedRMSD -1
REMARK  0 active torsions:
REMARK  status: ('A' for Active; 'I' for Inactive)
ROOT
ATOM      1  C   UNL d   1      -3.970   1.940  -2.899  0.00  0.00     0.172 C 
ATOM      2  N   UNL d   1      -4.746   1.956  -4.117  0.00  0.00    -0.070 N 
ATOM      3  C1  UNL d   1      -5.180   3.077  -4.772  0.00  0.00    -0.004 A 
ATOM      4  C2  UNL d   1      -5.884   2.669  -5.885  0.00  0.00    -0.047 A 
ATOM      5  C3  UNL d   1      -5.873   1.254  -5.898  0.00  0.00    -0.047 A 
ATOM      6  C4  UNL d   1      -5.162   0.839  -4.792  0.00  0.00    -0.004 A 
ENDROOT
TORSDOF 0
ENDMDL
