MODEL 1
REMARK minimizedAffinity -1.64797866
REMARK minimizedRMSD -1
REMARK  0 active torsions:
REMARK  status: ('A' for Active; 'I' for Inactive)
ROOT
ATOM      1  C   UNL d   1       0.379   2.040  -0.223  0.00  0.00     0.172 C 
ATOM      2  N   UNL d   1       0.433   3.108   0.746  0.00  0.00    -0.070 N 
ATOM      3  C1  UNL d   1       0.186   2.983   2.087  0.00  0.00    -0.004 A 
ATOM      4  C2  UNL d   1       0.342   4.226   2.663  0.00  0.00    -0.047 A 
ATOM      5  C3  UNL d   1       0.694   5.129   1.632  0.00  0.00    -0.047 A 
ATOM      6  C4  UNL d   1       0.743   4.411   0.456  0.00  0.00    -0.004 A 
ENDROOT
TORSDOF 0
ENDMDL
