MODEL 1
REMARK minimizedAffinity -0.502317667
REMARK minimizedRMSD -1
REMARK  0 active torsions:
REMARK  status: ('A' for Active; 'I' for Inactive)
ROOT
ATOM      1  C   UNL d   1       0.362  -2.825  -2.265  0.00  0.00     0.172 C 
ATOM      2  N   UNL d   1       0.274  -1.434  -1.887  0.00  0.00    -0.070 N 
ATOM      3  C1  UNL d   1       0.526  -0.928  -0.639  0.00  0.00    -0.004 A 
ATOM      4  C2  UNL d   1       0.333   0.435  -0.689  0.00  0.00    -0.047 A 
ATOM      5  C3  UNL d   1      -0.049   0.760  -2.013  0.00  0.00    -0.047 A 
ATOM      6  C4  UNL d   1      -0.078  -0.415  -2.732  0.00  0.00    -0.004 A 
ENDROOT
TORSDOF 0
ENDMDL
