MODEL 1
REMARK minimizedAffinity 3.3387835
REMARK minimizedRMSD -1
REMARK  0 active torsions:
REMARK  status: ('A' for Active; 'I' for Inactive)
ROOT
ATOM      1  C   UNL d   1      -5.988   3.338  -5.310  0.00  0.00     0.172 C 
ATOM      2  N   UNL d   1      -5.411   2.111  -4.813  0.00  0.00    -0.070 N 
ATOM      3  C1  UNL d   1      -4.201   1.997  -4.182  0.00  0.00    -0.004 A 
ATOM      4  C2  UNL d   1      -4.014   0.669  -3.866  0.00  0.00    -0.047 A 
ATOM      5  C3  UNL d   1      -5.151  -0.040  -4.322  0.00  0.00    -0.047 A 
ATOM      6  C4  UNL d   1      -6.000   0.878  -4.905  0.00  0.00    -0.004 A 
ENDROOT
TORSDOF 0
ENDMDL
