MODEL 1
REMARK minimizedAffinity 3.07166624
REMARK minimizedRMSD -1
REMARK  0 active torsions:
REMARK  status: ('A' for Active; 'I' for Inactive)
ROOT
ATOM      1  C   UNL d   1       0.303   0.576   0.732  0.00  0.00     0.172 C 
ATOM      2  N   UNL d   1      -0.529   1.042  -0.353  0.00  0.00    -0.070 N 
ATOM      3  C1  UNL d   1      -1.896   1.124  -0.332  0.00  0.00    -0.004 A 
ATOM      4  C2  UNL d   1      -2.307   1.615  -1.553  0.00  0.00    -0.047 A 
ATOM      5  C3  UNL d   1      -1.148   1.835  -2.334  0.00  0.00    -0.047 A 
ATOM      6  C4  UNL d   1      -0.061   1.472  -1.566  0.00  0.00    -0.004 A 
ENDROOT
TORSDOF 0
ENDMDL
