MODEL 1
REMARK minimizedAffinity 0.796031296
REMARK minimizedRMSD -1
REMARK  0 active torsions:
REMARK  status: ('A' for Active; 'I' for Inactive)
ROOT
ATOM      1  C   UNL d   1       0.357  -4.607  -2.250  0.00  0.00     0.172 C 
ATOM      2  N   UNL d   1       0.844  -3.764  -3.317  0.00  0.00    -0.070 N 
ATOM      3  C1  UNL d   1       0.232  -2.631  -3.782  0.00  0.00    -0.004 A 
ATOM      4  C2  UNL d   1       1.009  -2.118  -4.798  0.00  0.00    -0.047 A 
ATOM      5  C3  UNL d   1       2.127  -2.973  -4.949  0.00  0.00    -0.047 A 
ATOM      6  C4  UNL d   1       1.999  -3.984  -4.020  0.00  0.00    -0.004 A 
ENDROOT
TORSDOF 0
ENDMDL
