MODEL 1
REMARK minimizedAffinity -1.0150013
REMARK minimizedRMSD -1
REMARK  0 active torsions:
REMARK  status: ('A' for Active; 'I' for Inactive)
ROOT
ATOM      1  C   UNL d   1       0.050   0.732   2.591  0.00  0.00     0.172 C 
ATOM      2  N   UNL d   1       0.289   2.044   3.145  0.00  0.00    -0.070 N 
ATOM      3  C1  UNL d   1      -0.055   2.453   4.406  0.00  0.00    -0.004 A 
ATOM      4  C2  UNL d   1       0.343   3.765   4.547  0.00  0.00    -0.047 A 
ATOM      5  C3  UNL d   1       0.945   4.159   3.328  0.00  0.00    -0.047 A 
ATOM      6  C4  UNL d   1       0.898   3.074   2.478  0.00  0.00    -0.004 A 
ENDROOT
TORSDOF 0
ENDMDL
