MODEL 1
REMARK minimizedAffinity 5.36171865
REMARK minimizedRMSD -1
REMARK  0 active torsions:
REMARK  status: ('A' for Active; 'I' for Inactive)
ROOT
ATOM      1  C   UNL d   1      -0.204   2.191   0.761  0.00  0.00     0.172 C 
ATOM      2  N   UNL d   1       0.229   2.561   2.088  0.00  0.00    -0.070 N 
ATOM      3  C1  UNL d   1       0.592   1.690   3.081  0.00  0.00    -0.004 A 
ATOM      4  C2  UNL d   1       0.939   2.434   4.188  0.00  0.00    -0.047 A 
ATOM      5  C3  UNL d   1       0.779   3.799   3.848  0.00  0.00    -0.047 A 
ATOM      6  C4  UNL d   1       0.339   3.848   2.543  0.00  0.00    -0.004 A 
ENDROOT
TORSDOF 0
ENDMDL
