MODEL 1
REMARK minimizedAffinity 0.902255177
REMARK minimizedRMSD -1
REMARK  0 active torsions:
REMARK  status: ('A' for Active; 'I' for Inactive)
ROOT
ATOM      1  C   UNL d   1       1.092  -0.311   0.204  0.00  0.00     0.172 C 
ATOM      2  N   UNL d   1       0.338   0.613  -0.610  0.00  0.00    -0.070 N 
ATOM      3  C1  UNL d   1      -0.987   0.493  -0.936  0.00  0.00    -0.004 A 
ATOM      4  C2  UNL d   1      -1.328   1.573  -1.721  0.00  0.00    -0.047 A 
ATOM      5  C3  UNL d   1      -0.168   2.369  -1.873  0.00  0.00    -0.047 A 
ATOM      6  C4  UNL d   1       0.848   1.752  -1.175  0.00  0.00    -0.004 A 
ENDROOT
TORSDOF 0
ENDMDL
