MODEL 1
REMARK minimizedAffinity -0.00515756011
REMARK minimizedRMSD -1
REMARK  0 active torsions:
REMARK  status: ('A' for Active; 'I' for Inactive)
ROOT
ATOM      1  C   UNL d   1      -5.740   5.951  -1.447  0.00  0.00     0.172 C 
ATOM      2  N   UNL d   1      -5.266   5.747  -2.796  0.00  0.00    -0.070 N 
ATOM      3  C1  UNL d   1      -4.028   5.278  -3.145  0.00  0.00    -0.004 A 
ATOM      4  C2  UNL d   1      -3.968   5.228  -4.521  0.00  0.00    -0.047 A 
ATOM      5  C3  UNL d   1      -5.213   5.683  -5.016  0.00  0.00    -0.047 A 
ATOM      6  C4  UNL d   1      -5.997   5.999  -3.927  0.00  0.00    -0.004 A 
ENDROOT
TORSDOF 0
ENDMDL
