MODEL 1
REMARK minimizedAffinity -5.01297188
REMARK minimizedRMSD -1
REMARK  0 active torsions:
REMARK  status: ('A' for Active; 'I' for Inactive)
ROOT
ATOM      1  C   UNL d   1       1.286   2.980   0.629  0.00  0.00     0.023 A 
ATOM      2  C1  UNL d   1       2.244   1.967   0.619  0.00  0.00     0.003 A 
ATOM      3  C2  UNL d   1       1.884   0.666   0.262  0.00  0.00     0.048 A 
ATOM      4  C3  UNL d   1       0.563   0.386  -0.085  0.00  0.00     0.023 A 
ATOM      5  C4  UNL d   1      -0.400   1.396  -0.077  0.00  0.00     0.048 A 
ATOM      6  C5  UNL d   1      -0.035   2.695   0.282  0.00  0.00     0.003 A 
ATOM      7  I   UNL d   1       0.023  -1.550  -0.617  0.00  0.00    -0.146 I 
ENDROOT
TORSDOF 0
ENDMDL
