MODEL 1
REMARK minimizedAffinity -4.27596426
REMARK minimizedRMSD -1
REMARK  0 active torsions:
REMARK  status: ('A' for Active; 'I' for Inactive)
ROOT
ATOM      1  C   UNL d   1       0.745   3.188   0.091  0.00  0.00     0.023 A 
ATOM      2  C1  UNL d   1       1.821   2.315  -0.066  0.00  0.00     0.003 A 
ATOM      3  C2  UNL d   1       1.603   0.936  -0.112  0.00  0.00     0.048 A 
ATOM      4  C3  UNL d   1       0.306   0.438  -0.001  0.00  0.00     0.023 A 
ATOM      5  C4  UNL d   1      -0.775   1.307   0.155  0.00  0.00     0.048 A 
ATOM      6  C5  UNL d   1      -0.552   2.685   0.202  0.00  0.00     0.003 A 
ATOM      7  I   UNL d   1      -0.021  -1.614  -0.070  0.00  0.00    -0.146 I 
ENDROOT
TORSDOF 0
ENDMDL
