MODEL 1
REMARK minimizedAffinity -5.46458721
REMARK minimizedRMSD -1
REMARK  0 active torsions:
REMARK  status: ('A' for Active; 'I' for Inactive)
ROOT
ATOM      1  C   UNL d   1       1.869   3.412   0.334  0.00  0.00     0.023 A 
ATOM      2  C1  UNL d   1       2.707   2.311   0.513  0.00  0.00     0.003 A 
ATOM      3  C2  UNL d   1       2.170   1.022   0.547  0.00  0.00     0.048 A 
ATOM      4  C3  UNL d   1       0.795   0.841   0.400  0.00  0.00     0.023 A 
ATOM      5  C4  UNL d   1      -0.047   1.940   0.220  0.00  0.00     0.048 A 
ATOM      6  C5  UNL d   1       0.494   3.227   0.187  0.00  0.00     0.003 A 
ATOM      7  I   UNL d   1      -0.006  -1.076   0.450  0.00  0.00    -0.146 I 
ENDROOT
TORSDOF 0
ENDMDL
