MODEL 1
REMARK minimizedAffinity -1.69183338
REMARK minimizedRMSD -1
REMARK  0 active torsions:
REMARK  status: ('A' for Active; 'I' for Inactive)
ROOT
ATOM      1  C   UNL d   1      -0.493  -1.303   0.441  0.00  0.00     0.023 A 
ATOM      2  C1  UNL d   1      -1.479  -0.353   0.707  0.00  0.00     0.003 A 
ATOM      3  C2  UNL d   1      -1.155   1.005   0.725  0.00  0.00     0.048 A 
ATOM      4  C3  UNL d   1       0.157   1.406   0.474  0.00  0.00     0.023 A 
ATOM      5  C4  UNL d   1       1.147   0.459   0.206  0.00  0.00     0.048 A 
ATOM      6  C5  UNL d   1       0.818  -0.898   0.190  0.00  0.00     0.003 A 
ATOM      7  I   UNL d   1       0.642   3.427   0.500  0.00  0.00    -0.146 I 
ENDROOT
TORSDOF 0
ENDMDL
