MODEL 1
REMARK minimizedAffinity -5.11663771
REMARK minimizedRMSD -1
REMARK  0 active torsions:
REMARK  status: ('A' for Active; 'I' for Inactive)
ROOT
ATOM      1  C   UNL d   1       2.665   2.481   0.672  0.00  0.00     0.023 A 
ATOM      2  C1  UNL d   1       3.024   1.135   0.755  0.00  0.00     0.003 A 
ATOM      3  C2  UNL d   1       2.044   0.144   0.674  0.00  0.00     0.048 A 
ATOM      4  C3  UNL d   1       0.707   0.505   0.510  0.00  0.00     0.023 A 
ATOM      5  C4  UNL d   1       0.343   1.850   0.425  0.00  0.00     0.048 A 
ATOM      6  C5  UNL d   1       1.326   2.837   0.507  0.00  0.00     0.003 A 
ATOM      7  I   UNL d   1      -0.753  -0.969   0.389  0.00  0.00    -0.146 I 
ENDROOT
TORSDOF 0
ENDMDL
