MODEL 1
REMARK minimizedAffinity -5.57002592
REMARK minimizedRMSD -1
REMARK  0 active torsions:
REMARK  status: ('A' for Active; 'I' for Inactive)
ROOT
ATOM      1  C   UNL d   1       1.636   3.113   0.296  0.00  0.00     0.023 A 
ATOM      2  C1  UNL d   1       0.332   2.688   0.041  0.00  0.00     0.003 A 
ATOM      3  C2  UNL d   1       0.051   1.325  -0.077  0.00  0.00     0.048 A 
ATOM      4  C3  UNL d   1       1.078   0.393   0.063  0.00  0.00     0.023 A 
ATOM      5  C4  UNL d   1       2.385   0.813   0.320  0.00  0.00     0.048 A 
ATOM      6  C5  UNL d   1       2.661   2.177   0.436  0.00  0.00     0.003 A 
ATOM      7  I   UNL d   1       0.662  -1.636  -0.112  0.00  0.00    -0.146 I 
ENDROOT
TORSDOF 0
ENDMDL
