MODEL 1
REMARK minimizedAffinity -3.1282382
REMARK minimizedRMSD -1
REMARK  0 active torsions:
REMARK  status: ('A' for Active; 'I' for Inactive)
ROOT
ATOM      1  C   UNL d   1       1.299   3.425   0.681  0.00  0.00     0.023 A 
ATOM      2  C1  UNL d   1       2.355   2.527   0.528  0.00  0.00     0.003 A 
ATOM      3  C2  UNL d   1       2.098   1.195   0.197  0.00  0.00     0.048 A 
ATOM      4  C3  UNL d   1       0.782   0.768   0.021  0.00  0.00     0.023 A 
ATOM      5  C4  UNL d   1      -0.278   1.663   0.172  0.00  0.00     0.048 A 
ATOM      6  C5  UNL d   1      -0.016   2.994   0.503  0.00  0.00     0.003 A 
ATOM      7  I   UNL d   1       0.397  -1.214  -0.471  0.00  0.00    -0.146 I 
ENDROOT
TORSDOF 0
ENDMDL
