MODEL 1
REMARK minimizedAffinity -2.09308958
REMARK minimizedRMSD -1
REMARK  0 active torsions:
REMARK  status: ('A' for Active; 'I' for Inactive)
ROOT
ATOM      1  C   UNL d   1       0.606   3.524   0.737  0.00  0.00     0.023 A 
ATOM      2  C1  UNL d   1       1.416   2.807  -0.143  0.00  0.00     0.003 A 
ATOM      3  C2  UNL d   1       1.121   1.475  -0.439  0.00  0.00     0.048 A 
ATOM      4  C3  UNL d   1       0.012   0.866   0.147  0.00  0.00     0.023 A 
ATOM      5  C4  UNL d   1      -0.803   1.579   1.028  0.00  0.00     0.048 A 
ATOM      6  C5  UNL d   1      -0.502   2.911   1.322  0.00  0.00     0.003 A 
ATOM      7  I   UNL d   1      -0.430  -1.117  -0.292  0.00  0.00    -0.146 I 
ENDROOT
TORSDOF 0
ENDMDL
