MODEL 1
REMARK minimizedAffinity -4.78914452
REMARK minimizedRMSD -1
REMARK  0 active torsions:
REMARK  status: ('A' for Active; 'I' for Inactive)
ROOT
ATOM      1  C   UNL d   1       1.281   3.575   0.424  0.00  0.00     0.023 A 
ATOM      2  C1  UNL d   1      -0.026   3.174   0.148  0.00  0.00     0.003 A 
ATOM      3  C2  UNL d   1      -0.336   1.815   0.059  0.00  0.00     0.048 A 
ATOM      4  C3  UNL d   1       0.665   0.864   0.247  0.00  0.00     0.023 A 
ATOM      5  C4  UNL d   1       1.974   1.261   0.524  0.00  0.00     0.048 A 
ATOM      6  C5  UNL d   1       2.280   2.620   0.612  0.00  0.00     0.003 A 
ATOM      7  I   UNL d   1       0.206  -1.159   0.114  0.00  0.00    -0.146 I 
ENDROOT
TORSDOF 0
ENDMDL
