MODEL 1
REMARK minimizedAffinity -0.838149905
REMARK minimizedRMSD -1
REMARK  0 active torsions:
REMARK  status: ('A' for Active; 'I' for Inactive)
ROOT
ATOM      1  C   UNL d   1       0.179  -1.454  -0.048  0.00  0.00     0.023 A 
ATOM      2  C1  UNL d   1       1.406  -0.803   0.090  0.00  0.00     0.003 A 
ATOM      3  C2  UNL d   1       1.445   0.577   0.301  0.00  0.00     0.048 A 
ATOM      4  C3  UNL d   1       0.255   1.300   0.373  0.00  0.00     0.023 A 
ATOM      5  C4  UNL d   1      -0.974   0.653   0.235  0.00  0.00     0.048 A 
ATOM      6  C5  UNL d   1      -1.009  -0.727   0.024  0.00  0.00     0.003 A 
ATOM      7  I   UNL d   1       0.312   3.354   0.686  0.00  0.00    -0.146 I 
ENDROOT
TORSDOF 0
ENDMDL
