MODEL 1
REMARK minimizedAffinity -4.41213608
REMARK minimizedRMSD -1
REMARK  0 active torsions:
REMARK  status: ('A' for Active; 'I' for Inactive)
ROOT
ATOM      1  C   UNL d   1       1.425   3.782   0.244  0.00  0.00     0.023 A 
ATOM      2  C1  UNL d   1       2.305   2.714   0.419  0.00  0.00     0.003 A 
ATOM      3  C2  UNL d   1       1.822   1.405   0.437  0.00  0.00     0.048 A 
ATOM      4  C3  UNL d   1       0.456   1.170   0.279  0.00  0.00     0.023 A 
ATOM      5  C4  UNL d   1      -0.428   2.235   0.103  0.00  0.00     0.048 A 
ATOM      6  C5  UNL d   1       0.060   3.543   0.087  0.00  0.00     0.003 A 
ATOM      7  I   UNL d   1      -0.266  -0.779   0.305  0.00  0.00    -0.146 I 
ENDROOT
TORSDOF 0
ENDMDL
