MODEL 1
REMARK minimizedAffinity -5.52784204
REMARK minimizedRMSD -1
REMARK  0 active torsions:
REMARK  status: ('A' for Active; 'I' for Inactive)
ROOT
ATOM      1  C   UNL d   1       1.317   3.079   0.688  0.00  0.00     0.023 A 
ATOM      2  C1  UNL d   1      -0.031   2.837   0.421  0.00  0.00     0.003 A 
ATOM      3  C2  UNL d   1      -0.457   1.550   0.086  0.00  0.00     0.048 A 
ATOM      4  C3  UNL d   1       0.469   0.510   0.020  0.00  0.00     0.023 A 
ATOM      5  C4  UNL d   1       1.819   0.748   0.287  0.00  0.00     0.048 A 
ATOM      6  C5  UNL d   1       2.240   2.036   0.621  0.00  0.00     0.003 A 
ATOM      7  I   UNL d   1      -0.163  -1.406  -0.478  0.00  0.00    -0.146 I 
ENDROOT
TORSDOF 0
ENDMDL
