MODEL 1
REMARK minimizedAffinity -2.9889729
REMARK minimizedRMSD -1
REMARK  0 active torsions:
REMARK  status: ('A' for Active; 'I' for Inactive)
ROOT
ATOM      1  C   UNL d   1      -0.448  -2.909  -1.951  0.00  0.00     0.023 A 
ATOM      2  C1  UNL d   1       0.178  -2.587  -0.746  0.00  0.00     0.003 A 
ATOM      3  C2  UNL d   1      -0.008  -1.326  -0.177  0.00  0.00     0.048 A 
ATOM      4  C3  UNL d   1      -0.822  -0.392  -0.816  0.00  0.00     0.023 A 
ATOM      5  C4  UNL d   1      -1.451  -0.709  -2.021  0.00  0.00     0.048 A 
ATOM      6  C5  UNL d   1      -1.261  -1.971  -2.587  0.00  0.00     0.003 A 
ATOM      7  I   UNL d   1      -1.101   1.486   0.031  0.00  0.00    -0.146 I 
ENDROOT
TORSDOF 0
ENDMDL
