MODEL 1
REMARK minimizedAffinity -3.30433631
REMARK minimizedRMSD -1
REMARK  0 active torsions:
REMARK  status: ('A' for Active; 'I' for Inactive)
ROOT
ATOM      1  C   UNL d   1      -0.517   2.438   0.556  0.00  0.00     0.023 A 
ATOM      2  C1  UNL d   1       0.640   1.951  -0.053  0.00  0.00     0.003 A 
ATOM      3  C2  UNL d   1       0.810   0.577  -0.234  0.00  0.00     0.048 A 
ATOM      4  C3  UNL d   1      -0.181  -0.304   0.197  0.00  0.00     0.023 A 
ATOM      5  C4  UNL d   1      -1.341   0.178   0.806  0.00  0.00     0.048 A 
ATOM      6  C5  UNL d   1      -1.506   1.553   0.985  0.00  0.00     0.003 A 
ATOM      7  I   UNL d   1       0.070  -2.350  -0.071  0.00  0.00    -0.146 I 
ENDROOT
TORSDOF 0
ENDMDL
