MODEL 1
REMARK minimizedAffinity -4.81011772
REMARK minimizedRMSD -1
REMARK  0 active torsions:
REMARK  status: ('A' for Active; 'I' for Inactive)
ROOT
ATOM      1  C   UNL d   1       1.196   3.822   0.064  0.00  0.00     0.023 A 
ATOM      2  C1  UNL d   1       2.158   2.813   0.096  0.00  0.00     0.003 A 
ATOM      3  C2  UNL d   1       1.766   1.472   0.099  0.00  0.00     0.048 A 
ATOM      4  C3  UNL d   1       0.411   1.148   0.069  0.00  0.00     0.023 A 
ATOM      5  C4  UNL d   1      -0.556   2.155   0.037  0.00  0.00     0.048 A 
ATOM      6  C5  UNL d   1      -0.160   3.494   0.035  0.00  0.00     0.003 A 
ATOM      7  I   UNL d   1      -0.175  -0.846   0.074  0.00  0.00    -0.146 I 
ENDROOT
TORSDOF 0
ENDMDL
