MODEL 1
REMARK minimizedAffinity -4.51172829
REMARK minimizedRMSD -1
REMARK  0 active torsions:
REMARK  status: ('A' for Active; 'I' for Inactive)
ROOT
ATOM      1  C   UNL d   1       0.898   3.759   0.350  0.00  0.00     0.023 A 
ATOM      2  C1  UNL d   1      -0.352   3.240   0.009  0.00  0.00     0.003 A 
ATOM      3  C2  UNL d   1      -0.547   1.858  -0.034  0.00  0.00     0.048 A 
ATOM      4  C3  UNL d   1       0.512   1.001   0.264  0.00  0.00     0.023 A 
ATOM      5  C4  UNL d   1       1.763   1.516   0.606  0.00  0.00     0.048 A 
ATOM      6  C5  UNL d   1       1.954   2.898   0.647  0.00  0.00     0.003 A 
ATOM      7  I   UNL d   1       0.224  -1.056   0.200  0.00  0.00    -0.146 I 
ENDROOT
TORSDOF 0
ENDMDL
