MODEL 1
REMARK minimizedAffinity -1.07879031
REMARK minimizedRMSD -1
REMARK  0 active torsions:
REMARK  status: ('A' for Active; 'I' for Inactive)
ROOT
ATOM      1  C   UNL d   1      -0.000   2.899   0.434  0.00  0.00     0.023 A 
ATOM      2  C1  UNL d   1      -1.221   2.250   0.622  0.00  0.00     0.003 A 
ATOM      3  C2  UNL d   1      -1.330   0.880   0.375  0.00  0.00     0.048 A 
ATOM      4  C3  UNL d   1      -0.215   0.164  -0.059  0.00  0.00     0.023 A 
ATOM      5  C4  UNL d   1       1.009   0.809  -0.247  0.00  0.00     0.048 A 
ATOM      6  C5  UNL d   1       1.113   2.179   0.000  0.00  0.00     0.003 A 
ATOM      7  I   UNL d   1      -0.375  -1.875  -0.427  0.00  0.00    -0.146 I 
ENDROOT
TORSDOF 0
ENDMDL
