MODEL 1
REMARK minimizedAffinity -3.39684725
REMARK minimizedRMSD -1
REMARK  0 active torsions:
REMARK  status: ('A' for Active; 'I' for Inactive)
ROOT
ATOM      1  C   UNL d   1      -0.361   2.156   0.240  0.00  0.00     0.023 A 
ATOM      2  C1  UNL d   1      -1.300   1.275   0.777  0.00  0.00     0.003 A 
ATOM      3  C2  UNL d   1      -1.262  -0.080   0.440  0.00  0.00     0.048 A 
ATOM      4  C3  UNL d   1      -0.282  -0.547  -0.435  0.00  0.00     0.023 A 
ATOM      5  C4  UNL d   1       0.660   0.331  -0.975  0.00  0.00     0.048 A 
ATOM      6  C5  UNL d   1       0.617   1.684  -0.636  0.00  0.00     0.003 A 
ATOM      7  I   UNL d   1      -0.223  -2.562  -0.939  0.00  0.00    -0.146 I 
ENDROOT
TORSDOF 0
ENDMDL
