MODEL 1
REMARK minimizedAffinity -3.69225144
REMARK minimizedRMSD -1
REMARK  1 active torsions:
REMARK  status: ('A' for Active; 'I' for Inactive)
REMARK    1  A    between atoms: C1_2  and  C2_3 
ROOT
ATOM      1  C2  UNL d   1      -1.653   0.633   1.777  0.00  0.00    -0.077 A 
ATOM      2  C3  UNL d   1      -1.773  -0.349   2.770  0.00  0.00     0.002 A 
ATOM      3  C4  UNL d   1      -2.393  -0.053   3.986  0.00  0.00     0.002 A 
ATOM      4  C5  UNL d   1      -2.902   1.223   4.217  0.00  0.00    -0.004 A 
ATOM      5  C6  UNL d   1      -2.785   2.208   3.237  0.00  0.00     0.002 A 
ATOM      6  C7  UNL d   1      -2.164   1.914   2.022  0.00  0.00     0.002 A 
ENDROOT
BRANCH   1   7
ATOM      7  C1  UNL d   1      -1.028   0.302   0.447  0.00  0.00     0.055 C 
ATOM      8  C   UNL d   1      -0.692  -1.179   0.347  0.00  0.00     0.019 C 
ENDBRANCH   1   7
TORSDOF 1
ENDMDL
