MODEL 1
REMARK minimizedAffinity 4.13990831
REMARK minimizedRMSD -1
REMARK  1 active torsions:
REMARK  status: ('A' for Active; 'I' for Inactive)
REMARK    1  A    between atoms: C1_2  and  C2_3 
ROOT
ATOM      1  C2  UNL d   1       0.926  -0.409  -3.274  0.00  0.00    -0.077 A 
ATOM      2  C3  UNL d   1       0.540  -1.238  -2.211  0.00  0.00     0.002 A 
ATOM      3  C4  UNL d   1       0.141  -0.685  -0.993  0.00  0.00     0.002 A 
ATOM      4  C5  UNL d   1       0.119   0.698  -0.828  0.00  0.00    -0.004 A 
ATOM      5  C6  UNL d   1       0.503   1.531  -1.878  0.00  0.00     0.002 A 
ATOM      6  C7  UNL d   1       0.904   0.980  -3.096  0.00  0.00     0.002 A 
ENDROOT
BRANCH   1   7
ATOM      7  C1  UNL d   1       1.309  -1.002  -4.605  0.00  0.00     0.055 C 
ATOM      8  C   UNL d   1       0.542  -2.287  -4.880  0.00  0.00     0.019 C 
ENDBRANCH   1   7
TORSDOF 1
ENDMDL
