MODEL 1
REMARK minimizedAffinity -1.27828646
REMARK minimizedRMSD -1
REMARK  1 active torsions:
REMARK  status: ('A' for Active; 'I' for Inactive)
REMARK    1  A    between atoms: C1_2  and  C2_3 
ROOT
ATOM      1  C2  UNL d   1       5.997  -1.832  -5.084  0.00  0.00    -0.077 A 
ATOM      2  C3  UNL d   1       5.999  -1.984  -3.690  0.00  0.00     0.002 A 
ATOM      3  C4  UNL d   1       5.992  -0.863  -2.858  0.00  0.00     0.002 A 
ATOM      4  C5  UNL d   1       5.978   0.417  -3.410  0.00  0.00    -0.004 A 
ATOM      5  C6  UNL d   1       5.978   0.578  -4.795  0.00  0.00     0.002 A 
ATOM      6  C7  UNL d   1       5.986  -0.542  -5.628  0.00  0.00     0.002 A 
ENDROOT
BRANCH   1   7
ATOM      7  C1  UNL d   1       5.956  -3.040  -5.983  0.00  0.00     0.055 C 
ATOM      8  C   UNL d   1       5.964  -4.331  -5.177  0.00  0.00     0.019 C 
ENDBRANCH   1   7
TORSDOF 1
ENDMDL
