MODEL 1
REMARK minimizedAffinity 5.14494324
REMARK minimizedRMSD -1
REMARK  1 active torsions:
REMARK  status: ('A' for Active; 'I' for Inactive)
REMARK    1  A    between atoms: C1_2  and  C2_3 
ROOT
ATOM      1  C2  UNL d   1       1.548   0.257  -1.983  0.00  0.00    -0.077 A 
ATOM      2  C3  UNL d   1       2.878   0.660  -1.801  0.00  0.00     0.002 A 
ATOM      3  C4  UNL d   1       3.206   1.588  -0.811  0.00  0.00     0.002 A 
ATOM      4  C5  UNL d   1       2.210   2.118   0.007  0.00  0.00    -0.004 A 
ATOM      5  C6  UNL d   1       0.884   1.726  -0.168  0.00  0.00     0.002 A 
ATOM      6  C7  UNL d   1       0.554   0.799  -1.158  0.00  0.00     0.002 A 
ENDROOT
BRANCH   1   7
ATOM      7  C1  UNL d   1       1.199  -0.781  -3.017  0.00  0.00     0.055 C 
ATOM      8  C   UNL d   1       1.299  -2.188  -2.446  0.00  0.00     0.019 C 
ENDBRANCH   1   7
TORSDOF 1
ENDMDL
