MODEL 1
REMARK minimizedAffinity 8.634058
REMARK minimizedRMSD -1
REMARK  1 active torsions:
REMARK  status: ('A' for Active; 'I' for Inactive)
REMARK    1  A    between atoms: C1_2  and  C2_3 
ROOT
ATOM      1  C2  UNL d   1       1.072  -0.668  -2.846  0.00  0.00    -0.077 A 
ATOM      2  C3  UNL d   1       0.673  -0.600  -1.504  0.00  0.00     0.002 A 
ATOM      3  C4  UNL d   1       0.321   0.625  -0.933  0.00  0.00     0.002 A 
ATOM      4  C5  UNL d   1       0.361   1.789  -1.698  0.00  0.00    -0.004 A 
ATOM      5  C6  UNL d   1       0.759   1.732  -3.033  0.00  0.00     0.002 A 
ATOM      6  C7  UNL d   1       1.112   0.509  -3.605  0.00  0.00     0.002 A 
ENDROOT
BRANCH   1   7
ATOM      7  C1  UNL d   1       1.405  -1.995  -3.477  0.00  0.00     0.055 C 
ATOM      8  C   UNL d   1       0.560  -3.115  -2.888  0.00  0.00     0.019 C 
ENDBRANCH   1   7
TORSDOF 1
ENDMDL
