MODEL 1
REMARK minimizedAffinity 7.30894041
REMARK minimizedRMSD -1
REMARK  1 active torsions:
REMARK  status: ('A' for Active; 'I' for Inactive)
REMARK    1  A    between atoms: C1_2  and  C2_3 
ROOT
ATOM      1  C2  UNL d   1       0.384  -0.898  -1.563  0.00  0.00    -0.077 A 
ATOM      2  C3  UNL d   1       0.686   0.137  -2.459  0.00  0.00     0.002 A 
ATOM      3  C4  UNL d   1       1.054  -0.152  -3.774  0.00  0.00     0.002 A 
ATOM      4  C5  UNL d   1       1.119  -1.475  -4.206  0.00  0.00    -0.004 A 
ATOM      5  C6  UNL d   1       0.823  -2.512  -3.322  0.00  0.00     0.002 A 
ATOM      6  C7  UNL d   1       0.456  -2.224  -2.007  0.00  0.00     0.002 A 
ENDROOT
BRANCH   1   7
ATOM      7  C1  UNL d   1      -0.061  -0.586  -0.158  0.00  0.00     0.055 C 
ATOM      8  C   UNL d   1      -0.684  -1.804   0.509  0.00  0.00     0.019 C 
ENDBRANCH   1   7
TORSDOF 1
ENDMDL
