MODEL 1
REMARK minimizedAffinity 2.78622222
REMARK minimizedRMSD -1
REMARK  1 active torsions:
REMARK  status: ('A' for Active; 'I' for Inactive)
REMARK    1  A    between atoms: C1_2  and  C2_3 
ROOT
ATOM      1  C2  UNL d   1       4.324   0.969   2.708  0.00  0.00    -0.077 A 
ATOM      2  C3  UNL d   1       4.113  -0.406   2.883  0.00  0.00     0.002 A 
ATOM      3  C4  UNL d   1       4.840  -1.116   3.840  0.00  0.00     0.002 A 
ATOM      4  C5  UNL d   1       5.779  -0.459   4.633  0.00  0.00    -0.004 A 
ATOM      5  C6  UNL d   1       5.997   0.907   4.466  0.00  0.00     0.002 A 
ATOM      6  C7  UNL d   1       5.273   1.619   3.508  0.00  0.00     0.002 A 
ENDROOT
BRANCH   1   7
ATOM      7  C1  UNL d   1       3.506   1.746   1.711  0.00  0.00     0.055 C 
ATOM      8  C   UNL d   1       3.674   3.246   1.905  0.00  0.00     0.019 C 
ENDBRANCH   1   7
TORSDOF 1
ENDMDL
