MODEL 1
REMARK minimizedAffinity -0.617141187
REMARK minimizedRMSD -1
REMARK  1 active torsions:
REMARK  status: ('A' for Active; 'I' for Inactive)
REMARK    1  A    between atoms: C1_2  and  C2_3 
ROOT
ATOM      1  C2  UNL d   1      -3.940   3.265   5.585  0.00  0.00    -0.077 A 
ATOM      2  C3  UNL d   1      -4.820   4.275   6.000  0.00  0.00     0.002 A 
ATOM      3  C4  UNL d   1      -4.485   5.619   5.825  0.00  0.00     0.002 A 
ATOM      4  C5  UNL d   1      -3.274   5.966   5.232  0.00  0.00    -0.004 A 
ATOM      5  C6  UNL d   1      -2.391   4.970   4.818  0.00  0.00     0.002 A 
ATOM      6  C7  UNL d   1      -2.723   3.625   4.992  0.00  0.00     0.002 A 
ENDROOT
BRANCH   1   7
ATOM      7  C1  UNL d   1      -4.320   1.815   5.727  0.00  0.00     0.055 C 
ATOM      8  C   UNL d   1      -3.805   0.990   4.557  0.00  0.00     0.019 C 
ENDBRANCH   1   7
TORSDOF 1
ENDMDL
