MODEL 1
REMARK minimizedAffinity -0.406272829
REMARK minimizedRMSD -1
REMARK  1 active torsions:
REMARK  status: ('A' for Active; 'I' for Inactive)
REMARK    1  A    between atoms: C1_2  and  C2_3 
ROOT
ATOM      1  C2  UNL d   1       5.198   2.782  -4.950  0.00  0.00    -0.077 A 
ATOM      2  C3  UNL d   1       5.996   2.016  -4.090  0.00  0.00     0.002 A 
ATOM      3  C4  UNL d   1       5.997   0.623  -4.180  0.00  0.00     0.002 A 
ATOM      4  C5  UNL d   1       5.204  -0.016  -5.132  0.00  0.00    -0.004 A 
ATOM      5  C6  UNL d   1       4.405   0.737  -5.991  0.00  0.00     0.002 A 
ATOM      6  C7  UNL d   1       4.402   2.130  -5.901  0.00  0.00     0.002 A 
ENDROOT
BRANCH   1   7
ATOM      7  C1  UNL d   1       5.233   4.287  -4.887  0.00  0.00     0.055 C 
ATOM      8  C   UNL d   1       4.509   4.806  -3.654  0.00  0.00     0.019 C 
ENDBRANCH   1   7
TORSDOF 1
ENDMDL
