MODEL 1
REMARK minimizedAffinity 3.87482905
REMARK minimizedRMSD -1
REMARK  1 active torsions:
REMARK  status: ('A' for Active; 'I' for Inactive)
REMARK    1  A    between atoms: C1_2  and  C2_3 
ROOT
ATOM      1  C2  UNL d   1      -4.705  -0.640   3.697  0.00  0.00    -0.077 A 
ATOM      2  C3  UNL d   1      -3.706  -1.600   3.482  0.00  0.00     0.002 A 
ATOM      3  C4  UNL d   1      -2.526  -1.570   4.226  0.00  0.00     0.002 A 
ATOM      4  C5  UNL d   1      -2.335  -0.585   5.193  0.00  0.00    -0.004 A 
ATOM      5  C6  UNL d   1      -3.321   0.376   5.413  0.00  0.00     0.002 A 
ATOM      6  C7  UNL d   1      -4.501   0.348   4.669  0.00  0.00     0.002 A 
ENDROOT
BRANCH   1   7
ATOM      7  C1  UNL d   1      -6.000  -0.700   2.929  0.00  0.00     0.055 C 
ATOM      8  C   UNL d   1      -5.804  -0.279   1.480  0.00  0.00     0.019 C 
ENDBRANCH   1   7
TORSDOF 1
ENDMDL
