MODEL 1
REMARK minimizedAffinity 4.97862244
REMARK minimizedRMSD -1
REMARK  1 active torsions:
REMARK  status: ('A' for Active; 'I' for Inactive)
REMARK    1  A    between atoms: C1_2  and  C2_3 
ROOT
ATOM      1  C2  UNL d   1       3.394   3.640  -5.507  0.00  0.00    -0.077 A 
ATOM      2  C3  UNL d   1       4.166   2.578  -6.000  0.00  0.00     0.002 A 
ATOM      3  C4  UNL d   1       5.453   2.353  -5.509  0.00  0.00     0.002 A 
ATOM      4  C5  UNL d   1       5.978   3.183  -4.520  0.00  0.00    -0.004 A 
ATOM      5  C6  UNL d   1       5.219   4.242  -4.024  0.00  0.00     0.002 A 
ATOM      6  C7  UNL d   1       3.933   4.469  -4.515  0.00  0.00     0.002 A 
ENDROOT
BRANCH   1   7
ATOM      7  C1  UNL d   1       1.986   3.854  -6.000  0.00  0.00     0.055 C 
ATOM      8  C   UNL d   1       1.617   5.330  -5.994  0.00  0.00     0.019 C 
ENDBRANCH   1   7
TORSDOF 1
ENDMDL
