MODEL 1
REMARK minimizedAffinity 8.2913599
REMARK minimizedRMSD -1
REMARK  1 active torsions:
REMARK  status: ('A' for Active; 'I' for Inactive)
REMARK    1  A    between atoms: C1_2  and  C2_3 
ROOT
ATOM      1  C2  UNL d   1       4.776   4.338  -4.102  0.00  0.00    -0.077 A 
ATOM      2  C3  UNL d   1       5.932   3.552  -4.213  0.00  0.00     0.002 A 
ATOM      3  C4  UNL d   1       5.999   2.526  -5.158  0.00  0.00     0.002 A 
ATOM      4  C5  UNL d   1       4.917   2.279  -6.000  0.00  0.00    -0.004 A 
ATOM      5  C6  UNL d   1       3.763   3.054  -5.895  0.00  0.00     0.002 A 
ATOM      6  C7  UNL d   1       3.693   4.079  -4.951  0.00  0.00     0.002 A 
ENDROOT
BRANCH   1   7
ATOM      7  C1  UNL d   1       4.719   5.477  -3.117  0.00  0.00     0.055 C 
ATOM      8  C   UNL d   1       3.334   5.609  -2.502  0.00  0.00     0.019 C 
ENDBRANCH   1   7
TORSDOF 1
ENDMDL
