MODEL 1
REMARK minimizedAffinity 0.0980246216
REMARK minimizedRMSD -1
REMARK  0 active torsions:
REMARK  status: ('A' for Active; 'I' for Inactive)
ROOT
ATOM      1  C   UNL d   1       2.046  -1.292  -1.658  0.00  0.00     0.124 A 
ATOM      2  C1  UNL d   1       1.636   0.029  -1.546  0.00  0.00     0.062 A 
ATOM      3  C2  UNL d   1       0.634   0.377  -0.645  0.00  0.00     0.162 A 
ATOM      4  C3  UNL d   1       0.035  -0.598   0.152  0.00  0.00    -0.034 A 
ATOM      5  C4  UNL d   1       0.452  -1.925   0.033  0.00  0.00     0.162 A 
ATOM      6  C5  UNL d   1       1.454  -2.268  -0.868  0.00  0.00     0.062 A 
ATOM      7  F   UNL d   1       1.849  -3.545  -0.975  0.00  0.00    -0.097 F 
ATOM      8  F1  UNL d   1      -0.103  -2.888   0.785  0.00  0.00    -0.096 F 
ATOM      9  I   UNL d   1      -1.464  -0.082   1.501  0.00  0.00    -0.060 I 
ATOM     10  F2  UNL d   1       0.258   1.662  -0.558  0.00  0.00    -0.096 F 
ATOM     11  F3  UNL d   1       2.207   0.974  -2.308  0.00  0.00    -0.097 F 
ATOM     12  F4  UNL d   1       3.010  -1.624  -2.526  0.00  0.00    -0.092 F 
ENDROOT
TORSDOF 0
ENDMDL
