MODEL 1
REMARK minimizedAffinity 1.38588715
REMARK minimizedRMSD -1
REMARK  0 active torsions:
REMARK  status: ('A' for Active; 'I' for Inactive)
ROOT
ATOM      1  C   UNL d   1       1.615  -0.733  -1.162  0.00  0.00     0.124 A 
ATOM      2  C1  UNL d   1       1.062  -1.695  -0.329  0.00  0.00     0.062 A 
ATOM      3  C2  UNL d   1      -0.053  -1.392   0.447  0.00  0.00     0.162 A 
ATOM      4  C3  UNL d   1      -0.623  -0.120   0.393  0.00  0.00    -0.034 A 
ATOM      5  C4  UNL d   1      -0.061   0.843  -0.446  0.00  0.00     0.162 A 
ATOM      6  C5  UNL d   1       1.054   0.535  -1.220  0.00  0.00     0.062 A 
ATOM      7  F   UNL d   1       1.587   1.466  -2.024  0.00  0.00    -0.097 F 
ATOM      8  F1  UNL d   1      -0.584   2.076  -0.522  0.00  0.00    -0.096 F 
ATOM      9  I   UNL d   1      -2.290   0.338   1.552  0.00  0.00    -0.060 I 
ATOM     10  F2  UNL d   1      -0.567  -2.341   1.243  0.00  0.00    -0.096 F 
ATOM     11  F3  UNL d   1       1.603  -2.920  -0.270  0.00  0.00    -0.097 F 
ATOM     12  F4  UNL d   1       2.688  -1.027  -1.907  0.00  0.00    -0.092 F 
ENDROOT
TORSDOF 0
ENDMDL
