MODEL 1
REMARK minimizedAffinity 1.6097194
REMARK minimizedRMSD -1
REMARK  0 active torsions:
REMARK  status: ('A' for Active; 'I' for Inactive)
ROOT
ATOM      1  C   UNL d   1       2.232  -1.081  -1.351  0.00  0.00     0.124 A 
ATOM      2  C1  UNL d   1       1.858   0.254  -1.279  0.00  0.00     0.062 A 
ATOM      3  C2  UNL d   1       0.776   0.636  -0.492  0.00  0.00     0.162 A 
ATOM      4  C3  UNL d   1       0.059  -0.319   0.231  0.00  0.00    -0.034 A 
ATOM      5  C4  UNL d   1       0.441  -1.659   0.152  0.00  0.00     0.162 A 
ATOM      6  C5  UNL d   1       1.523  -2.036  -0.636  0.00  0.00     0.062 A 
ATOM      7  F   UNL d   1       1.883  -3.326  -0.705  0.00  0.00    -0.097 F 
ATOM      8  F1  UNL d   1      -0.226  -2.603   0.833  0.00  0.00    -0.096 F 
ATOM      9  I   UNL d   1      -1.560   0.248   1.409  0.00  0.00    -0.060 I 
ATOM     10  F2  UNL d   1       0.437   1.933  -0.440  0.00  0.00    -0.096 F 
ATOM     11  F3  UNL d   1       2.541   1.179  -1.969  0.00  0.00    -0.097 F 
ATOM     12  F4  UNL d   1       3.274  -1.445  -2.110  0.00  0.00    -0.092 F 
ENDROOT
TORSDOF 0
ENDMDL
