MODEL 1
REMARK minimizedAffinity 0.19019416
REMARK minimizedRMSD -1
REMARK  0 active torsions:
REMARK  status: ('A' for Active; 'I' for Inactive)
ROOT
ATOM      1  C   UNL d   1      -2.056  -0.261   2.178  0.00  0.00     0.124 A 
ATOM      2  C1  UNL d   1      -0.837  -0.819   1.822  0.00  0.00     0.062 A 
ATOM      3  C2  UNL d   1      -0.088  -0.264   0.788  0.00  0.00     0.162 A 
ATOM      4  C3  UNL d   1      -0.557   0.857   0.103  0.00  0.00    -0.034 A 
ATOM      5  C4  UNL d   1      -1.785   1.413   0.467  0.00  0.00     0.162 A 
ATOM      6  C5  UNL d   1      -2.529   0.854   1.501  0.00  0.00     0.062 A 
ATOM      7  F   UNL d   1      -3.707   1.395   1.844  0.00  0.00    -0.097 F 
ATOM      8  F1  UNL d   1      -2.265   2.491  -0.170  0.00  0.00    -0.096 F 
ATOM      9  I   UNL d   1       0.559   1.691  -1.443  0.00  0.00    -0.060 I 
ATOM     10  F2  UNL d   1       1.087  -0.824   0.465  0.00  0.00    -0.096 F 
ATOM     11  F3  UNL d   1      -0.378  -1.897   2.474  0.00  0.00    -0.097 F 
ATOM     12  F4  UNL d   1      -2.775  -0.798   3.173  0.00  0.00    -0.092 F 
ENDROOT
TORSDOF 0
ENDMDL
