MODEL 1
REMARK minimizedAffinity -2.33950686
REMARK minimizedRMSD -1
REMARK  0 active torsions:
REMARK  status: ('A' for Active; 'I' for Inactive)
ROOT
ATOM      1  C   UNL d   1      -2.255   0.480   2.097  0.00  0.00     0.124 A 
ATOM      2  C1  UNL d   1      -1.050   1.012   2.533  0.00  0.00     0.062 A 
ATOM      3  C2  UNL d   1      -0.010   1.223   1.632  0.00  0.00     0.162 A 
ATOM      4  C3  UNL d   1      -0.172   0.902   0.284  0.00  0.00    -0.034 A 
ATOM      5  C4  UNL d   1      -1.387   0.367  -0.148  0.00  0.00     0.162 A 
ATOM      6  C5  UNL d   1      -2.423   0.158   0.757  0.00  0.00     0.062 A 
ATOM      7  F   UNL d   1      -3.587  -0.356   0.334  0.00  0.00    -0.097 F 
ATOM      8  F1  UNL d   1      -1.576   0.048  -1.437  0.00  0.00    -0.096 F 
ATOM      9  I   UNL d   1       1.380   1.216  -1.067  0.00  0.00    -0.060 I 
ATOM     10  F2  UNL d   1       1.143   1.738   2.081  0.00  0.00    -0.096 F 
ATOM     11  F3  UNL d   1      -0.885   1.323   3.827  0.00  0.00    -0.097 F 
ATOM     12  F4  UNL d   1      -3.253   0.277   2.966  0.00  0.00    -0.092 F 
ENDROOT
TORSDOF 0
ENDMDL
