MODEL 1
REMARK minimizedAffinity -0.823171794
REMARK minimizedRMSD -1
REMARK  0 active torsions:
REMARK  status: ('A' for Active; 'I' for Inactive)
ROOT
ATOM      1  C   UNL d   1       0.740  -0.808  -1.753  0.00  0.00     0.124 A 
ATOM      2  C1  UNL d   1       0.110   0.428  -1.798  0.00  0.00     0.062 A 
ATOM      3  C2  UNL d   1      -0.739   0.819  -0.766  0.00  0.00     0.162 A 
ATOM      4  C3  UNL d   1      -0.962  -0.027   0.320  0.00  0.00    -0.034 A 
ATOM      5  C4  UNL d   1      -0.326  -1.269   0.358  0.00  0.00     0.162 A 
ATOM      6  C5  UNL d   1       0.522  -1.655  -0.676  0.00  0.00     0.062 A 
ATOM      7  F   UNL d   1       1.129  -2.849  -0.630  0.00  0.00    -0.097 F 
ATOM      8  F1  UNL d   1      -0.518  -2.106   1.388  0.00  0.00    -0.096 F 
ATOM      9  I   UNL d   1      -2.231   0.554   1.865  0.00  0.00    -0.060 I 
ATOM     10  F2  UNL d   1      -1.335   2.019  -0.836  0.00  0.00    -0.096 F 
ATOM     11  F3  UNL d   1       0.318   1.248  -2.838  0.00  0.00    -0.097 F 
ATOM     12  F4  UNL d   1       1.555  -1.182  -2.747  0.00  0.00    -0.092 F 
ENDROOT
TORSDOF 0
ENDMDL
