MODEL 1
REMARK minimizedAffinity 2.05815339
REMARK minimizedRMSD -1
REMARK  0 active torsions:
REMARK  status: ('A' for Active; 'I' for Inactive)
ROOT
ATOM      1  C   UNL d   1       1.810  -0.182  -2.106  0.00  0.00     0.124 A 
ATOM      2  C1  UNL d   1       1.964   1.016  -1.421  0.00  0.00     0.062 A 
ATOM      3  C2  UNL d   1       0.945   1.487  -0.597  0.00  0.00     0.162 A 
ATOM      4  C3  UNL d   1      -0.236   0.759  -0.452  0.00  0.00    -0.034 A 
ATOM      5  C4  UNL d   1      -0.383  -0.444  -1.145  0.00  0.00     0.162 A 
ATOM      6  C5  UNL d   1       0.637  -0.910  -1.968  0.00  0.00     0.062 A 
ATOM      7  F   UNL d   1       0.487  -2.067  -2.629  0.00  0.00    -0.097 F 
ATOM      8  F1  UNL d   1      -1.506  -1.169  -1.029  0.00  0.00    -0.096 F 
ATOM      9  I   UNL d   1      -1.760   1.459   0.779  0.00  0.00    -0.060 I 
ATOM     10  F2  UNL d   1       1.121   2.647   0.052  0.00  0.00    -0.096 F 
ATOM     11  F3  UNL d   1       3.095   1.722  -1.555  0.00  0.00    -0.097 F 
ATOM     12  F4  UNL d   1       2.791  -0.631  -2.899  0.00  0.00    -0.092 F 
ENDROOT
TORSDOF 0
ENDMDL
