MODEL 1
REMARK minimizedAffinity 1.28634334
REMARK minimizedRMSD -1
REMARK  0 active torsions:
REMARK  status: ('A' for Active; 'I' for Inactive)
ROOT
ATOM      1  C   UNL d   1       1.787  -0.728  -1.406  0.00  0.00     0.124 A 
ATOM      2  C1  UNL d   1       1.225  -1.668  -0.553  0.00  0.00     0.062 A 
ATOM      3  C2  UNL d   1       0.255  -1.285   0.369  0.00  0.00     0.162 A 
ATOM      4  C3  UNL d   1      -0.160   0.045   0.441  0.00  0.00    -0.034 A 
ATOM      5  C4  UNL d   1       0.410   0.984  -0.420  0.00  0.00     0.162 A 
ATOM      6  C5  UNL d   1       1.379   0.596  -1.339  0.00  0.00     0.062 A 
ATOM      7  F   UNL d   1       1.921   1.505  -2.162  0.00  0.00    -0.097 F 
ATOM      8  F1  UNL d   1       0.034   2.271  -0.376  0.00  0.00    -0.096 F 
ATOM      9  I   UNL d   1      -1.611   0.622   1.818  0.00  0.00    -0.060 I 
ATOM     10  F2  UNL d   1      -0.271  -2.214   1.181  0.00  0.00    -0.096 F 
ATOM     11  F3  UNL d   1       1.618  -2.948  -0.616  0.00  0.00    -0.097 F 
ATOM     12  F4  UNL d   1       2.721  -1.100  -2.291  0.00  0.00    -0.092 F 
ENDROOT
TORSDOF 0
ENDMDL
