MODEL 1
REMARK minimizedAffinity -2.81652594
REMARK minimizedRMSD -1
REMARK  0 active torsions:
REMARK  status: ('A' for Active; 'I' for Inactive)
ROOT
ATOM      1  C   UNL d   1       1.716  -2.780  -0.853  0.00  0.00     0.124 A 
ATOM      2  C1  UNL d   1       2.139  -1.823  -1.766  0.00  0.00     0.062 A 
ATOM      3  C2  UNL d   1       1.831  -0.481  -1.565  0.00  0.00     0.162 A 
ATOM      4  C3  UNL d   1       1.098  -0.086  -0.446  0.00  0.00    -0.034 A 
ATOM      5  C4  UNL d   1       0.676  -1.055   0.467  0.00  0.00     0.162 A 
ATOM      6  C5  UNL d   1       0.986  -2.395   0.262  0.00  0.00     0.062 A 
ATOM      7  F   UNL d   1       0.577  -3.318   1.145  0.00  0.00    -0.097 F 
ATOM      8  F1  UNL d   1      -0.030  -0.710   1.554  0.00  0.00    -0.096 F 
ATOM      9  I   UNL d   1       0.637   1.920  -0.142  0.00  0.00    -0.060 I 
ATOM     10  F2  UNL d   1       2.252   0.422  -2.463  0.00  0.00    -0.096 F 
ATOM     11  F3  UNL d   1       2.844  -2.193  -2.845  0.00  0.00    -0.097 F 
ATOM     12  F4  UNL d   1       2.012  -4.071  -1.050  0.00  0.00    -0.092 F 
ENDROOT
TORSDOF 0
ENDMDL
