MODEL 1
REMARK minimizedAffinity 0.688452661
REMARK minimizedRMSD -1
REMARK  0 active torsions:
REMARK  status: ('A' for Active; 'I' for Inactive)
ROOT
ATOM      1  C   UNL d   1       1.816  -0.604  -1.113  0.00  0.00     0.124 A 
ATOM      2  C1  UNL d   1       1.348   0.699  -1.011  0.00  0.00     0.062 A 
ATOM      3  C2  UNL d   1       0.245   0.986  -0.212  0.00  0.00     0.162 A 
ATOM      4  C3  UNL d   1      -0.398  -0.032   0.492  0.00  0.00    -0.034 A 
ATOM      5  C4  UNL d   1       0.077  -1.341   0.383  0.00  0.00     0.162 A 
ATOM      6  C5  UNL d   1       1.180  -1.622  -0.417  0.00  0.00     0.062 A 
ATOM      7  F   UNL d   1       1.630  -2.881  -0.515  0.00  0.00    -0.097 F 
ATOM      8  F1  UNL d   1      -0.518  -2.343   1.045  0.00  0.00    -0.096 F 
ATOM      9  I   UNL d   1      -2.048   0.392   1.687  0.00  0.00    -0.060 I 
ATOM     10  F2  UNL d   1      -0.185   2.254  -0.131  0.00  0.00    -0.096 F 
ATOM     11  F3  UNL d   1       1.960   1.684  -1.683  0.00  0.00    -0.097 F 
ATOM     12  F4  UNL d   1       2.877  -0.877  -1.883  0.00  0.00    -0.092 F 
ENDROOT
TORSDOF 0
ENDMDL
