MODEL 1
REMARK minimizedAffinity 0.728388011
REMARK minimizedRMSD -1
REMARK  0 active torsions:
REMARK  status: ('A' for Active; 'I' for Inactive)
ROOT
ATOM      1  C   UNL d   1       0.200  -0.818  -1.620  0.00  0.00     0.124 A 
ATOM      2  C1  UNL d   1      -0.621   0.301  -1.613  0.00  0.00     0.062 A 
ATOM      3  C2  UNL d   1      -1.252   0.699  -0.438  0.00  0.00     0.162 A 
ATOM      4  C3  UNL d   1      -1.064  -0.023   0.741  0.00  0.00    -0.034 A 
ATOM      5  C4  UNL d   1      -0.237  -1.148   0.726  0.00  0.00     0.162 A 
ATOM      6  C5  UNL d   1       0.391  -1.541  -0.451  0.00  0.00     0.062 A 
ATOM      7  F   UNL d   1       1.184  -2.622  -0.456  0.00  0.00    -0.097 F 
ATOM      8  F1  UNL d   1      -0.035  -1.864   1.842  0.00  0.00    -0.096 F 
ATOM      9  I   UNL d   1      -2.006   0.568   2.500  0.00  0.00    -0.060 I 
ATOM     10  F2  UNL d   1      -2.040   1.784  -0.460  0.00  0.00    -0.096 F 
ATOM     11  F3  UNL d   1      -0.808   1.001  -2.741  0.00  0.00    -0.097 F 
ATOM     12  F4  UNL d   1       0.806  -1.199  -2.752  0.00  0.00    -0.092 F 
ENDROOT
TORSDOF 0
ENDMDL
