MODEL 1
REMARK minimizedAffinity 3.64322734
REMARK minimizedRMSD -1
REMARK  0 active torsions:
REMARK  status: ('A' for Active; 'I' for Inactive)
ROOT
ATOM      1  C   UNL d   1      -1.863   0.011   0.755  0.00  0.00     0.124 A 
ATOM      2  C1  UNL d   1      -1.874   1.122  -0.078  0.00  0.00     0.062 A 
ATOM      3  C2  UNL d   1      -0.805   1.366  -0.934  0.00  0.00     0.162 A 
ATOM      4  C3  UNL d   1       0.286   0.497  -0.963  0.00  0.00    -0.034 A 
ATOM      5  C4  UNL d   1       0.291  -0.618  -0.122  0.00  0.00     0.162 A 
ATOM      6  C5  UNL d   1      -0.781  -0.857   0.732  0.00  0.00     0.062 A 
ATOM      7  F   UNL d   1      -0.768  -1.930   1.536  0.00  0.00    -0.097 F 
ATOM      8  F1  UNL d   1       1.323  -1.474  -0.124  0.00  0.00    -0.096 F 
ATOM      9  I   UNL d   1       1.888   0.858  -2.242  0.00  0.00    -0.060 I 
ATOM     10  F2  UNL d   1      -0.842   2.446  -1.728  0.00  0.00    -0.096 F 
ATOM     11  F3  UNL d   1      -2.918   1.963  -0.057  0.00  0.00    -0.097 F 
ATOM     12  F4  UNL d   1      -2.893  -0.220   1.578  0.00  0.00    -0.092 F 
ENDROOT
TORSDOF 0
ENDMDL
