MODEL 1
REMARK minimizedAffinity -3.37778902
REMARK minimizedRMSD -1
REMARK  0 active torsions:
REMARK  status: ('A' for Active; 'I' for Inactive)
ROOT
ATOM      1  C   UNL d   1       1.344   0.784  -0.723  0.00  0.00     0.124 A 
ATOM      2  C1  UNL d   1       0.347   0.081  -1.386  0.00  0.00     0.062 A 
ATOM      3  C2  UNL d   1      -0.854  -0.206  -0.742  0.00  0.00     0.162 A 
ATOM      4  C3  UNL d   1      -1.065   0.211   0.572  0.00  0.00    -0.034 A 
ATOM      5  C4  UNL d   1      -0.057   0.917   1.232  0.00  0.00     0.162 A 
ATOM      6  C5  UNL d   1       1.141   1.201   0.585  0.00  0.00     0.062 A 
ATOM      7  F   UNL d   1       2.103   1.880   1.227  0.00  0.00    -0.097 F 
ATOM      8  F1  UNL d   1      -0.227   1.332   2.496  0.00  0.00    -0.096 F 
ATOM      9  I   UNL d   1      -2.858  -0.215   1.538  0.00  0.00    -0.060 I 
ATOM     10  F2  UNL d   1      -1.799  -0.886  -1.407  0.00  0.00    -0.096 F 
ATOM     11  F3  UNL d   1       0.541  -0.324  -2.649  0.00  0.00    -0.097 F 
ATOM     12  F4  UNL d   1       2.498   1.057  -1.344  0.00  0.00    -0.092 F 
ENDROOT
TORSDOF 0
ENDMDL
