MODEL 1
REMARK minimizedAffinity -5.06167507
REMARK minimizedRMSD -1
REMARK  0 active torsions:
REMARK  status: ('A' for Active; 'I' for Inactive)
ROOT
ATOM      1  C   UNL d   1       2.026  -0.169  -2.227  0.00  0.00     0.124 A 
ATOM      2  C1  UNL d   1       1.510  -1.373  -1.770  0.00  0.00     0.062 A 
ATOM      3  C2  UNL d   1       0.563  -1.387  -0.749  0.00  0.00     0.162 A 
ATOM      4  C3  UNL d   1       0.126  -0.191  -0.179  0.00  0.00    -0.034 A 
ATOM      5  C4  UNL d   1       0.651   1.016  -0.643  0.00  0.00     0.162 A 
ATOM      6  C5  UNL d   1       1.597   1.025  -1.663  0.00  0.00     0.062 A 
ATOM      7  F   UNL d   1       2.095   2.189  -2.103  0.00  0.00    -0.097 F 
ATOM      8  F1  UNL d   1       0.252   2.184  -0.117  0.00  0.00    -0.096 F 
ATOM      9  I   UNL d   1      -1.290  -0.207   1.347  0.00  0.00    -0.060 I 
ATOM     10  F2  UNL d   1       0.081  -2.565  -0.328  0.00  0.00    -0.096 F 
ATOM     11  F3  UNL d   1       1.924  -2.527  -2.312  0.00  0.00    -0.097 F 
ATOM     12  F4  UNL d   1       2.938  -0.159  -3.208  0.00  0.00    -0.092 F 
ENDROOT
TORSDOF 0
ENDMDL
