MODEL 1
REMARK minimizedAffinity -0.106629319
REMARK minimizedRMSD -1
REMARK  0 active torsions:
REMARK  status: ('A' for Active; 'I' for Inactive)
ROOT
ATOM      1  C   UNL d   1       1.489  -0.203  -1.241  0.00  0.00     0.124 A 
ATOM      2  C1  UNL d   1       1.204   1.146  -1.082  0.00  0.00     0.062 A 
ATOM      3  C2  UNL d   1       0.150   1.547  -0.266  0.00  0.00     0.162 A 
ATOM      4  C3  UNL d   1      -0.626   0.597   0.399  0.00  0.00    -0.034 A 
ATOM      5  C4  UNL d   1      -0.333  -0.758   0.233  0.00  0.00     0.162 A 
ATOM      6  C5  UNL d   1       0.721  -1.153  -0.584  0.00  0.00     0.062 A 
ATOM      7  F   UNL d   1       0.995  -2.457  -0.737  0.00  0.00    -0.097 F 
ATOM      8  F1  UNL d   1      -1.059  -1.697   0.857  0.00  0.00    -0.096 F 
ATOM      9  I   UNL d   1      -2.202   1.192   1.621  0.00  0.00    -0.060 I 
ATOM     10  F2  UNL d   1      -0.103   2.857  -0.130  0.00  0.00    -0.096 F 
ATOM     11  F3  UNL d   1       1.944   2.066  -1.717  0.00  0.00    -0.097 F 
ATOM     12  F4  UNL d   1       2.503  -0.586  -2.028  0.00  0.00    -0.092 F 
ENDROOT
TORSDOF 0
ENDMDL
