MODEL 1
REMARK minimizedAffinity -0.319907248
REMARK minimizedRMSD -1
REMARK  0 active torsions:
REMARK  status: ('A' for Active; 'I' for Inactive)
ROOT
ATOM      1  N1  IND d   1       1.156   1.369  -4.746  0.00  0.00    -0.196 N 
ATOM      2  C2  IND d   1       1.881   1.007  -3.645  0.00  0.00     0.054 A 
ATOM      3  C3  IND d   1       1.445  -0.178  -3.163  0.00  0.00    -0.031 A 
ATOM      4  C4  IND d   1      -0.377  -1.747  -4.084  0.00  0.00     0.051 A 
ATOM      5  C5  IND d   1      -1.340  -1.829  -5.050  0.00  0.00    -0.031 A 
ATOM      6  C6  IND d   1      -1.522  -0.830  -5.985  0.00  0.00     0.015 A 
ATOM      7  C7  IND d   1      -0.737   0.288  -5.995  0.00  0.00    -0.016 A 
ATOM      8  C8  IND d   1       0.238   0.378  -5.011  0.00  0.00    -0.047 A 
ATOM      9  C9  IND d   1       0.399  -0.613  -4.034  0.00  0.00    -0.096 A 
ATOM     10  HN1 IND d   1       1.257   2.094  -5.197  0.00  0.00     0.298 HD
ENDROOT
TORSDOF 0
ENDMDL
