MODEL 1
REMARK minimizedAffinity -4.6567378
REMARK minimizedRMSD -1
REMARK  0 active torsions:
REMARK  status: ('A' for Active; 'I' for Inactive)
ROOT
ATOM      1  N1  IND d   1       1.156  -1.245  -1.020  0.00  0.00    -0.196 N 
ATOM      2  C2  IND d   1       0.093  -0.850  -0.257  0.00  0.00     0.054 A 
ATOM      3  C3  IND d   1      -0.600   0.126  -0.886  0.00  0.00    -0.031 A 
ATOM      4  C4  IND d   1      -0.227   1.155  -3.216  0.00  0.00     0.051 A 
ATOM      5  C5  IND d   1       0.639   1.143  -4.273  0.00  0.00    -0.031 A 
ATOM      6  C6  IND d   1       1.743   0.315  -4.301  0.00  0.00     0.015 A 
ATOM      7  C7  IND d   1       2.016  -0.543  -3.274  0.00  0.00    -0.016 A 
ATOM      8  C8  IND d   1       1.143  -0.528  -2.196  0.00  0.00    -0.047 A 
ATOM      9  C9  IND d   1       0.045   0.340  -2.143  0.00  0.00    -0.096 A 
ATOM     10  HN1 IND d   1       1.736  -1.841  -0.802  0.00  0.00     0.298 HD
ENDROOT
TORSDOF 0
ENDMDL
