MODEL 1
REMARK minimizedAffinity -1.98232365
REMARK minimizedRMSD -1
REMARK  0 active torsions:
REMARK  status: ('A' for Active; 'I' for Inactive)
ROOT
ATOM      1  N1  IND d   1       1.895  -1.316  -0.396  0.00  0.00    -0.196 N 
ATOM      2  C2  IND d   1       1.187  -1.438  -1.558  0.00  0.00     0.054 A 
ATOM      3  C3  IND d   1       0.134  -0.590  -1.559  0.00  0.00    -0.031 A 
ATOM      4  C4  IND d   1      -0.558   1.160   0.199  0.00  0.00     0.051 A 
ATOM      5  C5  IND d   1      -0.240   1.616   1.447  0.00  0.00    -0.031 A 
ATOM      6  C6  IND d   1       0.829   1.110   2.158  0.00  0.00     0.015 A 
ATOM      7  C7  IND d   1       1.630   0.132   1.640  0.00  0.00    -0.016 A 
ATOM      8  C8  IND d   1       1.306  -0.339   0.376  0.00  0.00    -0.047 A 
ATOM      9  C9  IND d   1       0.198   0.141  -0.333  0.00  0.00    -0.096 A 
ATOM     10  HN1 IND d   1       2.591  -1.774  -0.182  0.00  0.00     0.298 HD
ENDROOT
TORSDOF 0
ENDMDL
