MODEL 1
REMARK minimizedAffinity -1.84063423
REMARK minimizedRMSD -1
REMARK  0 active torsions:
REMARK  status: ('A' for Active; 'I' for Inactive)
ROOT
ATOM      1  N1  IND d   1       0.712   0.851  -0.107  0.00  0.00    -0.196 N 
ATOM      2  C2  IND d   1       0.085   0.132  -1.086  0.00  0.00     0.054 A 
ATOM      3  C3  IND d   1      -1.088  -0.361  -0.629  0.00  0.00    -0.031 A 
ATOM      4  C4  IND d   1      -2.222  -0.028   1.659  0.00  0.00     0.051 A 
ATOM      5  C5  IND d   1      -2.016   0.521   2.893  0.00  0.00    -0.031 A 
ATOM      6  C6  IND d   1      -0.868   1.225   3.196  0.00  0.00     0.015 A 
ATOM      7  C7  IND d   1       0.116   1.416   2.268  0.00  0.00    -0.016 A 
ATOM      8  C8  IND d   1      -0.087   0.854   1.015  0.00  0.00    -0.047 A 
ATOM      9  C9  IND d   1      -1.230   0.103   0.715  0.00  0.00    -0.096 A 
ATOM     10  HN1 IND d   1       1.477   1.237  -0.180  0.00  0.00     0.298 HD
ENDROOT
TORSDOF 0
ENDMDL
