MODEL 1
REMARK minimizedAffinity -4.38807726
REMARK minimizedRMSD -1
REMARK  0 active torsions:
REMARK  status: ('A' for Active; 'I' for Inactive)
ROOT
ATOM      1  N1  IND d   1      -1.312  -1.227  -0.162  0.00  0.00    -0.196 N 
ATOM      2  C2  IND d   1      -0.160  -1.345  -0.889  0.00  0.00     0.054 A 
ATOM      3  C3  IND d   1       0.811  -0.567  -0.360  0.00  0.00    -0.031 A 
ATOM      4  C4  IND d   1       0.760   0.904   1.752  0.00  0.00     0.051 A 
ATOM      5  C5  IND d   1      -0.082   1.361   2.727  0.00  0.00    -0.031 A 
ATOM      6  C6  IND d   1      -1.403   0.968   2.791  0.00  0.00     0.015 A 
ATOM      7  C7  IND d   1      -1.931   0.091   1.886  0.00  0.00    -0.016 A 
ATOM      8  C8  IND d   1      -1.081  -0.369   0.891  0.00  0.00    -0.047 A 
ATOM      9  C9  IND d   1       0.250   0.059   0.795  0.00  0.00    -0.096 A 
ATOM     10  HN1 IND d   1      -2.056  -1.622  -0.334  0.00  0.00     0.298 HD
ENDROOT
TORSDOF 0
ENDMDL
