MODEL 1
REMARK minimizedAffinity -4.47092104
REMARK minimizedRMSD -1
REMARK  0 active torsions:
REMARK  status: ('A' for Active; 'I' for Inactive)
ROOT
ATOM      1  N1  IND d   1       1.004  -0.973  -0.447  0.00  0.00    -0.196 N 
ATOM      2  C2  IND d   1      -0.082  -0.438  -1.082  0.00  0.00     0.054 A 
ATOM      3  C3  IND d   1      -0.682   0.482  -0.293  0.00  0.00    -0.031 A 
ATOM      4  C4  IND d   1       0.009   1.342   2.033  0.00  0.00     0.051 A 
ATOM      5  C5  IND d   1       0.912   1.128   3.036  0.00  0.00    -0.031 A 
ATOM      6  C6  IND d   1       1.914   0.186   2.926  0.00  0.00     0.015 A 
ATOM      7  C7  IND d   1       2.057  -0.574   1.800  0.00  0.00    -0.016 A 
ATOM      8  C8  IND d   1       1.138  -0.364   0.782  0.00  0.00    -0.047 A 
ATOM      9  C9  IND d   1       0.093   0.562   0.904  0.00  0.00    -0.096 A 
ATOM     10  HN1 IND d   1       1.517  -1.587  -0.762  0.00  0.00     0.298 HD
ENDROOT
TORSDOF 0
ENDMDL
