MODEL 1
REMARK minimizedAffinity -6.41851568
REMARK minimizedRMSD -1
REMARK  0 active torsions:
REMARK  status: ('A' for Active; 'I' for Inactive)
ROOT
ATOM      1  N1  IND d   1       1.785  -0.469   2.142  0.00  0.00    -0.196 N 
ATOM      2  C2  IND d   1       1.551   0.103   3.361  0.00  0.00     0.054 A 
ATOM      3  C3  IND d   1       0.343   0.711   3.371  0.00  0.00    -0.031 A 
ATOM      4  C4  IND d   1      -1.455   0.806   1.532  0.00  0.00     0.051 A 
ATOM      5  C5  IND d   1      -1.683   0.460   0.230  0.00  0.00    -0.031 A 
ATOM      6  C6  IND d   1      -0.749  -0.228  -0.516  0.00  0.00     0.015 A 
ATOM      7  C7  IND d   1       0.449  -0.609   0.019  0.00  0.00    -0.016 A 
ATOM      8  C8  IND d   1       0.687  -0.254   1.339  0.00  0.00    -0.047 A 
ATOM      9  C9  IND d   1      -0.240   0.482   2.088  0.00  0.00    -0.096 A 
ATOM     10  HN1 IND d   1       2.499  -0.891   1.915  0.00  0.00     0.298 HD
ENDROOT
TORSDOF 0
ENDMDL
