MODEL 1
REMARK minimizedAffinity -4.94932413
REMARK minimizedRMSD -1
REMARK  0 active torsions:
REMARK  status: ('A' for Active; 'I' for Inactive)
ROOT
ATOM      1  C1  BNZ d   1      -0.929  -0.401   1.247  0.00  0.00     0.000 A 
ATOM      2  C2  BNZ d   1      -0.369  -0.856   2.411  0.00  0.00     0.000 A 
ATOM      3  C3  BNZ d   1       0.978  -1.068   2.504  0.00  0.00     0.000 A 
ATOM      4  C4  BNZ d   1       1.758  -0.862   1.423  0.00  0.00     0.000 A 
ATOM      5  C5  BNZ d   1       1.207  -0.412   0.240  0.00  0.00     0.000 A 
ATOM      6  C6  BNZ d   1      -0.144  -0.163   0.161  0.00  0.00     0.000 A 
ENDROOT
TORSDOF 0
ENDMDL
