MODEL 1
REMARK minimizedAffinity -5.1650095
REMARK minimizedRMSD -1
REMARK  0 active torsions:
REMARK  status: ('A' for Active; 'I' for Inactive)
ROOT
ATOM      1  C1  BNZ d   1       0.482  -0.697   2.693  0.00  0.00     0.000 A 
ATOM      2  C2  BNZ d   1      -0.036   0.078   1.690  0.00  0.00     0.000 A 
ATOM      3  C3  BNZ d   1       0.459  -0.000   0.418  0.00  0.00     0.000 A 
ATOM      4  C4  BNZ d   1       1.496  -0.823   0.159  0.00  0.00     0.000 A 
ATOM      5  C5  BNZ d   1       2.035  -1.604   1.162  0.00  0.00     0.000 A 
ATOM      6  C6  BNZ d   1       1.509  -1.551   2.432  0.00  0.00     0.000 A 
ENDROOT
TORSDOF 0
ENDMDL
