MODEL 1
REMARK minimizedAffinity -3.00141954
REMARK minimizedRMSD -1
REMARK  0 active torsions:
REMARK  status: ('A' for Active; 'I' for Inactive)
ROOT
ATOM      1  C1  BNZ d   1      -0.830  -0.140   1.383  0.00  0.00     0.000 A 
ATOM      2  C2  BNZ d   1       0.041   0.864   1.054  0.00  0.00     0.000 A 
ATOM      3  C3  BNZ d   1       0.312   1.154  -0.254  0.00  0.00     0.000 A 
ATOM      4  C4  BNZ d   1      -0.257   0.415  -1.229  0.00  0.00     0.000 A 
ATOM      5  C5  BNZ d   1      -1.130  -0.607  -0.912  0.00  0.00     0.000 A 
ATOM      6  C6  BNZ d   1      -1.430  -0.870   0.405  0.00  0.00     0.000 A 
ENDROOT
TORSDOF 0
ENDMDL
