MODEL 1
REMARK minimizedAffinity -4.12418175
REMARK minimizedRMSD -1
REMARK  0 active torsions:
REMARK  status: ('A' for Active; 'I' for Inactive)
ROOT
ATOM      1  C1  BNZ d   1       0.771   0.512   0.535  0.00  0.00     0.000 A 
ATOM      2  C2  BNZ d   1       1.432  -0.146   1.538  0.00  0.00     0.000 A 
ATOM      3  C3  BNZ d   1       0.754  -0.939   2.421  0.00  0.00     0.000 A 
ATOM      4  C4  BNZ d   1      -0.587  -1.041   2.326  0.00  0.00     0.000 A 
ATOM      5  C5  BNZ d   1      -1.269  -0.377   1.326  0.00  0.00     0.000 A 
ATOM      6  C6  BNZ d   1      -0.579   0.389   0.415  0.00  0.00     0.000 A 
ENDROOT
TORSDOF 0
ENDMDL
