MODEL 1
REMARK minimizedAffinity -1.9652015
REMARK minimizedRMSD -1
REMARK  0 active torsions:
REMARK  status: ('A' for Active; 'I' for Inactive)
ROOT
ATOM      1  C1  BNZ d   1      -0.922   0.283   0.642  0.00  0.00     0.000 A 
ATOM      2  C2  BNZ d   1      -0.990  -0.226   1.912  0.00  0.00     0.000 A 
ATOM      3  C3  BNZ d   1       0.085  -0.860   2.470  0.00  0.00     0.000 A 
ATOM      4  C4  BNZ d   1       1.210  -1.021   1.744  0.00  0.00     0.000 A 
ATOM      5  C5  BNZ d   1       1.291  -0.521   0.460  0.00  0.00     0.000 A 
ATOM      6  C6  BNZ d   1       0.221   0.151  -0.085  0.00  0.00     0.000 A 
ENDROOT
TORSDOF 0
ENDMDL
