MODEL 1
REMARK minimizedAffinity -3.77960968
REMARK minimizedRMSD -1
REMARK  0 active torsions:
REMARK  status: ('A' for Active; 'I' for Inactive)
ROOT
ATOM      1  C1  BNZ d   1      -1.310   0.787  -0.427  0.00  0.00     0.000 A 
ATOM      2  C2  BNZ d   1      -1.462   0.749   0.933  0.00  0.00     0.000 A 
ATOM      3  C3  BNZ d   1      -0.546   0.110   1.722  0.00  0.00     0.000 A 
ATOM      4  C4  BNZ d   1       0.497  -0.523   1.147  0.00  0.00     0.000 A 
ATOM      5  C5  BNZ d   1       0.658  -0.502  -0.224  0.00  0.00     0.000 A 
ATOM      6  C6  BNZ d   1      -0.244   0.175  -1.011  0.00  0.00     0.000 A 
ENDROOT
TORSDOF 0
ENDMDL
