MODEL 1
REMARK minimizedAffinity -4.59060955
REMARK minimizedRMSD -1
REMARK  0 active torsions:
REMARK  status: ('A' for Active; 'I' for Inactive)
ROOT
ATOM      1  C1  BNZ d   1      -0.574  -0.301  -0.292  0.00  0.00     0.000 A 
ATOM      2  C2  BNZ d   1      -0.877  -0.441   1.036  0.00  0.00     0.000 A 
ATOM      3  C3  BNZ d   1       0.040  -0.947   1.914  0.00  0.00     0.000 A 
ATOM      4  C4  BNZ d   1       1.243  -1.349   1.458  0.00  0.00     0.000 A 
ATOM      5  C5  BNZ d   1       1.561  -1.223   0.120  0.00  0.00     0.000 A 
ATOM      6  C6  BNZ d   1       0.650  -0.677  -0.754  0.00  0.00     0.000 A 
ENDROOT
TORSDOF 0
ENDMDL
