MODEL 1
REMARK minimizedAffinity -4.75759602
REMARK minimizedRMSD -1
REMARK  0 active torsions:
REMARK  status: ('A' for Active; 'I' for Inactive)
ROOT
ATOM      1  C1  BNZ d   1       1.035  -1.601   2.595  0.00  0.00     0.000 A 
ATOM      2  C2  BNZ d   1      -0.046  -0.760   2.575  0.00  0.00     0.000 A 
ATOM      3  C3  BNZ d   1      -0.520  -0.258   1.395  0.00  0.00     0.000 A 
ATOM      4  C4  BNZ d   1       0.110  -0.566   0.243  0.00  0.00     0.000 A 
ATOM      5  C5  BNZ d   1       1.206  -1.405   0.248  0.00  0.00     0.000 A 
ATOM      6  C6  BNZ d   1       1.657  -1.939   1.433  0.00  0.00     0.000 A 
ENDROOT
TORSDOF 0
ENDMDL
