MODEL 1
REMARK minimizedAffinity -0.288582355
REMARK minimizedRMSD -1
REMARK  0 active torsions:
REMARK  status: ('A' for Active; 'I' for Inactive)
ROOT
ATOM      1  C   UNL d   1      -1.556   0.969   0.047  0.00  0.00     0.020 A 
ATOM      2  C1  UNL d   1      -0.845   0.849  -1.147  0.00  0.00     0.020 A 
ATOM      3  C2  UNL d   1       0.266   0.005  -1.216  0.00  0.00     0.034 A 
ATOM      4  C3  UNL d   1       0.669  -0.722  -0.089  0.00  0.00     0.017 A 
ATOM      5  C4  UNL d   1      -0.046  -0.600   1.108  0.00  0.00     0.017 A 
ATOM      6  C5  UNL d   1      -1.157   0.247   1.172  0.00  0.00     0.034 A 
ATOM      7 Cl   UNL d   1       0.391  -1.464   2.540  0.00  0.00    -0.070 Cl
ATOM      8 Cl1  UNL d   1       2.051  -1.746  -0.246  0.00  0.00    -0.070 Cl
ENDROOT
TORSDOF 0
ENDMDL
