MODEL 1
REMARK minimizedAffinity -3.83074188
REMARK minimizedRMSD -1
REMARK  0 active torsions:
REMARK  status: ('A' for Active; 'I' for Inactive)
ROOT
ATOM      1  C   UNL d   1      -0.954  -0.251   1.818  0.00  0.00     0.020 A 
ATOM      2  C1  UNL d   1       0.029  -0.828   2.621  0.00  0.00     0.020 A 
ATOM      3  C2  UNL d   1       1.164  -1.395   2.036  0.00  0.00     0.034 A 
ATOM      4  C3  UNL d   1       1.319  -1.385   0.645  0.00  0.00     0.017 A 
ATOM      5  C4  UNL d   1       0.332  -0.805  -0.159  0.00  0.00     0.017 A 
ATOM      6  C5  UNL d   1      -0.803  -0.239   0.431  0.00  0.00     0.034 A 
ATOM      7 Cl   UNL d   1       0.452  -0.755  -1.883  0.00  0.00    -0.070 Cl
ATOM      8 Cl1  UNL d   1       2.748  -2.103  -0.009  0.00  0.00    -0.070 Cl
ENDROOT
TORSDOF 0
ENDMDL
