MODEL 1
REMARK minimizedAffinity -3.75088954
REMARK minimizedRMSD -1
REMARK  0 active torsions:
REMARK  status: ('A' for Active; 'I' for Inactive)
ROOT
ATOM      1  C   UNL d   1      -1.472   2.676  -0.963  0.00  0.00     0.020 A 
ATOM      2  C1  UNL d   1      -1.519   1.410  -0.381  0.00  0.00     0.020 A 
ATOM      3  C2  UNL d   1      -0.827   0.346  -0.965  0.00  0.00     0.034 A 
ATOM      4  C3  UNL d   1      -0.086   0.547  -2.135  0.00  0.00     0.017 A 
ATOM      5  C4  UNL d   1      -0.039   1.818  -2.719  0.00  0.00     0.017 A 
ATOM      6  C5  UNL d   1      -0.733   2.879  -2.130  0.00  0.00     0.034 A 
ATOM      7 Cl   UNL d   1       0.855   2.142  -4.162  0.00  0.00    -0.070 Cl
ATOM      8 Cl1  UNL d   1       0.745  -0.813  -2.802  0.00  0.00    -0.070 Cl
ENDROOT
TORSDOF 0
ENDMDL
