MODEL 1
REMARK minimizedAffinity -3.2222023
REMARK minimizedRMSD -1
REMARK  0 active torsions:
REMARK  status: ('A' for Active; 'I' for Inactive)
ROOT
ATOM      1  C   UNL d   1      -1.122   0.059   1.332  0.00  0.00     0.020 A 
ATOM      2  C1  UNL d   1      -0.213  -0.395   2.286  0.00  0.00     0.020 A 
ATOM      3  C2  UNL d   1       0.863  -1.198   1.900  0.00  0.00     0.034 A 
ATOM      4  C3  UNL d   1       1.032  -1.549   0.556  0.00  0.00     0.017 A 
ATOM      5  C4  UNL d   1       0.120  -1.092  -0.402  0.00  0.00     0.017 A 
ATOM      6  C5  UNL d   1      -0.955  -0.288  -0.010  0.00  0.00     0.034 A 
ATOM      7 Cl   UNL d   1       0.263  -1.482  -2.079  0.00  0.00    -0.070 Cl
ATOM      8 Cl1  UNL d   1       2.385  -2.544   0.150  0.00  0.00    -0.070 Cl
ENDROOT
TORSDOF 0
ENDMDL
