MODEL 1
REMARK minimizedAffinity 2.92194843
REMARK minimizedRMSD -1
REMARK  0 active torsions:
REMARK  status: ('A' for Active; 'I' for Inactive)
ROOT
ATOM      1  O1  BZF d   1      -1.107  -0.175  -0.315  0.00  0.00    -0.204 OA
ATOM      2  C2  BZF d   1      -1.171   1.051  -0.948  0.00  0.00     0.174 A 
ATOM      3  C3  BZF d   1      -0.049   1.765  -0.721  0.00  0.00    -0.012 A 
ATOM      4  C3A BZF d   1       0.805   0.896   0.028  0.00  0.00    -0.107 A 
ATOM      5  C4  BZF d   1       2.065   1.029   0.539  0.00  0.00     0.055 A 
ATOM      6  C5  BZF d   1       2.585   0.019   1.285  0.00  0.00    -0.016 A 
ATOM      7  C6  BZF d   1       1.873  -1.133   1.545  0.00  0.00     0.022 A 
ATOM      8  C7  BZF d   1       0.622  -1.313   1.056  0.00  0.00     0.029 A 
ATOM      9  C7A BZF d   1       0.106  -0.308   0.274  0.00  0.00     0.058 A 
ENDROOT
TORSDOF 0
ENDMDL
