MODEL 1
REMARK minimizedAffinity -6.17468977
REMARK minimizedRMSD -1
REMARK  0 active torsions:
REMARK  status: ('A' for Active; 'I' for Inactive)
ROOT
ATOM      1  O1  BZF d   1      -0.574  -1.144   1.491  0.00  0.00    -0.204 OA
ATOM      2  C2  BZF d   1      -0.994  -0.064   0.738  0.00  0.00     0.174 A 
ATOM      3  C3  BZF d   1       0.060   0.599   0.222  0.00  0.00    -0.012 A 
ATOM      4  C3A BZF d   1       1.209  -0.164   0.605  0.00  0.00    -0.107 A 
ATOM      5  C4  BZF d   1       2.548  -0.023   0.378  0.00  0.00     0.055 A 
ATOM      6  C5  BZF d   1       3.411  -0.901   0.953  0.00  0.00    -0.016 A 
ATOM      7  C6  BZF d   1       2.971  -1.927   1.764  0.00  0.00     0.022 A 
ATOM      8  C7  BZF d   1       1.651  -2.110   2.014  0.00  0.00     0.029 A 
ATOM      9  C7A BZF d   1       0.774  -1.244   1.407  0.00  0.00     0.058 A 
ENDROOT
TORSDOF 0
ENDMDL
