MODEL 1
REMARK minimizedAffinity -5.87110901
REMARK minimizedRMSD -1
REMARK  0 active torsions:
REMARK  status: ('A' for Active; 'I' for Inactive)
ROOT
ATOM      1  O1  BZF d   1       2.938   0.379   0.925  0.00  0.00    -0.204 OA
ATOM      2  C2  BZF d   1       3.463  -0.765   1.493  0.00  0.00     0.174 A 
ATOM      3  C3  BZF d   1       2.515  -1.717   1.616  0.00  0.00    -0.012 A 
ATOM      4  C3A BZF d   1       1.345  -1.163   1.007  0.00  0.00    -0.107 A 
ATOM      5  C4  BZF d   1       0.080  -1.634   0.804  0.00  0.00     0.055 A 
ATOM      6  C5  BZF d   1      -0.849  -0.815   0.245  0.00  0.00    -0.016 A 
ATOM      7  C6  BZF d   1      -0.549   0.482  -0.117  0.00  0.00     0.022 A 
ATOM      8  C7  BZF d   1       0.694   0.993   0.060  0.00  0.00     0.029 A 
ATOM      9  C7A BZF d   1       1.643   0.157   0.595  0.00  0.00     0.058 A 
ENDROOT
TORSDOF 0
ENDMDL
