MODEL 1
REMARK minimizedAffinity -3.6570456
REMARK minimizedRMSD -1
REMARK  0 active torsions:
REMARK  status: ('A' for Active; 'I' for Inactive)
ROOT
ATOM      1  O1  BZF d   1       0.209  -1.942   1.773  0.00  0.00    -0.204 OA
ATOM      2  C2  BZF d   1       1.306  -2.182   2.577  0.00  0.00     0.174 A 
ATOM      3  C3  BZF d   1       2.251  -1.237   2.392  0.00  0.00    -0.012 A 
ATOM      4  C3A BZF d   1       1.671  -0.300   1.479  0.00  0.00    -0.107 A 
ATOM      5  C4  BZF d   1       2.115   0.866   0.923  0.00  0.00     0.055 A 
ATOM      6  C5  BZF d   1       1.333   1.503   0.012  0.00  0.00    -0.016 A 
ATOM      7  C6  BZF d   1       0.106   1.000  -0.369  0.00  0.00     0.022 A 
ATOM      8  C7  BZF d   1      -0.378  -0.150   0.159  0.00  0.00     0.029 A 
ATOM      9  C7A BZF d   1       0.395  -0.779   1.104  0.00  0.00     0.058 A 
ENDROOT
TORSDOF 0
ENDMDL
