MODEL 1
REMARK minimizedAffinity -2.57613635
REMARK minimizedRMSD -1
REMARK  0 active torsions:
REMARK  status: ('A' for Active; 'I' for Inactive)
ROOT
ATOM      1  O1  BZF d   1       0.093  -0.741  -0.834  0.00  0.00    -0.204 OA
ATOM      2  C2  BZF d   1       0.263   0.161   0.198  0.00  0.00     0.174 A 
ATOM      3  C3  BZF d   1      -0.673   1.131   0.144  0.00  0.00    -0.012 A 
ATOM      4  C3A BZF d   1      -1.533   0.764  -0.938  0.00  0.00    -0.107 A 
ATOM      5  C4  BZF d   1      -2.657   1.324  -1.476  0.00  0.00     0.055 A 
ATOM      6  C5  BZF d   1      -3.216   0.755  -2.577  0.00  0.00    -0.016 A 
ATOM      7  C6  BZF d   1      -2.676  -0.369  -3.167  0.00  0.00     0.022 A 
ATOM      8  C7  BZF d   1      -1.566  -0.963  -2.667  0.00  0.00     0.029 A 
ATOM      9  C7A BZF d   1      -1.017  -0.410  -1.535  0.00  0.00     0.058 A 
ENDROOT
TORSDOF 0
ENDMDL
