MODEL 1
REMARK minimizedAffinity -6.21376991
REMARK minimizedRMSD -1
REMARK  0 active torsions:
REMARK  status: ('A' for Active; 'I' for Inactive)
ROOT
ATOM      1  O1  BZF d   1      -0.421  -0.964   0.693  0.00  0.00    -0.204 OA
ATOM      2  C2  BZF d   1      -0.504   0.228   0.001  0.00  0.00     0.174 A 
ATOM      3  C3  BZF d   1       0.634   0.940   0.135  0.00  0.00    -0.012 A 
ATOM      4  C3A BZF d   1       1.516   0.100   0.886  0.00  0.00    -0.107 A 
ATOM      5  C4  BZF d   1       2.801   0.244   1.326  0.00  0.00     0.055 A 
ATOM      6  C5  BZF d   1       3.348  -0.732   2.098  0.00  0.00    -0.016 A 
ATOM      7  C6  BZF d   1       2.638  -1.861   2.452  0.00  0.00     0.022 A 
ATOM      8  C7  BZF d   1       1.363  -2.050   2.035  0.00  0.00     0.029 A 
ATOM      9  C7A BZF d   1       0.818  -1.081   1.228  0.00  0.00     0.058 A 
ENDROOT
TORSDOF 0
ENDMDL
