MODEL 1
REMARK minimizedAffinity 11.3307562
REMARK minimizedRMSD -1
REMARK  0 active torsions:
REMARK  status: ('A' for Active; 'I' for Inactive)
ROOT
ATOM      1  C4' PXY d   1       1.917  -3.868  -4.454  0.00  0.00     0.077 C 
ATOM      2  C1' PXY d   1      -1.510  -1.618  -0.379  0.00  0.00     0.077 C 
ATOM      3  C1  PXY d   1      -0.622  -2.212  -1.454  0.00  0.00    -0.082 A 
ATOM      4  C2  PXY d   1       0.618  -2.566  -1.157  0.00  0.00     0.003 A 
ATOM      5  C3  PXY d   1       1.445  -3.075  -2.125  0.00  0.00     0.003 A 
ATOM      6  C4  PXY d   1       0.982  -3.273  -3.398  0.00  0.00    -0.082 A 
ATOM      7  C5  PXY d   1      -0.285  -2.925  -3.707  0.00  0.00     0.003 A 
ATOM      8  C6  PXY d   1      -1.096  -2.372  -2.720  0.00  0.00     0.003 A 
ENDROOT
TORSDOF 0
ENDMDL
