MODEL 1
REMARK minimizedAffinity 8.87491703
REMARK minimizedRMSD -1
REMARK  0 active torsions:
REMARK  status: ('A' for Active; 'I' for Inactive)
ROOT
ATOM      1  C4' PXY d   1      -1.027  -2.541   0.855  0.00  0.00     0.077 C 
ATOM      2  C1' PXY d   1      -0.825  -3.113  -4.894  0.00  0.00     0.077 C 
ATOM      3  C1  PXY d   1      -0.865  -2.964  -3.386  0.00  0.00    -0.082 A 
ATOM      4  C2  PXY d   1      -1.957  -3.307  -2.723  0.00  0.00     0.003 A 
ATOM      5  C3  PXY d   1      -2.022  -3.149  -1.363  0.00  0.00     0.003 A 
ATOM      6  C4  PXY d   1      -0.939  -2.683  -0.667  0.00  0.00    -0.082 A 
ATOM      7  C5  PXY d   1       0.184  -2.341  -1.335  0.00  0.00     0.003 A 
ATOM      8  C6  PXY d   1       0.215  -2.470  -2.720  0.00  0.00     0.003 A 
ENDROOT
TORSDOF 0
ENDMDL
