MODEL 1
REMARK minimizedAffinity 8.42307949
REMARK minimizedRMSD -1
REMARK  0 active torsions:
REMARK  status: ('A' for Active; 'I' for Inactive)
ROOT
ATOM      1  C4' PXY d   1      -2.615   0.902   0.719  0.00  0.00     0.077 C 
ATOM      2  C1' PXY d   1      -5.256   6.000   0.048  0.00  0.00     0.077 C 
ATOM      3  C1  PXY d   1      -4.552   4.669   0.224  0.00  0.00    -0.082 A 
ATOM      4  C2  PXY d   1      -5.150   3.556  -0.168  0.00  0.00     0.003 A 
ATOM      5  C3  PXY d   1      -4.541   2.341   0.013  0.00  0.00     0.003 A 
ATOM      6  C4  PXY d   1      -3.285   2.269   0.552  0.00  0.00    -0.082 A 
ATOM      7  C5  PXY d   1      -2.664   3.401   0.945  0.00  0.00     0.003 A 
ATOM      8  C6  PXY d   1      -3.316   4.621   0.790  0.00  0.00     0.003 A 
ENDROOT
TORSDOF 0
ENDMDL
