MODEL 1
REMARK minimizedAffinity 13.0281982
REMARK minimizedRMSD -1
REMARK  0 active torsions:
REMARK  status: ('A' for Active; 'I' for Inactive)
ROOT
ATOM      1  C4' PXY d   1       6.000  -4.774   5.999  0.00  0.00     0.077 C 
ATOM      2  C1' PXY d   1       2.416  -1.040   3.426  0.00  0.00     0.077 C 
ATOM      3  C1  PXY d   1       3.360  -2.009   4.108  0.00  0.00    -0.082 A 
ATOM      4  C2  PXY d   1       3.735  -3.111   3.477  0.00  0.00     0.003 A 
ATOM      5  C3  PXY d   1       4.563  -4.014   4.092  0.00  0.00     0.003 A 
ATOM      6  C4  PXY d   1       5.055  -3.762   5.345  0.00  0.00    -0.082 A 
ATOM      7  C5  PXY d   1       4.686  -2.636   5.990  0.00  0.00     0.003 A 
ATOM      8  C6  PXY d   1       3.812  -1.751   5.365  0.00  0.00     0.003 A 
ENDROOT
TORSDOF 0
ENDMDL
