MODEL 1
REMARK minimizedAffinity 2.74205327
REMARK minimizedRMSD -1
REMARK  0 active torsions:
REMARK  status: ('A' for Active; 'I' for Inactive)
ROOT
ATOM      1  C4' PXY d   1      -1.315  -2.402   2.642  0.00  0.00     0.077 C 
ATOM      2  C1' PXY d   1      -0.662  -2.742  -3.092  0.00  0.00     0.077 C 
ATOM      3  C1  PXY d   1      -0.841  -2.642  -1.590  0.00  0.00    -0.082 A 
ATOM      4  C2  PXY d   1       0.058  -3.188  -0.787  0.00  0.00     0.003 A 
ATOM      5  C3  PXY d   1      -0.104  -3.134   0.574  0.00  0.00     0.003 A 
ATOM      6  C4  PXY d   1      -1.170  -2.470   1.119  0.00  0.00    -0.082 A 
ATOM      7  C5  PXY d   1      -2.086  -1.902   0.306  0.00  0.00     0.003 A 
ATOM      8  C6  PXY d   1      -1.924  -2.003  -1.073  0.00  0.00     0.003 A 
ENDROOT
TORSDOF 0
ENDMDL
