MODEL 1
REMARK minimizedAffinity 0.711249888
REMARK minimizedRMSD -1
REMARK  0 active torsions:
REMARK  status: ('A' for Active; 'I' for Inactive)
ROOT
ATOM      1  C4' PXY d   1      -1.932  -1.719   3.929  0.00  0.00     0.077 C 
ATOM      2  C1' PXY d   1      -0.343  -2.716  -1.539  0.00  0.00     0.077 C 
ATOM      3  C1  PXY d   1      -0.757  -2.467  -0.102  0.00  0.00    -0.082 A 
ATOM      4  C2  PXY d   1      -1.629  -1.511   0.171  0.00  0.00     0.003 A 
ATOM      5  C3  PXY d   1      -1.990  -1.250   1.468  0.00  0.00     0.003 A 
ATOM      6  C4  PXY d   1      -1.493  -2.012   2.491  0.00  0.00    -0.082 A 
ATOM      7  C5  PXY d   1      -0.610  -2.997   2.220  0.00  0.00     0.003 A 
ATOM      8  C6  PXY d   1      -0.226  -3.218   0.901  0.00  0.00     0.003 A 
ENDROOT
TORSDOF 0
ENDMDL
