MODEL 1
REMARK minimizedAffinity 16.5798569
REMARK minimizedRMSD -1
REMARK  0 active torsions:
REMARK  status: ('A' for Active; 'I' for Inactive)
ROOT
ATOM      1  C4' PXY d   1       3.733  -1.978  -1.885  0.00  0.00     0.077 C 
ATOM      2  C1' PXY d   1      -1.733  -3.375  -3.144  0.00  0.00     0.077 C 
ATOM      3  C1  PXY d   1      -0.295  -3.019  -2.820  0.00  0.00    -0.082 A 
ATOM      4  C2  PXY d   1      -0.030  -2.258  -1.771  0.00  0.00     0.003 A 
ATOM      5  C3  PXY d   1       1.262  -1.900  -1.482  0.00  0.00     0.003 A 
ATOM      6  C4  PXY d   1       2.297  -2.370  -2.244  0.00  0.00    -0.082 A 
ATOM      7  C5  PXY d   1       2.036  -3.156  -3.310  0.00  0.00     0.003 A 
ATOM      8  C6  PXY d   1       0.715  -3.474  -3.611  0.00  0.00     0.003 A 
ENDROOT
TORSDOF 0
ENDMDL
