MODEL 1
REMARK minimizedAffinity 6.49275875
REMARK minimizedRMSD -1
REMARK  0 active torsions:
REMARK  status: ('A' for Active; 'I' for Inactive)
ROOT
ATOM      1  C4' PXY d   1       3.441  -4.146  -5.120  0.00  0.00     0.077 C 
ATOM      2  C1' PXY d   1      -2.308  -3.909  -4.562  0.00  0.00     0.077 C 
ATOM      3  C1  PXY d   1      -0.799  -3.963  -4.698  0.00  0.00    -0.082 A 
ATOM      4  C2  PXY d   1      -0.258  -4.272  -5.866  0.00  0.00     0.003 A 
ATOM      5  C3  PXY d   1       1.104  -4.357  -5.998  0.00  0.00     0.003 A 
ATOM      6  C4  PXY d   1       1.922  -4.070  -4.939  0.00  0.00    -0.082 A 
ATOM      7  C5  PXY d   1       1.378  -3.744  -3.747  0.00  0.00     0.003 A 
ATOM      8  C6  PXY d   1      -0.007  -3.703  -3.622  0.00  0.00     0.003 A 
ENDROOT
TORSDOF 0
ENDMDL
