MODEL 1
REMARK minimizedAffinity 1.67252338
REMARK minimizedRMSD -1
REMARK  0 active torsions:
REMARK  status: ('A' for Active; 'I' for Inactive)
ROOT
ATOM      1  C4' PXY d   1      -0.129  -1.277   5.946  0.00  0.00     0.077 C 
ATOM      2  C1' PXY d   1      -5.498   0.863   5.997  0.00  0.00     0.077 C 
ATOM      3  C1  PXY d   1      -4.095   0.291   5.989  0.00  0.00    -0.082 A 
ATOM      4  C2  PXY d   1      -3.055   1.109   5.965  0.00  0.00     0.003 A 
ATOM      5  C3  PXY d   1      -1.779   0.608   5.926  0.00  0.00     0.003 A 
ATOM      6  C4  PXY d   1      -1.564  -0.744   5.964  0.00  0.00    -0.082 A 
ATOM      7  C5  PXY d   1      -2.619  -1.585   6.000  0.00  0.00     0.003 A 
ATOM      8  C6  PXY d   1      -3.907  -1.057   5.998  0.00  0.00     0.003 A 
ENDROOT
TORSDOF 0
ENDMDL
