MODEL 1
REMARK minimizedAffinity 5.13356113
REMARK minimizedRMSD -1
REMARK  0 active torsions:
REMARK  status: ('A' for Active; 'I' for Inactive)
ROOT
ATOM      1  C4' PXY d   1       1.112  -2.599  -2.635  0.00  0.00     0.077 C 
ATOM      2  C1' PXY d   1      -3.529  -2.443   0.808  0.00  0.00     0.077 C 
ATOM      3  C1  PXY d   1      -2.319  -2.491  -0.104  0.00  0.00    -0.082 A 
ATOM      4  C2  PXY d   1      -1.106  -2.377   0.413  0.00  0.00     0.003 A 
ATOM      5  C3  PXY d   1      -0.002  -2.386  -0.401  0.00  0.00     0.003 A 
ATOM      6  C4  PXY d   1      -0.138  -2.566  -1.751  0.00  0.00    -0.082 A 
ATOM      7  C5  PXY d   1      -1.371  -2.694  -2.285  0.00  0.00     0.003 A 
ATOM      8  C6  PXY d   1      -2.481  -2.641  -1.447  0.00  0.00     0.003 A 
ENDROOT
TORSDOF 0
ENDMDL
