MODEL 1
REMARK minimizedAffinity 8.49681377
REMARK minimizedRMSD -1
REMARK  0 active torsions:
REMARK  status: ('A' for Active; 'I' for Inactive)
ROOT
ATOM      1  C4' PXY d   1       1.194  -3.734  -5.135  0.00  0.00     0.077 C 
ATOM      2  C1' PXY d   1      -1.176  -2.244  -0.077  0.00  0.00     0.077 C 
ATOM      3  C1  PXY d   1      -0.566  -2.639  -1.408  0.00  0.00    -0.082 A 
ATOM      4  C2  PXY d   1       0.732  -2.885  -1.485  0.00  0.00     0.003 A 
ATOM      5  C3  PXY d   1       1.305  -3.212  -2.687  0.00  0.00     0.003 A 
ATOM      6  C4  PXY d   1       0.533  -3.341  -3.810  0.00  0.00    -0.082 A 
ATOM      7  C5  PXY d   1      -0.794  -3.103  -3.737  0.00  0.00     0.003 A 
ATOM      8  C6  PXY d   1      -1.349  -2.732  -2.516  0.00  0.00     0.003 A 
ENDROOT
TORSDOF 0
ENDMDL
