MODEL 1
REMARK minimizedAffinity 8.36196041
REMARK minimizedRMSD -1
REMARK  0 active torsions:
REMARK  status: ('A' for Active; 'I' for Inactive)
ROOT
ATOM      1  C4' PXY d   1      -0.706  -2.533  -3.189  0.00  0.00     0.077 C 
ATOM      2  C1' PXY d   1      -0.868  -2.976   2.572  0.00  0.00     0.077 C 
ATOM      3  C1  PXY d   1      -0.835  -2.850   1.062  0.00  0.00    -0.082 A 
ATOM      4  C2  PXY d   1      -0.394  -3.862   0.331  0.00  0.00     0.003 A 
ATOM      5  C3  PXY d   1      -0.327  -3.754  -1.034  0.00  0.00     0.003 A 
ATOM      6  C4  PXY d   1      -0.766  -2.618  -1.661  0.00  0.00    -0.082 A 
ATOM      7  C5  PXY d   1      -1.227  -1.586  -0.924  0.00  0.00     0.003 A 
ATOM      8  C6  PXY d   1      -1.248  -1.700   0.463  0.00  0.00     0.003 A 
ENDROOT
TORSDOF 0
ENDMDL
