MODEL 1
REMARK minimizedAffinity 3.86845422
REMARK minimizedRMSD -1
REMARK  0 active torsions:
REMARK  status: ('A' for Active; 'I' for Inactive)
ROOT
ATOM      1  C4' PXY d   1       6.000  -5.948   5.989  0.00  0.00     0.077 C 
ATOM      2  C1' PXY d   1       3.136  -0.926   5.957  0.00  0.00     0.077 C 
ATOM      3  C1  PXY d   1       3.897  -2.237   5.960  0.00  0.00    -0.082 A 
ATOM      4  C2  PXY d   1       3.232  -3.380   5.935  0.00  0.00     0.003 A 
ATOM      5  C3  PXY d   1       3.904  -4.575   5.969  0.00  0.00     0.003 A 
ATOM      6  C4  PXY d   1       5.273  -4.600   5.977  0.00  0.00    -0.082 A 
ATOM      7  C5  PXY d   1       5.959  -3.438   5.992  0.00  0.00     0.003 A 
ATOM      8  C6  PXY d   1       5.258  -2.236   5.998  0.00  0.00     0.003 A 
ENDROOT
TORSDOF 0
ENDMDL
