MODEL 1
REMARK minimizedAffinity 3.8796339
REMARK minimizedRMSD -1
REMARK  0 active torsions:
REMARK  status: ('A' for Active; 'I' for Inactive)
ROOT
ATOM      1  C4' PXY d   1      -0.348  -5.998  -5.659  0.00  0.00     0.077 C 
ATOM      2  C1' PXY d   1      -0.098  -2.254  -1.262  0.00  0.00     0.077 C 
ATOM      3  C1  PXY d   1      -0.159  -3.245  -2.408  0.00  0.00    -0.082 A 
ATOM      4  C2  PXY d   1      -0.122  -2.806  -3.655  0.00  0.00     0.003 A 
ATOM      5  C3  PXY d   1      -0.208  -3.687  -4.703  0.00  0.00     0.003 A 
ATOM      6  C4  PXY d   1      -0.279  -5.034  -4.472  0.00  0.00    -0.082 A 
ATOM      7  C5  PXY d   1      -0.307  -5.490  -3.202  0.00  0.00     0.003 A 
ATOM      8  C6  PXY d   1      -0.260  -4.578  -2.152  0.00  0.00     0.003 A 
ENDROOT
TORSDOF 0
ENDMDL
