MODEL 1
REMARK minimizedAffinity 5.29313803
REMARK minimizedRMSD -1
REMARK  0 active torsions:
REMARK  status: ('A' for Active; 'I' for Inactive)
ROOT
ATOM      1  C4' PXY d   1      -3.836  -2.060   1.118  0.00  0.00     0.077 C 
ATOM      2  C1' PXY d   1       0.329  -2.452  -2.871  0.00  0.00     0.077 C 
ATOM      3  C1  PXY d   1      -0.772  -2.347  -1.834  0.00  0.00    -0.082 A 
ATOM      4  C2  PXY d   1      -0.465  -2.045  -0.583  0.00  0.00     0.003 A 
ATOM      5  C3  PXY d   1      -1.445  -1.977   0.374  0.00  0.00     0.003 A 
ATOM      6  C4  PXY d   1      -2.758  -2.168   0.036  0.00  0.00    -0.082 A 
ATOM      7  C5  PXY d   1      -3.080  -2.467  -1.241  0.00  0.00     0.003 A 
ATOM      8  C6  PXY d   1      -2.066  -2.571  -2.189  0.00  0.00     0.003 A 
ENDROOT
TORSDOF 0
ENDMDL
