MODEL 1
REMARK minimizedAffinity 13.4402752
REMARK minimizedRMSD -1
REMARK  0 active torsions:
REMARK  status: ('A' for Active; 'I' for Inactive)
ROOT
ATOM      1  C4' PXY d   1      -3.026   2.379   0.249  0.00  0.00     0.077 C 
ATOM      2  C1' PXY d   1       1.264   5.995   1.639  0.00  0.00     0.077 C 
ATOM      3  C1  PXY d   1       0.130   5.056   1.278  0.00  0.00    -0.082 A 
ATOM      4  C2  PXY d   1       0.341   3.750   1.267  0.00  0.00     0.003 A 
ATOM      5  C3  PXY d   1      -0.664   2.888   0.912  0.00  0.00     0.003 A 
ATOM      6  C4  PXY d   1      -1.913   3.364   0.616  0.00  0.00    -0.082 A 
ATOM      7  C5  PXY d   1      -2.139   4.695   0.636  0.00  0.00     0.003 A 
ATOM      8  C6  PXY d   1      -1.095   5.556   0.959  0.00  0.00     0.003 A 
ENDROOT
TORSDOF 0
ENDMDL
