MODEL 1
REMARK minimizedAffinity 7.28062057
REMARK minimizedRMSD -1
REMARK  0 active torsions:
REMARK  status: ('A' for Active; 'I' for Inactive)
ROOT
ATOM      1  C4' PXY d   1      -5.376   3.679   5.990  0.00  0.00     0.077 C 
ATOM      2  C1' PXY d   1      -2.477  -1.300   5.516  0.00  0.00     0.077 C 
ATOM      3  C1  PXY d   1      -3.226   0.012   5.643  0.00  0.00    -0.082 A 
ATOM      4  C2  PXY d   1      -4.522   0.002   5.911  0.00  0.00     0.003 A 
ATOM      5  C3  PXY d   1      -5.222   1.178   5.998  0.00  0.00     0.003 A 
ATOM      6  C4  PXY d   1      -4.578   2.379   5.862  0.00  0.00    -0.082 A 
ATOM      7  C5  PXY d   1      -3.254   2.398   5.599  0.00  0.00     0.003 A 
ATOM      8  C6  PXY d   1      -2.570   1.192   5.473  0.00  0.00     0.003 A 
ENDROOT
TORSDOF 0
ENDMDL
