MODEL 1
REMARK minimizedAffinity 17.6862659
REMARK minimizedRMSD -1
REMARK  0 active torsions:
REMARK  status: ('A' for Active; 'I' for Inactive)
ROOT
ATOM      1  C4' PXY d   1       0.464  -2.595   1.971  0.00  0.00     0.077 C 
ATOM      2  C1' PXY d   1      -1.136  -2.533  -3.583  0.00  0.00     0.077 C 
ATOM      3  C1  PXY d   1      -0.716  -2.536  -2.126  0.00  0.00    -0.082 A 
ATOM      4  C2  PXY d   1      -0.096  -3.592  -1.627  0.00  0.00     0.003 A 
ATOM      5  C3  PXY d   1       0.263  -3.625  -0.304  0.00  0.00     0.003 A 
ATOM      6  C4  PXY d   1       0.031  -2.544   0.504  0.00  0.00    -0.082 A 
ATOM      7  C5  PXY d   1      -0.593  -1.458  -0.001  0.00  0.00     0.003 A 
ATOM      8  C6  PXY d   1      -0.985  -1.461  -1.336  0.00  0.00     0.003 A 
ENDROOT
TORSDOF 0
ENDMDL
