MODEL 1
REMARK minimizedAffinity 6.76123428
REMARK minimizedRMSD -1
REMARK  0 active torsions:
REMARK  status: ('A' for Active; 'I' for Inactive)
ROOT
ATOM      1  C4' PXY d   1      -0.394  -1.858  -0.379  0.00  0.00     0.077 C 
ATOM      2  C1' PXY d   1      -0.595  -3.209  -5.996  0.00  0.00     0.077 C 
ATOM      3  C1  PXY d   1      -0.532  -2.862  -4.522  0.00  0.00    -0.082 A 
ATOM      4  C2  PXY d   1      -1.632  -2.487  -3.890  0.00  0.00     0.003 A 
ATOM      5  C3  PXY d   1      -1.587  -2.139  -2.564  0.00  0.00     0.003 A 
ATOM      6  C4  PXY d   1      -0.413  -2.227  -1.865  0.00  0.00    -0.082 A 
ATOM      7  C5  PXY d   1       0.712  -2.618  -2.500  0.00  0.00     0.003 A 
ATOM      8  C6  PXY d   1       0.653  -2.928  -3.856  0.00  0.00     0.003 A 
ENDROOT
TORSDOF 0
ENDMDL
