MODEL 1
REMARK minimizedAffinity 11.6837616
REMARK minimizedRMSD -1
REMARK  0 active torsions:
REMARK  status: ('A' for Active; 'I' for Inactive)
ROOT
ATOM      1  C4' PXY d   1      -1.222  -3.644  -5.500  0.00  0.00     0.077 C 
ATOM      2  C1' PXY d   1      -0.347  -2.437   0.085  0.00  0.00     0.077 C 
ATOM      3  C1  PXY d   1      -0.589  -2.756  -1.378  0.00  0.00    -0.082 A 
ATOM      4  C2  PXY d   1       0.424  -3.133  -2.141  0.00  0.00     0.003 A 
ATOM      5  C3  PXY d   1       0.228  -3.394  -3.473  0.00  0.00     0.003 A 
ATOM      6  C4  PXY d   1      -1.026  -3.321  -4.017  0.00  0.00    -0.082 A 
ATOM      7  C5  PXY d   1      -2.066  -2.947  -3.242  0.00  0.00     0.003 A 
ATOM      8  C6  PXY d   1      -1.840  -2.646  -1.902  0.00  0.00     0.003 A 
ENDROOT
TORSDOF 0
ENDMDL
