MODEL 1
REMARK minimizedAffinity 4.66372252
REMARK minimizedRMSD -1
REMARK  1 active torsions:
REMARK  status: ('A' for Active; 'I' for Inactive)
REMARK    1  A    between atoms: C1_2  and  C2_3 
ROOT
ATOM      1  C2  UNL d   1      -1.583   2.134   2.252  0.00  0.00    -0.073 A 
ATOM      2  C3  UNL d   1      -1.438   2.970   1.139  0.00  0.00    -0.002 A 
ATOM      3  C4  UNL d   1      -1.585   2.458  -0.151  0.00  0.00     0.004 A 
ATOM      4  C5  UNL d   1      -1.886   1.109  -0.341  0.00  0.00    -0.004 A 
ATOM      5  C6  UNL d   1      -2.047   0.261   0.759  0.00  0.00    -0.075 A 
ATOM      6  C7  UNL d   1      -2.369  -1.193   0.571  0.00  0.00     0.076 C 
ATOM      7  C8  UNL d   1      -1.895   0.782   2.051  0.00  0.00     0.001 A 
ENDROOT
BRANCH   1   8
ATOM      8  C1  UNL d   1      -1.431   2.684   3.646  0.00  0.00     0.053 C 
ATOM      9  C   UNL d   1      -2.615   3.548   4.051  0.00  0.00     0.018 C 
ENDBRANCH   1   8
TORSDOF 1
ENDMDL
