MODEL 1
REMARK minimizedAffinity 6.09378099
REMARK minimizedRMSD -1
REMARK  1 active torsions:
REMARK  status: ('A' for Active; 'I' for Inactive)
REMARK    1  A    between atoms: C1_2  and  C2_3 
ROOT
ATOM      1  C2  UNL d   1       0.557   1.242  -5.369  0.00  0.00    -0.073 A 
ATOM      2  C3  UNL d   1       1.241   2.288  -5.999  0.00  0.00    -0.002 A 
ATOM      3  C4  UNL d   1       2.600   2.491  -5.751  0.00  0.00     0.004 A 
ATOM      4  C5  UNL d   1       3.288   1.648  -4.878  0.00  0.00    -0.004 A 
ATOM      5  C6  UNL d   1       2.624   0.591  -4.249  0.00  0.00    -0.075 A 
ATOM      6  C7  UNL d   1       3.349  -0.323  -3.305  0.00  0.00     0.076 C 
ATOM      7  C8  UNL d   1       1.259   0.395  -4.500  0.00  0.00     0.001 A 
ENDROOT
BRANCH   1   8
ATOM      8  C1  UNL d   1      -0.909   1.015  -5.638  0.00  0.00     0.053 C 
ATOM      9  C   UNL d   1      -1.628   2.305  -5.999  0.00  0.00     0.018 C 
ENDBRANCH   1   8
TORSDOF 1
ENDMDL
