MODEL 1
REMARK minimizedAffinity 20.9942017
REMARK minimizedRMSD -1
REMARK  1 active torsions:
REMARK  status: ('A' for Active; 'I' for Inactive)
REMARK    1  A    between atoms: C1_2  and  C2_3 
ROOT
ATOM      1  C2  UNL d   1      -3.556  -1.548   2.157  0.00  0.00    -0.073 A 
ATOM      2  C3  UNL d   1      -3.411  -1.544   0.765  0.00  0.00    -0.002 A 
ATOM      3  C4  UNL d   1      -2.789  -0.471   0.125  0.00  0.00     0.004 A 
ATOM      4  C5  UNL d   1      -2.300   0.603   0.869  0.00  0.00    -0.004 A 
ATOM      5  C6  UNL d   1      -2.426   0.611   2.262  0.00  0.00    -0.075 A 
ATOM      6  C7  UNL d   1      -1.908   1.760   3.076  0.00  0.00     0.076 C 
ATOM      7  C8  UNL d   1      -3.054  -0.468   2.897  0.00  0.00     0.001 A 
ENDROOT
BRANCH   1   8
ATOM      8  C1  UNL d   1      -4.221  -2.707   2.853  0.00  0.00     0.053 C 
ATOM      9  C   UNL d   1      -5.664  -2.399   3.222  0.00  0.00     0.018 C 
ENDBRANCH   1   8
TORSDOF 1
ENDMDL
