MODEL 1
REMARK minimizedAffinity -4.07070732
REMARK minimizedRMSD -1
REMARK  1 active torsions:
REMARK  status: ('A' for Active; 'I' for Inactive)
REMARK    1  A    between atoms: C1_2  and  C2_3 
ROOT
ATOM      1  C2  UNL d   1       0.404   0.574   0.077  0.00  0.00    -0.073 A 
ATOM      2  C3  UNL d   1       1.707   0.217   0.445  0.00  0.00    -0.002 A 
ATOM      3  C4  UNL d   1       2.689   1.196   0.599  0.00  0.00     0.004 A 
ATOM      4  C5  UNL d   1       2.378   2.541   0.396  0.00  0.00    -0.004 A 
ATOM      5  C6  UNL d   1       1.080   2.918   0.040  0.00  0.00    -0.075 A 
ATOM      6  C7  UNL d   1       0.730   4.360  -0.184  0.00  0.00     0.076 C 
ATOM      7  C8  UNL d   1       0.099   1.929  -0.116  0.00  0.00     0.001 A 
ENDROOT
BRANCH   1   8
ATOM      8  C1  UNL d   1      -0.661  -0.479  -0.085  0.00  0.00     0.053 C 
ATOM      9  C   UNL d   1      -0.075  -1.830  -0.461  0.00  0.00     0.018 C 
ENDBRANCH   1   8
TORSDOF 1
ENDMDL
