MODEL 1
REMARK minimizedAffinity -5.78499413
REMARK minimizedRMSD -1
REMARK  1 active torsions:
REMARK  status: ('A' for Active; 'I' for Inactive)
REMARK    1  A    between atoms: C1_2  and  C2_3 
ROOT
ATOM      1  C2  UNL d   1      -0.323  -2.248  -0.422  0.00  0.00    -0.073 A 
ATOM      2  C3  UNL d   1       0.180  -2.580  -1.686  0.00  0.00    -0.002 A 
ATOM      3  C4  UNL d   1      -0.400  -3.611  -2.426  0.00  0.00     0.004 A 
ATOM      4  C5  UNL d   1      -1.491  -4.314  -1.915  0.00  0.00    -0.004 A 
ATOM      5  C6  UNL d   1      -2.015  -3.989  -0.660  0.00  0.00    -0.075 A 
ATOM      6  C7  UNL d   1      -3.187  -4.737  -0.096  0.00  0.00     0.076 C 
ATOM      7  C8  UNL d   1      -1.426  -2.954   0.078  0.00  0.00     0.001 A 
ENDROOT
BRANCH   1   8
ATOM      8  C1  UNL d   1       0.296  -1.131   0.378  0.00  0.00     0.053 C 
ATOM      9  C   UNL d   1       1.816  -1.179   0.343  0.00  0.00     0.018 C 
ENDBRANCH   1   8
TORSDOF 1
ENDMDL
