MODEL 1
REMARK minimizedAffinity 6.1164999
REMARK minimizedRMSD -1
REMARK  1 active torsions:
REMARK  status: ('A' for Active; 'I' for Inactive)
REMARK    1  A    between atoms: C1_2  and  C2_3 
ROOT
ATOM      1  C2  UNL d   1      -1.491  -2.011  -0.890  0.00  0.00    -0.073 A 
ATOM      2  C3  UNL d   1      -0.621  -2.913  -1.514  0.00  0.00    -0.002 A 
ATOM      3  C4  UNL d   1      -1.105  -4.112  -2.037  0.00  0.00     0.004 A 
ATOM      4  C5  UNL d   1      -2.463  -4.419  -1.950  0.00  0.00    -0.004 A 
ATOM      5  C6  UNL d   1      -3.351  -3.525  -1.342  0.00  0.00    -0.075 A 
ATOM      6  C7  UNL d   1      -4.814  -3.841  -1.238  0.00  0.00     0.076 C 
ATOM      7  C8  UNL d   1      -2.856  -2.324  -0.816  0.00  0.00     0.001 A 
ENDROOT
BRANCH   1   8
ATOM      8  C1  UNL d   1      -0.974  -0.712  -0.329  0.00  0.00     0.053 C 
ATOM      9  C   UNL d   1      -2.098   0.268  -0.031  0.00  0.00     0.018 C 
ENDBRANCH   1   8
TORSDOF 1
ENDMDL
