MODEL 1
REMARK minimizedAffinity -3.49585915
REMARK minimizedRMSD -1
REMARK  1 active torsions:
REMARK  status: ('A' for Active; 'I' for Inactive)
REMARK    1  A    between atoms: C1_2  and  C2_3 
ROOT
ATOM      1  C2  UNL d   1      -0.717  -2.870  -1.711  0.00  0.00    -0.073 A 
ATOM      2  C3  UNL d   1       0.424  -2.355  -2.337  0.00  0.00    -0.002 A 
ATOM      3  C4  UNL d   1       0.916  -1.098  -1.984  0.00  0.00     0.004 A 
ATOM      4  C5  UNL d   1       0.277  -0.346  -0.998  0.00  0.00    -0.004 A 
ATOM      5  C6  UNL d   1      -0.857  -0.848  -0.352  0.00  0.00    -0.075 A 
ATOM      6  C7  UNL d   1      -1.557  -0.051   0.709  0.00  0.00     0.076 C 
ATOM      7  C8  UNL d   1      -1.347  -2.110  -0.715  0.00  0.00     0.001 A 
ENDROOT
BRANCH   1   8
ATOM      8  C1  UNL d   1      -1.248  -4.230  -2.084  0.00  0.00     0.053 C 
ATOM      9  C   UNL d   1      -2.627  -4.484  -1.497  0.00  0.00     0.018 C 
ENDBRANCH   1   8
TORSDOF 1
ENDMDL
