MODEL 1
REMARK minimizedAffinity -4.70393801
REMARK minimizedRMSD -1
REMARK  1 active torsions:
REMARK  status: ('A' for Active; 'I' for Inactive)
REMARK    1  A    between atoms: C1_2  and  C2_3 
ROOT
ATOM      1  C2  UNL d   1      -0.142   0.099   0.448  0.00  0.00    -0.081 A 
ATOM      2  C3  UNL d   1       0.380   1.325   0.019  0.00  0.00     0.006 A 
ATOM      3  C4  UNL d   1       1.137   1.402  -1.152  0.00  0.00     0.002 A 
ATOM      4  C5  UNL d   1       1.379   0.256  -1.917  0.00  0.00    -0.080 A 
ATOM      5  C6  UNL d   1       2.166   0.330  -3.192  0.00  0.00     0.076 C 
ATOM      6  C7  UNL d   1       0.873  -0.972  -1.480  0.00  0.00     0.002 A 
ATOM      7  C8  UNL d   1       0.116  -1.050  -0.309  0.00  0.00     0.006 A 
ENDROOT
BRANCH   1   8
ATOM      8  C1  UNL d   1      -1.014   0.023   1.675  0.00  0.00     0.054 C 
ATOM      9  C   UNL d   1      -2.456   0.387   1.352  0.00  0.00     0.018 C 
ENDBRANCH   1   8
TORSDOF 1
ENDMDL
