MODEL 1
REMARK minimizedAffinity -3.57003784
REMARK minimizedRMSD -1
REMARK  1 active torsions:
REMARK  status: ('A' for Active; 'I' for Inactive)
REMARK    1  A    between atoms: C1_2  and  C2_3 
ROOT
ATOM      1  C2  UNL d   1      -0.590   0.164   0.959  0.00  0.00    -0.081 A 
ATOM      2  C3  UNL d   1      -0.148   1.364   0.389  0.00  0.00     0.006 A 
ATOM      3  C4  UNL d   1       0.660   1.352  -0.751  0.00  0.00     0.002 A 
ATOM      4  C5  UNL d   1       1.031   0.141  -1.344  0.00  0.00    -0.080 A 
ATOM      5  C6  UNL d   1       1.873   0.114  -2.585  0.00  0.00     0.076 C 
ATOM      6  C7  UNL d   1       0.604  -1.059  -0.765  0.00  0.00     0.002 A 
ATOM      7  C8  UNL d   1      -0.203  -1.047   0.375  0.00  0.00     0.006 A 
ENDROOT
BRANCH   1   8
ATOM      8  C1  UNL d   1      -1.514   0.176   2.149  0.00  0.00     0.054 C 
ATOM      9  C   UNL d   1      -2.923   0.595   1.753  0.00  0.00     0.018 C 
ENDBRANCH   1   8
TORSDOF 1
ENDMDL
