MODEL 1
REMARK minimizedAffinity -5.49994898
REMARK minimizedRMSD -1
REMARK  1 active torsions:
REMARK  status: ('A' for Active; 'I' for Inactive)
REMARK    1  A    between atoms: C1_2  and  C2_3 
ROOT
ATOM      1  C2  UNL d   1       0.753  -0.675  -1.050  0.00  0.00    -0.081 A 
ATOM      2  C3  UNL d   1       1.640   0.142  -1.760  0.00  0.00     0.006 A 
ATOM      3  C4  UNL d   1       1.827   1.476  -1.389  0.00  0.00     0.002 A 
ATOM      4  C5  UNL d   1       1.136   2.012  -0.297  0.00  0.00    -0.080 A 
ATOM      5  C6  UNL d   1       1.350   3.433   0.132  0.00  0.00     0.076 C 
ATOM      6  C7  UNL d   1       0.236   1.200   0.402  0.00  0.00     0.002 A 
ATOM      7  C8  UNL d   1       0.048  -0.133   0.031  0.00  0.00     0.006 A 
ENDROOT
BRANCH   1   8
ATOM      8  C1  UNL d   1       0.598  -2.131  -1.408  0.00  0.00     0.054 C 
ATOM      9  C   UNL d   1       0.636  -3.013  -0.169  0.00  0.00     0.018 C 
ENDBRANCH   1   8
TORSDOF 1
ENDMDL
