MODEL 1
REMARK minimizedAffinity -6.03475857
REMARK minimizedRMSD -1
REMARK  1 active torsions:
REMARK  status: ('A' for Active; 'I' for Inactive)
REMARK    1  A    between atoms: C1_2  and  C2_3 
ROOT
ATOM      1  C2  UNL d   1       1.415  -0.967  -1.493  0.00  0.00    -0.081 A 
ATOM      2  C3  UNL d   1       2.112  -0.018  -2.252  0.00  0.00     0.006 A 
ATOM      3  C4  UNL d   1       2.063   1.336  -1.911  0.00  0.00     0.002 A 
ATOM      4  C5  UNL d   1       1.324   1.763  -0.803  0.00  0.00    -0.080 A 
ATOM      5  C6  UNL d   1       1.288   3.209  -0.409  0.00  0.00     0.076 C 
ATOM      6  C7  UNL d   1       0.613   0.817  -0.056  0.00  0.00     0.002 A 
ATOM      7  C8  UNL d   1       0.661  -0.536  -0.396  0.00  0.00     0.006 A 
ENDROOT
BRANCH   1   8
ATOM      8  C1  UNL d   1       1.518  -2.435  -1.820  0.00  0.00     0.054 C 
ATOM      9  C   UNL d   1       2.727  -3.068  -1.145  0.00  0.00     0.018 C 
ENDBRANCH   1   8
TORSDOF 1
ENDMDL
