MODEL 1
REMARK minimizedAffinity -4.67026472
REMARK minimizedRMSD -1
REMARK  1 active torsions:
REMARK  status: ('A' for Active; 'I' for Inactive)
REMARK    1  A    between atoms: C1_2  and  C2_3 
ROOT
ATOM      1  C2  UNL d   1       1.316   0.519  -1.259  0.00  0.00    -0.081 A 
ATOM      2  C3  UNL d   1       1.384   1.318  -0.111  0.00  0.00     0.006 A 
ATOM      3  C4  UNL d   1       0.434   1.182   0.903  0.00  0.00     0.002 A 
ATOM      4  C5  UNL d   1      -0.595   0.240   0.791  0.00  0.00    -0.080 A 
ATOM      5  C6  UNL d   1      -1.604   0.063   1.886  0.00  0.00     0.076 C 
ATOM      6  C7  UNL d   1      -0.673  -0.546  -0.364  0.00  0.00     0.002 A 
ATOM      7  C8  UNL d   1       0.277  -0.410  -1.379  0.00  0.00     0.006 A 
ENDROOT
BRANCH   1   8
ATOM      8  C1  UNL d   1       2.377   0.619  -2.326  0.00  0.00     0.054 C 
ATOM      9  C   UNL d   1       1.935  -0.066  -3.611  0.00  0.00     0.018 C 
ENDBRANCH   1   8
TORSDOF 1
ENDMDL
