MODEL 1
REMARK minimizedAffinity -4.93225241
REMARK minimizedRMSD -1
REMARK  1 active torsions:
REMARK  status: ('A' for Active; 'I' for Inactive)
REMARK    1  A    between atoms: C1_2  and  C2_3 
ROOT
ATOM      1  C2  UNL d   1       1.543  -0.584  -1.513  0.00  0.00    -0.081 A 
ATOM      2  C3  UNL d   1       1.256   0.755  -1.224  0.00  0.00     0.006 A 
ATOM      3  C4  UNL d   1       0.302   1.083  -0.259  0.00  0.00     0.002 A 
ATOM      4  C5  UNL d   1      -0.376   0.078   0.439  0.00  0.00    -0.080 A 
ATOM      5  C6  UNL d   1      -1.382   0.416   1.500  0.00  0.00     0.076 C 
ATOM      6  C7  UNL d   1      -0.103  -1.261   0.138  0.00  0.00     0.002 A 
ATOM      7  C8  UNL d   1       0.851  -1.589  -0.828  0.00  0.00     0.006 A 
ENDROOT
BRANCH   1   8
ATOM      8  C1  UNL d   1       2.618  -0.941  -2.508  0.00  0.00     0.054 C 
ATOM      9  C   UNL d   1       3.974  -1.080  -1.830  0.00  0.00     0.018 C 
ENDBRANCH   1   8
TORSDOF 1
ENDMDL
