MODEL 1
REMARK minimizedAffinity -3.41204834
REMARK minimizedRMSD -1
REMARK  1 active torsions:
REMARK  status: ('A' for Active; 'I' for Inactive)
REMARK    1  A    between atoms: C1_2  and  C2_3 
ROOT
ATOM      1  C2  UNL d   1      -0.237   0.062   0.412  0.00  0.00    -0.081 A 
ATOM      2  C3  UNL d   1       0.453   1.262   0.194  0.00  0.00     0.006 A 
ATOM      3  C4  UNL d   1       1.220   1.438  -0.960  0.00  0.00     0.002 A 
ATOM      4  C5  UNL d   1       1.305   0.422  -1.918  0.00  0.00    -0.080 A 
ATOM      5  C6  UNL d   1       2.100   0.610  -3.176  0.00  0.00     0.076 C 
ATOM      6  C7  UNL d   1       0.630  -0.783  -1.693  0.00  0.00     0.002 A 
ATOM      7  C8  UNL d   1      -0.137  -0.960  -0.539  0.00  0.00     0.006 A 
ENDROOT
BRANCH   1   8
ATOM      8  C1  UNL d   1      -1.117  -0.106   1.623  0.00  0.00     0.054 C 
ATOM      9  C   UNL d   1      -2.563   0.252   1.311  0.00  0.00     0.018 C 
ENDBRANCH   1   8
TORSDOF 1
ENDMDL
