MODEL 1
REMARK minimizedAffinity -4.99758673
REMARK minimizedRMSD -1
REMARK  1 active torsions:
REMARK  status: ('A' for Active; 'I' for Inactive)
REMARK    1  A    between atoms: C1_2  and  C2_3 
ROOT
ATOM      1  C2  UNL d   1      -0.594   0.002   1.372  0.00  0.00    -0.081 A 
ATOM      2  C3  UNL d   1       0.097   1.183   1.074  0.00  0.00     0.006 A 
ATOM      3  C4  UNL d   1       0.855   1.285  -0.094  0.00  0.00     0.002 A 
ATOM      4  C5  UNL d   1       0.929   0.211  -0.988  0.00  0.00    -0.080 A 
ATOM      5  C6  UNL d   1       1.715   0.318  -2.261  0.00  0.00     0.076 C 
ATOM      6  C7  UNL d   1       0.253  -0.975  -0.682  0.00  0.00     0.002 A 
ATOM      7  C8  UNL d   1      -0.504  -1.077   0.487  0.00  0.00     0.006 A 
ENDROOT
BRANCH   1   8
ATOM      8  C1  UNL d   1      -1.464  -0.088   2.599  0.00  0.00     0.054 C 
ATOM      9  C   UNL d   1      -2.905   0.291   2.285  0.00  0.00     0.018 C 
ENDBRANCH   1   8
TORSDOF 1
ENDMDL
