MODEL 1
REMARK minimizedAffinity -4.5917573
REMARK minimizedRMSD -1
REMARK  1 active torsions:
REMARK  status: ('A' for Active; 'I' for Inactive)
REMARK    1  A    between atoms: C1_2  and  C2_3 
ROOT
ATOM      1  C2  UNL d   1      -0.678  -0.284   0.748  0.00  0.00    -0.081 A 
ATOM      2  C3  UNL d   1       0.090   0.629   0.015  0.00  0.00     0.006 A 
ATOM      3  C4  UNL d   1       0.902   0.191  -1.034  0.00  0.00     0.002 A 
ATOM      4  C5  UNL d   1       0.953  -1.166  -1.372  0.00  0.00    -0.080 A 
ATOM      5  C6  UNL d   1       1.797  -1.645  -2.516  0.00  0.00     0.076 C 
ATOM      6  C7  UNL d   1       0.200  -2.081  -0.629  0.00  0.00     0.002 A 
ATOM      7  C8  UNL d   1      -0.611  -1.643   0.420  0.00  0.00     0.006 A 
ENDROOT
BRANCH   1   8
ATOM      8  C1  UNL d   1      -1.603   0.193   1.838  0.00  0.00     0.054 C 
ATOM      9  C   UNL d   1      -3.055   0.170   1.381  0.00  0.00     0.018 C 
ENDBRANCH   1   8
TORSDOF 1
ENDMDL
