MODEL 1
REMARK minimizedAffinity -5.64103222
REMARK minimizedRMSD -1
REMARK  1 active torsions:
REMARK  status: ('A' for Active; 'I' for Inactive)
REMARK    1  A    between atoms: C1_2  and  C2_3 
ROOT
ATOM      1  C2  UNL d   1       1.087  -0.675  -1.535  0.00  0.00    -0.081 A 
ATOM      2  C3  UNL d   1       2.129   0.132  -2.009  0.00  0.00     0.006 A 
ATOM      3  C4  UNL d   1       2.398   1.365  -1.409  0.00  0.00     0.002 A 
ATOM      4  C5  UNL d   1       1.636   1.807  -0.322  0.00  0.00    -0.080 A 
ATOM      5  C6  UNL d   1       1.934   3.114   0.349  0.00  0.00     0.076 C 
ATOM      6  C7  UNL d   1       0.585   1.008   0.140  0.00  0.00     0.002 A 
ATOM      7  C8  UNL d   1       0.315  -0.224  -0.459  0.00  0.00     0.006 A 
ENDROOT
BRANCH   1   8
ATOM      8  C1  UNL d   1       0.836  -2.034  -2.137  0.00  0.00     0.054 C 
ATOM      9  C   UNL d   1       0.824  -3.119  -1.070  0.00  0.00     0.018 C 
ENDBRANCH   1   8
TORSDOF 1
ENDMDL
