MODEL 1
REMARK minimizedAffinity -3.8397243
REMARK minimizedRMSD -1
REMARK  1 active torsions:
REMARK  status: ('A' for Active; 'I' for Inactive)
REMARK    1  A    between atoms: C1_2  and  C2_3 
ROOT
ATOM      1  C2  UNL d   1      -0.217  -0.094   0.817  0.00  0.00    -0.081 A 
ATOM      2  C3  UNL d   1       0.540   1.041   0.503  0.00  0.00     0.006 A 
ATOM      3  C4  UNL d   1       1.285   1.092  -0.678  0.00  0.00     0.002 A 
ATOM      4  C5  UNL d   1       1.280   0.012  -1.567  0.00  0.00    -0.080 A 
ATOM      5  C6  UNL d   1       2.052   0.065  -2.852  0.00  0.00     0.076 C 
ATOM      6  C7  UNL d   1       0.538  -1.130  -1.245  0.00  0.00     0.002 A 
ATOM      7  C8  UNL d   1      -0.207  -1.181  -0.065  0.00  0.00     0.006 A 
ENDROOT
BRANCH   1   8
ATOM      8  C1  UNL d   1      -1.073  -0.126   2.057  0.00  0.00     0.054 C 
ATOM      9  C   UNL d   1      -2.550   0.004   1.713  0.00  0.00     0.018 C 
ENDBRANCH   1   8
TORSDOF 1
ENDMDL
