MODEL 1
REMARK minimizedAffinity -3.56425214
REMARK minimizedRMSD -1
REMARK  1 active torsions:
REMARK  status: ('A' for Active; 'I' for Inactive)
REMARK    1  A    between atoms: C1_2  and  C2_3 
ROOT
ATOM      1  C2  UNL d   1       0.748   1.533   0.464  0.00  0.00    -0.081 A 
ATOM      2  C3  UNL d   1      -0.084   0.608   1.107  0.00  0.00     0.006 A 
ATOM      3  C4  UNL d   1      -0.339  -0.637   0.528  0.00  0.00     0.002 A 
ATOM      4  C5  UNL d   1       0.239  -0.981  -0.698  0.00  0.00    -0.080 A 
ATOM      5  C6  UNL d   1      -0.003  -2.327  -1.316  0.00  0.00     0.076 C 
ATOM      6  C7  UNL d   1       1.055  -0.051  -1.350  0.00  0.00     0.002 A 
ATOM      7  C8  UNL d   1       1.310   1.195  -0.771  0.00  0.00     0.006 A 
ENDROOT
BRANCH   1   8
ATOM      8  C1  UNL d   1       1.077   2.851   1.117  0.00  0.00     0.054 C 
ATOM      9  C   UNL d   1       1.437   3.907   0.081  0.00  0.00     0.018 C 
ENDBRANCH   1   8
TORSDOF 1
ENDMDL
