MODEL 1
REMARK minimizedAffinity -5.39043188
REMARK minimizedRMSD -1
REMARK  0 active torsions:
REMARK  status: ('A' for Active; 'I' for Inactive)
ROOT
ATOM      1  N1  IND d   1      -3.947  -0.527   4.439  0.00  0.00    -0.196 N 
ATOM      2  C2  IND d   1      -4.519  -1.520   3.694  0.00  0.00     0.054 A 
ATOM      3  C3  IND d   1      -4.090  -1.455   2.414  0.00  0.00    -0.031 A 
ATOM      4  C4  IND d   1      -2.372   0.137   1.345  0.00  0.00     0.051 A 
ATOM      5  C5  IND d   1      -1.606   1.236   1.617  0.00  0.00    -0.031 A 
ATOM      6  C6  IND d   1      -1.579   1.813   2.870  0.00  0.00     0.015 A 
ATOM      7  C7  IND d   1      -2.311   1.304   3.905  0.00  0.00    -0.016 A 
ATOM      8  C8  IND d   1      -3.095   0.192   3.631  0.00  0.00    -0.047 A 
ATOM      9  C9  IND d   1      -3.160  -0.372   2.350  0.00  0.00    -0.096 A 
ATOM     10  HN1 IND d   1      -4.094  -0.377   5.273  0.00  0.00     0.298 HD
ENDROOT
TORSDOF 0
ENDMDL
