MODEL 1
REMARK minimizedAffinity -2.06532121
REMARK minimizedRMSD -1
REMARK  0 active torsions:
REMARK  status: ('A' for Active; 'I' for Inactive)
ROOT
ATOM      1  N1  IND d   1      -0.411  -1.121  -0.197  0.00  0.00    -0.196 N 
ATOM      2  C2  IND d   1      -1.273  -0.083   0.021  0.00  0.00     0.054 A 
ATOM      3  C3  IND d   1      -0.727   1.079  -0.402  0.00  0.00    -0.031 A 
ATOM      4  C4  IND d   1       1.527   1.495  -1.575  0.00  0.00     0.051 A 
ATOM      5  C5  IND d   1       2.675   0.861  -1.958  0.00  0.00    -0.031 A 
ATOM      6  C6  IND d   1       2.856  -0.494  -1.773  0.00  0.00     0.015 A 
ATOM      7  C7  IND d   1       1.886  -1.271  -1.205  0.00  0.00    -0.016 A 
ATOM      8  C8  IND d   1       0.722  -0.629  -0.808  0.00  0.00    -0.047 A 
ATOM      9  C9  IND d   1       0.549   0.753  -0.955  0.00  0.00    -0.096 A 
ATOM     10  HN1 IND d   1      -0.552  -1.943   0.012  0.00  0.00     0.298 HD
ENDROOT
TORSDOF 0
ENDMDL
