MODEL 1
REMARK minimizedAffinity -2.25891519
REMARK minimizedRMSD -1
REMARK  0 active torsions:
REMARK  status: ('A' for Active; 'I' for Inactive)
ROOT
ATOM      1  N1  IND d   1      -0.287   1.353   0.545  0.00  0.00    -0.196 N 
ATOM      2  C2  IND d   1      -0.459   0.410  -0.431  0.00  0.00     0.054 A 
ATOM      3  C3  IND d   1      -1.331  -0.538  -0.021  0.00  0.00    -0.031 A 
ATOM      4  C4  IND d   1      -2.674  -0.687   2.171  0.00  0.00     0.051 A 
ATOM      5  C5  IND d   1      -2.827  -0.077   3.384  0.00  0.00    -0.031 A 
ATOM      6  C6  IND d   1      -2.129   1.065   3.719  0.00  0.00     0.015 A 
ATOM      7  C7  IND d   1      -1.257   1.649   2.844  0.00  0.00    -0.016 A 
ATOM      8  C8  IND d   1      -1.094   1.029   1.614  0.00  0.00    -0.047 A 
ATOM      9  C9  IND d   1      -1.767  -0.155   1.285  0.00  0.00    -0.096 A 
ATOM     10  HN1 IND d   1       0.236   2.033   0.498  0.00  0.00     0.298 HD
ENDROOT
TORSDOF 0
ENDMDL
