MODEL 1
REMARK minimizedAffinity 10.1430368
REMARK minimizedRMSD -1
REMARK  0 active torsions:
REMARK  status: ('A' for Active; 'I' for Inactive)
ROOT
ATOM      1  N1  IND d   1      -1.111  -3.122  -1.431  0.00  0.00    -0.196 N 
ATOM      2  C2  IND d   1      -2.300  -2.528  -1.111  0.00  0.00     0.054 A 
ATOM      3  C3  IND d   1      -2.104  -1.232  -0.780  0.00  0.00    -0.031 A 
ATOM      4  C4  IND d   1       0.068   0.149  -0.791  0.00  0.00     0.051 A 
ATOM      5  C5  IND d   1       1.417   0.033  -0.977  0.00  0.00    -0.031 A 
ATOM      6  C6  IND d   1       2.004  -1.164  -1.333  0.00  0.00     0.015 A 
ATOM      7  C7  IND d   1       1.259  -2.292  -1.529  0.00  0.00    -0.016 A 
ATOM      8  C8  IND d   1      -0.111  -2.180  -1.335  0.00  0.00    -0.047 A 
ATOM      9  C9  IND d   1      -0.707  -0.978  -0.931  0.00  0.00    -0.096 A 
ATOM     10  HN1 IND d   1      -1.006  -3.946  -1.654  0.00  0.00     0.298 HD
ENDROOT
TORSDOF 0
ENDMDL
