MODEL 1
REMARK minimizedAffinity -3.26495719
REMARK minimizedRMSD -1
REMARK  0 active torsions:
REMARK  status: ('A' for Active; 'I' for Inactive)
ROOT
ATOM      1  N1  IND d   1      -1.375  -0.489   0.066  0.00  0.00    -0.196 N 
ATOM      2  C2  IND d   1      -1.651   0.834   0.277  0.00  0.00     0.054 A 
ATOM      3  C3  IND d   1      -0.582   1.595  -0.049  0.00  0.00    -0.031 A 
ATOM      4  C4  IND d   1       1.685   0.890  -1.043  0.00  0.00     0.051 A 
ATOM      5  C5  IND d   1       2.418  -0.214  -1.379  0.00  0.00    -0.031 A 
ATOM      6  C6  IND d   1       1.913  -1.492  -1.250  0.00  0.00     0.015 A 
ATOM      7  C7  IND d   1       0.646  -1.713  -0.789  0.00  0.00    -0.016 A 
ATOM      8  C8  IND d   1      -0.099  -0.595  -0.441  0.00  0.00    -0.047 A 
ATOM      9  C9  IND d   1       0.424   0.702  -0.529  0.00  0.00    -0.096 A 
ATOM     10  HN1 IND d   1      -1.909  -1.144   0.224  0.00  0.00     0.298 HD
ENDROOT
TORSDOF 0
ENDMDL
