MODEL 1
REMARK minimizedAffinity 4.57308912
REMARK minimizedRMSD -1
REMARK  0 active torsions:
REMARK  status: ('A' for Active; 'I' for Inactive)
ROOT
ATOM      1  N1  IND d   1      -4.010  -1.242   5.032  0.00  0.00    -0.196 N 
ATOM      2  C2  IND d   1      -4.238  -2.476   4.489  0.00  0.00     0.054 A 
ATOM      3  C3  IND d   1      -3.728  -2.541   3.239  0.00  0.00    -0.031 A 
ATOM      4  C4  IND d   1      -2.390  -0.778   1.924  0.00  0.00     0.051 A 
ATOM      5  C5  IND d   1      -1.961   0.518   1.990  0.00  0.00    -0.031 A 
ATOM      6  C6  IND d   1      -2.195   1.308   3.097  0.00  0.00     0.015 A 
ATOM      7  C7  IND d   1      -2.860   0.826   4.188  0.00  0.00    -0.016 A 
ATOM      8  C8  IND d   1      -3.304  -0.487   4.122  0.00  0.00    -0.047 A 
ATOM      9  C9  IND d   1      -3.107  -1.280   2.984  0.00  0.00    -0.096 A 
ATOM     10  HN1 IND d   1      -4.265  -0.982   5.811  0.00  0.00     0.298 HD
ENDROOT
TORSDOF 0
ENDMDL
