MODEL 1
REMARK minimizedAffinity -5.22838926
REMARK minimizedRMSD -1
REMARK  0 active torsions:
REMARK  status: ('A' for Active; 'I' for Inactive)
ROOT
ATOM      1  N1  IND d   1      -0.893   1.633  -1.400  0.00  0.00    -0.196 N 
ATOM      2  C2  IND d   1      -1.493   0.803  -0.495  0.00  0.00     0.054 A 
ATOM      3  C3  IND d   1      -0.596  -0.077   0.004  0.00  0.00    -0.031 A 
ATOM      4  C4  IND d   1       1.932  -0.267  -0.446  0.00  0.00     0.051 A 
ATOM      5  C5  IND d   1       2.929   0.249  -1.225  0.00  0.00    -0.031 A 
ATOM      6  C6  IND d   1       2.699   1.276  -2.118  0.00  0.00     0.015 A 
ATOM      7  C7  IND d   1       1.461   1.834  -2.258  0.00  0.00    -0.016 A 
ATOM      8  C8  IND d   1       0.444   1.308  -1.474  0.00  0.00    -0.047 A 
ATOM      9  C9  IND d   1       0.662   0.238  -0.597  0.00  0.00    -0.096 A 
ATOM     10  HN1 IND d   1      -1.284   2.254  -1.848  0.00  0.00     0.298 HD
ENDROOT
TORSDOF 0
ENDMDL
