MODEL 1
REMARK minimizedAffinity -1.55640841
REMARK minimizedRMSD -1
REMARK  0 active torsions:
REMARK  status: ('A' for Active; 'I' for Inactive)
ROOT
ATOM      1  N1  IND d   1      -0.503   1.175  -0.774  0.00  0.00    -0.196 N 
ATOM      2  C2  IND d   1      -0.747   0.089   0.020  0.00  0.00     0.054 A 
ATOM      3  C3  IND d   1       0.075  -0.932  -0.314  0.00  0.00    -0.031 A 
ATOM      4  C4  IND d   1       1.963  -1.007  -2.062  0.00  0.00     0.051 A 
ATOM      5  C5  IND d   1       2.538  -0.269  -3.058  0.00  0.00    -0.031 A 
ATOM      6  C6  IND d   1       2.123   1.015  -3.348  0.00  0.00     0.015 A 
ATOM      7  C7  IND d   1       1.120   1.616  -2.641  0.00  0.00    -0.016 A 
ATOM      8  C8  IND d   1       0.528   0.867  -1.634  0.00  0.00    -0.047 A 
ATOM      9  C9  IND d   1       0.916  -0.452  -1.364  0.00  0.00    -0.096 A 
ATOM     10  HN1 IND d   1      -0.924   1.924  -0.742  0.00  0.00     0.298 HD
ENDROOT
TORSDOF 0
ENDMDL
