MODEL 1
REMARK minimizedAffinity -2.42656946
REMARK minimizedRMSD -1
REMARK  0 active torsions:
REMARK  status: ('A' for Active; 'I' for Inactive)
ROOT
ATOM      1  N1  IND d   1       2.350   1.021  -1.469  0.00  0.00    -0.196 N 
ATOM      2  C2  IND d   1       3.169  -0.037  -1.748  0.00  0.00     0.054 A 
ATOM      3  C3  IND d   1       2.573  -1.199  -1.398  0.00  0.00    -0.031 A 
ATOM      4  C4  IND d   1       0.216  -1.605  -0.444  0.00  0.00     0.051 A 
ATOM      5  C5  IND d   1      -0.888  -0.944   0.015  0.00  0.00    -0.031 A 
ATOM      6  C6  IND d   1      -0.973   0.433  -0.001  0.00  0.00     0.015 A 
ATOM      7  C7  IND d   1       0.044   1.204  -0.488  0.00  0.00    -0.016 A 
ATOM      8  C8  IND d   1       1.170   0.537  -0.948  0.00  0.00    -0.047 A 
ATOM      9  C9  IND d   1       1.279  -0.859  -0.896  0.00  0.00    -0.096 A 
ATOM     10  HN1 IND d   1       2.540   1.850  -1.598  0.00  0.00     0.298 HD
ENDROOT
TORSDOF 0
ENDMDL
