MODEL 1
REMARK minimizedAffinity -0.684340537
REMARK minimizedRMSD -1
REMARK  0 active torsions:
REMARK  status: ('A' for Active; 'I' for Inactive)
ROOT
ATOM      1  N1  IND d   1      -0.267   1.161   0.114  0.00  0.00    -0.196 N 
ATOM      2  C2  IND d   1      -1.451   0.773   0.675  0.00  0.00     0.054 A 
ATOM      3  C3  IND d   1      -1.641  -0.555   0.503  0.00  0.00    -0.031 A 
ATOM      4  C4  IND d   1      -0.089  -2.301  -0.580  0.00  0.00     0.051 A 
ATOM      5  C5  IND d   1       1.086  -2.419  -1.266  0.00  0.00    -0.031 A 
ATOM      6  C6  IND d   1       1.889  -1.328  -1.530  0.00  0.00     0.015 A 
ATOM      7  C7  IND d   1       1.549  -0.074  -1.106  0.00  0.00    -0.016 A 
ATOM      8  C8  IND d   1       0.353   0.050  -0.415  0.00  0.00    -0.047 A 
ATOM      9  C9  IND d   1      -0.487  -1.046  -0.181  0.00  0.00    -0.096 A 
ATOM     10  HN1 IND d   1       0.040   1.964   0.095  0.00  0.00     0.298 HD
ENDROOT
TORSDOF 0
ENDMDL
