MODEL 1
REMARK minimizedAffinity -4.04192209
REMARK minimizedRMSD -1
REMARK  0 active torsions:
REMARK  status: ('A' for Active; 'I' for Inactive)
ROOT
ATOM      1  N1  IND d   1      -0.797   1.891  -1.117  0.00  0.00    -0.196 N 
ATOM      2  C2  IND d   1      -1.808   1.297  -0.414  0.00  0.00     0.054 A 
ATOM      3  C3  IND d   1      -1.436   0.062  -0.009  0.00  0.00    -0.031 A 
ATOM      4  C4  IND d   1       0.819  -1.144  -0.299  0.00  0.00     0.051 A 
ATOM      5  C5  IND d   1       2.039  -1.018  -0.903  0.00  0.00    -0.031 A 
ATOM      6  C6  IND d   1       2.383   0.109  -1.622  0.00  0.00     0.015 A 
ATOM      7  C7  IND d   1       1.521   1.160  -1.754  0.00  0.00    -0.016 A 
ATOM      8  C8  IND d   1       0.279   1.032  -1.148  0.00  0.00    -0.047 A 
ATOM      9  C9  IND d   1      -0.092  -0.126  -0.453  0.00  0.00    -0.096 A 
ATOM     10  HN1 IND d   1      -0.829   2.671  -1.480  0.00  0.00     0.298 HD
ENDROOT
TORSDOF 0
ENDMDL
