MODEL 1
REMARK minimizedAffinity -1.82041478
REMARK minimizedRMSD -1
REMARK  0 active torsions:
REMARK  status: ('A' for Active; 'I' for Inactive)
ROOT
ATOM      1  N1  IND d   1      -0.172   1.374  -0.264  0.00  0.00    -0.196 N 
ATOM      2  C2  IND d   1      -1.385   0.912   0.164  0.00  0.00     0.054 A 
ATOM      3  C3  IND d   1      -1.420  -0.438   0.113  0.00  0.00    -0.031 A 
ATOM      4  C4  IND d   1       0.436  -2.098  -0.544  0.00  0.00     0.051 A 
ATOM      5  C5  IND d   1       1.707  -2.150  -1.041  0.00  0.00    -0.031 A 
ATOM      6  C6  IND d   1       2.433  -1.008  -1.308  0.00  0.00     0.015 A 
ATOM      7  C7  IND d   1       1.916   0.235  -1.076  0.00  0.00    -0.016 A 
ATOM      8  C8  IND d   1       0.623   0.292  -0.577  0.00  0.00    -0.047 A 
ATOM      9  C9  IND d   1      -0.134  -0.863  -0.344  0.00  0.00    -0.096 A 
ATOM     10  HN1 IND d   1       0.057   2.200  -0.328  0.00  0.00     0.298 HD
ENDROOT
TORSDOF 0
ENDMDL
