MODEL 1
REMARK minimizedAffinity 1.98410761
REMARK minimizedRMSD -1
REMARK  0 active torsions:
REMARK  status: ('A' for Active; 'I' for Inactive)
ROOT
ATOM      1  N1  IND d   1       0.482   1.620  -2.315  0.00  0.00    -0.196 N 
ATOM      2  C2  IND d   1       1.605   2.345  -2.602  0.00  0.00     0.054 A 
ATOM      3  C3  IND d   1       2.714   1.636  -2.295  0.00  0.00    -0.031 A 
ATOM      4  C4  IND d   1       2.922  -0.772  -1.406  0.00  0.00     0.051 A 
ATOM      5  C5  IND d   1       2.173  -1.822  -0.955  0.00  0.00    -0.031 A 
ATOM      6  C6  IND d   1       0.794  -1.779  -0.937  0.00  0.00     0.015 A 
ATOM      7  C7  IND d   1       0.109  -0.684  -1.382  0.00  0.00    -0.016 A 
ATOM      8  C8  IND d   1       0.867   0.388  -1.833  0.00  0.00    -0.047 A 
ATOM      9  C9  IND d   1       2.268   0.366  -1.814  0.00  0.00    -0.096 A 
ATOM     10  HN1 IND d   1      -0.328   1.888  -2.418  0.00  0.00     0.298 HD
ENDROOT
TORSDOF 0
ENDMDL
