MODEL 1
REMARK minimizedAffinity 10.529274
REMARK minimizedRMSD -1
REMARK  0 active torsions:
REMARK  status: ('A' for Active; 'I' for Inactive)
ROOT
ATOM      1  C2' OXE d   1       0.653   1.448  -1.589  0.00  0.00     0.078 C 
ATOM      2  C1' OXE d   1       0.140   4.033  -0.622  0.00  0.00     0.078 C 
ATOM      3  C1  OXE d   1       0.412   2.946   0.387  0.00  0.00    -0.078 A 
ATOM      4  C2  OXE d   1       0.615   1.674  -0.093  0.00  0.00    -0.078 A 
ATOM      5  C3  OXE d   1       0.925   0.645   0.792  0.00  0.00     0.003 A 
ATOM      6  C4  OXE d   1       0.878   0.861   2.174  0.00  0.00    -0.002 A 
ATOM      7  C5  OXE d   1       0.633   2.140   2.686  0.00  0.00    -0.002 A 
ATOM      8  C6  OXE d   1       0.441   3.199   1.806  0.00  0.00     0.003 A 
ENDROOT
TORSDOF 0
ENDMDL
