MODEL 1
REMARK minimizedAffinity 7.84041405
REMARK minimizedRMSD -1
REMARK  0 active torsions:
REMARK  status: ('A' for Active; 'I' for Inactive)
ROOT
ATOM      1  C2' OXE d   1       0.311  -0.424   4.162  0.00  0.00     0.078 C 
ATOM      2  C1' OXE d   1      -2.191   0.467   3.255  0.00  0.00     0.078 C 
ATOM      3  C1  OXE d   1      -0.960   1.056   2.613  0.00  0.00    -0.078 A 
ATOM      4  C2  OXE d   1       0.261   0.648   3.096  0.00  0.00    -0.078 A 
ATOM      5  C3  OXE d   1       1.429   1.119   2.503  0.00  0.00     0.003 A 
ATOM      6  C4  OXE d   1       1.373   2.119   1.524  0.00  0.00    -0.002 A 
ATOM      7  C5  OXE d   1       0.141   2.577   1.046  0.00  0.00    -0.002 A 
ATOM      8  C6  OXE d   1      -1.032   2.026   1.549  0.00  0.00     0.003 A 
ENDROOT
TORSDOF 0
ENDMDL
