MODEL 1
REMARK minimizedAffinity 0.297184259
REMARK minimizedRMSD -1
REMARK  0 active torsions:
REMARK  status: ('A' for Active; 'I' for Inactive)
ROOT
ATOM      1  C2' OXE d   1      -0.416   2.639   2.682  0.00  0.00     0.078 C 
ATOM      2  C1' OXE d   1       0.349   3.483   0.116  0.00  0.00     0.078 C 
ATOM      3  C1  OXE d   1       0.517   2.023   0.456  0.00  0.00    -0.078 A 
ATOM      4  C2  OXE d   1       0.184   1.628   1.729  0.00  0.00    -0.078 A 
ATOM      5  C3  OXE d   1       0.268   0.283   2.077  0.00  0.00     0.003 A 
ATOM      6  C4  OXE d   1       0.833  -0.645   1.193  0.00  0.00    -0.002 A 
ATOM      7  C5  OXE d   1       1.216  -0.256  -0.095  0.00  0.00    -0.002 A 
ATOM      8  C6  OXE d   1       1.026   1.063  -0.493  0.00  0.00     0.003 A 
ENDROOT
TORSDOF 0
ENDMDL
