MODEL 1
REMARK minimizedAffinity 3.42452359
REMARK minimizedRMSD -1
REMARK  0 active torsions:
REMARK  status: ('A' for Active; 'I' for Inactive)
ROOT
ATOM      1  C2' OXE d   1       1.398   4.494   0.486  0.00  0.00     0.078 C 
ATOM      2  C1' OXE d   1       1.937   3.460   3.040  0.00  0.00     0.078 C 
ATOM      3  C1  OXE d   1       1.318   2.534   2.022  0.00  0.00    -0.078 A 
ATOM      4  C2  OXE d   1       1.015   3.062   0.790  0.00  0.00    -0.078 A 
ATOM      5  C3  OXE d   1       0.494   2.238  -0.204  0.00  0.00     0.003 A 
ATOM      6  C4  OXE d   1       0.133   0.917   0.088  0.00  0.00    -0.002 A 
ATOM      7  C5  OXE d   1       0.396   0.371   1.349  0.00  0.00    -0.002 A 
ATOM      8  C6  OXE d   1       1.026   1.152   2.312  0.00  0.00     0.003 A 
ENDROOT
TORSDOF 0
ENDMDL
