MODEL 1
REMARK minimizedAffinity 0.503102362
REMARK minimizedRMSD -1
REMARK  0 active torsions:
REMARK  status: ('A' for Active; 'I' for Inactive)
ROOT
ATOM      1  C2' OXE d   1       1.905  -0.512   2.278  0.00  0.00     0.078 C 
ATOM      2  C1' OXE d   1       1.372  -0.268  -0.467  0.00  0.00     0.078 C 
ATOM      3  C1  OXE d   1       0.968   0.874   0.432  0.00  0.00    -0.078 A 
ATOM      4  C2  OXE d   1       1.191   0.726   1.780  0.00  0.00    -0.078 A 
ATOM      5  C3  OXE d   1       0.888   1.772   2.647  0.00  0.00     0.003 A 
ATOM      6  C4  OXE d   1       0.218   2.909   2.179  0.00  0.00    -0.002 A 
ATOM      7  C5  OXE d   1      -0.054   3.062   0.816  0.00  0.00    -0.002 A 
ATOM      8  C6  OXE d   1       0.352   2.075  -0.075  0.00  0.00     0.003 A 
ENDROOT
TORSDOF 0
ENDMDL
