MODEL 1
REMARK minimizedAffinity 2.50373983
REMARK minimizedRMSD -1
REMARK  2 active torsions:
REMARK  status: ('A' for Active; 'I' for Inactive)
REMARK    1  A    between atoms: C2'_3  and  C1'_4 
REMARK    2  A    between atoms: C1'_4  and  C1_5 
ROOT
ATOM      1  C1  I4B d   1       2.933  -1.122  -0.743  0.00  0.00    -0.075 A 
ATOM      2  C2  I4B d   1       2.771  -2.238   0.040  0.00  0.00     0.003 A 
ATOM      3  C3  I4B d   1       2.817  -3.528  -0.541  0.00  0.00     0.002 A 
ATOM      4  C4  I4B d   1       2.974  -3.655  -1.906  0.00  0.00    -0.004 A 
ATOM      5  C5  I4B d   1       3.161  -2.523  -2.695  0.00  0.00     0.002 A 
ATOM      6  C6  I4B d   1       3.153  -1.249  -2.109  0.00  0.00     0.003 A 
ENDROOT
BRANCH   1   7
ATOM      7  C1' I4B d   1       2.847   0.227  -0.102  0.00  0.00     0.060 C 
BRANCH   7   8
ATOM      8  C2' I4B d   1       4.168   0.935  -0.325  0.00  0.00    -0.013 C 
ATOM      9  C4' I4B d   1       4.502   1.018  -1.791  0.00  0.00     0.013 C 
ATOM     10  C3' I4B d   1       4.070   2.301   0.286  0.00  0.00     0.013 C 
ENDBRANCH   7   8
ENDBRANCH   1   7
TORSDOF 2
ENDMDL
