MODEL 1
REMARK minimizedAffinity 7.52038574
REMARK minimizedRMSD -1
REMARK  2 active torsions:
REMARK  status: ('A' for Active; 'I' for Inactive)
REMARK    1  A    between atoms: C2'_3  and  C1'_4 
REMARK    2  A    between atoms: C1'_4  and  C1_5 
ROOT
ATOM      1  C1  I4B d   1      -3.851  -0.311  -2.720  0.00  0.00    -0.075 A 
ATOM      2  C2  I4B d   1      -4.986   0.124  -3.358  0.00  0.00     0.003 A 
ATOM      3  C3  I4B d   1      -4.921   0.570  -4.700  0.00  0.00     0.002 A 
ATOM      4  C4  I4B d   1      -3.702   0.611  -5.345  0.00  0.00    -0.004 A 
ATOM      5  C5  I4B d   1      -2.557   0.148  -4.704  0.00  0.00     0.002 A 
ATOM      6  C6  I4B d   1      -2.633  -0.328  -3.387  0.00  0.00     0.003 A 
ENDROOT
BRANCH   1   7
ATOM      7  C1' I4B d   1      -3.949  -0.745  -1.291  0.00  0.00     0.060 C 
BRANCH   7   8
ATOM      8  C2' I4B d   1      -4.698   0.329  -0.528  0.00  0.00    -0.013 C 
ATOM      9  C4' I4B d   1      -5.998  -0.199   0.021  0.00  0.00     0.013 C 
ATOM     10  C3' I4B d   1      -3.806   0.823   0.572  0.00  0.00     0.013 C 
ENDBRANCH   7   8
ENDBRANCH   1   7
TORSDOF 2
ENDMDL
