MODEL 1
REMARK minimizedAffinity 8.24277592
REMARK minimizedRMSD -1
REMARK  2 active torsions:
REMARK  status: ('A' for Active; 'I' for Inactive)
REMARK    1  A    between atoms: C2'_3  and  C1'_4 
REMARK    2  A    between atoms: C1'_4  and  C1_5 
ROOT
ATOM      1  C1  I4B d   1      -4.096   1.906   2.344  0.00  0.00    -0.075 A 
ATOM      2  C2  I4B d   1      -5.072   1.824   3.306  0.00  0.00     0.003 A 
ATOM      3  C3  I4B d   1      -5.363   2.944   4.122  0.00  0.00     0.002 A 
ATOM      4  C4  I4B d   1      -4.625   4.101   3.977  0.00  0.00    -0.004 A 
ATOM      5  C5  I4B d   1      -3.652   4.190   2.986  0.00  0.00     0.002 A 
ATOM      6  C6  I4B d   1      -3.394   3.089   2.156  0.00  0.00     0.003 A 
ENDROOT
BRANCH   1   7
ATOM      7  C1' I4B d   1      -3.791   0.694   1.522  0.00  0.00     0.060 C 
BRANCH   7   8
ATOM      8  C2' I4B d   1      -4.739   0.681   0.340  0.00  0.00    -0.013 C 
ATOM      9  C4' I4B d   1      -4.118  -0.003  -0.849  0.00  0.00     0.013 C 
ATOM     10  C3' I4B d   1      -6.000  -0.010   0.765  0.00  0.00     0.013 C 
ENDBRANCH   7   8
ENDBRANCH   1   7
TORSDOF 2
ENDMDL
