MODEL 1
REMARK minimizedAffinity 2.42327714
REMARK minimizedRMSD -1
REMARK  2 active torsions:
REMARK  status: ('A' for Active; 'I' for Inactive)
REMARK    1  A    between atoms: C2'_3  and  C1'_4 
REMARK    2  A    between atoms: C1'_4  and  C1_5 
ROOT
ATOM      1  C1  I4B d   1       4.032   1.112  -0.316  0.00  0.00    -0.075 A 
ATOM      2  C2  I4B d   1       4.672   1.179  -1.529  0.00  0.00     0.003 A 
ATOM      3  C3  I4B d   1       5.688   2.140  -1.747  0.00  0.00     0.002 A 
ATOM      4  C4  I4B d   1       5.996   3.042  -0.749  0.00  0.00    -0.004 A 
ATOM      5  C5  I4B d   1       5.363   2.958   0.487  0.00  0.00     0.002 A 
ATOM      6  C6  I4B d   1       4.384   1.979   0.710  0.00  0.00     0.003 A 
ENDROOT
BRANCH   1   7
ATOM      7  C1' I4B d   1       2.941   0.107  -0.131  0.00  0.00     0.060 C 
BRANCH   7   8
ATOM      8  C2' I4B d   1       3.281  -1.111  -0.967  0.00  0.00    -0.013 C 
ATOM      9  C4' I4B d   1       2.888  -2.383  -0.263  0.00  0.00     0.013 C 
ATOM     10  C3' I4B d   1       2.574  -0.980  -2.283  0.00  0.00     0.013 C 
ENDBRANCH   7   8
ENDBRANCH   1   7
TORSDOF 2
ENDMDL
