MODEL 1
REMARK minimizedAffinity 1.44694221
REMARK minimizedRMSD -1
REMARK  2 active torsions:
REMARK  status: ('A' for Active; 'I' for Inactive)
REMARK    1  A    between atoms: C2'_3  and  C1'_4 
REMARK    2  A    between atoms: C1'_4  and  C1_5 
ROOT
ATOM      1  C1  I4B d   1       4.042   0.636  -0.364  0.00  0.00    -0.075 A 
ATOM      2  C2  I4B d   1       3.791   1.827  -0.999  0.00  0.00     0.003 A 
ATOM      3  C3  I4B d   1       4.503   2.995  -0.632  0.00  0.00     0.002 A 
ATOM      4  C4  I4B d   1       5.414   2.938   0.403  0.00  0.00    -0.004 A 
ATOM      5  C5  I4B d   1       5.683   1.726   1.031  0.00  0.00     0.002 A 
ATOM      6  C6  I4B d   1       5.003   0.565   0.637  0.00  0.00     0.003 A 
ENDROOT
BRANCH   1   7
ATOM      7  C1' I4B d   1       3.249  -0.570  -0.754  0.00  0.00     0.060 C 
BRANCH   7   8
ATOM      8  C2' I4B d   1       3.126  -1.462   0.464  0.00  0.00    -0.013 C 
ATOM      9  C4' I4B d   1       2.250  -0.832   1.515  0.00  0.00     0.013 C 
ATOM     10  C3' I4B d   1       2.572  -2.783   0.018  0.00  0.00     0.013 C 
ENDBRANCH   7   8
ENDBRANCH   1   7
TORSDOF 2
ENDMDL
