MODEL 1
REMARK minimizedAffinity 12.5920315
REMARK minimizedRMSD -1
REMARK  2 active torsions:
REMARK  status: ('A' for Active; 'I' for Inactive)
REMARK    1  A    between atoms: C2'_3  and  C1'_4 
REMARK    2  A    between atoms: C1'_4  and  C1_5 
ROOT
ATOM      1  C1  I4B d   1       3.603   0.912  -0.126  0.00  0.00    -0.075 A 
ATOM      2  C2  I4B d   1       3.459   2.126   0.498  0.00  0.00     0.003 A 
ATOM      3  C3  I4B d   1       4.598   2.827   0.963  0.00  0.00     0.002 A 
ATOM      4  C4  I4B d   1       5.848   2.258   0.829  0.00  0.00    -0.004 A 
ATOM      5  C5  I4B d   1       5.994   1.038   0.176  0.00  0.00     0.002 A 
ATOM      6  C6  I4B d   1       4.865   0.366  -0.316  0.00  0.00     0.003 A 
ENDROOT
BRANCH   1   7
ATOM      7  C1' I4B d   1       2.376   0.183  -0.576  0.00  0.00     0.060 C 
BRANCH   7   8
ATOM      8  C2' I4B d   1       2.685  -1.300  -0.567  0.00  0.00    -0.013 C 
ATOM      9  C4' I4B d   1       2.592  -1.868   0.825  0.00  0.00     0.013 C 
ATOM     10  C3' I4B d   1       1.722  -1.979  -1.494  0.00  0.00     0.013 C 
ENDBRANCH   7   8
ENDBRANCH   1   7
TORSDOF 2
ENDMDL
