MODEL 1
REMARK minimizedAffinity -1.89160085
REMARK minimizedRMSD -1
REMARK  1 active torsions:
REMARK  status: ('A' for Active; 'I' for Inactive)
REMARK    1  A    between atoms: C1_2  and  C2_3 
ROOT
ATOM      1  C2  UNL d   1       0.851  -0.608   0.755  0.00  0.00    -0.076 A 
ATOM      2  C3  UNL d   1       2.189  -1.035   0.809  0.00  0.00     0.004 A 
ATOM      3  C4  UNL d   1       3.219  -0.233   0.320  0.00  0.00    -0.003 A 
ATOM      4  C5  UNL d   1       2.927   1.010  -0.231  0.00  0.00     0.000 A 
ATOM      5  C6  UNL d   1       1.607   1.457  -0.277  0.00  0.00     0.000 A 
ATOM      6  C7  UNL d   1       0.559   0.668   0.227  0.00  0.00    -0.073 A 
ATOM      7  C8  UNL d   1      -0.847   1.197   0.146  0.00  0.00     0.078 C 
ENDROOT
BRANCH   1   8
ATOM      8  C1  UNL d   1      -0.226  -1.533   1.276  0.00  0.00     0.053 C 
ATOM      9  C   UNL d   1       0.317  -2.901   1.660  0.00  0.00     0.018 C 
ENDBRANCH   1   8
TORSDOF 1
ENDMDL
