MODEL 1
REMARK minimizedAffinity -5.14083672
REMARK minimizedRMSD -1
REMARK  1 active torsions:
REMARK  status: ('A' for Active; 'I' for Inactive)
REMARK    1  A    between atoms: C1_2  and  C2_3 
ROOT
ATOM      1  C2  UNL d   1       0.391  -0.087   0.203  0.00  0.00    -0.076 A 
ATOM      2  C3  UNL d   1       0.811  -1.377   0.571  0.00  0.00     0.004 A 
ATOM      3  C4  UNL d   1       2.131  -1.622   0.945  0.00  0.00    -0.003 A 
ATOM      4  C5  UNL d   1       3.053  -0.581   0.958  0.00  0.00     0.000 A 
ATOM      5  C6  UNL d   1       2.650   0.709   0.613  0.00  0.00     0.000 A 
ATOM      6  C7  UNL d   1       1.319   0.976   0.249  0.00  0.00    -0.073 A 
ATOM      7  C8  UNL d   1       0.940   2.384  -0.120  0.00  0.00     0.078 C 
ENDROOT
BRANCH   1   8
ATOM      8  C1  UNL d   1      -1.046   0.114  -0.220  0.00  0.00     0.053 C 
ATOM      9  C   UNL d   1      -1.265  -0.174  -1.698  0.00  0.00     0.018 C 
ENDBRANCH   1   8
TORSDOF 1
ENDMDL
