MODEL 1
REMARK minimizedAffinity -2.09361053
REMARK minimizedRMSD -1
REMARK  1 active torsions:
REMARK  status: ('A' for Active; 'I' for Inactive)
REMARK    1  A    between atoms: C1_2  and  C2_3 
ROOT
ATOM      1  C2  UNL d   1       1.455  -0.751   0.373  0.00  0.00    -0.076 A 
ATOM      2  C3  UNL d   1       0.878  -1.991   0.695  0.00  0.00     0.004 A 
ATOM      3  C4  UNL d   1      -0.492  -2.108   0.922  0.00  0.00    -0.003 A 
ATOM      4  C5  UNL d   1      -1.308  -0.985   0.830  0.00  0.00     0.000 A 
ATOM      5  C6  UNL d   1      -0.755   0.250   0.493  0.00  0.00     0.000 A 
ATOM      6  C7  UNL d   1       0.622   0.381   0.245  0.00  0.00    -0.073 A 
ATOM      7  C8  UNL d   1       1.165   1.739  -0.108  0.00  0.00     0.078 C 
ENDROOT
BRANCH   1   8
ATOM      8  C1  UNL d   1       2.951  -0.680   0.164  0.00  0.00     0.053 C 
ATOM      9  C   UNL d   1       3.677  -0.069   1.353  0.00  0.00     0.018 C 
ENDBRANCH   1   8
TORSDOF 1
ENDMDL
