MODEL 1
REMARK minimizedAffinity 7.27121735
REMARK minimizedRMSD -1
REMARK  1 active torsions:
REMARK  status: ('A' for Active; 'I' for Inactive)
REMARK    1  A    between atoms: C1_2  and  C2_3 
ROOT
ATOM      1  C2  UNL d   1      -5.208   2.659  -1.216  0.00  0.00    -0.076 A 
ATOM      2  C3  UNL d   1      -5.120   4.032  -1.501  0.00  0.00     0.004 A 
ATOM      3  C4  UNL d   1      -5.475   4.987  -0.550  0.00  0.00    -0.003 A 
ATOM      4  C5  UNL d   1      -5.922   4.584   0.703  0.00  0.00     0.000 A 
ATOM      5  C6  UNL d   1      -5.999   3.226   1.010  0.00  0.00     0.000 A 
ATOM      6  C7  UNL d   1      -5.630   2.250   0.068  0.00  0.00    -0.073 A 
ATOM      7  C8  UNL d   1      -5.739   0.800   0.450  0.00  0.00     0.078 C 
ENDROOT
BRANCH   1   8
ATOM      8  C1  UNL d   1      -4.836   1.669  -2.296  0.00  0.00     0.053 C 
ATOM      9  C   UNL d   1      -3.827   2.236  -3.283  0.00  0.00     0.018 C 
ENDBRANCH   1   8
TORSDOF 1
ENDMDL
