MODEL 1
REMARK minimizedAffinity 0.614824414
REMARK minimizedRMSD -1
REMARK  0 active torsions:
REMARK  status: ('A' for Active; 'I' for Inactive)
ROOT
ATOM      1  C   UNL d   1       1.787  -3.115   0.722  0.00  0.00     0.172 C 
ATOM      2  N   UNL d   1       0.844  -2.176   1.284  0.00  0.00    -0.070 N 
ATOM      3  C1  UNL d   1       0.228  -1.159   0.605  0.00  0.00    -0.004 A 
ATOM      4  C2  UNL d   1      -0.592  -0.496   1.491  0.00  0.00    -0.047 A 
ATOM      5  C3  UNL d   1      -0.465  -1.136   2.747  0.00  0.00    -0.047 A 
ATOM      6  C4  UNL d   1       0.431  -2.173   2.590  0.00  0.00    -0.004 A 
ENDROOT
TORSDOF 0
ENDMDL
