MODEL 1
REMARK minimizedAffinity 2.63505316
REMARK minimizedRMSD -1
REMARK  0 active torsions:
REMARK  status: ('A' for Active; 'I' for Inactive)
ROOT
ATOM      1  C   UNL d   1      -2.231  -3.041   4.240  0.00  0.00     0.172 C 
ATOM      2  N   UNL d   1      -1.123  -2.530   3.467  0.00  0.00    -0.070 N 
ATOM      3  C1  UNL d   1      -0.098  -3.278   2.951  0.00  0.00    -0.004 A 
ATOM      4  C2  UNL d   1       0.752  -2.424   2.282  0.00  0.00    -0.047 A 
ATOM      5  C3  UNL d   1       0.219  -1.118   2.399  0.00  0.00    -0.047 A 
ATOM      6  C4  UNL d   1      -0.941  -1.213   3.138  0.00  0.00    -0.004 A 
ENDROOT
TORSDOF 0
ENDMDL
