MODEL 1
REMARK minimizedAffinity -1.33647382
REMARK minimizedRMSD -1
REMARK  0 active torsions:
REMARK  status: ('A' for Active; 'I' for Inactive)
ROOT
ATOM      1  C   UNL d   1       3.037   6.000   3.222  0.00  0.00     0.172 C 
ATOM      2  N   UNL d   1       2.014   5.673   4.188  0.00  0.00    -0.070 N 
ATOM      3  C1  UNL d   1       2.211   4.997   5.362  0.00  0.00    -0.004 A 
ATOM      4  C2  UNL d   1       0.993   4.889   5.997  0.00  0.00    -0.047 A 
ATOM      5  C3  UNL d   1       0.030   5.522   5.175  0.00  0.00    -0.047 A 
ATOM      6  C4  UNL d   1       0.689   5.999   4.062  0.00  0.00    -0.004 A 
ENDROOT
TORSDOF 0
ENDMDL
