MODEL 1
REMARK minimizedAffinity 0.976374984
REMARK minimizedRMSD -1
REMARK  0 active torsions:
REMARK  status: ('A' for Active; 'I' for Inactive)
ROOT
ATOM      1  C   UNL d   1       3.580   6.000   3.374  0.00  0.00     0.172 C 
ATOM      2  N   UNL d   1       2.350   5.359   3.778  0.00  0.00    -0.070 N 
ATOM      3  C1  UNL d   1       1.230   5.999   4.237  0.00  0.00    -0.004 A 
ATOM      4  C2  UNL d   1       0.280   5.041   4.514  0.00  0.00    -0.047 A 
ATOM      5  C3  UNL d   1       0.849   3.781   4.212  0.00  0.00    -0.047 A 
ATOM      6  C4  UNL d   1       2.131   4.007   3.758  0.00  0.00    -0.004 A 
ENDROOT
TORSDOF 0
ENDMDL
