MODEL 1
REMARK minimizedAffinity -0.802595556
REMARK minimizedRMSD -1
REMARK  0 active torsions:
REMARK  status: ('A' for Active; 'I' for Inactive)
ROOT
ATOM      1  C   UNL d   1      -1.368  -0.088  -1.975  0.00  0.00     0.172 C 
ATOM      2  N   UNL d   1      -1.406  -0.201  -0.535  0.00  0.00    -0.070 N 
ATOM      3  C1  UNL d   1      -2.529  -0.104   0.243  0.00  0.00    -0.004 A 
ATOM      4  C2  UNL d   1      -2.147  -0.268   1.557  0.00  0.00    -0.047 A 
ATOM      5  C3  UNL d   1      -0.746  -0.470   1.569  0.00  0.00    -0.047 A 
ATOM      6  C4  UNL d   1      -0.314  -0.424   0.260  0.00  0.00    -0.004 A 
ENDROOT
TORSDOF 0
ENDMDL
