MODEL 1
REMARK minimizedAffinity -0.36679247
REMARK minimizedRMSD -1
REMARK  0 active torsions:
REMARK  status: ('A' for Active; 'I' for Inactive)
ROOT
ATOM      1  C   UNL d   1       0.467  -2.775   2.724  0.00  0.00     0.172 C 
ATOM      2  N   UNL d   1       1.532  -3.439   2.010  0.00  0.00    -0.070 N 
ATOM      3  C1  UNL d   1       1.971  -3.120   0.753  0.00  0.00    -0.004 A 
ATOM      4  C2  UNL d   1       2.996  -3.984   0.432  0.00  0.00    -0.047 A 
ATOM      5  C3  UNL d   1       3.178  -4.853   1.534  0.00  0.00    -0.047 A 
ATOM      6  C4  UNL d   1       2.259  -4.494   2.497  0.00  0.00    -0.004 A 
ENDROOT
TORSDOF 0
ENDMDL
