MODEL 1
REMARK minimizedAffinity 2.67999554
REMARK minimizedRMSD -1
REMARK  0 active torsions:
REMARK  status: ('A' for Active; 'I' for Inactive)
ROOT
ATOM      1  C   UNL d   1      -5.122  -0.803   1.140  0.00  0.00     0.172 C 
ATOM      2  N   UNL d   1      -3.755  -0.379   1.327  0.00  0.00    -0.070 N 
ATOM      3  C1  UNL d   1      -2.688  -0.761   0.558  0.00  0.00    -0.004 A 
ATOM      4  C2  UNL d   1      -1.563  -0.142   1.058  0.00  0.00    -0.047 A 
ATOM      5  C3  UNL d   1      -1.968   0.639   2.167  0.00  0.00    -0.047 A 
ATOM      6  C4  UNL d   1      -3.329   0.474   2.311  0.00  0.00    -0.004 A 
ENDROOT
TORSDOF 0
ENDMDL
