MODEL 1
REMARK minimizedAffinity 0.898206174
REMARK minimizedRMSD -1
REMARK  0 active torsions:
REMARK  status: ('A' for Active; 'I' for Inactive)
ROOT
ATOM      1  C   UNL d   1       3.195   5.859   5.979  0.00  0.00     0.172 C 
ATOM      2  N   UNL d   1       2.904   5.916   4.566  0.00  0.00    -0.070 N 
ATOM      3  C1  UNL d   1       1.654   5.947   4.008  0.00  0.00    -0.004 A 
ATOM      4  C2  UNL d   1       1.803   5.999   2.639  0.00  0.00    -0.047 A 
ATOM      5  C3  UNL d   1       3.191   5.999   2.364  0.00  0.00    -0.047 A 
ATOM      6  C4  UNL d   1       3.850   5.947   3.575  0.00  0.00    -0.004 A 
ENDROOT
TORSDOF 0
ENDMDL
