MODEL 1
REMARK minimizedAffinity 2.31776404
REMARK minimizedRMSD -1
REMARK  3 active torsions:
REMARK  status: ('A' for Active; 'I' for Inactive)
REMARK    1  A    between atoms: C3'_2  and  C2'_3 
REMARK    2  A    between atoms: C2'_3  and  C1'_4 
REMARK    3  A    between atoms: C1'_4  and  C1_5 
ROOT
ATOM      1  C1  N4B d   1      -0.083   1.044   1.316  0.00  0.00    -0.075 A 
ATOM      2  C2  N4B d   1      -0.186   0.650  -0.036  0.00  0.00     0.002 A 
ATOM      3  C3  N4B d   1       0.727  -0.227  -0.568  0.00  0.00     0.002 A 
ATOM      4  C4  N4B d   1       1.759  -0.706   0.225  0.00  0.00    -0.004 A 
ATOM      5  C5  N4B d   1       1.837  -0.341   1.537  0.00  0.00     0.002 A 
ATOM      6  C6  N4B d   1       0.924   0.536   2.086  0.00  0.00     0.002 A 
ENDROOT
BRANCH   1   7
ATOM      7  C1' N4B d   1      -1.007   2.067   1.919  0.00  0.00     0.057 C 
BRANCH   7   8
ATOM      8  C2' N4B d   1      -1.626   2.901   0.802  0.00  0.00     0.009 C 
BRANCH   8   9
ATOM      9  C3' N4B d   1      -0.850   4.183   0.553  0.00  0.00     0.004 C 
ATOM     10  C4' N4B d   1      -0.221   4.227  -0.808  0.00  0.00     0.003 C 
ENDBRANCH   8   9
ENDBRANCH   7   8
ENDBRANCH   1   7
TORSDOF 3
ENDMDL
