MODEL 1
REMARK minimizedAffinity 2.18656802
REMARK minimizedRMSD -1
REMARK  3 active torsions:
REMARK  status: ('A' for Active; 'I' for Inactive)
REMARK    1  A    between atoms: C3'_2  and  C2'_3 
REMARK    2  A    between atoms: C2'_3  and  C1'_4 
REMARK    3  A    between atoms: C1'_4  and  C1_5 
ROOT
ATOM      1  C1  N4B d   1      -1.457   3.199   0.571  0.00  0.00    -0.075 A 
ATOM      2  C2  N4B d   1      -1.534   4.585   0.829  0.00  0.00     0.002 A 
ATOM      3  C3  N4B d   1      -0.744   5.460   0.123  0.00  0.00     0.002 A 
ATOM      4  C4  N4B d   1       0.141   4.971  -0.826  0.00  0.00    -0.004 A 
ATOM      5  C5  N4B d   1       0.191   3.633  -1.086  0.00  0.00     0.002 A 
ATOM      6  C6  N4B d   1      -0.600   2.743  -0.388  0.00  0.00     0.002 A 
ENDROOT
BRANCH   1   7
ATOM      7  C1' N4B d   1      -2.239   2.197   1.377  0.00  0.00     0.057 C 
BRANCH   7   8
ATOM      8  C2' N4B d   1      -1.269   1.233   2.053  0.00  0.00     0.009 C 
BRANCH   8   9
ATOM      9  C3' N4B d   1      -1.143   1.505   3.542  0.00  0.00     0.004 C 
ATOM     10  C4' N4B d   1       0.206   2.037   3.923  0.00  0.00     0.003 C 
ENDBRANCH   8   9
ENDBRANCH   7   8
ENDBRANCH   1   7
TORSDOF 3
ENDMDL
