MODEL 1
REMARK minimizedAffinity 6.93499851
REMARK minimizedRMSD -1
REMARK  3 active torsions:
REMARK  status: ('A' for Active; 'I' for Inactive)
REMARK    1  A    between atoms: C3'_2  and  C2'_3 
REMARK    2  A    between atoms: C2'_3  and  C1'_4 
REMARK    3  A    between atoms: C1'_4  and  C1_5 
ROOT
ATOM      1  C1  N4B d   1       2.653  -3.372  -0.045  0.00  0.00    -0.075 A 
ATOM      2  C2  N4B d   1       3.660  -4.353  -0.181  0.00  0.00     0.002 A 
ATOM      3  C3  N4B d   1       4.965  -4.043   0.113  0.00  0.00     0.002 A 
ATOM      4  C4  N4B d   1       5.288  -2.759   0.526  0.00  0.00    -0.004 A 
ATOM      5  C5  N4B d   1       4.306  -1.825   0.680  0.00  0.00     0.002 A 
ATOM      6  C6  N4B d   1       2.990  -2.124   0.391  0.00  0.00     0.002 A 
ENDROOT
BRANCH   1   7
ATOM      7  C1' N4B d   1       1.225  -3.640  -0.437  0.00  0.00     0.057 C 
BRANCH   7   8
ATOM      8  C2' N4B d   1       0.922  -2.918  -1.746  0.00  0.00     0.009 C 
BRANCH   8   9
ATOM      9  C3' N4B d   1       0.448  -1.493  -1.513  0.00  0.00     0.004 C 
ATOM     10  C4' N4B d   1      -0.796  -1.162  -2.281  0.00  0.00     0.003 C 
ENDBRANCH   8   9
ENDBRANCH   7   8
ENDBRANCH   1   7
TORSDOF 3
ENDMDL
