MODEL 1
REMARK minimizedAffinity 9.35536098
REMARK minimizedRMSD -1
REMARK  3 active torsions:
REMARK  status: ('A' for Active; 'I' for Inactive)
REMARK    1  A    between atoms: C3'_2  and  C2'_3 
REMARK    2  A    between atoms: C2'_3  and  C1'_4 
REMARK    3  A    between atoms: C1'_4  and  C1_5 
ROOT
ATOM      1  C1  N4B d   1      -0.985   2.955   0.992  0.00  0.00    -0.075 A 
ATOM      2  C2  N4B d   1      -0.169   2.198   1.860  0.00  0.00     0.002 A 
ATOM      3  C3  N4B d   1      -0.740   1.303   2.732  0.00  0.00     0.002 A 
ATOM      4  C4  N4B d   1      -2.119   1.163   2.766  0.00  0.00    -0.004 A 
ATOM      5  C5  N4B d   1      -2.899   1.880   1.906  0.00  0.00     0.002 A 
ATOM      6  C6  N4B d   1      -2.339   2.780   1.022  0.00  0.00     0.002 A 
ENDROOT
BRANCH   1   7
ATOM      7  C1' N4B d   1      -0.414   4.008   0.081  0.00  0.00     0.057 C 
BRANCH   7   8
ATOM      8  C2' N4B d   1      -0.385   3.473  -1.347  0.00  0.00     0.009 C 
BRANCH   8   9
ATOM      9  C3' N4B d   1       0.329   4.421  -2.295  0.00  0.00     0.004 C 
ATOM     10  C4' N4B d   1      -0.563   4.933  -3.386  0.00  0.00     0.003 C 
ENDBRANCH   8   9
ENDBRANCH   7   8
ENDBRANCH   1   7
TORSDOF 3
ENDMDL
