MODEL 1
REMARK minimizedAffinity 6.74233723
REMARK minimizedRMSD -1
REMARK  3 active torsions:
REMARK  status: ('A' for Active; 'I' for Inactive)
REMARK    1  A    between atoms: C3'_2  and  C2'_3 
REMARK    2  A    between atoms: C2'_3  and  C1'_4 
REMARK    3  A    between atoms: C1'_4  and  C1_5 
ROOT
ATOM      1  C1  N4B d   1      -0.859   3.140   1.332  0.00  0.00    -0.075 A 
ATOM      2  C2  N4B d   1       0.316   3.813   1.736  0.00  0.00     0.002 A 
ATOM      3  C3  N4B d   1       0.849   3.579   2.979  0.00  0.00     0.002 A 
ATOM      4  C4  N4B d   1       0.217   2.694   3.841  0.00  0.00    -0.004 A 
ATOM      5  C5  N4B d   1      -0.902   2.029   3.434  0.00  0.00     0.002 A 
ATOM      6  C6  N4B d   1      -1.447   2.251   2.185  0.00  0.00     0.002 A 
ENDROOT
BRANCH   1   7
ATOM      7  C1' N4B d   1      -1.526   3.427   0.016  0.00  0.00     0.057 C 
BRANCH   7   8
ATOM      8  C2' N4B d   1      -0.841   2.616  -1.081  0.00  0.00     0.009 C 
BRANCH   8   9
ATOM      9  C3' N4B d   1       0.622   2.992  -1.235  0.00  0.00     0.004 C 
ATOM     10  C4' N4B d   1       0.812   4.366  -1.806  0.00  0.00     0.003 C 
ENDBRANCH   8   9
ENDBRANCH   7   8
ENDBRANCH   1   7
TORSDOF 3
ENDMDL
