MODEL 1
REMARK minimizedAffinity 4.60334492
REMARK minimizedRMSD -1
REMARK  3 active torsions:
REMARK  status: ('A' for Active; 'I' for Inactive)
REMARK    1  A    between atoms: C3'_2  and  C2'_3 
REMARK    2  A    between atoms: C2'_3  and  C1'_4 
REMARK    3  A    between atoms: C1'_4  and  C1_5 
ROOT
ATOM      1  C1  N4B d   1       0.244   1.721  -0.937  0.00  0.00    -0.075 A 
ATOM      2  C2  N4B d   1      -0.450   1.770   0.293  0.00  0.00     0.002 A 
ATOM      3  C3  N4B d   1      -0.755   2.983   0.860  0.00  0.00     0.002 A 
ATOM      4  C4  N4B d   1      -0.363   4.154   0.229  0.00  0.00    -0.004 A 
ATOM      5  C5  N4B d   1       0.284   4.098  -0.970  0.00  0.00     0.002 A 
ATOM      6  C6  N4B d   1       0.594   2.886  -1.554  0.00  0.00     0.002 A 
ENDROOT
BRANCH   1   7
ATOM      7  C1' N4B d   1       0.675   0.418  -1.553  0.00  0.00     0.057 C 
BRANCH   7   8
ATOM      8  C2' N4B d   1      -0.073   0.214  -2.867  0.00  0.00     0.009 C 
BRANCH   8   9
ATOM      9  C3' N4B d   1      -1.244  -0.741  -2.712  0.00  0.00     0.004 C 
ATOM     10  C4' N4B d   1      -2.517  -0.043  -2.338  0.00  0.00     0.003 C 
ENDBRANCH   8   9
ENDBRANCH   7   8
ENDBRANCH   1   7
TORSDOF 3
ENDMDL
