MODEL 1
REMARK minimizedAffinity 1.85954702
REMARK minimizedRMSD -1
REMARK  3 active torsions:
REMARK  status: ('A' for Active; 'I' for Inactive)
REMARK    1  A    between atoms: C3'_2  and  C2'_3 
REMARK    2  A    between atoms: C2'_3  and  C1'_4 
REMARK    3  A    between atoms: C1'_4  and  C1_5 
ROOT
ATOM      1  C1  N4B d   1      -1.348   1.794   1.691  0.00  0.00    -0.075 A 
ATOM      2  C2  N4B d   1      -2.662   2.288   1.534  0.00  0.00     0.002 A 
ATOM      3  C3  N4B d   1      -2.967   3.103   0.472  0.00  0.00     0.002 A 
ATOM      4  C4  N4B d   1      -1.975   3.451  -0.433  0.00  0.00    -0.004 A 
ATOM      5  C5  N4B d   1      -0.714   2.949  -0.289  0.00  0.00     0.002 A 
ATOM      6  C6  N4B d   1      -0.394   2.126   0.772  0.00  0.00     0.002 A 
ENDROOT
BRANCH   1   7
ATOM      7  C1' N4B d   1      -0.946   0.970   2.884  0.00  0.00     0.057 C 
BRANCH   7   8
ATOM      8  C2' N4B d   1      -2.026  -0.071   3.160  0.00  0.00     0.009 C 
BRANCH   8   9
ATOM      9  C3' N4B d   1      -1.457  -1.478   3.218  0.00  0.00     0.004 C 
ATOM     10  C4' N4B d   1      -1.834  -2.206   4.474  0.00  0.00     0.003 C 
ENDBRANCH   8   9
ENDBRANCH   7   8
ENDBRANCH   1   7
TORSDOF 3
ENDMDL
