MODEL 1
REMARK minimizedAffinity 10.7226734
REMARK minimizedRMSD -1
REMARK  3 active torsions:
REMARK  status: ('A' for Active; 'I' for Inactive)
REMARK    1  A    between atoms: C3'_2  and  C2'_3 
REMARK    2  A    between atoms: C2'_3  and  C1'_4 
REMARK    3  A    between atoms: C1'_4  and  C1_5 
ROOT
ATOM      1  C1  N4B d   1      -1.249   0.945  -0.680  0.00  0.00    -0.075 A 
ATOM      2  C2  N4B d   1      -2.543   0.493  -1.018  0.00  0.00     0.002 A 
ATOM      3  C3  N4B d   1      -2.728  -0.293  -2.128  0.00  0.00     0.002 A 
ATOM      4  C4  N4B d   1      -1.641  -0.624  -2.923  0.00  0.00    -0.004 A 
ATOM      5  C5  N4B d   1      -0.390  -0.205  -2.576  0.00  0.00     0.002 A 
ATOM      6  C6  N4B d   1      -0.189   0.583  -1.460  0.00  0.00     0.002 A 
ENDROOT
BRANCH   1   7
ATOM      7  C1' N4B d   1      -1.010   1.878   0.476  0.00  0.00     0.057 C 
BRANCH   7   8
ATOM      8  C2' N4B d   1      -2.014   1.571   1.583  0.00  0.00     0.009 C 
BRANCH   8   9
ATOM      9  C3' N4B d   1      -1.339   1.016   2.825  0.00  0.00     0.004 C 
ATOM     10  C4' N4B d   1      -0.003   1.644   3.089  0.00  0.00     0.003 C 
ENDBRANCH   8   9
ENDBRANCH   7   8
ENDBRANCH   1   7
TORSDOF 3
ENDMDL
