MODEL 1
REMARK minimizedAffinity 5.24760771
REMARK minimizedRMSD -1
REMARK  3 active torsions:
REMARK  status: ('A' for Active; 'I' for Inactive)
REMARK    1  A    between atoms: C3'_2  and  C2'_3 
REMARK    2  A    between atoms: C2'_3  and  C1'_4 
REMARK    3  A    between atoms: C1'_4  and  C1_5 
ROOT
ATOM      1  C1  N4B d   1      -0.060   1.271  -0.939  0.00  0.00    -0.075 A 
ATOM      2  C2  N4B d   1      -0.585   1.470   0.357  0.00  0.00     0.002 A 
ATOM      3  C3  N4B d   1      -0.814   2.744   0.817  0.00  0.00     0.002 A 
ATOM      4  C4  N4B d   1      -0.509   3.830   0.010  0.00  0.00    -0.004 A 
ATOM      5  C5  N4B d   1      -0.025   3.628  -1.250  0.00  0.00     0.002 A 
ATOM      6  C6  N4B d   1       0.206   2.353  -1.727  0.00  0.00     0.002 A 
ENDROOT
BRANCH   1   7
ATOM      7  C1' N4B d   1       0.288  -0.099  -1.453  0.00  0.00     0.057 C 
BRANCH   7   8
ATOM      8  C2' N4B d   1      -0.518  -0.379  -2.718  0.00  0.00     0.009 C 
BRANCH   8   9
ATOM      9  C3' N4B d   1      -1.785  -1.163  -2.423  0.00  0.00     0.004 C 
ATOM     10  C4' N4B d   1      -2.950  -0.281  -2.086  0.00  0.00     0.003 C 
ENDBRANCH   8   9
ENDBRANCH   7   8
ENDBRANCH   1   7
TORSDOF 3
ENDMDL
