MODEL 1
REMARK minimizedAffinity 7.58302784
REMARK minimizedRMSD -1
REMARK  3 active torsions:
REMARK  status: ('A' for Active; 'I' for Inactive)
REMARK    1  A    between atoms: C3'_2  and  C2'_3 
REMARK    2  A    between atoms: C2'_3  and  C1'_4 
REMARK    3  A    between atoms: C1'_4  and  C1_5 
ROOT
ATOM      1  C1  N4B d   1      -0.769   1.526  -1.718  0.00  0.00    -0.075 A 
ATOM      2  C2  N4B d   1       0.124   0.433  -1.783  0.00  0.00     0.002 A 
ATOM      3  C3  N4B d   1      -0.349  -0.824  -2.071  0.00  0.00     0.002 A 
ATOM      4  C4  N4B d   1      -1.707  -1.015  -2.278  0.00  0.00    -0.004 A 
ATOM      5  C5  N4B d   1      -2.559   0.050  -2.239  0.00  0.00     0.002 A 
ATOM      6  C6  N4B d   1      -2.097   1.320  -1.954  0.00  0.00     0.002 A 
ENDROOT
BRANCH   1   7
ATOM      7  C1' N4B d   1      -0.311   2.903  -1.323  0.00  0.00     0.057 C 
BRANCH   7   8
ATOM      8  C2' N4B d   1       0.180   3.643  -2.563  0.00  0.00     0.009 C 
BRANCH   8   9
ATOM      9  C3' N4B d   1      -0.030   5.143  -2.450  0.00  0.00     0.004 C 
ATOM     10  C4' N4B d   1      -1.296   5.604  -3.108  0.00  0.00     0.003 C 
ENDBRANCH   8   9
ENDBRANCH   7   8
ENDBRANCH   1   7
TORSDOF 3
ENDMDL
