MODEL 1
REMARK minimizedAffinity 8.26886272
REMARK minimizedRMSD -1
REMARK  3 active torsions:
REMARK  status: ('A' for Active; 'I' for Inactive)
REMARK    1  A    between atoms: C3'_2  and  C2'_3 
REMARK    2  A    between atoms: C2'_3  and  C1'_4 
REMARK    3  A    between atoms: C1'_4  and  C1_5 
ROOT
ATOM      1  C1  N4B d   1      -0.404   2.888   0.053  0.00  0.00    -0.075 A 
ATOM      2  C2  N4B d   1      -0.690   2.093   1.184  0.00  0.00     0.002 A 
ATOM      3  C3  N4B d   1      -0.656   2.647   2.440  0.00  0.00     0.002 A 
ATOM      4  C4  N4B d   1      -0.321   3.985   2.590  0.00  0.00    -0.004 A 
ATOM      5  C5  N4B d   1      -0.071   4.753   1.491  0.00  0.00     0.002 A 
ATOM      6  C6  N4B d   1      -0.106   4.209   0.222  0.00  0.00     0.002 A 
ENDROOT
BRANCH   1   7
ATOM      7  C1' N4B d   1      -0.345   2.306  -1.333  0.00  0.00     0.057 C 
BRANCH   7   8
ATOM      8  C2' N4B d   1       0.038   0.832  -1.241  0.00  0.00     0.009 C 
BRANCH   8   9
ATOM      9  C3' N4B d   1      -0.563   0.017  -2.373  0.00  0.00     0.004 C 
ATOM     10  C4' N4B d   1      -2.048  -0.147  -2.245  0.00  0.00     0.003 C 
ENDBRANCH   8   9
ENDBRANCH   7   8
ENDBRANCH   1   7
TORSDOF 3
ENDMDL
