MODEL 1
REMARK minimizedAffinity 3.86074734
REMARK minimizedRMSD -1
REMARK  3 active torsions:
REMARK  status: ('A' for Active; 'I' for Inactive)
REMARK    1  A    between atoms: C3'_2  and  C2'_3 
REMARK    2  A    between atoms: C2'_3  and  C1'_4 
REMARK    3  A    between atoms: C1'_4  and  C1_5 
ROOT
ATOM      1  C1  N4B d   1      -0.438   1.561  -2.030  0.00  0.00    -0.075 A 
ATOM      2  C2  N4B d   1       0.264   0.343  -2.162  0.00  0.00     0.002 A 
ATOM      3  C3  N4B d   1      -0.394  -0.786  -2.587  0.00  0.00     0.002 A 
ATOM      4  C4  N4B d   1      -1.750  -0.724  -2.867  0.00  0.00    -0.004 A 
ATOM      5  C5  N4B d   1      -2.415   0.462  -2.762  0.00  0.00     0.002 A 
ATOM      6  C6  N4B d   1      -1.766   1.605  -2.339  0.00  0.00     0.002 A 
ENDROOT
BRANCH   1   7
ATOM      7  C1' N4B d   1       0.219   2.801  -1.486  0.00  0.00     0.057 C 
BRANCH   7   8
ATOM      8  C2' N4B d   1      -0.322   3.081  -0.087  0.00  0.00     0.009 C 
BRANCH   8   9
ATOM      9  C3' N4B d   1      -0.283   4.562   0.250  0.00  0.00     0.004 C 
ATOM     10  C4' N4B d   1       1.110   5.116   0.272  0.00  0.00     0.003 C 
ENDBRANCH   8   9
ENDBRANCH   7   8
ENDBRANCH   1   7
TORSDOF 3
ENDMDL
