MODEL 1
REMARK minimizedAffinity 17.5742569
REMARK minimizedRMSD -1
REMARK  0 active torsions:
REMARK  status: ('A' for Active; 'I' for Inactive)
ROOT
ATOM      1  N1  IND d   1       5.267   2.022   0.361  0.00  0.00    -0.196 N 
ATOM      2  C2  IND d   1       5.984   1.178   1.163  0.00  0.00     0.054 A 
ATOM      3  C3  IND d   1       6.000   1.638   2.435  0.00  0.00    -0.031 A 
ATOM      4  C4  IND d   1       4.832   3.699   3.444  0.00  0.00     0.051 A 
ATOM      5  C5  IND d   1       4.093   4.795   3.098  0.00  0.00    -0.031 A 
ATOM      6  C6  IND d   1       3.697   5.026   1.796  0.00  0.00     0.015 A 
ATOM      7  C7  IND d   1       4.018   4.160   0.790  0.00  0.00    -0.016 A 
ATOM      8  C8  IND d   1       4.774   3.050   1.136  0.00  0.00    -0.047 A 
ATOM      9  C9  IND d   1       5.215   2.831   2.448  0.00  0.00    -0.096 A 
ATOM     10  HN1 IND d   1       5.145   1.928  -0.484  0.00  0.00     0.298 HD
ENDROOT
TORSDOF 0
ENDMDL
