MODEL 1
REMARK minimizedAffinity 6.76501322
REMARK minimizedRMSD -1
REMARK  0 active torsions:
REMARK  status: ('A' for Active; 'I' for Inactive)
ROOT
ATOM      1  N1  IND d   1       0.204  -4.181   4.581  0.00  0.00    -0.196 N 
ATOM      2  C2  IND d   1      -0.380  -5.142   5.358  0.00  0.00     0.054 A 
ATOM      3  C3  IND d   1       0.564  -5.866   6.000  0.00  0.00    -0.031 A 
ATOM      4  C4  IND d   1       3.123  -5.582   6.000  0.00  0.00     0.051 A 
ATOM      5  C5  IND d   1       4.127  -4.864   5.413  0.00  0.00    -0.031 A 
ATOM      6  C6  IND d   1       3.870  -3.860   4.502  0.00  0.00     0.015 A 
ATOM      7  C7  IND d   1       2.592  -3.527   4.152  0.00  0.00    -0.016 A 
ATOM      8  C8  IND d   1       1.570  -4.258   4.740  0.00  0.00    -0.047 A 
ATOM      9  C9  IND d   1       1.827  -5.307   5.633  0.00  0.00    -0.096 A 
ATOM     10  HN1 IND d   1      -0.212  -3.622   4.077  0.00  0.00     0.298 HD
ENDROOT
TORSDOF 0
ENDMDL
