MODEL 1
REMARK minimizedAffinity 9.96638203
REMARK minimizedRMSD -1
REMARK  0 active torsions:
REMARK  status: ('A' for Active; 'I' for Inactive)
ROOT
ATOM      1  N1  IND d   1       5.138  -2.647   4.849  0.00  0.00    -0.196 N 
ATOM      2  C2  IND d   1       5.242  -3.900   5.384  0.00  0.00     0.054 A 
ATOM      3  C3  IND d   1       4.037  -4.514   5.379  0.00  0.00    -0.031 A 
ATOM      4  C4  IND d   1       1.783  -3.688   4.450  0.00  0.00     0.051 A 
ATOM      5  C5  IND d   1       1.183  -2.591   3.897  0.00  0.00    -0.031 A 
ATOM      6  C6  IND d   1       1.885  -1.435   3.626  0.00  0.00     0.015 A 
ATOM      7  C7  IND d   1       3.222  -1.335   3.888  0.00  0.00    -0.016 A 
ATOM      8  C8  IND d   1       3.834  -2.444   4.455  0.00  0.00    -0.047 A 
ATOM      9  C9  IND d   1       3.118  -3.606   4.772  0.00  0.00    -0.096 A 
ATOM     10  HN1 IND d   1       5.780  -2.080   4.771  0.00  0.00     0.298 HD
ENDROOT
TORSDOF 0
ENDMDL
