MODEL 1
REMARK minimizedAffinity 13.4128599
REMARK minimizedRMSD -1
REMARK  0 active torsions:
REMARK  status: ('A' for Active; 'I' for Inactive)
ROOT
ATOM      1  N1  IND d   1       0.834  -2.009   2.967  0.00  0.00    -0.196 N 
ATOM      2  C2  IND d   1       1.882  -1.344   3.539  0.00  0.00     0.054 A 
ATOM      3  C3  IND d   1       1.621  -0.019   3.601  0.00  0.00    -0.031 A 
ATOM      4  C4  IND d   1      -0.503   1.263   2.916  0.00  0.00     0.051 A 
ATOM      5  C5  IND d   1      -1.717   1.092   2.312  0.00  0.00    -0.031 A 
ATOM      6  C6  IND d   1      -2.152  -0.148   1.889  0.00  0.00     0.015 A 
ATOM      7  C7  IND d   1      -1.392  -1.269   2.066  0.00  0.00    -0.016 A 
ATOM      8  C8  IND d   1      -0.156  -1.097   2.673  0.00  0.00    -0.047 A 
ATOM      9  C9  IND d   1       0.310   0.164   3.066  0.00  0.00    -0.096 A 
ATOM     10  HN1 IND d   1       0.798  -2.855   2.817  0.00  0.00     0.298 HD
ENDROOT
TORSDOF 0
ENDMDL
