MODEL 1
REMARK minimizedAffinity 11.0826817
REMARK minimizedRMSD -1
REMARK  0 active torsions:
REMARK  status: ('A' for Active; 'I' for Inactive)
ROOT
ATOM      1  N1  IND d   1       3.991  -4.105   5.278  0.00  0.00    -0.196 N 
ATOM      2  C2  IND d   1       5.054  -3.637   6.000  0.00  0.00     0.054 A 
ATOM      3  C3  IND d   1       5.112  -2.288   5.931  0.00  0.00    -0.031 A 
ATOM      4  C4  IND d   1       3.508  -0.639   4.775  0.00  0.00     0.051 A 
ATOM      5  C5  IND d   1       2.412  -0.595   3.961  0.00  0.00    -0.031 A 
ATOM      6  C6  IND d   1       1.771  -1.741   3.537  0.00  0.00     0.015 A 
ATOM      7  C7  IND d   1       2.198  -2.980   3.924  0.00  0.00    -0.016 A 
ATOM      8  C8  IND d   1       3.316  -3.029   4.745  0.00  0.00    -0.047 A 
ATOM      9  C9  IND d   1       3.995  -1.870   5.143  0.00  0.00    -0.096 A 
ATOM     10  HN1 IND d   1       3.780  -4.932   5.175  0.00  0.00     0.298 HD
ENDROOT
TORSDOF 0
ENDMDL
