MODEL 1
REMARK minimizedAffinity 10.2218676
REMARK minimizedRMSD -1
REMARK  0 active torsions:
REMARK  status: ('A' for Active; 'I' for Inactive)
ROOT
ATOM      1  N1  IND d   1      -1.294  -4.130   5.088  0.00  0.00    -0.196 N 
ATOM      2  C2  IND d   1      -0.936  -5.083   6.000  0.00  0.00     0.054 A 
ATOM      3  C3  IND d   1       0.386  -5.350   5.908  0.00  0.00    -0.031 A 
ATOM      4  C4  IND d   1       2.172  -4.268   4.402  0.00  0.00     0.051 A 
ATOM      5  C5  IND d   1       2.320  -3.375   3.378  0.00  0.00    -0.031 A 
ATOM      6  C6  IND d   1       1.250  -2.672   2.863  0.00  0.00     0.015 A 
ATOM      7  C7  IND d   1      -0.012  -2.828   3.362  0.00  0.00    -0.016 A 
ATOM      8  C8  IND d   1      -0.167  -3.739   4.398  0.00  0.00    -0.047 A 
ATOM      9  C9  IND d   1       0.908  -4.487   4.896  0.00  0.00    -0.096 A 
ATOM     10  HN1 IND d   1      -2.088  -3.825   4.965  0.00  0.00     0.298 HD
ENDROOT
TORSDOF 0
ENDMDL
