MODEL 1
REMARK minimizedAffinity -4.44172525
REMARK minimizedRMSD -1
REMARK  0 active torsions:
REMARK  status: ('A' for Active; 'I' for Inactive)
ROOT
ATOM      1  C   UNL d   1      -0.282  -3.511  -0.950  0.00  0.00    -0.002 A 
ATOM      2  C1  UNL d   1       0.180  -2.723  -1.995  0.00  0.00     0.010 A 
ATOM      3  C2  UNL d   1       0.233  -1.334  -1.867  0.00  0.00     0.041 A 
ATOM      4  C3  UNL d   1      -0.189  -0.744  -0.659  0.00  0.00    -0.075 A 
ATOM      5  S   UNL d   1      -0.212   0.937  -0.276  0.00  0.00     0.015 SA
ATOM      6  C4  UNL d   1      -0.834   0.649   1.284  0.00  0.00     0.022 A 
ATOM      7  C5  UNL d   1      -1.026  -0.691   1.524  0.00  0.00     0.026 A 
ATOM      8  C6  UNL d   1      -0.657  -1.516   0.408  0.00  0.00    -0.082 A 
ATOM      9  C7  UNL d   1      -0.699  -2.922   0.247  0.00  0.00     0.045 A 
ENDROOT
TORSDOF 0
ENDMDL
