MODEL 1
REMARK minimizedAffinity -2.50361872
REMARK minimizedRMSD -1
REMARK  0 active torsions:
REMARK  status: ('A' for Active; 'I' for Inactive)
ROOT
ATOM      1  C   UNL d   1      -1.258  -1.820   1.376  0.00  0.00    -0.002 A 
ATOM      2  C1  UNL d   1      -0.736  -2.349   0.204  0.00  0.00     0.010 A 
ATOM      3  C2  UNL d   1      -0.081  -1.528  -0.716  0.00  0.00     0.041 A 
ATOM      4  C3  UNL d   1       0.042  -0.153  -0.436  0.00  0.00    -0.075 A 
ATOM      5  S   UNL d   1       0.804   1.043  -1.416  0.00  0.00     0.015 SA
ATOM      6  C4  UNL d   1       0.455   2.285  -0.302  0.00  0.00     0.022 A 
ATOM      7  C5  UNL d   1      -0.226   1.816   0.796  0.00  0.00     0.026 A 
ATOM      8  C6  UNL d   1      -0.475   0.403   0.738  0.00  0.00    -0.082 A 
ATOM      9  C7  UNL d   1      -1.133  -0.455   1.651  0.00  0.00     0.045 A 
ENDROOT
TORSDOF 0
ENDMDL
