MODEL 1
REMARK minimizedAffinity -0.668241799
REMARK minimizedRMSD -1
REMARK  0 active torsions:
REMARK  status: ('A' for Active; 'I' for Inactive)
ROOT
ATOM      1  C   UNL d   1      -1.155  -2.094   1.050  0.00  0.00    -0.002 A 
ATOM      2  C1  UNL d   1      -0.663  -2.426  -0.204  0.00  0.00     0.010 A 
ATOM      3  C2  UNL d   1      -0.087  -1.452  -1.022  0.00  0.00     0.041 A 
ATOM      4  C3  UNL d   1      -0.010  -0.126  -0.552  0.00  0.00    -0.075 A 
ATOM      5  S   UNL d   1       0.656   1.233  -1.378  0.00  0.00     0.015 SA
ATOM      6  C4  UNL d   1       0.303   2.286  -0.085  0.00  0.00     0.022 A 
ATOM      7  C5  UNL d   1      -0.307   1.633   0.960  0.00  0.00     0.026 A 
ATOM      8  C6  UNL d   1      -0.497   0.232   0.708  0.00  0.00    -0.082 A 
ATOM      9  C7  UNL d   1      -1.077  -0.778   1.513  0.00  0.00     0.045 A 
ENDROOT
TORSDOF 0
ENDMDL
