MODEL 1
REMARK minimizedAffinity -2.03514576
REMARK minimizedRMSD -1
REMARK  0 active torsions:
REMARK  status: ('A' for Active; 'I' for Inactive)
ROOT
ATOM      1  C   UNL d   1      -0.930  -0.678   1.261  0.00  0.00    -0.002 A 
ATOM      2  C1  UNL d   1      -0.226  -1.221   0.196  0.00  0.00     0.010 A 
ATOM      3  C2  UNL d   1       0.599  -0.418  -0.594  0.00  0.00     0.041 A 
ATOM      4  C3  UNL d   1       0.706   0.954  -0.291  0.00  0.00    -0.075 A 
ATOM      5  S   UNL d   1       1.656   2.130  -1.120  0.00  0.00     0.015 SA
ATOM      6  C4  UNL d   1       1.150   3.381  -0.080  0.00  0.00     0.022 A 
ATOM      7  C5  UNL d   1       0.277   2.931   0.882  0.00  0.00     0.026 A 
ATOM      8  C6  UNL d   1       0.007   1.524   0.776  0.00  0.00    -0.082 A 
ATOM      9  C7  UNL d   1      -0.821   0.683   1.558  0.00  0.00     0.045 A 
ENDROOT
TORSDOF 0
ENDMDL
