MODEL 1
REMARK minimizedAffinity -1.82444572
REMARK minimizedRMSD -1
REMARK  0 active torsions:
REMARK  status: ('A' for Active; 'I' for Inactive)
ROOT
ATOM      1  C   UNL d   1       1.646   4.125   0.000  0.00  0.00    -0.002 A 
ATOM      2  C1  UNL d   1       1.114   4.266   1.274  0.00  0.00     0.010 A 
ATOM      3  C2  UNL d   1       0.375   3.233   1.853  0.00  0.00     0.041 A 
ATOM      4  C3  UNL d   1       0.180   2.043   1.124  0.00  0.00    -0.075 A 
ATOM      5  S   UNL d   1      -0.690   0.643   1.632  0.00  0.00     0.015 SA
ATOM      6  C4  UNL d   1      -0.374  -0.175   0.171  0.00  0.00     0.022 A 
ATOM      7  C5  UNL d   1       0.375   0.586  -0.695  0.00  0.00     0.026 A 
ATOM      8  C6  UNL d   1       0.707   1.877  -0.159  0.00  0.00    -0.082 A 
ATOM      9  C7  UNL d   1       1.451   2.943  -0.720  0.00  0.00     0.045 A 
ENDROOT
TORSDOF 0
ENDMDL
