MODEL 1
REMARK minimizedAffinity -0.44866544
REMARK minimizedRMSD -1
REMARK  0 active torsions:
REMARK  status: ('A' for Active; 'I' for Inactive)
ROOT
ATOM      1  C   UNL d   1      -0.485  -3.527   0.834  0.00  0.00    -0.002 A 
ATOM      2  C1  UNL d   1       0.699  -3.438   0.115  0.00  0.00     0.010 A 
ATOM      3  C2  UNL d   1       1.137  -2.210  -0.383  0.00  0.00     0.041 A 
ATOM      4  C3  UNL d   1       0.359  -1.060  -0.143  0.00  0.00    -0.075 A 
ATOM      5  S   UNL d   1       0.698   0.551  -0.656  0.00  0.00     0.015 SA
ATOM      6  C4  UNL d   1      -0.720   1.159   0.068  0.00  0.00     0.022 A 
ATOM      7  C5  UNL d   1      -1.446   0.172   0.689  0.00  0.00     0.026 A 
ATOM      8  C6  UNL d   1      -0.836  -1.124   0.579  0.00  0.00    -0.082 A 
ATOM      9  C7  UNL d   1      -1.254  -2.384   1.070  0.00  0.00     0.045 A 
ENDROOT
TORSDOF 0
ENDMDL
