MODEL 1
REMARK minimizedAffinity -2.81920409
REMARK minimizedRMSD -1
REMARK  0 active torsions:
REMARK  status: ('A' for Active; 'I' for Inactive)
ROOT
ATOM      1  C   UNL d   1      -0.276  -2.989   1.208  0.00  0.00    -0.002 A 
ATOM      2  C1  UNL d   1       0.808  -2.839   0.356  0.00  0.00     0.010 A 
ATOM      3  C2  UNL d   1       1.036  -1.626  -0.296  0.00  0.00     0.041 A 
ATOM      4  C3  UNL d   1       0.148  -0.555  -0.074  0.00  0.00    -0.075 A 
ATOM      5  S   UNL d   1       0.229   1.023  -0.764  0.00  0.00     0.015 SA
ATOM      6  C4  UNL d   1      -1.173   1.535   0.058  0.00  0.00     0.022 A 
ATOM      7  C5  UNL d   1      -1.704   0.539   0.843  0.00  0.00     0.026 A 
ATOM      8  C6  UNL d   1      -0.951  -0.682   0.781  0.00  0.00    -0.082 A 
ATOM      9  C7  UNL d   1      -1.155  -1.925   1.427  0.00  0.00     0.045 A 
ENDROOT
TORSDOF 0
ENDMDL
