MODEL 1
REMARK minimizedAffinity -1.46498501
REMARK minimizedRMSD -1
REMARK  0 active torsions:
REMARK  status: ('A' for Active; 'I' for Inactive)
ROOT
ATOM      1  C   UNL d   1      -1.134  -2.345   1.265  0.00  0.00    -0.002 A 
ATOM      2  C1  UNL d   1       0.030  -2.715   0.606  0.00  0.00     0.010 A 
ATOM      3  C2  UNL d   1       0.740  -1.786  -0.158  0.00  0.00     0.041 A 
ATOM      4  C3  UNL d   1       0.256  -0.466  -0.248  0.00  0.00    -0.075 A 
ATOM      5  S   UNL d   1       0.960   0.841  -1.125  0.00  0.00     0.015 SA
ATOM      6  C4  UNL d   1      -0.267   1.922  -0.645  0.00  0.00     0.022 A 
ATOM      7  C5  UNL d   1      -1.200   1.317   0.165  0.00  0.00     0.026 A 
ATOM      8  C6  UNL d   1      -0.913  -0.069   0.407  0.00  0.00    -0.082 A 
ATOM      9  C7  UNL d   1      -1.610  -1.034   1.173  0.00  0.00     0.045 A 
ENDROOT
TORSDOF 0
ENDMDL
