MODEL 1
REMARK minimizedAffinity -4.79876566
REMARK minimizedRMSD -1
REMARK  0 active torsions:
REMARK  status: ('A' for Active; 'I' for Inactive)
ROOT
ATOM      1  C   UNL d   1       0.062  -3.457  -0.651  0.00  0.00    -0.002 A 
ATOM      2  C1  UNL d   1       0.693  -2.938  -1.773  0.00  0.00     0.010 A 
ATOM      3  C2  UNL d   1       0.871  -1.560  -1.914  0.00  0.00     0.041 A 
ATOM      4  C3  UNL d   1       0.402  -0.705  -0.897  0.00  0.00    -0.075 A 
ATOM      5  S   UNL d   1       0.510   1.015  -0.854  0.00  0.00     0.015 SA
ATOM      6  C4  UNL d   1      -0.277   1.101   0.655  0.00  0.00     0.022 A 
ATOM      7  C5  UNL d   1      -0.622  -0.143   1.129  0.00  0.00     0.026 A 
ATOM      8  C6  UNL d   1      -0.235  -1.204   0.242  0.00  0.00    -0.082 A 
ATOM      9  C7  UNL d   1      -0.402  -2.606   0.355  0.00  0.00     0.045 A 
ENDROOT
TORSDOF 0
ENDMDL
