MODEL 1
REMARK minimizedAffinity -1.9731288
REMARK minimizedRMSD -1
REMARK  0 active torsions:
REMARK  status: ('A' for Active; 'I' for Inactive)
ROOT
ATOM      1  C   UNL d   1      -0.804  -1.415   1.041  0.00  0.00    -0.002 A 
ATOM      2  C1  UNL d   1      -0.045  -1.768  -0.066  0.00  0.00     0.010 A 
ATOM      3  C2  UNL d   1       0.652  -0.798  -0.788  0.00  0.00     0.041 A 
ATOM      4  C3  UNL d   1       0.574   0.547  -0.374  0.00  0.00    -0.075 A 
ATOM      5  S   UNL d   1       1.344   1.906  -1.105  0.00  0.00     0.015 SA
ATOM      6  C4  UNL d   1       0.684   2.987   0.035  0.00  0.00     0.022 A 
ATOM      7  C5  UNL d   1      -0.107   2.344   0.958  0.00  0.00     0.026 A 
ATOM      8  C6  UNL d   1      -0.183   0.927   0.737  0.00  0.00    -0.082 A 
ATOM      9  C7  UNL d   1      -0.878  -0.080   1.448  0.00  0.00     0.045 A 
ENDROOT
TORSDOF 0
ENDMDL
