MODEL 1
REMARK minimizedAffinity -4.81349468
REMARK minimizedRMSD -1
REMARK  3 active torsions:
REMARK  status: ('A' for Active; 'I' for Inactive)
REMARK    1  A    between atoms: C3'_2  and  C2'_3 
REMARK    2  A    between atoms: C2'_3  and  C1'_4 
REMARK    3  A    between atoms: C1'_4  and  C1_5 
ROOT
ATOM      1  C1  N4B d   1       0.088   0.174  -0.638  0.00  0.00    -0.075 A 
ATOM      2  C2  N4B d   1      -0.859   1.144  -1.033  0.00  0.00     0.002 A 
ATOM      3  C3  N4B d   1      -1.539   1.866  -0.084  0.00  0.00     0.002 A 
ATOM      4  C4  N4B d   1      -1.305   1.623   1.261  0.00  0.00    -0.004 A 
ATOM      5  C5  N4B d   1      -0.370   0.702   1.635  0.00  0.00     0.002 A 
ATOM      6  C6  N4B d   1       0.324  -0.028   0.691  0.00  0.00     0.002 A 
ENDROOT
BRANCH   1   7
ATOM      7  C1' N4B d   1       0.794  -0.700  -1.638  0.00  0.00     0.057 C 
BRANCH   7   8
ATOM      8  C2' N4B d   1       0.518  -2.164  -1.307  0.00  0.00     0.009 C 
BRANCH   8   9
ATOM      9  C3' N4B d   1      -0.620  -2.730  -2.140  0.00  0.00     0.004 C 
ATOM     10  C4' N4B d   1      -1.345  -3.847  -1.451  0.00  0.00     0.003 C 
ENDBRANCH   8   9
ENDBRANCH   7   8
ENDBRANCH   1   7
TORSDOF 3
ENDMDL
