MODEL 1
REMARK minimizedAffinity -6.01749086
REMARK minimizedRMSD -1
REMARK  3 active torsions:
REMARK  status: ('A' for Active; 'I' for Inactive)
REMARK    1  A    between atoms: C3'_2  and  C2'_3 
REMARK    2  A    between atoms: C2'_3  and  C1'_4 
REMARK    3  A    between atoms: C1'_4  and  C1_5 
ROOT
ATOM      1  C1  N4B d   1      -0.179   0.281   0.115  0.00  0.00    -0.075 A 
ATOM      2  C2  N4B d   1       0.486   0.394   1.355  0.00  0.00     0.002 A 
ATOM      3  C3  N4B d   1       0.013   1.260   2.311  0.00  0.00     0.002 A 
ATOM      4  C4  N4B d   1      -1.106   2.033   2.043  0.00  0.00    -0.004 A 
ATOM      5  C5  N4B d   1      -1.758   1.899   0.852  0.00  0.00     0.002 A 
ATOM      6  C6  N4B d   1      -1.296   1.030  -0.117  0.00  0.00     0.002 A 
ENDROOT
BRANCH   1   7
ATOM      7  C1' N4B d   1       0.349  -0.588  -0.994  0.00  0.00     0.057 C 
BRANCH   7   8
ATOM      8  C2' N4B d   1       0.010  -2.045  -0.693  0.00  0.00     0.009 C 
BRANCH   8   9
ATOM      9  C3' N4B d   1       0.346  -2.959  -1.858  0.00  0.00     0.004 C 
ATOM     10  C4' N4B d   1      -0.683  -2.913  -2.949  0.00  0.00     0.003 C 
ENDBRANCH   8   9
ENDBRANCH   7   8
ENDBRANCH   1   7
TORSDOF 3
ENDMDL
