MODEL 1
REMARK minimizedAffinity -1.73119164
REMARK minimizedRMSD -1
REMARK  3 active torsions:
REMARK  status: ('A' for Active; 'I' for Inactive)
REMARK    1  A    between atoms: C3'_2  and  C2'_3 
REMARK    2  A    between atoms: C2'_3  and  C1'_4 
REMARK    3  A    between atoms: C1'_4  and  C1_5 
ROOT
ATOM      1  C1  N4B d   1       0.519  -0.696  -0.753  0.00  0.00    -0.075 A 
ATOM      2  C2  N4B d   1       0.042   0.459  -1.411  0.00  0.00     0.002 A 
ATOM      3  C3  N4B d   1      -0.187   1.610  -0.699  0.00  0.00     0.002 A 
ATOM      4  C4  N4B d   1       0.035   1.625   0.670  0.00  0.00    -0.004 A 
ATOM      5  C5  N4B d   1       0.520   0.513   1.294  0.00  0.00     0.002 A 
ATOM      6  C6  N4B d   1       0.758  -0.650   0.590  0.00  0.00     0.002 A 
ENDROOT
BRANCH   1   7
ATOM      7  C1' N4B d   1       0.702  -2.003  -1.475  0.00  0.00     0.057 C 
BRANCH   7   8
ATOM      8  C2' N4B d   1      -0.666  -2.570  -1.839  0.00  0.00     0.009 C 
BRANCH   8   9
ATOM      9  C3' N4B d   1      -0.691  -4.087  -1.767  0.00  0.00     0.004 C 
ATOM     10  C4' N4B d   1      -0.651  -4.602  -0.359  0.00  0.00     0.003 C 
ENDBRANCH   8   9
ENDBRANCH   7   8
ENDBRANCH   1   7
TORSDOF 3
ENDMDL
