MODEL 1
REMARK minimizedAffinity 5.10854006
REMARK minimizedRMSD -1
REMARK  0 active torsions:
REMARK  status: ('A' for Active; 'I' for Inactive)
ROOT
ATOM      1  C1  DEN d   1      -0.250  -1.742   3.137  0.00  0.00     0.130 A 
ATOM      2  C2  DEN d   1      -1.373  -2.593   3.519  0.00  0.00    -0.031 A 
ATOM      3  C3  DEN d   1      -1.108  -3.954   3.012  0.00  0.00     0.027 A 
ATOM      4  C4  DEN d   1       0.925  -4.823   1.683  0.00  0.00     0.027 A 
ATOM      5  C5  DEN d   1       2.128  -4.469   1.113  0.00  0.00    -0.003 A 
ATOM      6  C6  DEN d   1       2.602  -3.184   1.148  0.00  0.00     0.001 A 
ATOM      7  C7  DEN d   1       1.891  -2.215   1.805  0.00  0.00     0.017 A 
ATOM      8  C8  DEN d   1       0.674  -2.563   2.376  0.00  0.00    -0.094 A 
ATOM      9  C9  DEN d   1       0.217  -3.870   2.341  0.00  0.00    -0.072 A 
ENDROOT
TORSDOF 0
ENDMDL
