MODEL 1
REMARK minimizedAffinity 4.37611818
REMARK minimizedRMSD -1
REMARK  0 active torsions:
REMARK  status: ('A' for Active; 'I' for Inactive)
ROOT
ATOM      1  C1  DEN d   1       0.574  -2.106   0.104  0.00  0.00     0.130 A 
ATOM      2  C2  DEN d   1       1.734  -2.865   0.564  0.00  0.00    -0.031 A 
ATOM      3  C3  DEN d   1       1.736  -2.847   2.040  0.00  0.00     0.027 A 
ATOM      4  C4  DEN d   1       0.060  -1.728   3.651  0.00  0.00     0.027 A 
ATOM      5  C5  DEN d   1      -1.081  -0.962   3.728  0.00  0.00    -0.003 A 
ATOM      6  C6  DEN d   1      -1.727  -0.498   2.613  0.00  0.00     0.001 A 
ATOM      7  C7  DEN d   1      -1.261  -0.835   1.370  0.00  0.00     0.017 A 
ATOM      8  C8  DEN d   1      -0.106  -1.602   1.283  0.00  0.00    -0.094 A 
ATOM      9  C9  DEN d   1       0.526  -2.070   2.423  0.00  0.00    -0.072 A 
ENDROOT
TORSDOF 0
ENDMDL
