MODEL 1
REMARK minimizedAffinity 7.932693
REMARK minimizedRMSD -1
REMARK  0 active torsions:
REMARK  status: ('A' for Active; 'I' for Inactive)
ROOT
ATOM      1  C1  DEN d   1       5.968  -0.827   0.925  0.00  0.00     0.130 A 
ATOM      2  C2  DEN d   1       5.963  -1.056  -0.517  0.00  0.00    -0.031 A 
ATOM      3  C3  DEN d   1       5.969   0.259  -1.189  0.00  0.00     0.027 A 
ATOM      4  C4  DEN d   1       5.990   2.616  -0.141  0.00  0.00     0.027 A 
ATOM      5  C5  DEN d   1       5.987   3.317   1.044  0.00  0.00    -0.003 A 
ATOM      6  C6  DEN d   1       5.943   2.692   2.263  0.00  0.00     0.001 A 
ATOM      7  C7  DEN d   1       5.946   1.324   2.324  0.00  0.00     0.017 A 
ATOM      8  C8  DEN d   1       5.942   0.610   1.133  0.00  0.00    -0.094 A 
ATOM      9  C9  DEN d   1       5.999   1.260  -0.088  0.00  0.00    -0.072 A 
ENDROOT
TORSDOF 0
ENDMDL
