MODEL 1
REMARK minimizedAffinity -0.309726089
REMARK minimizedRMSD -1
REMARK  0 active torsions:
REMARK  status: ('A' for Active; 'I' for Inactive)
ROOT
ATOM      1  C1  DEN d   1      -1.114  -1.216   2.472  0.00  0.00     0.130 A 
ATOM      2  C2  DEN d   1      -0.772  -0.224   3.488  0.00  0.00    -0.031 A 
ATOM      3  C3  DEN d   1       0.669  -0.351   3.784  0.00  0.00     0.027 A 
ATOM      4  C4  DEN d   1       2.396  -1.977   2.770  0.00  0.00     0.027 A 
ATOM      5  C5  DEN d   1       2.575  -3.012   1.879  0.00  0.00    -0.003 A 
ATOM      6  C6  DEN d   1       1.540  -3.539   1.154  0.00  0.00     0.001 A 
ATOM      7  C7  DEN d   1       0.285  -3.002   1.274  0.00  0.00     0.017 A 
ATOM      8  C8  DEN d   1       0.095  -1.964   2.176  0.00  0.00    -0.094 A 
ATOM      9  C9  DEN d   1       1.157  -1.436   2.890  0.00  0.00    -0.072 A 
ENDROOT
TORSDOF 0
ENDMDL
