MODEL 1
REMARK minimizedAffinity 6.57017088
REMARK minimizedRMSD -1
REMARK  0 active torsions:
REMARK  status: ('A' for Active; 'I' for Inactive)
ROOT
ATOM      1  C1  DEN d   1       0.719  -0.889   2.483  0.00  0.00     0.130 A 
ATOM      2  C2  DEN d   1      -0.138  -1.651   3.386  0.00  0.00    -0.031 A 
ATOM      3  C3  DEN d   1       0.078  -3.087   3.118  0.00  0.00     0.027 A 
ATOM      4  C4  DEN d   1       1.653  -4.199   1.405  0.00  0.00     0.027 A 
ATOM      5  C5  DEN d   1       2.572  -3.963   0.406  0.00  0.00    -0.003 A 
ATOM      6  C6  DEN d   1       2.910  -2.696   0.010  0.00  0.00     0.001 A 
ATOM      7  C7  DEN d   1       2.358  -1.616   0.647  0.00  0.00     0.017 A 
ATOM      8  C8  DEN d   1       1.425  -1.846   1.649  0.00  0.00    -0.094 A 
ATOM      9  C9  DEN d   1       1.106  -3.134   2.044  0.00  0.00    -0.072 A 
ENDROOT
TORSDOF 0
ENDMDL
