MODEL 1
REMARK minimizedAffinity 6.73257923
REMARK minimizedRMSD -1
REMARK  0 active torsions:
REMARK  status: ('A' for Active; 'I' for Inactive)
ROOT
ATOM      1  C1  DEN d   1      -0.204  -0.486   1.744  0.00  0.00     0.130 A 
ATOM      2  C2  DEN d   1      -0.944  -0.999   2.893  0.00  0.00    -0.031 A 
ATOM      3  C3  DEN d   1      -0.337  -2.285   3.290  0.00  0.00     0.027 A 
ATOM      4  C4  DEN d   1       1.669  -3.524   2.244  0.00  0.00     0.027 A 
ATOM      5  C5  DEN d   1       2.613  -3.486   1.242  0.00  0.00    -0.003 A 
ATOM      6  C6  DEN d   1       2.663  -2.470   0.324  0.00  0.00     0.001 A 
ATOM      7  C7  DEN d   1       1.780  -1.428   0.416  0.00  0.00     0.017 A 
ATOM      8  C8  DEN d   1       0.820  -1.463   1.419  0.00  0.00    -0.094 A 
ATOM      9  C9  DEN d   1       0.794  -2.492   2.345  0.00  0.00    -0.072 A 
ENDROOT
TORSDOF 0
ENDMDL
