MODEL 1
REMARK minimizedAffinity 8.88877201
REMARK minimizedRMSD -1
REMARK  0 active torsions:
REMARK  status: ('A' for Active; 'I' for Inactive)
ROOT
ATOM      1  C1  DEN d   1       1.843  -1.388   2.759  0.00  0.00     0.130 A 
ATOM      2  C2  DEN d   1       1.010  -0.942   1.646  0.00  0.00    -0.031 A 
ATOM      3  C3  DEN d   1       1.124  -1.940   0.563  0.00  0.00     0.027 A 
ATOM      4  C4  DEN d   1       2.499  -4.122   0.505  0.00  0.00     0.027 A 
ATOM      5  C5  DEN d   1       3.373  -4.917   1.213  0.00  0.00    -0.003 A 
ATOM      6  C6  DEN d   1       3.822  -4.577   2.461  0.00  0.00     0.001 A 
ATOM      7  C7  DEN d   1       3.362  -3.434   3.060  0.00  0.00     0.017 A 
ATOM      8  C8  DEN d   1       2.486  -2.623   2.350  0.00  0.00    -0.094 A 
ATOM      9  C9  DEN d   1       2.035  -2.990   1.093  0.00  0.00    -0.072 A 
ENDROOT
TORSDOF 0
ENDMDL
