MODEL 1
REMARK minimizedAffinity 6.6721158
REMARK minimizedRMSD -1
REMARK  0 active torsions:
REMARK  status: ('A' for Active; 'I' for Inactive)
ROOT
ATOM      1  C1  DEN d   1      -2.191  -0.548   0.512  0.00  0.00     0.130 A 
ATOM      2  C2  DEN d   1      -1.956   0.113  -0.769  0.00  0.00    -0.031 A 
ATOM      3  C3  DEN d   1      -0.528  -0.047  -1.111  0.00  0.00     0.027 A 
ATOM      4  C4  DEN d   1       1.331  -1.252   0.210  0.00  0.00     0.027 A 
ATOM      5  C5  DEN d   1       1.616  -1.955   1.360  0.00  0.00    -0.003 A 
ATOM      6  C6  DEN d   1       0.668  -2.206   2.316  0.00  0.00     0.001 A 
ATOM      7  C7  DEN d   1      -0.623  -1.790   2.118  0.00  0.00     0.017 A 
ATOM      8  C8  DEN d   1      -0.916  -1.075   0.965  0.00  0.00    -0.094 A 
ATOM      9  C9  DEN d   1       0.054  -0.841   0.004  0.00  0.00    -0.072 A 
ENDROOT
TORSDOF 0
ENDMDL
