MODEL 1
REMARK minimizedAffinity 19.5308018
REMARK minimizedRMSD -1
REMARK  0 active torsions:
REMARK  status: ('A' for Active; 'I' for Inactive)
ROOT
ATOM      1  C   UNL d   1       0.434   0.090  -2.095  0.00  0.00     0.124 A 
ATOM      2  C1  UNL d   1       0.571  -1.079  -2.830  0.00  0.00     0.062 A 
ATOM      3  C2  UNL d   1       0.022  -2.270  -2.362  0.00  0.00     0.162 A 
ATOM      4  C3  UNL d   1      -0.671  -2.297  -1.151  0.00  0.00    -0.034 A 
ATOM      5  C4  UNL d   1      -0.804  -1.117  -0.417  0.00  0.00     0.162 A 
ATOM      6  C5  UNL d   1      -0.254   0.070  -0.889  0.00  0.00     0.062 A 
ATOM      7  F   UNL d   1      -0.388   1.198  -0.177  0.00  0.00    -0.097 F 
ATOM      8  F1  UNL d   1      -1.464  -1.108   0.751  0.00  0.00    -0.096 F 
ATOM      9  I   UNL d   1      -1.493  -4.075  -0.448  0.00  0.00    -0.060 I 
ATOM     10  F2  UNL d   1       0.171  -3.384  -3.093  0.00  0.00    -0.096 F 
ATOM     11  F3  UNL d   1       1.236  -1.063  -3.994  0.00  0.00    -0.097 F 
ATOM     12  F4  UNL d   1       0.964   1.233  -2.547  0.00  0.00    -0.092 F 
ENDROOT
TORSDOF 0
ENDMDL
