MODEL 1
REMARK minimizedAffinity 8.49499416
REMARK minimizedRMSD -1
REMARK  0 active torsions:
REMARK  status: ('A' for Active; 'I' for Inactive)
ROOT
ATOM      1  C   UNL d   1       1.955   1.158  -1.243  0.00  0.00     0.124 A 
ATOM      2  C1  UNL d   1       1.810   0.147  -2.183  0.00  0.00     0.062 A 
ATOM      3  C2  UNL d   1       1.189  -1.049  -1.835  0.00  0.00     0.162 A 
ATOM      4  C3  UNL d   1       0.708  -1.241  -0.540  0.00  0.00    -0.034 A 
ATOM      5  C4  UNL d   1       0.858  -0.220   0.400  0.00  0.00     0.162 A 
ATOM      6  C5  UNL d   1       1.479   0.974   0.047  0.00  0.00     0.062 A 
ATOM      7  F   UNL d   1       1.618   1.949   0.957  0.00  0.00    -0.097 F 
ATOM      8  F1  UNL d   1       0.406  -0.371   1.654  0.00  0.00    -0.096 F 
ATOM      9  I   UNL d   1      -0.221  -3.028  -0.015  0.00  0.00    -0.060 I 
ATOM     10  F2  UNL d   1       1.063  -2.009  -2.763  0.00  0.00    -0.096 F 
ATOM     11  F3  UNL d   1       2.270   0.322  -3.430  0.00  0.00    -0.097 F 
ATOM     12  F4  UNL d   1       2.553   2.307  -1.581  0.00  0.00    -0.092 F 
ENDROOT
TORSDOF 0
ENDMDL
