MODEL 1
REMARK minimizedAffinity 1.50231326
REMARK minimizedRMSD -1
REMARK  0 active torsions:
REMARK  status: ('A' for Active; 'I' for Inactive)
ROOT
ATOM      1  C   UNL d   1       5.659  -1.850   3.550  0.00  0.00     0.124 A 
ATOM      2  C1  UNL d   1       5.640  -1.181   4.767  0.00  0.00     0.062 A 
ATOM      3  C2  UNL d   1       5.730   0.207   4.803  0.00  0.00     0.162 A 
ATOM      4  C3  UNL d   1       5.839   0.937   3.620  0.00  0.00    -0.034 A 
ATOM      5  C4  UNL d   1       5.859   0.257   2.400  0.00  0.00     0.162 A 
ATOM      6  C5  UNL d   1       5.768  -1.130   2.369  0.00  0.00     0.062 A 
ATOM      7  F   UNL d   1       5.787  -1.775   1.193  0.00  0.00    -0.097 F 
ATOM      8  F1  UNL d   1       5.963   0.928   1.243  0.00  0.00    -0.096 F 
ATOM      9  I   UNL d   1       5.974   3.013   3.670  0.00  0.00    -0.060 I 
ATOM     10  F2  UNL d   1       5.708   0.827   5.993  0.00  0.00    -0.096 F 
ATOM     11  F3  UNL d   1       5.535  -1.874   5.910  0.00  0.00    -0.097 F 
ATOM     12  F4  UNL d   1       5.573  -3.186   3.518  0.00  0.00    -0.092 F 
ENDROOT
TORSDOF 0
ENDMDL
