MODEL 1
REMARK minimizedAffinity 2.95289016
REMARK minimizedRMSD -1
REMARK  0 active torsions:
REMARK  status: ('A' for Active; 'I' for Inactive)
ROOT
ATOM      1  C   UNL d   1       4.170   3.129   2.872  0.00  0.00     0.124 A 
ATOM      2  C1  UNL d   1       4.025   1.770   2.625  0.00  0.00     0.062 A 
ATOM      3  C2  UNL d   1       4.547   0.837   3.516  0.00  0.00     0.162 A 
ATOM      4  C3  UNL d   1       5.218   1.259   4.664  0.00  0.00    -0.034 A 
ATOM      5  C4  UNL d   1       5.361   2.627   4.906  0.00  0.00     0.162 A 
ATOM      6  C5  UNL d   1       4.837   3.555   4.012  0.00  0.00     0.062 A 
ATOM      7  F   UNL d   1       4.978   4.867   4.252  0.00  0.00    -0.097 F 
ATOM      8  F1  UNL d   1       6.000   3.067   5.999  0.00  0.00    -0.096 F 
ATOM      9  I   UNL d   1       6.000  -0.133   6.000  0.00  0.00    -0.060 I 
ATOM     10  F2  UNL d   1       4.392  -0.469   3.252  0.00  0.00    -0.096 F 
ATOM     11  F3  UNL d   1       3.382   1.356   1.524  0.00  0.00    -0.097 F 
ATOM     12  F4  UNL d   1       3.668   4.024   2.012  0.00  0.00    -0.092 F 
ENDROOT
TORSDOF 0
ENDMDL
