MODEL 1
REMARK minimizedAffinity 17.0935974
REMARK minimizedRMSD -1
REMARK  0 active torsions:
REMARK  status: ('A' for Active; 'I' for Inactive)
ROOT
ATOM      1  C   UNL d   1      -2.491   0.384   3.546  0.00  0.00     0.124 A 
ATOM      2  C1  UNL d   1      -3.770   0.773   3.174  0.00  0.00     0.062 A 
ATOM      3  C2  UNL d   1      -4.773  -0.178   3.016  0.00  0.00     0.162 A 
ATOM      4  C3  UNL d   1      -4.502  -1.530   3.232  0.00  0.00    -0.034 A 
ATOM      5  C4  UNL d   1      -3.212  -1.913   3.606  0.00  0.00     0.162 A 
ATOM      6  C5  UNL d   1      -2.213  -0.958   3.762  0.00  0.00     0.062 A 
ATOM      7  F   UNL d   1      -0.978  -1.336   4.122  0.00  0.00    -0.097 F 
ATOM      8  F1  UNL d   1      -2.917  -3.204   3.821  0.00  0.00    -0.096 F 
ATOM      9  I   UNL d   1      -5.999  -2.956   2.997  0.00  0.00    -0.060 I 
ATOM     10  F2  UNL d   1      -6.000   0.226   2.655  0.00  0.00    -0.096 F 
ATOM     11  F3  UNL d   1      -4.040   2.070   2.964  0.00  0.00    -0.097 F 
ATOM     12  F4  UNL d   1      -1.527   1.302   3.697  0.00  0.00    -0.092 F 
ENDROOT
TORSDOF 0
ENDMDL
