MODEL 1
REMARK minimizedAffinity 5.85003901
REMARK minimizedRMSD -1
REMARK  0 active torsions:
REMARK  status: ('A' for Active; 'I' for Inactive)
ROOT
ATOM      1  C   UNL d   1       5.434   4.624   3.675  0.00  0.00     0.124 A 
ATOM      2  C1  UNL d   1       5.685   3.932   4.852  0.00  0.00     0.062 A 
ATOM      3  C2  UNL d   1       5.755   2.542   4.845  0.00  0.00     0.162 A 
ATOM      4  C3  UNL d   1       5.576   1.834   3.657  0.00  0.00    -0.034 A 
ATOM      5  C4  UNL d   1       5.323   2.537   2.477  0.00  0.00     0.162 A 
ATOM      6  C5  UNL d   1       5.254   3.926   2.489  0.00  0.00     0.062 A 
ATOM      7  F   UNL d   1       5.012   4.593   1.351  0.00  0.00    -0.097 F 
ATOM      8  F1  UNL d   1       5.146   1.887   1.317  0.00  0.00    -0.096 F 
ATOM      9  I   UNL d   1       5.680  -0.245   3.643  0.00  0.00    -0.060 I 
ATOM     10  F2  UNL d   1       5.999   1.900   5.997  0.00  0.00    -0.096 F 
ATOM     11  F3  UNL d   1       5.859   4.604   5.999  0.00  0.00    -0.097 F 
ATOM     12  F4  UNL d   1       5.366   5.961   3.684  0.00  0.00    -0.092 F 
ENDROOT
TORSDOF 0
ENDMDL
