MODEL 1
REMARK minimizedAffinity 9.87056065
REMARK minimizedRMSD -1
REMARK  0 active torsions:
REMARK  status: ('A' for Active; 'I' for Inactive)
ROOT
ATOM      1  C   UNL d   1       5.559   4.183   2.363  0.00  0.00     0.124 A 
ATOM      2  C1  UNL d   1       5.726   4.589   3.680  0.00  0.00     0.062 A 
ATOM      3  C2  UNL d   1       5.833   3.643   4.695  0.00  0.00     0.162 A 
ATOM      4  C3  UNL d   1       5.774   2.282   4.398  0.00  0.00    -0.034 A 
ATOM      5  C4  UNL d   1       5.605   1.881   3.072  0.00  0.00     0.162 A 
ATOM      6  C5  UNL d   1       5.498   2.830   2.060  0.00  0.00     0.062 A 
ATOM      7  F   UNL d   1       5.337   2.436   0.788  0.00  0.00    -0.097 F 
ATOM      8  F1  UNL d   1       5.544   0.580   2.751  0.00  0.00    -0.096 F 
ATOM      9  I   UNL d   1       5.933   0.865   5.914  0.00  0.00    -0.060 I 
ATOM     10  F2  UNL d   1       5.994   4.064   5.959  0.00  0.00    -0.096 F 
ATOM     11  F3  UNL d   1       5.784   5.896   3.975  0.00  0.00    -0.097 F 
ATOM     12  F4  UNL d   1       5.455   5.095   1.388  0.00  0.00    -0.092 F 
ENDROOT
TORSDOF 0
ENDMDL
