MODEL 1
REMARK minimizedAffinity 6.12605572
REMARK minimizedRMSD -1
REMARK  0 active torsions:
REMARK  status: ('A' for Active; 'I' for Inactive)
ROOT
ATOM      1  C   UNL d   1       5.929   4.558   3.426  0.00  0.00     0.124 A 
ATOM      2  C1  UNL d   1       5.951   3.775   2.280  0.00  0.00     0.062 A 
ATOM      3  C2  UNL d   1       5.970   2.387   2.380  0.00  0.00     0.162 A 
ATOM      4  C3  UNL d   1       5.965   1.772   3.632  0.00  0.00    -0.034 A 
ATOM      5  C4  UNL d   1       5.944   2.565   4.781  0.00  0.00     0.162 A 
ATOM      6  C5  UNL d   1       5.926   3.952   4.675  0.00  0.00     0.062 A 
ATOM      7  F   UNL d   1       5.904   4.707   5.784  0.00  0.00    -0.097 F 
ATOM      8  F1  UNL d   1       5.939   2.006   6.000  0.00  0.00    -0.096 F 
ATOM      9  I   UNL d   1       5.993  -0.304   3.787  0.00  0.00    -0.060 I 
ATOM     10  F2  UNL d   1       5.991   1.656   1.256  0.00  0.00    -0.096 F 
ATOM     11  F3  UNL d   1       5.956   4.357   1.072  0.00  0.00    -0.097 F 
ATOM     12  F4  UNL d   1       5.912   5.893   3.327  0.00  0.00    -0.092 F 
ENDROOT
TORSDOF 0
ENDMDL
