MODEL 1
REMARK minimizedAffinity 5.67387867
REMARK minimizedRMSD -1
REMARK  0 active torsions:
REMARK  status: ('A' for Active; 'I' for Inactive)
ROOT
ATOM      1  C   UNL d   1       5.540   4.161   2.402  0.00  0.00     0.124 A 
ATOM      2  C1  UNL d   1       5.697   4.589   3.713  0.00  0.00     0.062 A 
ATOM      3  C2  UNL d   1       5.828   3.661   4.742  0.00  0.00     0.162 A 
ATOM      4  C3  UNL d   1       5.804   2.294   4.464  0.00  0.00    -0.034 A 
ATOM      5  C4  UNL d   1       5.645   1.871   3.143  0.00  0.00     0.162 A 
ATOM      6  C5  UNL d   1       5.514   2.803   2.118  0.00  0.00     0.062 A 
ATOM      7  F   UNL d   1       5.363   2.388   0.852  0.00  0.00    -0.097 F 
ATOM      8  F1  UNL d   1       5.618   0.565   2.840  0.00  0.00    -0.096 F 
ATOM      9  I   UNL d   1       6.000   0.903   5.999  0.00  0.00    -0.060 I 
ATOM     10  F2  UNL d   1       5.978   4.103   6.000  0.00  0.00    -0.096 F 
ATOM     11  F3  UNL d   1       5.721   5.901   3.991  0.00  0.00    -0.097 F 
ATOM     12  F4  UNL d   1       5.413   5.057   1.415  0.00  0.00    -0.092 F 
ENDROOT
TORSDOF 0
ENDMDL
