MODEL 1
REMARK minimizedAffinity 1.39232171
REMARK minimizedRMSD -1
REMARK  0 active torsions:
REMARK  status: ('A' for Active; 'I' for Inactive)
ROOT
ATOM      1  C   UNL d   1       5.475  -2.810   3.681  0.00  0.00     0.124 A 
ATOM      2  C1  UNL d   1       5.218  -2.112   4.852  0.00  0.00     0.062 A 
ATOM      3  C2  UNL d   1       5.223  -0.720   4.853  0.00  0.00     0.162 A 
ATOM      4  C3  UNL d   1       5.484  -0.017   3.677  0.00  0.00    -0.034 A 
ATOM      5  C4  UNL d   1       5.742  -0.726   2.503  0.00  0.00     0.162 A 
ATOM      6  C5  UNL d   1       5.736  -2.117   2.507  0.00  0.00     0.062 A 
ATOM      7  F   UNL d   1       5.984  -2.790   1.374  0.00  0.00    -0.097 F 
ATOM      8  F1  UNL d   1       5.996  -0.081   1.354  0.00  0.00    -0.096 F 
ATOM      9  I   UNL d   1       5.491   2.065   3.674  0.00  0.00    -0.060 I 
ATOM     10  F2  UNL d   1       4.972  -0.071   6.000  0.00  0.00    -0.096 F 
ATOM     11  F3  UNL d   1       4.966  -2.779   5.988  0.00  0.00    -0.097 F 
ATOM     12  F4  UNL d   1       5.471  -4.149   3.683  0.00  0.00    -0.092 F 
ENDROOT
TORSDOF 0
ENDMDL
