MODEL 1
REMARK minimizedAffinity 19.2638035
REMARK minimizedRMSD -1
REMARK  0 active torsions:
REMARK  status: ('A' for Active; 'I' for Inactive)
ROOT
ATOM      1  C   UNL d   1       1.938   0.515  -4.385  0.00  0.00     0.124 A 
ATOM      2  C1  UNL d   1       2.416   1.411  -3.439  0.00  0.00     0.062 A 
ATOM      3  C2  UNL d   1       2.210   1.173  -2.083  0.00  0.00     0.162 A 
ATOM      4  C3  UNL d   1       1.524   0.032  -1.665  0.00  0.00    -0.034 A 
ATOM      5  C4  UNL d   1       1.046  -0.864  -2.623  0.00  0.00     0.162 A 
ATOM      6  C5  UNL d   1       1.254  -0.621  -3.977  0.00  0.00     0.062 A 
ATOM      7  F   UNL d   1       0.792  -1.488  -4.890  0.00  0.00    -0.097 F 
ATOM      8  F1  UNL d   1       0.382  -1.970  -2.256  0.00  0.00    -0.096 F 
ATOM      9  I   UNL d   1       1.215  -0.328   0.362  0.00  0.00    -0.060 I 
ATOM     10  F2  UNL d   1       2.683   2.055  -1.190  0.00  0.00    -0.096 F 
ATOM     11  F3  UNL d   1       3.076   2.510  -3.831  0.00  0.00    -0.097 F 
ATOM     12  F4  UNL d   1       2.136   0.748  -5.689  0.00  0.00    -0.092 F 
ENDROOT
TORSDOF 0
ENDMDL
