MODEL 1
REMARK minimizedAffinity 14.6433735
REMARK minimizedRMSD -1
REMARK  0 active torsions:
REMARK  status: ('A' for Active; 'I' for Inactive)
ROOT
ATOM      1  C   UNL d   1       5.624  -0.197   3.644  0.00  0.00     0.124 A 
ATOM      2  C1  UNL d   1       5.746   0.483   2.440  0.00  0.00     0.062 A 
ATOM      3  C2  UNL d   1       5.826   1.872   2.426  0.00  0.00     0.162 A 
ATOM      4  C3  UNL d   1       5.785   2.592   3.620  0.00  0.00    -0.034 A 
ATOM      5  C4  UNL d   1       5.662   1.901   4.827  0.00  0.00     0.162 A 
ATOM      6  C5  UNL d   1       5.582   0.512   4.836  0.00  0.00     0.062 A 
ATOM      7  F   UNL d   1       5.465  -0.143   6.000  0.00  0.00    -0.097 F 
ATOM      8  F1  UNL d   1       5.619   2.562   5.994  0.00  0.00    -0.096 F 
ATOM      9  I   UNL d   1       5.904   4.670   3.603  0.00  0.00    -0.060 I 
ATOM     10  F2  UNL d   1       5.943   2.503   1.248  0.00  0.00    -0.096 F 
ATOM     11  F3  UNL d   1       5.786  -0.200   1.287  0.00  0.00    -0.097 F 
ATOM     12  F4  UNL d   1       5.547  -1.534   3.655  0.00  0.00    -0.092 F 
ENDROOT
TORSDOF 0
ENDMDL
