MODEL 1
REMARK minimizedAffinity 5.62238169
REMARK minimizedRMSD -1
REMARK  0 active torsions:
REMARK  status: ('A' for Active; 'I' for Inactive)
ROOT
ATOM      1  C   UNL d   1       3.801   1.153  -1.816  0.00  0.00     0.124 A 
ATOM      2  C1  UNL d   1       3.293   1.718  -0.655  0.00  0.00     0.062 A 
ATOM      3  C2  UNL d   1       3.209   3.102  -0.528  0.00  0.00     0.162 A 
ATOM      4  C3  UNL d   1       3.634   3.931  -1.566  0.00  0.00    -0.034 A 
ATOM      5  C4  UNL d   1       4.145   3.355  -2.731  0.00  0.00     0.162 A 
ATOM      6  C5  UNL d   1       4.226   1.972  -2.853  0.00  0.00     0.062 A 
ATOM      7  F   UNL d   1       4.718   1.428  -3.976  0.00  0.00    -0.097 F 
ATOM      8  F1  UNL d   1       4.562   4.122  -3.749  0.00  0.00    -0.096 F 
ATOM      9  I   UNL d   1       3.511   6.000  -1.381  0.00  0.00    -0.060 I 
ATOM     10  F2  UNL d   1       2.714   3.621   0.606  0.00  0.00    -0.096 F 
ATOM     11  F3  UNL d   1       2.882   0.930   0.349  0.00  0.00    -0.097 F 
ATOM     12  F4  UNL d   1       3.881  -0.178  -1.935  0.00  0.00    -0.092 F 
ENDROOT
TORSDOF 0
ENDMDL
