MODEL 1
REMARK minimizedAffinity 10.2040052
REMARK minimizedRMSD -1
REMARK  0 active torsions:
REMARK  status: ('A' for Active; 'I' for Inactive)
ROOT
ATOM      1  C   UNL d   1       5.531   3.999   3.223  0.00  0.00     0.124 A 
ATOM      2  C1  UNL d   1       5.742   3.520   4.508  0.00  0.00     0.062 A 
ATOM      3  C2  UNL d   1       5.794   2.149   4.745  0.00  0.00     0.162 A 
ATOM      4  C3  UNL d   1       5.635   1.247   3.693  0.00  0.00    -0.034 A 
ATOM      5  C4  UNL d   1       5.422   1.736   2.403  0.00  0.00     0.162 A 
ATOM      6  C5  UNL d   1       5.371   3.107   2.172  0.00  0.00     0.062 A 
ATOM      7  F   UNL d   1       5.167   3.568   0.929  0.00  0.00    -0.097 F 
ATOM      8  F1  UNL d   1       5.266   0.897   1.369  0.00  0.00    -0.096 F 
ATOM      9  I   UNL d   1       5.712  -0.803   4.042  0.00  0.00    -0.060 I 
ATOM     10  F2  UNL d   1       6.000   1.714   5.997  0.00  0.00    -0.096 F 
ATOM     11  F3  UNL d   1       5.896   4.379   5.526  0.00  0.00    -0.097 F 
ATOM     12  F4  UNL d   1       5.480   5.318   2.998  0.00  0.00    -0.092 F 
ENDROOT
TORSDOF 0
ENDMDL
