MODEL 1
REMARK minimizedAffinity -1.17425239
REMARK minimizedRMSD -1
REMARK  0 active torsions:
REMARK  status: ('A' for Active; 'I' for Inactive)
ROOT
ATOM      1  C   UNL d   1       5.271   1.135   3.656  0.00  0.00     0.124 A 
ATOM      2  C1  UNL d   1       5.220   1.827   2.454  0.00  0.00     0.062 A 
ATOM      3  C2  UNL d   1       5.427   3.204   2.430  0.00  0.00     0.162 A 
ATOM      4  C3  UNL d   1       5.687   3.897   3.612  0.00  0.00    -0.034 A 
ATOM      5  C4  UNL d   1       5.736   3.194   4.817  0.00  0.00     0.162 A 
ATOM      6  C5  UNL d   1       5.529   1.818   4.836  0.00  0.00     0.062 A 
ATOM      7  F   UNL d   1       5.578   1.151   5.998  0.00  0.00    -0.097 F 
ATOM      8  F1  UNL d   1       5.984   3.829   5.972  0.00  0.00    -0.096 F 
ATOM      9  I   UNL d   1       5.997   5.955   3.580  0.00  0.00    -0.060 I 
ATOM     10  F2  UNL d   1       5.372   3.847   1.254  0.00  0.00    -0.096 F 
ATOM     11  F3  UNL d   1       4.970   1.169   1.313  0.00  0.00    -0.097 F 
ATOM     12  F4  UNL d   1       5.070  -0.189   3.677  0.00  0.00    -0.092 F 
ENDROOT
TORSDOF 0
ENDMDL
