MODEL 1
REMARK minimizedAffinity 8.75862312
REMARK minimizedRMSD -1
REMARK  0 active torsions:
REMARK  status: ('A' for Active; 'I' for Inactive)
ROOT
ATOM      1  C   UNL d   1       4.075   0.484   3.540  0.00  0.00     0.124 A 
ATOM      2  C1  UNL d   1       3.922   1.447   2.552  0.00  0.00     0.062 A 
ATOM      3  C2  UNL d   1       4.471   2.715   2.719  0.00  0.00     0.162 A 
ATOM      4  C3  UNL d   1       5.178   3.028   3.880  0.00  0.00    -0.034 A 
ATOM      5  C4  UNL d   1       5.326   2.055   4.870  0.00  0.00     0.162 A 
ATOM      6  C5  UNL d   1       4.776   0.789   4.698  0.00  0.00     0.062 A 
ATOM      7  F   UNL d   1       4.924  -0.139   5.654  0.00  0.00    -0.097 F 
ATOM      8  F1  UNL d   1       5.999   2.323   5.999  0.00  0.00    -0.096 F 
ATOM      9  I   UNL d   1       5.999   4.924   4.135  0.00  0.00    -0.060 I 
ATOM     10  F2  UNL d   1       4.308   3.626   1.748  0.00  0.00    -0.096 F 
ATOM     11  F3  UNL d   1       3.244   1.155   1.432  0.00  0.00    -0.097 F 
ATOM     12  F4  UNL d   1       3.545  -0.735   3.377  0.00  0.00    -0.092 F 
ENDROOT
TORSDOF 0
ENDMDL
