MODEL 1
REMARK minimizedAffinity 5.04216528
REMARK minimizedRMSD -1
REMARK  0 active torsions:
REMARK  status: ('A' for Active; 'I' for Inactive)
ROOT
ATOM      1  C   UNL d   1       1.399  -0.243  -2.130  0.00  0.00     0.124 A 
ATOM      2  C1  UNL d   1       1.057  -1.397  -2.821  0.00  0.00     0.062 A 
ATOM      3  C2  UNL d   1       0.671  -2.541  -2.127  0.00  0.00     0.162 A 
ATOM      4  C3  UNL d   1       0.624  -2.536  -0.733  0.00  0.00    -0.034 A 
ATOM      5  C4  UNL d   1       0.969  -1.372  -0.045  0.00  0.00     0.162 A 
ATOM      6  C5  UNL d   1       1.354  -0.231  -0.743  0.00  0.00     0.062 A 
ATOM      7  F   UNL d   1       1.684   0.883  -0.073  0.00  0.00    -0.097 F 
ATOM      8  F1  UNL d   1       0.935  -1.332   1.295  0.00  0.00    -0.096 F 
ATOM      9  I   UNL d   1       0.047  -4.243   0.307  0.00  0.00    -0.060 I 
ATOM     10  F2  UNL d   1       0.347  -3.642  -2.822  0.00  0.00    -0.096 F 
ATOM     11  F3  UNL d   1       1.100  -1.412  -4.161  0.00  0.00    -0.097 F 
ATOM     12  F4  UNL d   1       1.771   0.855  -2.800  0.00  0.00    -0.092 F 
ENDROOT
TORSDOF 0
ENDMDL
