MODEL 1
REMARK minimizedAffinity 8.07768345
REMARK minimizedRMSD -1
REMARK  0 active torsions:
REMARK  status: ('A' for Active; 'I' for Inactive)
ROOT
ATOM      1  C   UNL d   1       5.104   3.715   2.223  0.00  0.00     0.124 A 
ATOM      2  C1  UNL d   1       5.435   4.223   3.471  0.00  0.00     0.062 A 
ATOM      3  C2  UNL d   1       5.681   3.361   4.535  0.00  0.00     0.162 A 
ATOM      4  C3  UNL d   1       5.598   1.980   4.356  0.00  0.00    -0.034 A 
ATOM      5  C4  UNL d   1       5.263   1.476   3.098  0.00  0.00     0.162 A 
ATOM      6  C5  UNL d   1       5.018   2.342   2.037  0.00  0.00     0.062 A 
ATOM      7  F   UNL d   1       4.698   1.849   0.832  0.00  0.00    -0.097 F 
ATOM      8  F1  UNL d   1       5.174   0.154   2.891  0.00  0.00    -0.096 F 
ATOM      9  I   UNL d   1       5.965   0.687   5.945  0.00  0.00    -0.060 I 
ATOM     10  F2  UNL d   1       5.999   3.880   5.730  0.00  0.00    -0.096 F 
ATOM     11  F3  UNL d   1       5.518   5.549   3.653  0.00  0.00    -0.097 F 
ATOM     12  F4  UNL d   1       4.867   4.547   1.200  0.00  0.00    -0.092 F 
ENDROOT
TORSDOF 0
ENDMDL
