MODEL 1
REMARK minimizedAffinity -2.84359956
REMARK minimizedRMSD -1
REMARK  1 active torsions:
REMARK  status: ('A' for Active; 'I' for Inactive)
REMARK    1  A    between atoms: C3_4  and  O_7 
ROOT
ATOM      1  C   UNL d   1       0.882  -0.585  -0.731  0.00  0.00    -0.033 A 
ATOM      2  C1  UNL d   1       1.529  -0.657   0.504  0.00  0.00     0.039 A 
ATOM      3  C2  UNL d   1       0.980  -0.023   1.620  0.00  0.00    -0.080 A 
ATOM      4  C3  UNL d   1      -0.215   0.679   1.488  0.00  0.00     0.150 A 
ATOM      5  C4  UNL d   1      -0.867   0.752   0.262  0.00  0.00    -0.007 A 
ATOM      6  C5  UNL d   1      -0.316   0.119  -0.852  0.00  0.00     0.039 A 
ENDROOT
BRANCH   4   7
ATOM      7  O   UNL d   1      -0.787   1.318   2.548  0.00  0.00    -0.526 OA
ATOM      8  H5  UNL d   1      -0.211   1.205   3.323  0.00  0.00     0.418 HD
ENDBRANCH   4   7
TORSDOF 1
ENDMDL
