MODEL 1
REMARK minimizedAffinity -4.80212259
REMARK minimizedRMSD -1
REMARK  1 active torsions:
REMARK  status: ('A' for Active; 'I' for Inactive)
REMARK    1  A    between atoms: C3_4  and  O_7 
ROOT
ATOM      1  C   UNL d   1       0.192   0.005   0.055  0.00  0.00    -0.033 A 
ATOM      2  C1  UNL d   1      -1.176   0.119   0.309  0.00  0.00     0.039 A 
ATOM      3  C2  UNL d   1      -1.621   0.735   1.480  0.00  0.00    -0.080 A 
ATOM      4  C3  UNL d   1      -0.690   1.234   2.386  0.00  0.00     0.150 A 
ATOM      5  C4  UNL d   1       0.674   1.128   2.137  0.00  0.00    -0.007 A 
ATOM      6  C5  UNL d   1       1.117   0.512   0.968  0.00  0.00     0.039 A 
ENDROOT
BRANCH   4   7
ATOM      7  O   UNL d   1      -1.077   1.840   3.545  0.00  0.00    -0.526 OA
ATOM      8  H5  UNL d   1      -2.047   1.816   3.596  0.00  0.00     0.418 HD
ENDBRANCH   4   7
TORSDOF 1
ENDMDL
