MODEL 1
REMARK minimizedAffinity -4.55386496
REMARK minimizedRMSD -1
REMARK  1 active torsions:
REMARK  status: ('A' for Active; 'I' for Inactive)
REMARK    1  A    between atoms: C3_4  and  O_7 
ROOT
ATOM      1  C   UNL d   1      -1.028   0.807   2.847  0.00  0.00    -0.033 A 
ATOM      2  C1  UNL d   1      -2.110   0.507   2.017  0.00  0.00     0.039 A 
ATOM      3  C2  UNL d   1      -1.889   0.063   0.712  0.00  0.00    -0.080 A 
ATOM      4  C3  UNL d   1      -0.584  -0.078   0.250  0.00  0.00     0.150 A 
ATOM      5  C4  UNL d   1       0.499   0.215   1.073  0.00  0.00    -0.007 A 
ATOM      6  C5  UNL d   1       0.276   0.660   2.375  0.00  0.00     0.039 A 
ENDROOT
BRANCH   4   7
ATOM      7  O   UNL d   1      -0.318  -0.503  -1.018  0.00  0.00    -0.526 OA
ATOM      8  H5  UNL d   1      -1.162  -0.640  -1.480  0.00  0.00     0.418 HD
ENDBRANCH   4   7
TORSDOF 1
ENDMDL
