MODEL 1
REMARK minimizedAffinity -4.43476725
REMARK minimizedRMSD -1
REMARK  1 active torsions:
REMARK  status: ('A' for Active; 'I' for Inactive)
REMARK    1  A    between atoms: C3_4  and  O_7 
ROOT
ATOM      1  C   UNL d   1      -0.496  -0.047  -0.020  0.00  0.00    -0.033 A 
ATOM      2  C1  UNL d   1       0.647   0.202   0.743  0.00  0.00     0.039 A 
ATOM      3  C2  UNL d   1       0.539   0.860   1.970  0.00  0.00    -0.080 A 
ATOM      4  C3  UNL d   1      -0.714   1.262   2.422  0.00  0.00     0.150 A 
ATOM      5  C4  UNL d   1      -1.857   1.014   1.669  0.00  0.00    -0.007 A 
ATOM      6  C5  UNL d   1      -1.748   0.358   0.444  0.00  0.00     0.039 A 
ENDROOT
BRANCH   4   7
ATOM      7  O   UNL d   1      -0.868   1.911   3.611  0.00  0.00    -0.526 OA
ATOM      8  H5  UNL d   1       0.010   2.038   4.008  0.00  0.00     0.418 HD
ENDBRANCH   4   7
TORSDOF 1
ENDMDL
