MODEL 1
REMARK minimizedAffinity -4.53148651
REMARK minimizedRMSD -1
REMARK  1 active torsions:
REMARK  status: ('A' for Active; 'I' for Inactive)
REMARK    1  A    between atoms: C3_4  and  O_7 
ROOT
ATOM      1  C   UNL d   1       0.767   0.772   2.257  0.00  0.00    -0.033 A 
ATOM      2  C1  UNL d   1       0.892   0.423   0.910  0.00  0.00     0.039 A 
ATOM      3  C2  UNL d   1      -0.248   0.167   0.145  0.00  0.00    -0.080 A 
ATOM      4  C3  UNL d   1      -1.504   0.265   0.737  0.00  0.00     0.150 A 
ATOM      5  C4  UNL d   1      -1.636   0.615   2.076  0.00  0.00    -0.007 A 
ATOM      6  C5  UNL d   1      -0.497   0.870   2.839  0.00  0.00     0.039 A 
ENDROOT
BRANCH   4   7
ATOM      7  O   UNL d   1      -2.645   0.019   0.032  0.00  0.00    -0.526 OA
ATOM      8  H5  UNL d   1      -2.398  -0.240  -0.872  0.00  0.00     0.418 HD
ENDBRANCH   4   7
TORSDOF 1
ENDMDL
