MODEL 1
REMARK minimizedAffinity -4.77504969
REMARK minimizedRMSD -1
REMARK  1 active torsions:
REMARK  status: ('A' for Active; 'I' for Inactive)
REMARK    1  A    between atoms: C3_4  and  O_7 
ROOT
ATOM      1  C   UNL d   1      -0.744   0.998   2.888  0.00  0.00    -0.033 A 
ATOM      2  C1  UNL d   1      -1.688   0.123   2.346  0.00  0.00     0.039 A 
ATOM      3  C2  UNL d   1      -1.564  -0.310   1.025  0.00  0.00    -0.080 A 
ATOM      4  C3  UNL d   1      -0.492   0.137   0.257  0.00  0.00     0.150 A 
ATOM      5  C4  UNL d   1       0.455   1.005   0.792  0.00  0.00    -0.007 A 
ATOM      6  C5  UNL d   1       0.328   1.437   2.111  0.00  0.00     0.039 A 
ENDROOT
BRANCH   4   7
ATOM      7  O   UNL d   1      -0.331  -0.255  -1.038  0.00  0.00    -0.526 OA
ATOM      8  H5  UNL d   1      -1.075  -0.831  -1.280  0.00  0.00     0.418 HD
ENDBRANCH   4   7
TORSDOF 1
ENDMDL
