MODEL 1
REMARK minimizedAffinity -4.04368114
REMARK minimizedRMSD -1
REMARK  1 active torsions:
REMARK  status: ('A' for Active; 'I' for Inactive)
REMARK    1  A    between atoms: C3_4  and  O_7 
ROOT
ATOM      1  C   UNL d   1      -0.172  -0.350  -0.525  0.00  0.00    -0.033 A 
ATOM      2  C1  UNL d   1      -1.514  -0.230  -0.162  0.00  0.00     0.039 A 
ATOM      3  C2  UNL d   1      -1.880   0.595   0.904  0.00  0.00    -0.080 A 
ATOM      4  C3  UNL d   1      -0.895   1.295   1.595  0.00  0.00     0.150 A 
ATOM      5  C4  UNL d   1       0.444   1.183   1.236  0.00  0.00    -0.007 A 
ATOM      6  C5  UNL d   1       0.807   0.358   0.172  0.00  0.00     0.039 A 
ENDROOT
BRANCH   4   7
ATOM      7  O   UNL d   1      -1.202   2.108   2.645  0.00  0.00    -0.526 OA
ATOM      8  H5  UNL d   1      -2.161   2.065   2.798  0.00  0.00     0.418 HD
ENDBRANCH   4   7
TORSDOF 1
ENDMDL
