MODEL 1
REMARK minimizedAffinity 14.0975914
REMARK minimizedRMSD -1
REMARK  1 active torsions:
REMARK  status: ('A' for Active; 'I' for Inactive)
REMARK    1  A    between atoms: C3_4  and  O_7 
ROOT
ATOM      1  C   UNL d   1      -1.379  -2.735   1.027  0.00  0.00    -0.033 A 
ATOM      2  C1  UNL d   1      -1.286  -3.807   0.139  0.00  0.00     0.039 A 
ATOM      3  C2  UNL d   1      -2.075  -3.833  -1.013  0.00  0.00    -0.080 A 
ATOM      4  C3  UNL d   1      -2.952  -2.782  -1.264  0.00  0.00     0.150 A 
ATOM      5  C4  UNL d   1      -3.048  -1.708  -0.385  0.00  0.00    -0.007 A 
ATOM      6  C5  UNL d   1      -2.259  -1.684   0.765  0.00  0.00     0.039 A 
ENDROOT
BRANCH   4   7
ATOM      7  O   UNL d   1      -3.746  -2.765  -2.372  0.00  0.00    -0.526 OA
ATOM      8  H5  UNL d   1      -3.593  -3.584  -2.872  0.00  0.00     0.418 HD
ENDBRANCH   4   7
TORSDOF 1
ENDMDL
