MODEL 1
REMARK minimizedAffinity 8.24200344
REMARK minimizedRMSD -1
REMARK  1 active torsions:
REMARK  status: ('A' for Active; 'I' for Inactive)
REMARK    1  A    between atoms: C3_4  and  O_7 
ROOT
ATOM      1  C   UNL d   1       1.199   2.267   0.781  0.00  0.00    -0.033 A 
ATOM      2  C1  UNL d   1       2.419   2.640   0.214  0.00  0.00     0.039 A 
ATOM      3  C2  UNL d   1       3.382   1.670  -0.076  0.00  0.00    -0.080 A 
ATOM      4  C3  UNL d   1       3.112   0.334   0.205  0.00  0.00     0.150 A 
ATOM      5  C4  UNL d   1       1.897  -0.045   0.767  0.00  0.00    -0.007 A 
ATOM      6  C5  UNL d   1       0.938   0.924   1.056  0.00  0.00     0.039 A 
ENDROOT
BRANCH   4   7
ATOM      7  O   UNL d   1       4.022  -0.647  -0.056  0.00  0.00    -0.526 OA
ATOM      8  H5  UNL d   1       4.825  -0.234  -0.416  0.00  0.00     0.418 HD
ENDBRANCH   4   7
TORSDOF 1
ENDMDL
