MODEL 1
REMARK minimizedAffinity 13.3839493
REMARK minimizedRMSD -1
REMARK  1 active torsions:
REMARK  status: ('A' for Active; 'I' for Inactive)
REMARK    1  A    between atoms: C3_4  and  O_7 
ROOT
ATOM      1  C   UNL d   1      -5.988   0.131   5.262  0.00  0.00    -0.033 A 
ATOM      2  C1  UNL d   1      -5.767  -0.024   3.892  0.00  0.00     0.039 A 
ATOM      3  C2  UNL d   1      -4.778   0.727   3.254  0.00  0.00    -0.080 A 
ATOM      4  C3  UNL d   1      -4.017   1.626   3.996  0.00  0.00     0.150 A 
ATOM      5  C4  UNL d   1      -4.229   1.782   5.362  0.00  0.00    -0.007 A 
ATOM      6  C5  UNL d   1      -5.218   1.033   5.997  0.00  0.00     0.039 A 
ENDROOT
BRANCH   4   7
ATOM      7  O   UNL d   1      -3.043   2.383   3.416  0.00  0.00    -0.526 OA
ATOM      8  H5  UNL d   1      -3.029   2.190   2.464  0.00  0.00     0.418 HD
ENDBRANCH   4   7
TORSDOF 1
ENDMDL
