MODEL 1
REMARK minimizedAffinity 6.43631411
REMARK minimizedRMSD -1
REMARK  1 active torsions:
REMARK  status: ('A' for Active; 'I' for Inactive)
REMARK    1  A    between atoms: C3_4  and  O_7 
ROOT
ATOM      1  C   UNL d   1      -1.563  -2.249   1.616  0.00  0.00    -0.033 A 
ATOM      2  C1  UNL d   1      -0.681  -2.465   0.555  0.00  0.00     0.039 A 
ATOM      3  C2  UNL d   1      -1.172  -2.635  -0.740  0.00  0.00    -0.080 A 
ATOM      4  C3  UNL d   1      -2.546  -2.585  -0.962  0.00  0.00     0.150 A 
ATOM      5  C4  UNL d   1      -3.430  -2.366   0.089  0.00  0.00    -0.007 A 
ATOM      6  C5  UNL d   1      -2.937  -2.198   1.383  0.00  0.00     0.039 A 
ENDROOT
BRANCH   4   7
ATOM      7  O   UNL d   1      -3.073  -2.750  -2.208  0.00  0.00    -0.526 OA
ATOM      8  H5  UNL d   1      -2.346  -2.922  -2.830  0.00  0.00     0.418 HD
ENDBRANCH   4   7
TORSDOF 1
ENDMDL
