MODEL 1
REMARK minimizedAffinity 15.2025251
REMARK minimizedRMSD -1
REMARK  1 active torsions:
REMARK  status: ('A' for Active; 'I' for Inactive)
REMARK    1  A    between atoms: C3_4  and  O_7 
ROOT
ATOM      1  C   UNL d   1       1.684   0.167   0.106  0.00  0.00    -0.033 A 
ATOM      2  C1  UNL d   1       1.298   1.428  -0.353  0.00  0.00     0.039 A 
ATOM      3  C2  UNL d   1       1.854   1.947  -1.524  0.00  0.00    -0.080 A 
ATOM      4  C3  UNL d   1       2.793   1.196  -2.225  0.00  0.00     0.150 A 
ATOM      5  C4  UNL d   1       3.179  -0.063  -1.776  0.00  0.00    -0.007 A 
ATOM      6  C5  UNL d   1       2.623  -0.579  -0.606  0.00  0.00     0.039 A 
ENDROOT
BRANCH   4   7
ATOM      7  O   UNL d   1       3.367   1.662  -3.371  0.00  0.00    -0.526 OA
ATOM      8  H5  UNL d   1       3.026   2.555  -3.544  0.00  0.00     0.418 HD
ENDBRANCH   4   7
TORSDOF 1
ENDMDL
