MODEL 1
REMARK minimizedAffinity 6.014575
REMARK minimizedRMSD -1
REMARK  1 active torsions:
REMARK  status: ('A' for Active; 'I' for Inactive)
REMARK    1  A    between atoms: C3_4  and  O_7 
ROOT
ATOM      1  C   UNL d   1       3.025   1.342  -0.816  0.00  0.00    -0.033 A 
ATOM      2  C1  UNL d   1       2.154   2.232  -0.182  0.00  0.00     0.039 A 
ATOM      3  C2  UNL d   1       1.496   1.852   0.989  0.00  0.00    -0.080 A 
ATOM      4  C3  UNL d   1       1.717   0.583   1.517  0.00  0.00     0.150 A 
ATOM      5  C4  UNL d   1       2.586  -0.307   0.894  0.00  0.00    -0.007 A 
ATOM      6  C5  UNL d   1       3.242   0.073  -0.277  0.00  0.00     0.039 A 
ENDROOT
BRANCH   4   7
ATOM      7  O   UNL d   1       1.094   0.166   2.655  0.00  0.00    -0.526 OA
ATOM      8  H5  UNL d   1       0.502   0.875   2.959  0.00  0.00     0.418 HD
ENDBRANCH   4   7
TORSDOF 1
ENDMDL
