MODEL 1
REMARK minimizedAffinity 3.53459787
REMARK minimizedRMSD -1
REMARK  1 active torsions:
REMARK  status: ('A' for Active; 'I' for Inactive)
REMARK    1  A    between atoms: C3_4  and  O_7 
ROOT
ATOM      1  C   UNL d   1       2.079   0.963   1.250  0.00  0.00    -0.033 A 
ATOM      2  C1  UNL d   1       3.031   0.057   0.780  0.00  0.00     0.039 A 
ATOM      3  C2  UNL d   1       3.489   0.142  -0.536  0.00  0.00    -0.080 A 
ATOM      4  C3  UNL d   1       2.989   1.137  -1.370  0.00  0.00     0.150 A 
ATOM      5  C4  UNL d   1       2.043   2.046  -0.908  0.00  0.00    -0.007 A 
ATOM      6  C5  UNL d   1       1.586   1.959   0.406  0.00  0.00     0.039 A 
ENDROOT
BRANCH   4   7
ATOM      7  O   UNL d   1       3.402   1.257  -2.664  0.00  0.00    -0.526 OA
ATOM      8  H5  UNL d   1       4.035   0.544  -2.852  0.00  0.00     0.418 HD
ENDBRANCH   4   7
TORSDOF 1
ENDMDL
