MODEL 1
REMARK minimizedAffinity 8.93159199
REMARK minimizedRMSD -1
REMARK  1 active torsions:
REMARK  status: ('A' for Active; 'I' for Inactive)
REMARK    1  A    between atoms: C3_4  and  O_7 
ROOT
ATOM      1  C   UNL d   1       6.000  -0.377   0.372  0.00  0.00    -0.033 A 
ATOM      2  C1  UNL d   1       4.793  -0.489  -0.321  0.00  0.00     0.039 A 
ATOM      3  C2  UNL d   1       3.581  -0.370   0.362  0.00  0.00    -0.080 A 
ATOM      4  C3  UNL d   1       3.589  -0.138   1.734  0.00  0.00     0.150 A 
ATOM      5  C4  UNL d   1       4.788  -0.021   2.430  0.00  0.00    -0.007 A 
ATOM      6  C5  UNL d   1       5.998  -0.142   1.747  0.00  0.00     0.039 A 
ENDROOT
BRANCH   4   7
ATOM      7  O   UNL d   1       2.432  -0.019   2.444  0.00  0.00    -0.526 OA
ATOM      8  H5  UNL d   1       1.684  -0.150   1.838  0.00  0.00     0.418 HD
ENDBRANCH   4   7
TORSDOF 1
ENDMDL
