MODEL 1
REMARK minimizedAffinity 12.8885651
REMARK minimizedRMSD -1
REMARK  1 active torsions:
REMARK  status: ('A' for Active; 'I' for Inactive)
REMARK    1  A    between atoms: C3_4  and  O_7 
ROOT
ATOM      1  C   UNL d   1      -3.238  -4.586  -2.026  0.00  0.00    -0.033 A 
ATOM      2  C1  UNL d   1      -2.362  -5.192  -2.929  0.00  0.00     0.039 A 
ATOM      3  C2  UNL d   1      -2.015  -4.538  -4.113  0.00  0.00    -0.080 A 
ATOM      4  C3  UNL d   1      -2.549  -3.280  -4.381  0.00  0.00     0.150 A 
ATOM      5  C4  UNL d   1      -3.420  -2.670  -3.484  0.00  0.00    -0.007 A 
ATOM      6  C5  UNL d   1      -3.766  -3.324  -2.303  0.00  0.00     0.039 A 
ENDROOT
BRANCH   4   7
ATOM      7  O   UNL d   1      -2.244  -2.605  -5.525  0.00  0.00    -0.526 OA
ATOM      8  H5  UNL d   1      -1.655  -3.162  -6.063  0.00  0.00     0.418 HD
ENDBRANCH   4   7
TORSDOF 1
ENDMDL
