MODEL 1
REMARK minimizedAffinity 8.00063419
REMARK minimizedRMSD -1
REMARK  1 active torsions:
REMARK  status: ('A' for Active; 'I' for Inactive)
REMARK    1  A    between atoms: C3_4  and  O_7 
ROOT
ATOM      1  C   UNL d   1      -1.078  -3.728   2.433  0.00  0.00    -0.033 A 
ATOM      2  C1  UNL d   1      -1.071  -5.076   2.796  0.00  0.00     0.039 A 
ATOM      3  C2  UNL d   1      -2.216  -5.855   2.619  0.00  0.00    -0.080 A 
ATOM      4  C3  UNL d   1      -3.360  -5.274   2.079  0.00  0.00     0.150 A 
ATOM      5  C4  UNL d   1      -3.374  -3.933   1.712  0.00  0.00    -0.007 A 
ATOM      6  C5  UNL d   1      -2.229  -3.156   1.890  0.00  0.00     0.039 A 
ENDROOT
BRANCH   4   7
ATOM      7  O   UNL d   1      -4.503  -5.993   1.892  0.00  0.00    -0.526 OA
ATOM      8  H5  UNL d   1      -4.356  -6.897   2.217  0.00  0.00     0.418 HD
ENDBRANCH   4   7
TORSDOF 1
ENDMDL
