MODEL 1
REMARK minimizedAffinity 9.06688595
REMARK minimizedRMSD -1
REMARK  1 active torsions:
REMARK  status: ('A' for Active; 'I' for Inactive)
REMARK    1  A    between atoms: C3_4  and  O_7 
ROOT
ATOM      1  C   UNL d   1       5.317   0.552  -4.119  0.00  0.00    -0.033 A 
ATOM      2  C1  UNL d   1       4.220   0.613  -3.258  0.00  0.00     0.039 A 
ATOM      3  C2  UNL d   1       3.805   1.841  -2.738  0.00  0.00    -0.080 A 
ATOM      4  C3  UNL d   1       4.495   2.998  -3.087  0.00  0.00     0.150 A 
ATOM      5  C4  UNL d   1       5.587   2.946  -3.947  0.00  0.00    -0.007 A 
ATOM      6  C5  UNL d   1       6.000   1.719  -4.465  0.00  0.00     0.039 A 
ENDROOT
BRANCH   4   7
ATOM      7  O   UNL d   1       4.130   4.219  -2.601  0.00  0.00    -0.526 OA
ATOM      8  H5  UNL d   1       3.379   4.098  -1.997  0.00  0.00     0.418 HD
ENDBRANCH   4   7
TORSDOF 1
ENDMDL
