MODEL 1
REMARK minimizedAffinity 9.28920174
REMARK minimizedRMSD -1
REMARK  1 active torsions:
REMARK  status: ('A' for Active; 'I' for Inactive)
REMARK    1  A    between atoms: C3_4  and  O_7 
ROOT
ATOM      1  C   UNL d   1      -0.981  -3.949   2.642  0.00  0.00    -0.033 A 
ATOM      2  C1  UNL d   1      -1.912  -3.249   1.872  0.00  0.00     0.039 A 
ATOM      3  C2  UNL d   1      -2.983  -3.924   1.284  0.00  0.00    -0.080 A 
ATOM      4  C3  UNL d   1      -3.113  -5.297   1.474  0.00  0.00     0.150 A 
ATOM      5  C4  UNL d   1      -2.192  -6.000   2.243  0.00  0.00    -0.007 A 
ATOM      6  C5  UNL d   1      -1.122  -5.324   2.829  0.00  0.00     0.039 A 
ENDROOT
BRANCH   4   7
ATOM      7  O   UNL d   1      -4.139  -5.999   0.915  0.00  0.00    -0.526 OA
ATOM      8  H5  UNL d   1      -4.680  -5.388   0.388  0.00  0.00     0.418 HD
ENDBRANCH   4   7
TORSDOF 1
ENDMDL
