MODEL 1
REMARK minimizedAffinity 3.98912573
REMARK minimizedRMSD -1
REMARK  1 active torsions:
REMARK  status: ('A' for Active; 'I' for Inactive)
REMARK    1  A    between atoms: C3_4  and  O_7 
ROOT
ATOM      1  C   UNL d   1      -6.000   5.934   4.837  0.00  0.00    -0.033 A 
ATOM      2  C1  UNL d   1      -5.196   5.797   5.971  0.00  0.00     0.039 A 
ATOM      3  C2  UNL d   1      -4.185   4.834   6.000  0.00  0.00    -0.080 A 
ATOM      4  C3  UNL d   1      -3.989   4.017   4.890  0.00  0.00     0.150 A 
ATOM      5  C4  UNL d   1      -4.783   4.150   3.757  0.00  0.00    -0.007 A 
ATOM      6  C5  UNL d   1      -5.792   5.112   3.730  0.00  0.00     0.039 A 
ENDROOT
BRANCH   4   7
ATOM      7  O   UNL d   1      -3.018   3.059   4.874  0.00  0.00    -0.526 OA
ATOM      8  H5  UNL d   1      -2.568   3.063   5.735  0.00  0.00     0.418 HD
ENDBRANCH   4   7
TORSDOF 1
ENDMDL
