MODEL 1
REMARK minimizedAffinity 11.2908525
REMARK minimizedRMSD -1
REMARK  1 active torsions:
REMARK  status: ('A' for Active; 'I' for Inactive)
REMARK    1  A    between atoms: C3_4  and  O_7 
ROOT
ATOM      1  C   UNL d   1       0.846   2.156   1.032  0.00  0.00    -0.033 A 
ATOM      2  C1  UNL d   1       1.664   2.189  -0.099  0.00  0.00     0.039 A 
ATOM      3  C2  UNL d   1       2.453   1.085  -0.425  0.00  0.00    -0.080 A 
ATOM      4  C3  UNL d   1       2.414  -0.046   0.386  0.00  0.00     0.150 A 
ATOM      5  C4  UNL d   1       1.598  -0.088   1.512  0.00  0.00    -0.007 A 
ATOM      6  C5  UNL d   1       0.811   1.017   1.836  0.00  0.00     0.039 A 
ENDROOT
BRANCH   4   7
ATOM      7  O   UNL d   1       3.169  -1.147   0.111  0.00  0.00    -0.526 OA
ATOM      8  H5  UNL d   1       3.704  -0.964  -0.679  0.00  0.00     0.418 HD
ENDBRANCH   4   7
TORSDOF 1
ENDMDL
