MODEL 1
REMARK minimizedAffinity 9.23303604
REMARK minimizedRMSD -1
REMARK  1 active torsions:
REMARK  status: ('A' for Active; 'I' for Inactive)
REMARK    1  A    between atoms: C3_4  and  O_7 
ROOT
ATOM      1  C   UNL d   1       2.937   0.053   0.713  0.00  0.00    -0.033 A 
ATOM      2  C1  UNL d   1       2.068   1.085   0.350  0.00  0.00     0.039 A 
ATOM      3  C2  UNL d   1       2.192   1.697  -0.898  0.00  0.00    -0.080 A 
ATOM      4  C3  UNL d   1       3.185   1.268  -1.774  0.00  0.00     0.150 A 
ATOM      5  C4  UNL d   1       4.051   0.238  -1.421  0.00  0.00    -0.007 A 
ATOM      6  C5  UNL d   1       3.927  -0.371  -0.173  0.00  0.00     0.039 A 
ENDROOT
BRANCH   4   7
ATOM      7  O   UNL d   1       3.347   1.838  -3.002  0.00  0.00    -0.526 OA
ATOM      8  H5  UNL d   1       2.697   2.554  -3.097  0.00  0.00     0.418 HD
ENDBRANCH   4   7
TORSDOF 1
ENDMDL
