MODEL 1
REMARK minimizedAffinity 12.6710529
REMARK minimizedRMSD -1
REMARK  1 active torsions:
REMARK  status: ('A' for Active; 'I' for Inactive)
REMARK    1  A    between atoms: C3_4  and  O_7 
ROOT
ATOM      1  C   UNL d   1      -2.861  -5.998   1.494  0.00  0.00    -0.033 A 
ATOM      2  C1  UNL d   1      -1.514  -5.992   1.860  0.00  0.00     0.039 A 
ATOM      3  C2  UNL d   1      -0.789  -4.799   1.840  0.00  0.00    -0.080 A 
ATOM      4  C3  UNL d   1      -1.422  -3.621   1.452  0.00  0.00     0.150 A 
ATOM      5  C4  UNL d   1      -2.765  -3.620   1.090  0.00  0.00    -0.007 A 
ATOM      6  C5  UNL d   1      -3.487  -4.812   1.110  0.00  0.00     0.039 A 
ENDROOT
BRANCH   4   7
ATOM      7  O   UNL d   1      -0.754  -2.434   1.412  0.00  0.00    -0.526 OA
ATOM      8  H5  UNL d   1       0.172  -2.593   1.660  0.00  0.00     0.418 HD
ENDBRANCH   4   7
TORSDOF 1
ENDMDL
