MODEL 1
REMARK minimizedAffinity 9.82153606
REMARK minimizedRMSD -1
REMARK  1 active torsions:
REMARK  status: ('A' for Active; 'I' for Inactive)
REMARK    1  A    between atoms: C3_4  and  O_7 
ROOT
ATOM      1  C   UNL d   1      -5.975   5.653   5.016  0.00  0.00    -0.033 A 
ATOM      2  C1  UNL d   1      -5.998   4.713   3.984  0.00  0.00     0.039 A 
ATOM      3  C2  UNL d   1      -5.030   3.708   3.932  0.00  0.00    -0.080 A 
ATOM      4  C3  UNL d   1      -4.048   3.653   4.917  0.00  0.00     0.150 A 
ATOM      5  C4  UNL d   1      -4.021   4.585   5.950  0.00  0.00    -0.007 A 
ATOM      6  C5  UNL d   1      -4.988   5.588   5.999  0.00  0.00     0.039 A 
ENDROOT
BRANCH   4   7
ATOM      7  O   UNL d   1      -3.080   2.694   4.905  0.00  0.00    -0.526 OA
ATOM      8  H5  UNL d   1      -3.207   2.138   4.118  0.00  0.00     0.418 HD
ENDBRANCH   4   7
TORSDOF 1
ENDMDL
