MODEL 1
REMARK minimizedAffinity 6.61522293
REMARK minimizedRMSD -1
REMARK  1 active torsions:
REMARK  status: ('A' for Active; 'I' for Inactive)
REMARK    1  A    between atoms: C1_2  and  C2_3 
ROOT
ATOM      1  C2  UNL d   1       0.551  -2.514  -4.056  0.00  0.00    -0.077 A 
ATOM      2  C3  UNL d   1       0.905  -1.722  -2.955  0.00  0.00     0.002 A 
ATOM      3  C4  UNL d   1       2.110  -1.015  -2.952  0.00  0.00     0.002 A 
ATOM      4  C5  UNL d   1       2.967  -1.091  -4.047  0.00  0.00    -0.004 A 
ATOM      5  C6  UNL d   1       2.625  -1.878  -5.146  0.00  0.00     0.002 A 
ATOM      6  C7  UNL d   1       1.422  -2.586  -5.151  0.00  0.00     0.002 A 
ENDROOT
BRANCH   1   7
ATOM      7  C1  UNL d   1      -0.770  -3.238  -4.083  0.00  0.00     0.055 C 
ATOM      8  C   UNL d   1      -1.657  -2.728  -5.210  0.00  0.00     0.019 C 
ENDBRANCH   1   7
TORSDOF 1
ENDMDL
