MODEL 1
REMARK minimizedAffinity 0.0980409756
REMARK minimizedRMSD -1
REMARK  1 active torsions:
REMARK  status: ('A' for Active; 'I' for Inactive)
REMARK    1  A    between atoms: C1_2  and  C2_3 
ROOT
ATOM      1  C2  UNL d   1       0.854  -5.948   3.880  0.00  0.00    -0.077 A 
ATOM      2  C3  UNL d   1      -0.325  -5.954   3.121  0.00  0.00     0.002 A 
ATOM      3  C4  UNL d   1      -0.267  -5.977   1.726  0.00  0.00     0.002 A 
ATOM      4  C5  UNL d   1       0.967  -5.998   1.079  0.00  0.00    -0.004 A 
ATOM      5  C6  UNL d   1       2.145  -5.991   1.825  0.00  0.00     0.002 A 
ATOM      6  C7  UNL d   1       2.089  -5.967   3.219  0.00  0.00     0.002 A 
ENDROOT
BRANCH   1   7
ATOM      7  C1  UNL d   1       0.793  -5.974   5.385  0.00  0.00     0.055 C 
ATOM      8  C   UNL d   1       2.187  -5.986   5.995  0.00  0.00     0.019 C 
ENDBRANCH   1   7
TORSDOF 1
ENDMDL
