MODEL 1
REMARK minimizedAffinity 1.41319346
REMARK minimizedRMSD -1
REMARK  1 active torsions:
REMARK  status: ('A' for Active; 'I' for Inactive)
REMARK    1  A    between atoms: C1_2  and  C2_3 
ROOT
ATOM      1  C2  UNL d   1       0.883  -5.966   4.166  0.00  0.00    -0.077 A 
ATOM      2  C3  UNL d   1       1.915  -5.970   3.217  0.00  0.00     0.002 A 
ATOM      3  C4  UNL d   1       1.619  -5.989   1.852  0.00  0.00     0.002 A 
ATOM      4  C5  UNL d   1       0.293  -6.000   1.425  0.00  0.00    -0.004 A 
ATOM      5  C6  UNL d   1      -0.740  -5.998   2.361  0.00  0.00     0.002 A 
ATOM      6  C7  UNL d   1      -0.447  -5.980   3.725  0.00  0.00     0.002 A 
ENDROOT
BRANCH   1   7
ATOM      7  C1  UNL d   1       1.199  -5.895   5.637  0.00  0.00     0.055 C 
ATOM      8  C   UNL d   1       1.853  -4.570   6.000  0.00  0.00     0.019 C 
ENDBRANCH   1   7
TORSDOF 1
ENDMDL
