MODEL 1
REMARK minimizedAffinity 3.46993518
REMARK minimizedRMSD -1
REMARK  1 active torsions:
REMARK  status: ('A' for Active; 'I' for Inactive)
REMARK    1  A    between atoms: C1_2  and  C2_3 
ROOT
ATOM      1  C2  UNL d   1      -0.702  -0.589   1.882  0.00  0.00    -0.077 A 
ATOM      2  C3  UNL d   1       0.459  -1.371   1.963  0.00  0.00     0.002 A 
ATOM      3  C4  UNL d   1       1.692  -0.849   1.568  0.00  0.00     0.002 A 
ATOM      4  C5  UNL d   1       1.776   0.458   1.092  0.00  0.00    -0.004 A 
ATOM      5  C6  UNL d   1       0.627   1.243   1.005  0.00  0.00     0.002 A 
ATOM      6  C7  UNL d   1      -0.606   0.722   1.399  0.00  0.00     0.002 A 
ENDROOT
BRANCH   1   7
ATOM      7  C1  UNL d   1      -2.025  -1.134   2.354  0.00  0.00     0.055 C 
ATOM      8  C   UNL d   1      -2.511  -2.262   1.456  0.00  0.00     0.019 C 
ENDBRANCH   1   7
TORSDOF 1
ENDMDL
