MODEL 1
REMARK minimizedAffinity 4.85605049
REMARK minimizedRMSD -1
REMARK  1 active torsions:
REMARK  status: ('A' for Active; 'I' for Inactive)
REMARK    1  A    between atoms: C1_2  and  C2_3 
ROOT
ATOM      1  C2  UNL d   1       2.269  -5.964   3.433  0.00  0.00    -0.077 A 
ATOM      2  C3  UNL d   1       2.473  -5.962   4.820  0.00  0.00     0.002 A 
ATOM      3  C4  UNL d   1       1.385  -5.975   5.694  0.00  0.00     0.002 A 
ATOM      4  C5  UNL d   1       0.086  -5.996   5.192  0.00  0.00    -0.004 A 
ATOM      5  C6  UNL d   1      -0.128  -5.996   3.814  0.00  0.00     0.002 A 
ATOM      6  C7  UNL d   1       0.959  -5.982   2.939  0.00  0.00     0.002 A 
ENDROOT
BRANCH   1   7
ATOM      7  C1  UNL d   1       3.443  -6.000   2.489  0.00  0.00     0.055 C 
ATOM      8  C   UNL d   1       4.763  -5.996   3.246  0.00  0.00     0.019 C 
ENDBRANCH   1   7
TORSDOF 1
ENDMDL
