MODEL 1
REMARK minimizedAffinity 4.93661499
REMARK minimizedRMSD -1
REMARK  1 active torsions:
REMARK  status: ('A' for Active; 'I' for Inactive)
REMARK    1  A    between atoms: C1_2  and  C2_3 
ROOT
ATOM      1  C2  UNL d   1      -1.688  -0.166  -1.079  0.00  0.00    -0.077 A 
ATOM      2  C3  UNL d   1      -1.822  -1.010   0.032  0.00  0.00     0.002 A 
ATOM      3  C4  UNL d   1      -1.006  -0.837   1.152  0.00  0.00     0.002 A 
ATOM      4  C5  UNL d   1      -0.055   0.181   1.173  0.00  0.00    -0.004 A 
ATOM      5  C6  UNL d   1       0.087   1.024   0.071  0.00  0.00     0.002 A 
ATOM      6  C7  UNL d   1      -0.727   0.851  -1.049  0.00  0.00     0.002 A 
ENDROOT
BRANCH   1   7
ATOM      7  C1  UNL d   1      -2.600  -0.320  -2.268  0.00  0.00     0.055 C 
ATOM      8  C   UNL d   1      -2.471  -1.703  -2.890  0.00  0.00     0.019 C 
ENDBRANCH   1   7
TORSDOF 1
ENDMDL
