MODEL 1
REMARK minimizedAffinity 3.81516528
REMARK minimizedRMSD -1
REMARK  1 active torsions:
REMARK  status: ('A' for Active; 'I' for Inactive)
REMARK    1  A    between atoms: C1_2  and  C2_3 
ROOT
ATOM      1  C2  UNL d   1      -0.251  -5.927   3.038  0.00  0.00    -0.077 A 
ATOM      2  C3  UNL d   1      -1.370  -5.910   2.193  0.00  0.00     0.002 A 
ATOM      3  C4  UNL d   1      -1.209  -5.937   0.807  0.00  0.00     0.002 A 
ATOM      4  C5  UNL d   1       0.069  -5.984   0.253  0.00  0.00    -0.004 A 
ATOM      5  C6  UNL d   1       1.188  -5.999   1.084  0.00  0.00     0.002 A 
ATOM      6  C7  UNL d   1       1.029  -5.971   2.470  0.00  0.00     0.002 A 
ENDROOT
BRANCH   1   7
ATOM      7  C1  UNL d   1      -0.424  -5.948   4.534  0.00  0.00     0.055 C 
ATOM      8  C   UNL d   1       0.921  -5.959   5.247  0.00  0.00     0.019 C 
ENDBRANCH   1   7
TORSDOF 1
ENDMDL
