MODEL 1
REMARK minimizedAffinity -1.32652211
REMARK minimizedRMSD -1
REMARK  1 active torsions:
REMARK  status: ('A' for Active; 'I' for Inactive)
REMARK    1  A    between atoms: C1_2  and  C2_3 
ROOT
ATOM      1  C2  UNL d   1      -1.165  -0.476   2.297  0.00  0.00    -0.077 A 
ATOM      2  C3  UNL d   1      -0.920  -1.341   1.221  0.00  0.00     0.002 A 
ATOM      3  C4  UNL d   1      -1.485  -2.618   1.200  0.00  0.00     0.002 A 
ATOM      4  C5  UNL d   1      -2.301  -3.039   2.247  0.00  0.00    -0.004 A 
ATOM      5  C6  UNL d   1      -2.549  -2.186   3.322  0.00  0.00     0.002 A 
ATOM      6  C7  UNL d   1      -1.984  -0.910   3.347  0.00  0.00     0.002 A 
ENDROOT
BRANCH   1   7
ATOM      7  C1  UNL d   1      -0.596   0.919   2.299  0.00  0.00     0.055 C 
ATOM      8  C   UNL d   1       0.925   0.897   2.326  0.00  0.00     0.019 C 
ENDBRANCH   1   7
TORSDOF 1
ENDMDL
