MODEL 1
REMARK minimizedAffinity -0.794250786
REMARK minimizedRMSD -1
REMARK  1 active torsions:
REMARK  status: ('A' for Active; 'I' for Inactive)
REMARK    1  A    between atoms: C1_2  and  C2_3 
ROOT
ATOM      1  C2  UNL d   1      -3.462  -5.989   2.752  0.00  0.00    -0.077 A 
ATOM      2  C3  UNL d   1      -3.399  -5.999   1.352  0.00  0.00     0.002 A 
ATOM      3  C4  UNL d   1      -4.571  -5.988   0.592  0.00  0.00     0.002 A 
ATOM      4  C5  UNL d   1      -5.812  -5.961   1.223  0.00  0.00    -0.004 A 
ATOM      5  C6  UNL d   1      -5.886  -5.953   2.616  0.00  0.00     0.002 A 
ATOM      6  C7  UNL d   1      -4.716  -5.965   3.377  0.00  0.00     0.002 A 
ENDROOT
BRANCH   1   7
ATOM      7  C1  UNL d   1      -2.200  -5.952   3.573  0.00  0.00     0.055 C 
ATOM      8  C   UNL d   1      -0.963  -5.976   2.687  0.00  0.00     0.019 C 
ENDBRANCH   1   7
TORSDOF 1
ENDMDL
