MODEL 1
REMARK minimizedAffinity 3.84403563
REMARK minimizedRMSD -1
REMARK  1 active torsions:
REMARK  status: ('A' for Active; 'I' for Inactive)
REMARK    1  A    between atoms: C1_2  and  C2_3 
ROOT
ATOM      1  C2  UNL d   1      -0.682  -2.062  -3.983  0.00  0.00    -0.077 A 
ATOM      2  C3  UNL d   1      -0.919  -0.858  -3.304  0.00  0.00     0.002 A 
ATOM      3  C4  UNL d   1      -2.150  -0.627  -2.686  0.00  0.00     0.002 A 
ATOM      4  C5  UNL d   1      -3.150  -1.595  -2.737  0.00  0.00    -0.004 A 
ATOM      5  C6  UNL d   1      -2.925  -2.794  -3.411  0.00  0.00     0.002 A 
ATOM      6  C7  UNL d   1      -1.696  -3.027  -4.031  0.00  0.00     0.002 A 
ENDROOT
BRANCH   1   7
ATOM      7  C1  UNL d   1       0.661  -2.333  -4.608  0.00  0.00     0.055 C 
ATOM      8  C   UNL d   1       1.751  -1.483  -3.971  0.00  0.00     0.019 C 
ENDBRANCH   1   7
TORSDOF 1
ENDMDL
