MODEL 1
REMARK minimizedAffinity 1.08235061
REMARK minimizedRMSD -1
REMARK  1 active torsions:
REMARK  status: ('A' for Active; 'I' for Inactive)
REMARK    1  A    between atoms: C1_2  and  C2_3 
ROOT
ATOM      1  C2  UNL d   1      -2.142   0.990   3.283  0.00  0.00    -0.077 A 
ATOM      2  C3  UNL d   1      -2.411  -0.223   3.932  0.00  0.00     0.002 A 
ATOM      3  C4  UNL d   1      -3.665  -0.459   4.497  0.00  0.00     0.002 A 
ATOM      4  C5  UNL d   1      -4.662   0.512   4.415  0.00  0.00    -0.004 A 
ATOM      5  C6  UNL d   1      -4.404   1.722   3.773  0.00  0.00     0.002 A 
ATOM      6  C7  UNL d   1      -3.150   1.960   3.209  0.00  0.00     0.002 A 
ENDROOT
BRANCH   1   7
ATOM      7  C1  UNL d   1      -0.805   1.227   2.630  0.00  0.00     0.055 C 
ATOM      8  C   UNL d   1       0.050   2.182   3.450  0.00  0.00     0.019 C 
ENDBRANCH   1   7
TORSDOF 1
ENDMDL
