MODEL 1
REMARK minimizedAffinity 0.250042886
REMARK minimizedRMSD -1
REMARK  1 active torsions:
REMARK  status: ('A' for Active; 'I' for Inactive)
REMARK    1  A    between atoms: C1_2  and  C2_3 
ROOT
ATOM      1  C2  UNL d   1      -1.076  -4.815   3.328  0.00  0.00    -0.077 A 
ATOM      2  C3  UNL d   1      -1.758  -5.995   2.997  0.00  0.00     0.002 A 
ATOM      3  C4  UNL d   1      -2.734  -5.990   1.999  0.00  0.00     0.002 A 
ATOM      4  C5  UNL d   1      -3.033  -4.811   1.320  0.00  0.00    -0.004 A 
ATOM      5  C6  UNL d   1      -2.362  -3.632   1.642  0.00  0.00     0.002 A 
ATOM      6  C7  UNL d   1      -1.387  -3.634   2.641  0.00  0.00     0.002 A 
ENDROOT
BRANCH   1   7
ATOM      7  C1  UNL d   1       0.011  -4.828   4.370  0.00  0.00     0.055 C 
ATOM      8  C   UNL d   1       1.391  -4.857   3.731  0.00  0.00     0.019 C 
ENDBRANCH   1   7
TORSDOF 1
ENDMDL
