MODEL 1
REMARK minimizedAffinity -4.92185211
REMARK minimizedRMSD -1
REMARK  2 active torsions:
REMARK  status: ('A' for Active; 'I' for Inactive)
REMARK    1  A    between atoms: C2'_3  and  C1'_4 
REMARK    2  A    between atoms: C1'_4  and  C1_5 
ROOT
ATOM      1  C1  I4B d   1      -0.097  -0.081   0.089  0.00  0.00    -0.075 A 
ATOM      2  C2  I4B d   1       0.845   0.760   0.626  0.00  0.00     0.003 A 
ATOM      3  C3  I4B d   1       1.190   0.660   1.996  0.00  0.00     0.002 A 
ATOM      4  C4  I4B d   1       0.537  -0.254   2.797  0.00  0.00    -0.004 A 
ATOM      5  C5  I4B d   1      -0.401  -1.121   2.245  0.00  0.00     0.002 A 
ATOM      6  C6  I4B d   1      -0.712  -1.043   0.879  0.00  0.00     0.003 A 
ENDROOT
BRANCH   1   7
ATOM      7  C1' I4B d   1      -0.462   0.074  -1.354  0.00  0.00     0.060 C 
BRANCH   7   8
ATOM      8  C2' I4B d   1      -0.856   1.519  -1.583  0.00  0.00    -0.013 C 
ATOM      9  C4' I4B d   1       0.147   2.225  -2.458  0.00  0.00     0.013 C 
ATOM     10  C3' I4B d   1      -2.221   1.534  -2.204  0.00  0.00     0.013 C 
ENDBRANCH   7   8
ENDBRANCH   1   7
TORSDOF 2
ENDMDL
