MODEL 1
REMARK minimizedAffinity -5.85429716
REMARK minimizedRMSD -1
REMARK  2 active torsions:
REMARK  status: ('A' for Active; 'I' for Inactive)
REMARK    1  A    between atoms: C2'_3  and  C1'_4 
REMARK    2  A    between atoms: C1'_4  and  C1_5 
ROOT
ATOM      1  C1  I4B d   1      -0.987   2.657  -0.351  0.00  0.00    -0.075 A 
ATOM      2  C2  I4B d   1      -0.397   2.723  -1.588  0.00  0.00     0.003 A 
ATOM      3  C3  I4B d   1      -1.009   3.459  -2.632  0.00  0.00     0.002 A 
ATOM      4  C4  I4B d   1      -2.228   4.066  -2.410  0.00  0.00    -0.004 A 
ATOM      5  C5  I4B d   1      -2.814   4.017  -1.149  0.00  0.00     0.002 A 
ATOM      6  C6  I4B d   1      -2.184   3.319  -0.109  0.00  0.00     0.003 A 
ENDROOT
BRANCH   1   7
ATOM      7  C1' I4B d   1      -0.330   1.844   0.719  0.00  0.00     0.060 C 
BRANCH   7   8
ATOM      8  C2' I4B d   1      -0.699   0.392   0.495  0.00  0.00    -0.013 C 
ATOM      9  C4' I4B d   1       0.391  -0.341  -0.242  0.00  0.00     0.013 C 
ATOM     10  C3' I4B d   1      -0.961  -0.231   1.834  0.00  0.00     0.013 C 
ENDBRANCH   7   8
ENDBRANCH   1   7
TORSDOF 2
ENDMDL
