MODEL 1
REMARK minimizedAffinity -5.80766153
REMARK minimizedRMSD -1
REMARK  2 active torsions:
REMARK  status: ('A' for Active; 'I' for Inactive)
REMARK    1  A    between atoms: C2'_3  and  C1'_4 
REMARK    2  A    between atoms: C1'_4  and  C1_5 
ROOT
ATOM      1  C1  I4B d   1      -0.306   0.227   0.335  0.00  0.00    -0.075 A 
ATOM      2  C2  I4B d   1      -1.107   0.745   1.321  0.00  0.00     0.003 A 
ATOM      3  C3  I4B d   1      -0.733   0.623   2.681  0.00  0.00     0.002 A 
ATOM      4  C4  I4B d   1       0.417  -0.065   3.011  0.00  0.00    -0.004 A 
ATOM      5  C5  I4B d   1       1.240  -0.570   2.008  0.00  0.00     0.002 A 
ATOM      6  C6  I4B d   1       0.883  -0.413   0.661  0.00  0.00     0.003 A 
ENDROOT
BRANCH   1   7
ATOM      7  C1' I4B d   1      -0.748   0.345  -1.090  0.00  0.00     0.060 C 
BRANCH   7   8
ATOM      8  C2' I4B d   1      -1.268   1.752  -1.302  0.00  0.00    -0.013 C 
ATOM      9  C4' I4B d   1      -0.233   2.621  -1.966  0.00  0.00     0.013 C 
ATOM     10  C3' I4B d   1      -2.515   1.664  -2.130  0.00  0.00     0.013 C 
ENDBRANCH   7   8
ENDBRANCH   1   7
TORSDOF 2
ENDMDL
