MODEL 1
REMARK minimizedAffinity -3.65479875
REMARK minimizedRMSD -1
REMARK  2 active torsions:
REMARK  status: ('A' for Active; 'I' for Inactive)
REMARK    1  A    between atoms: C2'_3  and  C1'_4 
REMARK    2  A    between atoms: C1'_4  and  C1_5 
ROOT
ATOM      1  C1  I4B d   1      -0.717   1.178  -1.975  0.00  0.00    -0.075 A 
ATOM      2  C2  I4B d   1      -0.074   1.516  -3.139  0.00  0.00     0.003 A 
ATOM      3  C3  I4B d   1      -0.377   2.735  -3.793  0.00  0.00     0.002 A 
ATOM      4  C4  I4B d   1      -1.359   3.557  -3.278  0.00  0.00    -0.004 A 
ATOM      5  C5  I4B d   1      -1.993   3.224  -2.084  0.00  0.00     0.002 A 
ATOM      6  C6  I4B d   1      -1.661   2.033  -1.421  0.00  0.00     0.003 A 
ENDROOT
BRANCH   1   7
ATOM      7  C1' I4B d   1      -0.396  -0.132  -1.328  0.00  0.00     0.060 C 
BRANCH   7   8
ATOM      8  C2' I4B d   1       0.598   0.128  -0.215  0.00  0.00    -0.013 C 
ATOM      9  C4' I4B d   1      -0.026  -0.096   1.137  0.00  0.00     0.013 C 
ATOM     10  C3' I4B d   1       1.775  -0.778  -0.425  0.00  0.00     0.013 C 
ENDBRANCH   7   8
ENDBRANCH   1   7
TORSDOF 2
ENDMDL
