MODEL 1
REMARK minimizedAffinity -2.18130589
REMARK minimizedRMSD -1
REMARK  2 active torsions:
REMARK  status: ('A' for Active; 'I' for Inactive)
REMARK    1  A    between atoms: C2'_3  and  C1'_4 
REMARK    2  A    between atoms: C1'_4  and  C1_5 
ROOT
ATOM      1  C1  I4B d   1      -0.156  -0.306  -0.481  0.00  0.00    -0.075 A 
ATOM      2  C2  I4B d   1      -1.140   0.161   0.353  0.00  0.00     0.003 A 
ATOM      3  C3  I4B d   1      -1.112  -0.150   1.734  0.00  0.00     0.002 A 
ATOM      4  C4  I4B d   1      -0.115  -0.968   2.226  0.00  0.00    -0.004 A 
ATOM      5  C5  I4B d   1       0.895  -1.422   1.383  0.00  0.00     0.002 A 
ATOM      6  C6  I4B d   1       0.882  -1.080   0.023  0.00  0.00     0.003 A 
ENDROOT
BRANCH   1   7
ATOM      7  C1' I4B d   1      -0.235   0.014  -1.940  0.00  0.00     0.060 C 
BRANCH   7   8
ATOM      8  C2' I4B d   1      -0.488   1.502  -2.078  0.00  0.00    -0.013 C 
ATOM      9  C4' I4B d   1       0.649   2.184  -2.791  0.00  0.00     0.013 C 
ATOM     10  C3' I4B d   1      -1.780   1.685  -2.818  0.00  0.00     0.013 C 
ENDBRANCH   7   8
ENDBRANCH   1   7
TORSDOF 2
ENDMDL
