MODEL 1
REMARK minimizedAffinity -1.3263582
REMARK minimizedRMSD -1
REMARK  2 active torsions:
REMARK  status: ('A' for Active; 'I' for Inactive)
REMARK    1  A    between atoms: C2'_3  and  C1'_4 
REMARK    2  A    between atoms: C1'_4  and  C1_5 
ROOT
ATOM      1  C1  I4B d   1      -1.080   0.642  -0.982  0.00  0.00    -0.075 A 
ATOM      2  C2  I4B d   1      -1.717   0.354   0.199  0.00  0.00     0.003 A 
ATOM      3  C3  I4B d   1      -1.004  -0.246   1.265  0.00  0.00     0.002 A 
ATOM      4  C4  I4B d   1       0.322  -0.585   1.091  0.00  0.00    -0.004 A 
ATOM      5  C5  I4B d   1       0.972  -0.271  -0.100  0.00  0.00     0.002 A 
ATOM      6  C6  I4B d   1       0.270   0.357  -1.139  0.00  0.00     0.003 A 
ENDROOT
BRANCH   1   7
ATOM      7  C1' I4B d   1      -1.871   1.245  -2.099  0.00  0.00     0.060 C 
BRANCH   7   8
ATOM      8  C2' I4B d   1      -1.766   2.752  -1.985  0.00  0.00    -0.013 C 
ATOM      9  C4' I4B d   1      -0.869   3.318  -3.054  0.00  0.00     0.013 C 
ATOM     10  C3' I4B d   1      -3.150   3.322  -2.082  0.00  0.00     0.013 C 
ENDBRANCH   7   8
ENDBRANCH   1   7
TORSDOF 2
ENDMDL
