MODEL 1
REMARK minimizedAffinity -2.19625449
REMARK minimizedRMSD -1
REMARK  2 active torsions:
REMARK  status: ('A' for Active; 'I' for Inactive)
REMARK    1  A    between atoms: C2'_3  and  C1'_4 
REMARK    2  A    between atoms: C1'_4  and  C1_5 
ROOT
ATOM      1  C1  I4B d   1      -2.856   3.190  -2.905  0.00  0.00    -0.075 A 
ATOM      2  C2  I4B d   1      -2.353   1.937  -2.658  0.00  0.00     0.003 A 
ATOM      3  C3  I4B d   1      -0.966   1.686  -2.791  0.00  0.00     0.002 A 
ATOM      4  C4  I4B d   1      -0.131   2.697  -3.219  0.00  0.00    -0.004 A 
ATOM      5  C5  I4B d   1      -0.639   3.973  -3.447  0.00  0.00     0.002 A 
ATOM      6  C6  I4B d   1      -2.008   4.225  -3.278  0.00  0.00     0.003 A 
ENDROOT
BRANCH   1   7
ATOM      7  C1' I4B d   1      -4.331   3.411  -2.787  0.00  0.00     0.060 C 
BRANCH   7   8
ATOM      8  C2' I4B d   1      -5.017   2.067  -2.923  0.00  0.00    -0.013 C 
ATOM      9  C4' I4B d   1      -5.973   1.826  -1.786  0.00  0.00     0.013 C 
ATOM     10  C3' I4B d   1      -5.728   2.042  -4.243  0.00  0.00     0.013 C 
ENDBRANCH   7   8
ENDBRANCH   1   7
TORSDOF 2
ENDMDL
