MODEL 1
REMARK minimizedAffinity -0.6490978
REMARK minimizedRMSD -1
REMARK  2 active torsions:
REMARK  status: ('A' for Active; 'I' for Inactive)
REMARK    1  A    between atoms: C2'_3  and  C1'_4 
REMARK    2  A    between atoms: C1'_4  and  C1_5 
ROOT
ATOM      1  C1  I4B d   1      -1.392   1.873  -1.960  0.00  0.00    -0.075 A 
ATOM      2  C2  I4B d   1      -2.488   2.678  -2.150  0.00  0.00     0.003 A 
ATOM      3  C3  I4B d   1      -2.336   3.972  -2.704  0.00  0.00     0.002 A 
ATOM      4  C4  I4B d   1      -1.072   4.437  -3.005  0.00  0.00    -0.004 A 
ATOM      5  C5  I4B d   1       0.036   3.612  -2.834  0.00  0.00     0.002 A 
ATOM      6  C6  I4B d   1      -0.126   2.317  -2.320  0.00  0.00     0.003 A 
ENDROOT
BRANCH   1   7
ATOM      7  C1' I4B d   1      -1.585   0.525  -1.342  0.00  0.00     0.060 C 
BRANCH   7   8
ATOM      8  C2' I4B d   1      -0.229   0.015  -0.901  0.00  0.00    -0.013 C 
ATOM      9  C4' I4B d   1      -0.253  -0.422   0.540  0.00  0.00     0.013 C 
ATOM     10  C3' I4B d   1       0.156  -1.119  -1.804  0.00  0.00     0.013 C 
ENDBRANCH   7   8
ENDBRANCH   1   7
TORSDOF 2
ENDMDL
