MODEL 1
REMARK minimizedAffinity -3.19020581
REMARK minimizedRMSD -1
REMARK  2 active torsions:
REMARK  status: ('A' for Active; 'I' for Inactive)
REMARK    1  A    between atoms: C2'_3  and  C1'_4 
REMARK    2  A    between atoms: C1'_4  and  C1_5 
ROOT
ATOM      1  C1  I4B d   1       0.606  -0.898   0.748  0.00  0.00    -0.075 A 
ATOM      2  C2  I4B d   1       0.368  -1.201   2.065  0.00  0.00     0.003 A 
ATOM      3  C3  I4B d   1       1.084  -2.247   2.696  0.00  0.00     0.002 A 
ATOM      4  C4  I4B d   1       1.985  -2.993   1.964  0.00  0.00    -0.004 A 
ATOM      5  C5  I4B d   1       2.242  -2.669   0.635  0.00  0.00     0.002 A 
ATOM      6  C6  I4B d   1       1.557  -1.607   0.026  0.00  0.00     0.003 A 
ENDROOT
BRANCH   1   7
ATOM      7  C1' I4B d   1      -0.191   0.192   0.104  0.00  0.00     0.060 C 
BRANCH   7   8
ATOM      8  C2' I4B d   1      -0.077   0.028  -1.398  0.00  0.00    -0.013 C 
ATOM      9  C4' I4B d   1      -0.861  -1.166  -1.877  0.00  0.00     0.013 C 
ATOM     10  C3' I4B d   1      -0.568   1.291  -2.040  0.00  0.00     0.013 C 
ENDBRANCH   7   8
ENDBRANCH   1   7
TORSDOF 2
ENDMDL
