MODEL 1
REMARK minimizedAffinity -1.29632223
REMARK minimizedRMSD -1
REMARK  2 active torsions:
REMARK  status: ('A' for Active; 'I' for Inactive)
REMARK    1  A    between atoms: C2'_3  and  C1'_4 
REMARK    2  A    between atoms: C1'_4  and  C1_5 
ROOT
ATOM      1  C1  I4B d   1      -0.169  -0.117   0.242  0.00  0.00    -0.075 A 
ATOM      2  C2  I4B d   1       1.181  -0.355   0.316  0.00  0.00     0.003 A 
ATOM      3  C3  I4B d   1       1.784  -0.663   1.560  0.00  0.00     0.002 A 
ATOM      4  C4  I4B d   1       1.013  -0.673   2.705  0.00  0.00    -0.004 A 
ATOM      5  C5  I4B d   1      -0.360  -0.454   2.624  0.00  0.00     0.002 A 
ATOM      6  C6  I4B d   1      -0.957  -0.187   1.384  0.00  0.00     0.003 A 
ENDROOT
BRANCH   1   7
ATOM      7  C1' I4B d   1      -0.766   0.237  -1.082  0.00  0.00     0.060 C 
BRANCH   7   8
ATOM      8  C2' I4B d   1      -0.736   1.746  -1.219  0.00  0.00    -0.013 C 
ATOM      9  C4' I4B d   1       0.451   2.196  -2.030  0.00  0.00     0.013 C 
ATOM     10  C3' I4B d   1      -2.022   2.179  -1.857  0.00  0.00     0.013 C 
ENDBRANCH   7   8
ENDBRANCH   1   7
TORSDOF 2
ENDMDL
