MODEL 1
REMARK minimizedAffinity -0.498453677
REMARK minimizedRMSD -1
REMARK  2 active torsions:
REMARK  status: ('A' for Active; 'I' for Inactive)
REMARK    1  A    between atoms: C2'_3  and  C1'_4 
REMARK    2  A    between atoms: C1'_4  and  C1_5 
ROOT
ATOM      1  C1  I4B d   1      -0.637   0.181  -0.305  0.00  0.00    -0.075 A 
ATOM      2  C2  I4B d   1       0.698  -0.139  -0.336  0.00  0.00     0.003 A 
ATOM      3  C3  I4B d   1       1.342  -0.624   0.828  0.00  0.00     0.002 A 
ATOM      4  C4  I4B d   1       0.631  -0.726   2.006  0.00  0.00    -0.004 A 
ATOM      5  C5  I4B d   1      -0.728  -0.423   2.030  0.00  0.00     0.002 A 
ATOM      6  C6  I4B d   1      -1.369   0.021   0.864  0.00  0.00     0.003 A 
ENDROOT
BRANCH   1   7
ATOM      7  C1' I4B d   1      -1.277   0.722  -1.544  0.00  0.00     0.060 C 
BRANCH   7   8
ATOM      8  C2' I4B d   1      -1.432   2.220  -1.373  0.00  0.00    -0.013 C 
ATOM      9  C4' I4B d   1      -0.420   2.969  -2.200  0.00  0.00     0.013 C 
ATOM     10  C3' I4B d   1      -2.831   2.588  -1.765  0.00  0.00     0.013 C 
ENDBRANCH   7   8
ENDBRANCH   1   7
TORSDOF 2
ENDMDL
