MODEL 1
REMARK minimizedAffinity -2.52756047
REMARK minimizedRMSD -1
REMARK  0 active torsions:
REMARK  status: ('A' for Active; 'I' for Inactive)
ROOT
ATOM      1  C   UNL d   1      -5.986   5.551   5.941  0.00  0.00     0.172 C 
ATOM      2  N   UNL d   1      -5.154   5.673   4.767  0.00  0.00    -0.070 N 
ATOM      3  C1  UNL d   1      -5.592   5.978   3.506  0.00  0.00    -0.004 A 
ATOM      4  C2  UNL d   1      -4.496   5.999   2.671  0.00  0.00    -0.047 A 
ATOM      5  C3  UNL d   1      -3.359   5.696   3.458  0.00  0.00    -0.047 A 
ATOM      6  C4  UNL d   1      -3.795   5.499   4.751  0.00  0.00    -0.004 A 
ENDROOT
TORSDOF 0
ENDMDL
