MODEL 1
REMARK minimizedAffinity 0.36529097
REMARK minimizedRMSD -1
REMARK  0 active torsions:
REMARK  status: ('A' for Active; 'I' for Inactive)
ROOT
ATOM      1  C   UNL d   1      -5.347   5.840   5.701  0.00  0.00     0.172 C 
ATOM      2  N   UNL d   1      -5.050   5.904   4.290  0.00  0.00    -0.070 N 
ATOM      3  C1  UNL d   1      -5.975   5.937   3.280  0.00  0.00    -0.004 A 
ATOM      4  C2  UNL d   1      -5.292   5.998   2.084  0.00  0.00    -0.047 A 
ATOM      5  C3  UNL d   1      -3.910   6.000   2.386  0.00  0.00    -0.047 A 
ATOM      6  C4  UNL d   1      -3.788   5.942   3.758  0.00  0.00    -0.004 A 
ENDROOT
TORSDOF 0
ENDMDL
