MODEL 1
REMARK minimizedAffinity -1.97023773
REMARK minimizedRMSD -1
REMARK  0 active torsions:
REMARK  status: ('A' for Active; 'I' for Inactive)
ROOT
ATOM      1  C   UNL d   1      -1.704  -5.250   6.000  0.00  0.00     0.172 C 
ATOM      2  N   UNL d   1      -0.518  -4.511   5.637  0.00  0.00    -0.070 N 
ATOM      3  C1  UNL d   1       0.764  -4.832   5.998  0.00  0.00    -0.004 A 
ATOM      4  C2  UNL d   1       1.605  -3.884   5.456  0.00  0.00    -0.047 A 
ATOM      5  C3  UNL d   1       0.801  -2.962   4.745  0.00  0.00    -0.047 A 
ATOM      6  C4  UNL d   1      -0.509  -3.374   4.874  0.00  0.00    -0.004 A 
ENDROOT
TORSDOF 0
ENDMDL
