MODEL 1
REMARK minimizedAffinity 0.181310534
REMARK minimizedRMSD -1
REMARK  0 active torsions:
REMARK  status: ('A' for Active; 'I' for Inactive)
ROOT
ATOM      1  C   UNL d   1      -0.448  -5.999   6.000  0.00  0.00     0.172 C 
ATOM      2  N   UNL d   1       0.160  -4.860   5.355  0.00  0.00    -0.070 N 
ATOM      3  C1  UNL d   1      -0.099  -4.431   4.080  0.00  0.00    -0.004 A 
ATOM      4  C2  UNL d   1       0.680  -3.319   3.842  0.00  0.00    -0.047 A 
ATOM      5  C3  UNL d   1       1.433  -3.071   5.014  0.00  0.00    -0.047 A 
ATOM      6  C4  UNL d   1       1.092  -4.040   5.934  0.00  0.00    -0.004 A 
ENDROOT
TORSDOF 0
ENDMDL
