MODEL 1
REMARK minimizedAffinity -2.97246265
REMARK minimizedRMSD -1
REMARK  0 active torsions:
REMARK  status: ('A' for Active; 'I' for Inactive)
ROOT
ATOM      1  C   UNL d   1      -5.695   5.290   5.959  0.00  0.00     0.172 C 
ATOM      2  N   UNL d   1      -5.060   5.501   4.679  0.00  0.00    -0.070 N 
ATOM      3  C1  UNL d   1      -5.650   5.324   3.456  0.00  0.00    -0.004 A 
ATOM      4  C2  UNL d   1      -4.717   5.628   2.489  0.00  0.00    -0.047 A 
ATOM      5  C3  UNL d   1      -3.524   6.000   3.153  0.00  0.00    -0.047 A 
ATOM      6  C4  UNL d   1      -3.765   5.913   4.508  0.00  0.00    -0.004 A 
ENDROOT
TORSDOF 0
ENDMDL
