MODEL 1
REMARK minimizedAffinity 0.31452173
REMARK minimizedRMSD -1
REMARK  0 active torsions:
REMARK  status: ('A' for Active; 'I' for Inactive)
ROOT
ATOM      1  C   UNL d   1      -2.408   5.945   3.686  0.00  0.00     0.172 C 
ATOM      2  N   UNL d   1      -3.850   5.966   3.771  0.00  0.00    -0.070 N 
ATOM      3  C1  UNL d   1      -4.582   5.976   4.928  0.00  0.00    -0.004 A 
ATOM      4  C2  UNL d   1      -5.916   5.995   4.584  0.00  0.00    -0.047 A 
ATOM      5  C3  UNL d   1      -5.988   5.995   3.170  0.00  0.00    -0.047 A 
ATOM      6  C4  UNL d   1      -4.695   5.977   2.693  0.00  0.00    -0.004 A 
ENDROOT
TORSDOF 0
ENDMDL
