MODEL 1
REMARK minimizedAffinity -0.0213472042
REMARK minimizedRMSD -1
REMARK  0 active torsions:
REMARK  status: ('A' for Active; 'I' for Inactive)
ROOT
ATOM      1  C   UNL d   1      -2.534   6.000   3.016  0.00  0.00     0.172 C 
ATOM      2  N   UNL d   1      -3.849   5.770   2.464  0.00  0.00    -0.070 N 
ATOM      3  C1  UNL d   1      -4.207   5.948   1.154  0.00  0.00    -0.004 A 
ATOM      4  C2  UNL d   1      -5.541   5.623   1.034  0.00  0.00    -0.047 A 
ATOM      5  C3  UNL d   1      -6.000   5.236   2.315  0.00  0.00    -0.047 A 
ATOM      6  C4  UNL d   1      -4.932   5.336   3.182  0.00  0.00    -0.004 A 
ENDROOT
TORSDOF 0
ENDMDL
