MODEL 1
REMARK minimizedAffinity 1.74171972
REMARK minimizedRMSD -1
REMARK  0 active torsions:
REMARK  status: ('A' for Active; 'I' for Inactive)
ROOT
ATOM      1  C1  BNZ d   1      -0.125   0.332   4.516  0.00  0.00     0.000 A 
ATOM      2  C2  BNZ d   1      -0.548   1.438   3.828  0.00  0.00     0.000 A 
ATOM      3  C3  BNZ d   1       0.257   2.033   2.896  0.00  0.00     0.000 A 
ATOM      4  C4  BNZ d   1       1.497   1.546   2.684  0.00  0.00     0.000 A 
ATOM      5  C5  BNZ d   1       1.941   0.438   3.377  0.00  0.00     0.000 A 
ATOM      6  C6  BNZ d   1       1.114  -0.181   4.286  0.00  0.00     0.000 A 
ENDROOT
TORSDOF 0
ENDMDL
