MODEL 1
REMARK minimizedAffinity 5.13886213
REMARK minimizedRMSD -1
REMARK  0 active torsions:
REMARK  status: ('A' for Active; 'I' for Inactive)
ROOT
ATOM      1  C1  BNZ d   1      -5.937  -3.467   3.625  0.00  0.00     0.000 A 
ATOM      2  C2  BNZ d   1      -5.325  -2.249   3.757  0.00  0.00     0.000 A 
ATOM      3  C3  BNZ d   1      -4.749  -1.880   4.940  0.00  0.00     0.000 A 
ATOM      4  C4  BNZ d   1      -4.819  -2.711   6.000  0.00  0.00     0.000 A 
ATOM      5  C5  BNZ d   1      -5.441  -3.938   5.885  0.00  0.00     0.000 A 
ATOM      6  C6  BNZ d   1      -5.986  -4.323   4.682  0.00  0.00     0.000 A 
ENDROOT
TORSDOF 0
ENDMDL
