MODEL 1
REMARK minimizedAffinity 1.20946121
REMARK minimizedRMSD -1
REMARK  0 active torsions:
REMARK  status: ('A' for Active; 'I' for Inactive)
ROOT
ATOM      1  C1  BNZ d   1      -1.411   0.465  -0.449  0.00  0.00     0.000 A 
ATOM      2  C2  BNZ d   1      -2.649   0.974  -0.160  0.00  0.00     0.000 A 
ATOM      3  C3  BNZ d   1      -3.599   0.202   0.448  0.00  0.00     0.000 A 
ATOM      4  C4  BNZ d   1      -3.324  -1.088   0.730  0.00  0.00     0.000 A 
ATOM      5  C5  BNZ d   1      -2.084  -1.619   0.436  0.00  0.00     0.000 A 
ATOM      6  C6  BNZ d   1      -1.117  -0.828  -0.141  0.00  0.00     0.000 A 
ENDROOT
TORSDOF 0
ENDMDL
