MODEL 1
REMARK minimizedAffinity 2.2307272
REMARK minimizedRMSD -1
REMARK  0 active torsions:
REMARK  status: ('A' for Active; 'I' for Inactive)
ROOT
ATOM      1  C1  BNZ d   1       0.242  -1.360   0.585  0.00  0.00     0.000 A 
ATOM      2  C2  BNZ d   1       0.884  -0.223   0.169  0.00  0.00     0.000 A 
ATOM      3  C3  BNZ d   1       0.187   0.806  -0.399  0.00  0.00     0.000 A 
ATOM      4  C4  BNZ d   1      -1.143   0.682  -0.588  0.00  0.00     0.000 A 
ATOM      5  C5  BNZ d   1      -1.803  -0.461  -0.183  0.00  0.00     0.000 A 
ATOM      6  C6  BNZ d   1      -1.104  -1.479   0.425  0.00  0.00     0.000 A 
ENDROOT
TORSDOF 0
ENDMDL
