MODEL 1
REMARK minimizedAffinity -0.892423749
REMARK minimizedRMSD -1
REMARK  0 active torsions:
REMARK  status: ('A' for Active; 'I' for Inactive)
ROOT
ATOM      1  C1  BNZ d   1      -5.948   2.634  -4.893  0.00  0.00     0.000 A 
ATOM      2  C2  BNZ d   1      -5.995   1.813  -5.988  0.00  0.00     0.000 A 
ATOM      3  C3  BNZ d   1      -5.321   0.623  -6.000  0.00  0.00     0.000 A 
ATOM      4  C4  BNZ d   1      -4.571   0.275  -4.934  0.00  0.00     0.000 A 
ATOM      5  C5  BNZ d   1      -4.507   1.097  -3.827  0.00  0.00     0.000 A 
ATOM      6  C6  BNZ d   1      -5.217   2.275  -3.803  0.00  0.00     0.000 A 
ENDROOT
TORSDOF 0
ENDMDL
