MODEL 1
REMARK minimizedAffinity 2.7552166
REMARK minimizedRMSD -1
REMARK  0 active torsions:
REMARK  status: ('A' for Active; 'I' for Inactive)
ROOT
ATOM      1  C1  BNZ d   1       1.038  -0.142   1.510  0.00  0.00     0.000 A 
ATOM      2  C2  BNZ d   1       1.675  -0.684   0.426  0.00  0.00     0.000 A 
ATOM      3  C3  BNZ d   1       1.270  -0.387  -0.845  0.00  0.00     0.000 A 
ATOM      4  C4  BNZ d   1       0.204   0.419  -1.030  0.00  0.00     0.000 A 
ATOM      5  C5  BNZ d   1      -0.455   0.966   0.053  0.00  0.00     0.000 A 
ATOM      6  C6  BNZ d   1      -0.019   0.695   1.330  0.00  0.00     0.000 A 
ENDROOT
TORSDOF 0
ENDMDL
