MODEL 1
REMARK minimizedAffinity 2.15061879
REMARK minimizedRMSD -1
REMARK  0 active torsions:
REMARK  status: ('A' for Active; 'I' for Inactive)
ROOT
ATOM      1  C1  BNZ d   1       1.162  -0.288   1.489  0.00  0.00     0.000 A 
ATOM      2  C2  BNZ d   1       0.323   0.592   2.119  0.00  0.00     0.000 A 
ATOM      3  C3  BNZ d   1      -0.594   1.316   1.410  0.00  0.00     0.000 A 
ATOM      4  C4  BNZ d   1      -0.643   1.190   0.068  0.00  0.00     0.000 A 
ATOM      5  C5  BNZ d   1       0.202   0.314  -0.583  0.00  0.00     0.000 A 
ATOM      6  C6  BNZ d   1       1.097  -0.442   0.138  0.00  0.00     0.000 A 
ENDROOT
TORSDOF 0
ENDMDL
