MODEL 1
REMARK minimizedAffinity 4.21089649
REMARK minimizedRMSD -1
REMARK  0 active torsions:
REMARK  status: ('A' for Active; 'I' for Inactive)
ROOT
ATOM      1  C1  BNZ d   1       0.870  -0.630   1.435  0.00  0.00     0.000 A 
ATOM      2  C2  BNZ d   1       1.313   0.135   2.481  0.00  0.00     0.000 A 
ATOM      3  C3  BNZ d   1       0.827   1.397   2.680  0.00  0.00     0.000 A 
ATOM      4  C4  BNZ d   1      -0.070   1.907   1.811  0.00  0.00     0.000 A 
ATOM      5  C5  BNZ d   1      -0.519   1.152   0.746  0.00  0.00     0.000 A 
ATOM      6  C6  BNZ d   1      -0.057  -0.133   0.571  0.00  0.00     0.000 A 
ENDROOT
TORSDOF 0
ENDMDL
