MODEL 1
REMARK minimizedAffinity 8.15956116
REMARK minimizedRMSD -1
REMARK  0 active torsions:
REMARK  status: ('A' for Active; 'I' for Inactive)
ROOT
ATOM      1  C1  BNZ d   1      -0.846  -5.037  -5.993  0.00  0.00     0.000 A 
ATOM      2  C2  BNZ d   1      -0.106  -5.139  -4.845  0.00  0.00     0.000 A 
ATOM      3  C3  BNZ d   1      -0.658  -5.639  -3.699  0.00  0.00     0.000 A 
ATOM      4  C4  BNZ d   1      -1.958  -5.999  -3.691  0.00  0.00     0.000 A 
ATOM      5  C5  BNZ d   1      -2.719  -5.894  -4.837  0.00  0.00     0.000 A 
ATOM      6  C6  BNZ d   1      -2.150  -5.426  -6.000  0.00  0.00     0.000 A 
ENDROOT
TORSDOF 0
ENDMDL
