MODEL 1
REMARK minimizedAffinity -3.64429212
REMARK minimizedRMSD -1
REMARK  0 active torsions:
REMARK  status: ('A' for Active; 'I' for Inactive)
ROOT
ATOM      1  C   UNL d   1       0.035  -3.484  -1.422  0.00  0.00     0.023 A 
ATOM      2  C1  UNL d   1       0.480  -2.588  -2.395  0.00  0.00     0.003 A 
ATOM      3  C2  UNL d   1       0.537  -1.221  -2.113  0.00  0.00     0.048 A 
ATOM      4  C3  UNL d   1       0.150  -0.758  -0.856  0.00  0.00     0.023 A 
ATOM      5  C4  UNL d   1      -0.295  -1.650   0.120  0.00  0.00     0.048 A 
ATOM      6  C5  UNL d   1      -0.351  -3.016  -0.166  0.00  0.00     0.003 A 
ATOM      7  I   UNL d   1       0.234   1.276  -0.435  0.00  0.00    -0.146 I 
ENDROOT
TORSDOF 0
ENDMDL
