MODEL 1
REMARK minimizedAffinity -5.30810308
REMARK minimizedRMSD -1
REMARK  0 active torsions:
REMARK  status: ('A' for Active; 'I' for Inactive)
ROOT
ATOM      1  C   UNL d   1      -0.355  -3.333  -0.389  0.00  0.00     0.023 A 
ATOM      2  C1  UNL d   1      -0.692  -2.607   0.754  0.00  0.00     0.003 A 
ATOM      3  C2  UNL d   1      -0.516  -1.222   0.780  0.00  0.00     0.048 A 
ATOM      4  C3  UNL d   1      -0.004  -0.569  -0.340  0.00  0.00     0.023 A 
ATOM      5  C4  UNL d   1       0.334  -1.290  -1.486  0.00  0.00     0.048 A 
ATOM      6  C5  UNL d   1       0.157  -2.675  -1.508  0.00  0.00     0.003 A 
ATOM      7  I   UNL d   1       0.257   1.493  -0.304  0.00  0.00    -0.146 I 
ENDROOT
TORSDOF 0
ENDMDL
