MODEL 1
REMARK minimizedAffinity -2.25710869
REMARK minimizedRMSD -1
REMARK  0 active torsions:
REMARK  status: ('A' for Active; 'I' for Inactive)
ROOT
ATOM      1  C   UNL d   1       0.284  -3.605   0.528  0.00  0.00     0.023 A 
ATOM      2  C1  UNL d   1       1.480  -2.980   0.176  0.00  0.00     0.003 A 
ATOM      3  C2  UNL d   1       1.505  -1.605  -0.068  0.00  0.00     0.048 A 
ATOM      4  C3  UNL d   1       0.331  -0.862   0.042  0.00  0.00     0.023 A 
ATOM      5  C4  UNL d   1      -0.869  -1.483   0.394  0.00  0.00     0.048 A 
ATOM      6  C5  UNL d   1      -0.889  -2.858   0.636  0.00  0.00     0.003 A 
ATOM      7  I   UNL d   1       0.365   1.184  -0.321  0.00  0.00    -0.146 I 
ENDROOT
TORSDOF 0
ENDMDL
