MODEL 1
REMARK minimizedAffinity -3.29765129
REMARK minimizedRMSD -1
REMARK  0 active torsions:
REMARK  status: ('A' for Active; 'I' for Inactive)
ROOT
ATOM      1  C   UNL d   1      -0.710  -2.558   0.740  0.00  0.00     0.023 A 
ATOM      2  C1  UNL d   1      -1.370  -1.482   1.334  0.00  0.00     0.003 A 
ATOM      3  C2  UNL d   1      -1.018  -0.173   0.997  0.00  0.00     0.048 A 
ATOM      4  C3  UNL d   1      -0.006   0.052   0.065  0.00  0.00     0.023 A 
ATOM      5  C4  UNL d   1       0.657  -1.021  -0.533  0.00  0.00     0.048 A 
ATOM      6  C5  UNL d   1       0.302  -2.328  -0.192  0.00  0.00     0.003 A 
ATOM      7  I   UNL d   1       0.519   1.999  -0.438  0.00  0.00    -0.146 I 
ENDROOT
TORSDOF 0
ENDMDL
