MODEL 1
REMARK minimizedAffinity -3.12710905
REMARK minimizedRMSD -1
REMARK  0 active torsions:
REMARK  status: ('A' for Active; 'I' for Inactive)
ROOT
ATOM      1  C   UNL d   1       0.226   1.367  -1.354  0.00  0.00     0.023 A 
ATOM      2  C1  UNL d   1      -0.180   1.110  -0.044  0.00  0.00     0.003 A 
ATOM      3  C2  UNL d   1      -0.498  -0.192   0.347  0.00  0.00     0.048 A 
ATOM      4  C3  UNL d   1      -0.405  -1.233  -0.576  0.00  0.00     0.023 A 
ATOM      5  C4  UNL d   1       0.003  -0.981  -1.887  0.00  0.00     0.048 A 
ATOM      6  C5  UNL d   1       0.318   0.323  -2.274  0.00  0.00     0.003 A 
ATOM      7  I   UNL d   1      -0.876  -3.173   0.004  0.00  0.00    -0.146 I 
ENDROOT
TORSDOF 0
ENDMDL
