MODEL 1
REMARK minimizedAffinity -4.88175678
REMARK minimizedRMSD -1
REMARK  0 active torsions:
REMARK  status: ('A' for Active; 'I' for Inactive)
ROOT
ATOM      1  C   UNL d   1       0.030  -3.736  -0.675  0.00  0.00     0.023 A 
ATOM      2  C1  UNL d   1       0.042  -3.113   0.573  0.00  0.00     0.003 A 
ATOM      3  C2  UNL d   1       0.104  -1.721   0.659  0.00  0.00     0.048 A 
ATOM      4  C3  UNL d   1       0.153  -0.958  -0.507  0.00  0.00     0.023 A 
ATOM      5  C4  UNL d   1       0.140  -1.576  -1.758  0.00  0.00     0.048 A 
ATOM      6  C5  UNL d   1       0.079  -2.969  -1.839  0.00  0.00     0.003 A 
ATOM      7  I   UNL d   1       0.245   1.115  -0.381  0.00  0.00    -0.146 I 
ENDROOT
TORSDOF 0
ENDMDL
