MODEL 1
REMARK minimizedAffinity -4.8367238
REMARK minimizedRMSD -1
REMARK  0 active torsions:
REMARK  status: ('A' for Active; 'I' for Inactive)
ROOT
ATOM      1  C   UNL d   1      -0.975  -0.488   2.127  0.00  0.00     0.023 A 
ATOM      2  C1  UNL d   1      -0.659  -1.841   1.996  0.00  0.00     0.003 A 
ATOM      3  C2  UNL d   1      -0.276  -2.353   0.755  0.00  0.00     0.048 A 
ATOM      4  C3  UNL d   1      -0.210  -1.507  -0.351  0.00  0.00     0.023 A 
ATOM      5  C4  UNL d   1      -0.524  -0.153  -0.225  0.00  0.00     0.048 A 
ATOM      6  C5  UNL d   1      -0.908   0.355   1.018  0.00  0.00     0.003 A 
ATOM      7  I   UNL d   1       0.361  -2.266  -2.200  0.00  0.00    -0.146 I 
ENDROOT
TORSDOF 0
ENDMDL
