MODEL 1
REMARK minimizedAffinity -5.34031582
REMARK minimizedRMSD -1
REMARK  0 active torsions:
REMARK  status: ('A' for Active; 'I' for Inactive)
ROOT
ATOM      1  C   UNL d   1       0.133  -3.379  -0.468  0.00  0.00     0.023 A 
ATOM      2  C1  UNL d   1       0.131  -2.723   0.763  0.00  0.00     0.003 A 
ATOM      3  C2  UNL d   1       0.017  -1.332   0.814  0.00  0.00     0.048 A 
ATOM      4  C3  UNL d   1      -0.095  -0.604  -0.370  0.00  0.00     0.023 A 
ATOM      5  C4  UNL d   1      -0.094  -1.256  -1.604  0.00  0.00     0.048 A 
ATOM      6  C5  UNL d   1       0.021  -2.646  -1.650  0.00  0.00     0.003 A 
ATOM      7  I   UNL d   1      -0.264   1.467  -0.296  0.00  0.00    -0.146 I 
ENDROOT
TORSDOF 0
ENDMDL
