MODEL 1
REMARK minimizedAffinity -4.65104866
REMARK minimizedRMSD -1
REMARK  0 active torsions:
REMARK  status: ('A' for Active; 'I' for Inactive)
ROOT
ATOM      1  C   UNL d   1       0.246  -3.775  -1.303  0.00  0.00     0.023 A 
ATOM      2  C1  UNL d   1       0.517  -2.836  -2.298  0.00  0.00     0.003 A 
ATOM      3  C2  UNL d   1       0.444  -1.471  -2.012  0.00  0.00     0.048 A 
ATOM      4  C3  UNL d   1       0.100  -1.052  -0.728  0.00  0.00     0.023 A 
ATOM      5  C4  UNL d   1      -0.171  -1.987   0.272  0.00  0.00     0.048 A 
ATOM      6  C5  UNL d   1      -0.098  -3.351  -0.019  0.00  0.00     0.003 A 
ATOM      7  I   UNL d   1      -0.009   0.979  -0.299  0.00  0.00    -0.146 I 
ENDROOT
TORSDOF 0
ENDMDL
