MODEL 1
REMARK minimizedAffinity -4.89291048
REMARK minimizedRMSD -1
REMARK  0 active torsions:
REMARK  status: ('A' for Active; 'I' for Inactive)
ROOT
ATOM      1  C   UNL d   1       0.507  -3.439  -1.402  0.00  0.00     0.023 A 
ATOM      2  C1  UNL d   1      -0.031  -3.759  -0.156  0.00  0.00     0.003 A 
ATOM      3  C2  UNL d   1      -0.596  -2.760   0.640  0.00  0.00     0.048 A 
ATOM      4  C3  UNL d   1      -0.620  -1.443   0.183  0.00  0.00     0.023 A 
ATOM      5  C4  UNL d   1      -0.084  -1.118  -1.064  0.00  0.00     0.048 A 
ATOM      6  C5  UNL d   1       0.480  -2.120  -1.856  0.00  0.00     0.003 A 
ATOM      7  I   UNL d   1      -1.460   0.045   1.366  0.00  0.00    -0.146 I 
ENDROOT
TORSDOF 0
ENDMDL
