MODEL 1
REMARK minimizedAffinity -2.94327593
REMARK minimizedRMSD -1
REMARK  0 active torsions:
REMARK  status: ('A' for Active; 'I' for Inactive)
ROOT
ATOM      1  C   UNL d   1      -0.194  -3.529  -0.907  0.00  0.00     0.023 A 
ATOM      2  C1  UNL d   1       0.123  -2.632  -1.928  0.00  0.00     0.003 A 
ATOM      3  C2  UNL d   1       0.206  -1.265  -1.657  0.00  0.00     0.048 A 
ATOM      4  C3  UNL d   1      -0.029  -0.801  -0.363  0.00  0.00     0.023 A 
ATOM      5  C4  UNL d   1      -0.346  -1.695   0.661  0.00  0.00     0.048 A 
ATOM      6  C5  UNL d   1      -0.428  -3.061   0.386  0.00  0.00     0.003 A 
ATOM      7  I   UNL d   1       0.094   1.233   0.043  0.00  0.00    -0.146 I 
ENDROOT
TORSDOF 0
ENDMDL
