MODEL 1
REMARK minimizedAffinity -4.38088894
REMARK minimizedRMSD -1
REMARK  0 active torsions:
REMARK  status: ('A' for Active; 'I' for Inactive)
ROOT
ATOM      1  C   UNL d   1       0.250  -3.745  -0.804  0.00  0.00     0.023 A 
ATOM      2  C1  UNL d   1       0.666  -2.972  -1.889  0.00  0.00     0.003 A 
ATOM      3  C2  UNL d   1       0.683  -1.580  -1.791  0.00  0.00     0.048 A 
ATOM      4  C3  UNL d   1       0.283  -0.965  -0.604  0.00  0.00     0.023 A 
ATOM      5  C4  UNL d   1      -0.133  -1.734   0.484  0.00  0.00     0.048 A 
ATOM      6  C5  UNL d   1      -0.149  -3.126   0.381  0.00  0.00     0.003 A 
ATOM      7  I   UNL d   1       0.307   1.108  -0.456  0.00  0.00    -0.146 I 
ENDROOT
TORSDOF 0
ENDMDL
