MODEL 1
REMARK minimizedAffinity -1.79804945
REMARK minimizedRMSD -1
REMARK  0 active torsions:
REMARK  status: ('A' for Active; 'I' for Inactive)
ROOT
ATOM      1  C   UNL d   1      -0.194   3.661  -3.666  0.00  0.00     0.020 A 
ATOM      2  C1  UNL d   1      -1.002   2.525  -3.662  0.00  0.00     0.020 A 
ATOM      3  C2  UNL d   1      -1.224   1.831  -2.471  0.00  0.00     0.034 A 
ATOM      4  C3  UNL d   1      -0.638   2.272  -1.279  0.00  0.00     0.017 A 
ATOM      5  C4  UNL d   1       0.174   3.413  -1.285  0.00  0.00     0.017 A 
ATOM      6  C5  UNL d   1       0.392   4.104  -2.480  0.00  0.00     0.034 A 
ATOM      7 Cl   UNL d   1       0.932   4.018   0.146  0.00  0.00    -0.070 Cl
ATOM      8 Cl1  UNL d   1      -0.956   1.366   0.157  0.00  0.00    -0.070 Cl
ENDROOT
TORSDOF 0
ENDMDL
