MODEL 1
REMARK minimizedAffinity -2.24134946
REMARK minimizedRMSD -1
REMARK  0 active torsions:
REMARK  status: ('A' for Active; 'I' for Inactive)
ROOT
ATOM      1  C   UNL d   1       0.565  -2.475   1.178  0.00  0.00     0.020 A 
ATOM      2  C1  UNL d   1       1.954  -2.354   1.194  0.00  0.00     0.020 A 
ATOM      3  C2  UNL d   1       2.562  -1.213   0.666  0.00  0.00     0.034 A 
ATOM      4  C3  UNL d   1       1.780  -0.188   0.119  0.00  0.00     0.017 A 
ATOM      5  C4  UNL d   1       0.386  -0.311   0.103  0.00  0.00     0.017 A 
ATOM      6  C5  UNL d   1      -0.217  -1.455   0.634  0.00  0.00     0.034 A 
ATOM      7 Cl   UNL d   1      -0.644   0.912  -0.554  0.00  0.00    -0.070 Cl
ATOM      8 Cl1  UNL d   1       2.599   1.194  -0.516  0.00  0.00    -0.070 Cl
ENDROOT
TORSDOF 0
ENDMDL
