MODEL 1
REMARK minimizedAffinity -2.64332104
REMARK minimizedRMSD -1
REMARK  0 active torsions:
REMARK  status: ('A' for Active; 'I' for Inactive)
ROOT
ATOM      1  C   UNL d   1       2.993   0.119  -0.451  0.00  0.00     0.020 A 
ATOM      2  C1  UNL d   1       1.996   1.093  -0.453  0.00  0.00     0.020 A 
ATOM      3  C2  UNL d   1       0.779   0.848   0.187  0.00  0.00     0.034 A 
ATOM      4  C3  UNL d   1       0.555  -0.374   0.830  0.00  0.00     0.017 A 
ATOM      5  C4  UNL d   1       1.557  -1.352   0.831  0.00  0.00     0.017 A 
ATOM      6  C5  UNL d   1       2.774  -1.101   0.190  0.00  0.00     0.034 A 
ATOM      7 Cl   UNL d   1       1.355  -2.885   1.604  0.00  0.00    -0.070 Cl
ATOM      8 Cl1  UNL d   1      -0.973  -0.609   1.601  0.00  0.00    -0.070 Cl
ENDROOT
TORSDOF 0
ENDMDL
