MODEL 1
REMARK minimizedAffinity 3.94900727
REMARK minimizedRMSD -1
REMARK  0 active torsions:
REMARK  status: ('A' for Active; 'I' for Inactive)
ROOT
ATOM      1  C   UNL d   1      -1.451   1.128   0.805  0.00  0.00     0.020 A 
ATOM      2  C1  UNL d   1      -0.357   0.765   0.019  0.00  0.00     0.020 A 
ATOM      3  C2  UNL d   1       0.194  -0.512   0.137  0.00  0.00     0.034 A 
ATOM      4  C3  UNL d   1      -0.348  -1.433   1.041  0.00  0.00     0.017 A 
ATOM      5  C4  UNL d   1      -1.446  -1.068   1.829  0.00  0.00     0.017 A 
ATOM      6  C5  UNL d   1      -1.994   0.213   1.707  0.00  0.00     0.034 A 
ATOM      7 Cl   UNL d   1      -2.170  -2.149   2.967  0.00  0.00    -0.070 Cl
ATOM      8 Cl1  UNL d   1       0.383  -2.995   1.134  0.00  0.00    -0.070 Cl
ENDROOT
TORSDOF 0
ENDMDL
