MODEL 1
REMARK minimizedAffinity -4.81214762
REMARK minimizedRMSD -1
REMARK  0 active torsions:
REMARK  status: ('A' for Active; 'I' for Inactive)
ROOT
ATOM      1  C   UNL d   1       2.014  -2.224   0.434  0.00  0.00     0.020 A 
ATOM      2  C1  UNL d   1       0.666  -2.541   0.273  0.00  0.00     0.020 A 
ATOM      3  C2  UNL d   1      -0.281  -1.521   0.152  0.00  0.00     0.034 A 
ATOM      4  C3  UNL d   1       0.119  -0.181   0.193  0.00  0.00     0.017 A 
ATOM      5  C4  UNL d   1       1.473   0.136   0.355  0.00  0.00     0.017 A 
ATOM      6  C5  UNL d   1       2.417  -0.889   0.475  0.00  0.00     0.034 A 
ATOM      7 Cl   UNL d   1       2.043   1.767   0.415  0.00  0.00    -0.070 Cl
ATOM      8 Cl1  UNL d   1      -1.105   1.028   0.038  0.00  0.00    -0.070 Cl
ENDROOT
TORSDOF 0
ENDMDL
