MODEL 1
REMARK minimizedAffinity -3.80418754
REMARK minimizedRMSD -1
REMARK  0 active torsions:
REMARK  status: ('A' for Active; 'I' for Inactive)
ROOT
ATOM      1  C   UNL d   1       0.541  -2.456   1.353  0.00  0.00     0.020 A 
ATOM      2  C1  UNL d   1      -0.676  -1.780   1.422  0.00  0.00     0.020 A 
ATOM      3  C2  UNL d   1      -0.781  -0.478   0.928  0.00  0.00     0.034 A 
ATOM      4  C3  UNL d   1       0.334   0.152   0.364  0.00  0.00     0.017 A 
ATOM      5  C4  UNL d   1       1.556  -0.527   0.296  0.00  0.00     0.017 A 
ATOM      6  C5  UNL d   1       1.655  -1.831   0.791  0.00  0.00     0.034 A 
ATOM      7 Cl   UNL d   1       2.976   0.185  -0.386  0.00  0.00    -0.070 Cl
ATOM      8 Cl1  UNL d   1       0.133   1.764  -0.226  0.00  0.00    -0.070 Cl
ENDROOT
TORSDOF 0
ENDMDL
