MODEL 1
REMARK minimizedAffinity -1.83543801
REMARK minimizedRMSD -1
REMARK  0 active torsions:
REMARK  status: ('A' for Active; 'I' for Inactive)
ROOT
ATOM      1  C   UNL d   1       1.126  -0.181  -0.085  0.00  0.00     0.020 A 
ATOM      2  C1  UNL d   1      -0.231   0.109   0.053  0.00  0.00     0.020 A 
ATOM      3  C2  UNL d   1      -0.653   1.435   0.169  0.00  0.00     0.034 A 
ATOM      4  C3  UNL d   1       0.282   2.476   0.148  0.00  0.00     0.017 A 
ATOM      5  C4  UNL d   1       1.644   2.184   0.010  0.00  0.00     0.017 A 
ATOM      6  C5  UNL d   1       2.061   0.855  -0.106  0.00  0.00     0.034 A 
ATOM      7 Cl   UNL d   1       2.857   3.415  -0.024  0.00  0.00    -0.070 Cl
ATOM      8 Cl1  UNL d   1      -0.311   4.092   0.296  0.00  0.00    -0.070 Cl
ENDROOT
TORSDOF 0
ENDMDL
