MODEL 1
REMARK minimizedAffinity -4.20934105
REMARK minimizedRMSD -1
REMARK  0 active torsions:
REMARK  status: ('A' for Active; 'I' for Inactive)
ROOT
ATOM      1  C   UNL d   1      -1.494   2.864  -3.378  0.00  0.00     0.020 A 
ATOM      2  C1  UNL d   1      -2.327   1.796  -3.047  0.00  0.00     0.020 A 
ATOM      3  C2  UNL d   1      -2.174   1.146  -1.820  0.00  0.00     0.034 A 
ATOM      4  C3  UNL d   1      -1.187   1.563  -0.921  0.00  0.00     0.017 A 
ATOM      5  C4  UNL d   1      -0.351   2.635  -1.254  0.00  0.00     0.017 A 
ATOM      6  C5  UNL d   1      -0.508   3.283  -2.484  0.00  0.00     0.034 A 
ATOM      7 Cl   UNL d   1       0.890   3.207  -0.196  0.00  0.00    -0.070 Cl
ATOM      8 Cl1  UNL d   1      -1.055   0.714   0.578  0.00  0.00    -0.070 Cl
ENDROOT
TORSDOF 0
ENDMDL
