MODEL 1
REMARK minimizedAffinity -2.00852346
REMARK minimizedRMSD -1
REMARK  0 active torsions:
REMARK  status: ('A' for Active; 'I' for Inactive)
ROOT
ATOM      1  C   UNL d   1      -2.523   1.728  -2.724  0.00  0.00     0.020 A 
ATOM      2  C1  UNL d   1      -1.857   2.943  -2.879  0.00  0.00     0.020 A 
ATOM      3  C2  UNL d   1      -0.840   3.301  -1.991  0.00  0.00     0.034 A 
ATOM      4  C3  UNL d   1      -0.486   2.443  -0.944  0.00  0.00     0.017 A 
ATOM      5  C4  UNL d   1      -1.154   1.223  -0.789  0.00  0.00     0.017 A 
ATOM      6  C5  UNL d   1      -2.172   0.870  -1.681  0.00  0.00     0.034 A 
ATOM      7 Cl   UNL d   1      -0.773   0.112   0.479  0.00  0.00    -0.070 Cl
ATOM      8 Cl1  UNL d   1       0.781   2.949   0.116  0.00  0.00    -0.070 Cl
ENDROOT
TORSDOF 0
ENDMDL
