MODEL 1
REMARK minimizedAffinity 2.75958753
REMARK minimizedRMSD -1
REMARK  0 active torsions:
REMARK  status: ('A' for Active; 'I' for Inactive)
ROOT
ATOM      1  C   UNL d   1      -2.947   0.194  -3.400  0.00  0.00     0.020 A 
ATOM      2  C1  UNL d   1      -2.852   1.363  -4.153  0.00  0.00     0.020 A 
ATOM      3  C2  UNL d   1      -2.076   2.429  -3.692  0.00  0.00     0.034 A 
ATOM      4  C3  UNL d   1      -1.393   2.328  -2.475  0.00  0.00     0.017 A 
ATOM      5  C4  UNL d   1      -1.489   1.153  -1.719  0.00  0.00     0.017 A 
ATOM      6  C5  UNL d   1      -2.267   0.089  -2.186  0.00  0.00     0.034 A 
ATOM      7 Cl   UNL d   1      -0.675   0.954  -0.208  0.00  0.00    -0.070 Cl
ATOM      8 Cl1  UNL d   1      -0.452   3.685  -1.966  0.00  0.00    -0.070 Cl
ENDROOT
TORSDOF 0
ENDMDL
