MODEL 1
REMARK minimizedAffinity -2.78833508
REMARK minimizedRMSD -1
REMARK  0 active torsions:
REMARK  status: ('A' for Active; 'I' for Inactive)
ROOT
ATOM      1  C   UNL d   1       1.027   3.494  -0.225  0.00  0.00     0.020 A 
ATOM      2  C1  UNL d   1       0.285   4.198  -1.172  0.00  0.00     0.020 A 
ATOM      3  C2  UNL d   1      -0.791   3.582  -1.815  0.00  0.00     0.034 A 
ATOM      4  C3  UNL d   1      -1.127   2.258  -1.511  0.00  0.00     0.017 A 
ATOM      5  C4  UNL d   1      -0.382   1.552  -0.560  0.00  0.00     0.017 A 
ATOM      6  C5  UNL d   1       0.695   2.174   0.081  0.00  0.00     0.034 A 
ATOM      7 Cl   UNL d   1      -0.736  -0.084  -0.132  0.00  0.00    -0.070 Cl
ATOM      8 Cl1  UNL d   1      -2.470   1.558  -2.344  0.00  0.00    -0.070 Cl
ENDROOT
TORSDOF 0
ENDMDL
