MODEL 1
REMARK minimizedAffinity -3.46765137
REMARK minimizedRMSD -1
REMARK  0 active torsions:
REMARK  status: ('A' for Active; 'I' for Inactive)
ROOT
ATOM      1  C   UNL d   1       0.731  -2.043   1.065  0.00  0.00     0.020 A 
ATOM      2  C1  UNL d   1      -0.205  -1.179   1.631  0.00  0.00     0.020 A 
ATOM      3  C2  UNL d   1      -0.903  -0.279   0.823  0.00  0.00     0.034 A 
ATOM      4  C3  UNL d   1      -0.666  -0.241  -0.556  0.00  0.00     0.017 A 
ATOM      5  C4  UNL d   1       0.274  -1.110  -1.123  0.00  0.00     0.017 A 
ATOM      6  C5  UNL d   1       0.970  -2.009  -0.309  0.00  0.00     0.034 A 
ATOM      7 Cl   UNL d   1       0.621  -1.122  -2.817  0.00  0.00    -0.070 Cl
ATOM      8 Cl1  UNL d   1      -1.564   0.897  -1.496  0.00  0.00    -0.070 Cl
ENDROOT
TORSDOF 0
ENDMDL
