MODEL 1
REMARK minimizedAffinity -1.44798422
REMARK minimizedRMSD -1
REMARK  0 active torsions:
REMARK  status: ('A' for Active; 'I' for Inactive)
ROOT
ATOM      1  C   UNL d   1       0.717   0.590  -0.240  0.00  0.00     0.020 A 
ATOM      2  C1  UNL d   1      -0.278  -0.387  -0.225  0.00  0.00     0.020 A 
ATOM      3  C2  UNL d   1      -0.045  -1.612   0.403  0.00  0.00     0.034 A 
ATOM      4  C3  UNL d   1       1.186  -1.864   1.020  0.00  0.00     0.017 A 
ATOM      5  C4  UNL d   1       2.184  -0.883   1.005  0.00  0.00     0.017 A 
ATOM      6  C5  UNL d   1       1.946   0.342   0.375  0.00  0.00     0.034 A 
ATOM      7 Cl   UNL d   1       3.728  -1.121   1.745  0.00  0.00    -0.070 Cl
ATOM      8 Cl1  UNL d   1       1.405  -3.401   1.779  0.00  0.00    -0.070 Cl
ENDROOT
TORSDOF 0
ENDMDL
