MODEL 1
REMARK minimizedAffinity -1.19498396
REMARK minimizedRMSD -1
REMARK  0 active torsions:
REMARK  status: ('A' for Active; 'I' for Inactive)
ROOT
ATOM      1  C   UNL d   1      -2.073   1.143  -3.411  0.00  0.00     0.020 A 
ATOM      2  C1  UNL d   1      -3.221   1.328  -2.642  0.00  0.00     0.020 A 
ATOM      3  C2  UNL d   1      -3.171   1.146  -1.258  0.00  0.00     0.034 A 
ATOM      4  C3  UNL d   1      -1.971   0.777  -0.640  0.00  0.00     0.017 A 
ATOM      5  C4  UNL d   1      -0.819   0.592  -1.413  0.00  0.00     0.017 A 
ATOM      6  C5  UNL d   1      -0.874   0.776  -2.798  0.00  0.00     0.034 A 
ATOM      7 Cl   UNL d   1       0.698   0.137  -0.721  0.00  0.00    -0.070 Cl
ATOM      8 Cl1  UNL d   1      -1.982   0.569   1.076  0.00  0.00    -0.070 Cl
ENDROOT
TORSDOF 0
ENDMDL
