MODEL 1
REMARK minimizedAffinity -3.44612145
REMARK minimizedRMSD -1
REMARK  0 active torsions:
REMARK  status: ('A' for Active; 'I' for Inactive)
ROOT
ATOM      1  C   UNL d   1       3.376   2.901  -0.345  0.00  0.00     0.020 A 
ATOM      2  C1  UNL d   1       3.033   1.579  -0.625  0.00  0.00     0.020 A 
ATOM      3  C2  UNL d   1       1.700   1.171  -0.539  0.00  0.00     0.034 A 
ATOM      4  C3  UNL d   1       0.706   2.086  -0.174  0.00  0.00     0.017 A 
ATOM      5  C4  UNL d   1       1.052   3.413   0.107  0.00  0.00     0.017 A 
ATOM      6  C5  UNL d   1       2.388   3.816   0.020  0.00  0.00     0.034 A 
ATOM      7 Cl   UNL d   1      -0.119   4.599   0.564  0.00  0.00    -0.070 Cl
ATOM      8 Cl1  UNL d   1      -0.922   1.513  -0.089  0.00  0.00    -0.070 Cl
ENDROOT
TORSDOF 0
ENDMDL
