MODEL 1
REMARK minimizedAffinity -3.54983377
REMARK minimizedRMSD -1
REMARK  0 active torsions:
REMARK  status: ('A' for Active; 'I' for Inactive)
ROOT
ATOM      1  C1  BNZ d   1      -0.074   0.904  -0.674  0.00  0.00     0.000 A 
ATOM      2  C2  BNZ d   1      -0.744   1.782   0.136  0.00  0.00     0.000 A 
ATOM      3  C3  BNZ d   1      -0.580   1.747   1.493  0.00  0.00     0.000 A 
ATOM      4  C4  BNZ d   1       0.220   0.809   2.040  0.00  0.00     0.000 A 
ATOM      5  C5  BNZ d   1       0.895  -0.089   1.237  0.00  0.00     0.000 A 
ATOM      6  C6  BNZ d   1       0.758  -0.025  -0.130  0.00  0.00     0.000 A 
ENDROOT
TORSDOF 0
ENDMDL
