MODEL 1
REMARK minimizedAffinity -3.36764359
REMARK minimizedRMSD -1
REMARK  0 active torsions:
REMARK  status: ('A' for Active; 'I' for Inactive)
ROOT
ATOM      1  C1  BNZ d   1       0.849  -0.652  -0.636  0.00  0.00     0.000 A 
ATOM      2  C2  BNZ d   1       0.258  -0.134   0.486  0.00  0.00     0.000 A 
ATOM      3  C3  BNZ d   1      -0.532   0.979   0.411  0.00  0.00     0.000 A 
ATOM      4  C4  BNZ d   1      -0.698   1.595  -0.777  0.00  0.00     0.000 A 
ATOM      5  C5  BNZ d   1      -0.102   1.090  -1.916  0.00  0.00     0.000 A 
ATOM      6  C6  BNZ d   1       0.661  -0.053  -1.843  0.00  0.00     0.000 A 
ENDROOT
TORSDOF 0
ENDMDL
