MODEL 1
REMARK minimizedAffinity -3.97352958
REMARK minimizedRMSD -1
REMARK  0 active torsions:
REMARK  status: ('A' for Active; 'I' for Inactive)
ROOT
ATOM      1  C1  BNZ d   1      -0.773   1.805   1.839  0.00  0.00     0.000 A 
ATOM      2  C2  BNZ d   1      -0.569   1.633   0.495  0.00  0.00     0.000 A 
ATOM      3  C3  BNZ d   1      -0.195   0.418  -0.007  0.00  0.00     0.000 A 
ATOM      4  C4  BNZ d   1       0.014  -0.612   0.838  0.00  0.00     0.000 A 
ATOM      5  C5  BNZ d   1      -0.178  -0.453   2.196  0.00  0.00     0.000 A 
ATOM      6  C6  BNZ d   1      -0.593   0.761   2.693  0.00  0.00     0.000 A 
ENDROOT
TORSDOF 0
ENDMDL
