MODEL 1
REMARK minimizedAffinity -4.77425146
REMARK minimizedRMSD -1
REMARK  0 active torsions:
REMARK  status: ('A' for Active; 'I' for Inactive)
ROOT
ATOM      1  C1  BNZ d   1       0.912   0.191   1.926  0.00  0.00     0.000 A 
ATOM      2  C2  BNZ d   1      -0.034   1.149   2.179  0.00  0.00     0.000 A 
ATOM      3  C3  BNZ d   1      -0.878   1.576   1.192  0.00  0.00     0.000 A 
ATOM      4  C4  BNZ d   1      -0.750   1.074  -0.053  0.00  0.00     0.000 A 
ATOM      5  C5  BNZ d   1       0.205   0.115  -0.326  0.00  0.00     0.000 A 
ATOM      6  C6  BNZ d   1       1.027  -0.341   0.679  0.00  0.00     0.000 A 
ENDROOT
TORSDOF 0
ENDMDL
