MODEL 1
REMARK minimizedAffinity -4.9065423
REMARK minimizedRMSD -1
REMARK  0 active torsions:
REMARK  status: ('A' for Active; 'I' for Inactive)
ROOT
ATOM      1  C1  BNZ d   1       0.211   0.999   1.288  0.00  0.00     0.000 A 
ATOM      2  C2  BNZ d   1      -0.866   1.664   1.809  0.00  0.00     0.000 A 
ATOM      3  C3  BNZ d   1      -1.957   1.946   1.035  0.00  0.00     0.000 A 
ATOM      4  C4  BNZ d   1      -1.952   1.598  -0.268  0.00  0.00     0.000 A 
ATOM      5  C5  BNZ d   1      -0.870   0.936  -0.811  0.00  0.00     0.000 A 
ATOM      6  C6  BNZ d   1       0.210   0.619  -0.019  0.00  0.00     0.000 A 
ENDROOT
TORSDOF 0
ENDMDL
