MODEL 1
REMARK minimizedAffinity -1.37339568
REMARK minimizedRMSD -1
REMARK  0 active torsions:
REMARK  status: ('A' for Active; 'I' for Inactive)
ROOT
ATOM      1  C1  BNZ d   1       0.725  -0.821   0.310  0.00  0.00     0.000 A 
ATOM      2  C2  BNZ d   1       0.541  -0.781  -1.046  0.00  0.00     0.000 A 
ATOM      3  C3  BNZ d   1       0.136   0.369  -1.664  0.00  0.00     0.000 A 
ATOM      4  C4  BNZ d   1      -0.122   1.465  -0.922  0.00  0.00     0.000 A 
ATOM      5  C5  BNZ d   1       0.050   1.438   0.448  0.00  0.00     0.000 A 
ATOM      6  C6  BNZ d   1       0.495   0.290   1.062  0.00  0.00     0.000 A 
ENDROOT
TORSDOF 0
ENDMDL
