MODEL 1
REMARK minimizedAffinity -2.6020112
REMARK minimizedRMSD -1
REMARK  0 active torsions:
REMARK  status: ('A' for Active; 'I' for Inactive)
ROOT
ATOM      1  C1  BNZ d   1      -0.438   1.486  -1.402  0.00  0.00     0.000 A 
ATOM      2  C2  BNZ d   1       0.300   0.430  -1.866  0.00  0.00     0.000 A 
ATOM      3  C3  BNZ d   1       0.673  -0.585  -1.030  0.00  0.00     0.000 A 
ATOM      4  C4  BNZ d   1       0.341  -0.524   0.276  0.00  0.00     0.000 A 
ATOM      5  C5  BNZ d   1      -0.395   0.539   0.761  0.00  0.00     0.000 A 
ATOM      6  C6  BNZ d   1      -0.801   1.539  -0.092  0.00  0.00     0.000 A 
ENDROOT
TORSDOF 0
ENDMDL
