MODEL 1
REMARK minimizedAffinity -1.25871372
REMARK minimizedRMSD -1
REMARK  0 active torsions:
REMARK  status: ('A' for Active; 'I' for Inactive)
ROOT
ATOM      1  C1  BNZ d   1      -0.284   1.075   0.641  0.00  0.00     0.000 A 
ATOM      2  C2  BNZ d   1      -0.191   0.810  -0.700  0.00  0.00     0.000 A 
ATOM      3  C3  BNZ d   1       0.474  -0.296  -1.150  0.00  0.00     0.000 A 
ATOM      4  C4  BNZ d   1       1.078  -1.112  -0.264  0.00  0.00     0.000 A 
ATOM      5  C5  BNZ d   1       1.002  -0.854   1.090  0.00  0.00     0.000 A 
ATOM      6  C6  BNZ d   1       0.299   0.239   1.542  0.00  0.00     0.000 A 
ENDROOT
TORSDOF 0
ENDMDL
