MODEL 1
REMARK minimizedAffinity -5.44188118
REMARK minimizedRMSD -1
REMARK  0 active torsions:
REMARK  status: ('A' for Active; 'I' for Inactive)
ROOT
ATOM      1  C   UNL d   1      -0.306   1.705   3.910  0.00  0.00     0.077 C 
ATOM      2  C1  UNL d   1      -0.073   0.976   2.619  0.00  0.00    -0.074 A 
ATOM      3  C2  UNL d   1       1.206   0.540   2.260  0.00  0.00    -0.005 A 
ATOM      4  C3  UNL d   1       1.405  -0.144   1.062  0.00  0.00     0.006 A 
ATOM      5  C4  UNL d   1       0.329  -0.399   0.211  0.00  0.00    -0.005 A 
ATOM      6  C5  UNL d   1      -0.958   0.029   0.553  0.00  0.00    -0.074 A 
ATOM      7  C6  UNL d   1      -2.127  -0.245  -0.345  0.00  0.00     0.077 C 
ATOM      8  C7  UNL d   1      -1.151   0.710   1.763  0.00  0.00    -0.001 A 
ENDROOT
TORSDOF 0
ENDMDL
