MODEL 1
REMARK minimizedAffinity -3.20951891
REMARK minimizedRMSD -1
REMARK  0 active torsions:
REMARK  status: ('A' for Active; 'I' for Inactive)
ROOT
ATOM      1  C   UNL d   1       0.205  -0.718  -2.409  0.00  0.00     0.077 C 
ATOM      2  C1  UNL d   1       0.633  -0.414  -1.004  0.00  0.00    -0.074 A 
ATOM      3  C2  UNL d   1       1.796  -0.978  -0.469  0.00  0.00    -0.005 A 
ATOM      4  C3  UNL d   1       2.186  -0.679   0.836  0.00  0.00     0.006 A 
ATOM      5  C4  UNL d   1       1.418   0.185   1.619  0.00  0.00    -0.005 A 
ATOM      6  C5  UNL d   1       0.253   0.758   1.101  0.00  0.00    -0.074 A 
ATOM      7  C6  UNL d   1      -0.578   1.696   1.925  0.00  0.00     0.077 C 
ATOM      8  C7  UNL d   1      -0.129   0.459  -0.214  0.00  0.00    -0.001 A 
ENDROOT
TORSDOF 0
ENDMDL
