MODEL 1
REMARK minimizedAffinity -3.14554954
REMARK minimizedRMSD -1
REMARK  0 active torsions:
REMARK  status: ('A' for Active; 'I' for Inactive)
ROOT
ATOM      1  C   UNL d   1      -2.491   0.632   2.388  0.00  0.00     0.077 C 
ATOM      2  C1  UNL d   1      -1.232   0.485   1.586  0.00  0.00    -0.074 A 
ATOM      3  C2  UNL d   1       0.006   0.866   2.113  0.00  0.00    -0.005 A 
ATOM      4  C3  UNL d   1       1.169   0.714   1.359  0.00  0.00     0.006 A 
ATOM      5  C4  UNL d   1       1.106   0.180   0.071  0.00  0.00    -0.005 A 
ATOM      6  C5  UNL d   1      -0.122  -0.208  -0.473  0.00  0.00    -0.074 A 
ATOM      7  C6  UNL d   1      -0.206  -0.793  -1.851  0.00  0.00     0.077 C 
ATOM      8  C7  UNL d   1      -1.286  -0.059   0.294  0.00  0.00    -0.001 A 
ENDROOT
TORSDOF 0
ENDMDL
