MODEL 1
REMARK minimizedAffinity -2.65856814
REMARK minimizedRMSD -1
REMARK  0 active torsions:
REMARK  status: ('A' for Active; 'I' for Inactive)
ROOT
ATOM      1  C   UNL d   1      -1.208   0.761   1.787  0.00  0.00     0.077 C 
ATOM      2  C1  UNL d   1      -0.190   0.235   0.819  0.00  0.00    -0.074 A 
ATOM      3  C2  UNL d   1       1.079  -0.161   1.255  0.00  0.00    -0.005 A 
ATOM      4  C3  UNL d   1       2.012  -0.657   0.344  0.00  0.00     0.006 A 
ATOM      5  C4  UNL d   1       1.686  -0.761  -1.009  0.00  0.00    -0.005 A 
ATOM      6  C5  UNL d   1       0.423  -0.370  -1.463  0.00  0.00    -0.074 A 
ATOM      7  C6  UNL d   1       0.053  -0.484  -2.912  0.00  0.00     0.077 C 
ATOM      8  C7  UNL d   1      -0.512   0.120  -0.540  0.00  0.00    -0.001 A 
ENDROOT
TORSDOF 0
ENDMDL
