MODEL 1
REMARK minimizedAffinity -2.03891277
REMARK minimizedRMSD -1
REMARK  0 active torsions:
REMARK  status: ('A' for Active; 'I' for Inactive)
ROOT
ATOM      1  C   UNL d   1       1.017   2.215   1.711  0.00  0.00     0.077 C 
ATOM      2  C1  UNL d   1      -0.074   1.274   1.293  0.00  0.00    -0.074 A 
ATOM      3  C2  UNL d   1      -1.164   1.018   2.131  0.00  0.00    -0.005 A 
ATOM      4  C3  UNL d   1      -2.175   0.148   1.724  0.00  0.00     0.006 A 
ATOM      5  C4  UNL d   1      -2.106  -0.475   0.477  0.00  0.00    -0.005 A 
ATOM      6  C5  UNL d   1      -1.025  -0.231  -0.375  0.00  0.00    -0.074 A 
ATOM      7  C6  UNL d   1      -0.940  -0.885  -1.722  0.00  0.00     0.077 C 
ATOM      8  C7  UNL d   1      -0.016   0.650   0.038  0.00  0.00    -0.001 A 
ENDROOT
TORSDOF 0
ENDMDL
