MODEL 1
REMARK minimizedAffinity -2.53016686
REMARK minimizedRMSD -1
REMARK  0 active torsions:
REMARK  status: ('A' for Active; 'I' for Inactive)
ROOT
ATOM      1  C   UNL d   1      -2.400  -0.274   0.087  0.00  0.00     0.077 C 
ATOM      2  C1  UNL d   1      -1.399   0.158   1.118  0.00  0.00    -0.074 A 
ATOM      3  C2  UNL d   1      -1.787   0.931   2.217  0.00  0.00    -0.005 A 
ATOM      4  C3  UNL d   1      -0.847   1.317   3.172  0.00  0.00     0.006 A 
ATOM      5  C4  UNL d   1       0.488   0.934   3.039  0.00  0.00    -0.005 A 
ATOM      6  C5  UNL d   1       0.894   0.160   1.948  0.00  0.00    -0.074 A 
ATOM      7  C6  UNL d   1       2.324  -0.268   1.795  0.00  0.00     0.077 C 
ATOM      8  C7  UNL d   1      -0.057  -0.230   0.995  0.00  0.00    -0.001 A 
ENDROOT
TORSDOF 0
ENDMDL
