MODEL 1
REMARK minimizedAffinity -5.88241386
REMARK minimizedRMSD -1
REMARK  0 active torsions:
REMARK  status: ('A' for Active; 'I' for Inactive)
ROOT
ATOM      1  C   UNL d   1      -1.941   0.401  -0.065  0.00  0.00     0.077 C 
ATOM      2  C1  UNL d   1      -0.883   0.365   0.998  0.00  0.00    -0.074 A 
ATOM      3  C2  UNL d   1      -1.062   1.034   2.213  0.00  0.00    -0.005 A 
ATOM      4  C3  UNL d   1      -0.073   0.984   3.195  0.00  0.00     0.006 A 
ATOM      5  C4  UNL d   1       1.103   0.265   2.973  0.00  0.00    -0.005 A 
ATOM      6  C5  UNL d   1       1.299  -0.410   1.764  0.00  0.00    -0.074 A 
ATOM      7  C6  UNL d   1       2.552  -1.195   1.513  0.00  0.00     0.077 C 
ATOM      8  C7  UNL d   1       0.297  -0.361   0.785  0.00  0.00    -0.001 A 
ENDROOT
TORSDOF 0
ENDMDL
