MODEL 1
REMARK minimizedAffinity 7.83757067
REMARK minimizedRMSD -1
REMARK  0 active torsions:
REMARK  status: ('A' for Active; 'I' for Inactive)
ROOT
ATOM      1  C   UNL d   1       1.646   1.190  -4.122  0.00  0.00     0.077 C 
ATOM      2  C1  UNL d   1       2.394   0.258  -3.215  0.00  0.00    -0.074 A 
ATOM      3  C2  UNL d   1       3.691  -0.162  -3.529  0.00  0.00    -0.005 A 
ATOM      4  C3  UNL d   1       4.378  -1.021  -2.671  0.00  0.00     0.006 A 
ATOM      5  C4  UNL d   1       3.777  -1.467  -1.494  0.00  0.00    -0.005 A 
ATOM      6  C5  UNL d   1       2.482  -1.057  -1.164  0.00  0.00    -0.074 A 
ATOM      7  C6  UNL d   1       1.825  -1.520   0.103  0.00  0.00     0.077 C 
ATOM      8  C7  UNL d   1       1.800  -0.188  -2.027  0.00  0.00    -0.001 A 
ENDROOT
TORSDOF 0
ENDMDL
