MODEL 1
REMARK minimizedAffinity 3.94769979
REMARK minimizedRMSD -1
REMARK  0 active torsions:
REMARK  status: ('A' for Active; 'I' for Inactive)
ROOT
ATOM      1  C   UNL d   1      -2.668  -1.122  -0.098  0.00  0.00     0.077 C 
ATOM      2  C1  UNL d   1      -2.414  -0.724   1.326  0.00  0.00    -0.074 A 
ATOM      3  C2  UNL d   1      -2.934  -1.474   2.386  0.00  0.00    -0.005 A 
ATOM      4  C3  UNL d   1      -2.680  -1.097   3.705  0.00  0.00     0.006 A 
ATOM      5  C4  UNL d   1      -1.907   0.032   3.976  0.00  0.00    -0.005 A 
ATOM      6  C5  UNL d   1      -1.378   0.794   2.929  0.00  0.00    -0.074 A 
ATOM      7  C6  UNL d   1      -0.536   2.004   3.204  0.00  0.00     0.077 C 
ATOM      8  C7  UNL d   1      -1.631   0.405   1.607  0.00  0.00    -0.001 A 
ENDROOT
TORSDOF 0
ENDMDL
