MODEL 1
REMARK minimizedAffinity 3.58660078
REMARK minimizedRMSD -1
REMARK  0 active torsions:
REMARK  status: ('A' for Active; 'I' for Inactive)
ROOT
ATOM      1  C   UNL d   1      -3.853   0.776  -0.212  0.00  0.00     0.077 C 
ATOM      2  C1  UNL d   1      -3.086   0.410   1.024  0.00  0.00    -0.074 A 
ATOM      3  C2  UNL d   1      -3.207  -0.861   1.594  0.00  0.00    -0.005 A 
ATOM      4  C3  UNL d   1      -2.480  -1.191   2.738  0.00  0.00     0.006 A 
ATOM      5  C4  UNL d   1      -1.627  -0.254   3.322  0.00  0.00    -0.005 A 
ATOM      6  C5  UNL d   1      -1.492   1.021   2.765  0.00  0.00    -0.074 A 
ATOM      7  C6  UNL d   1      -0.572   2.037   3.375  0.00  0.00     0.077 C 
ATOM      8  C7  UNL d   1      -2.221   1.343   1.612  0.00  0.00    -0.001 A 
ENDROOT
TORSDOF 0
ENDMDL
