MODEL 1
REMARK minimizedAffinity 4.21406841
REMARK minimizedRMSD -1
REMARK  0 active torsions:
REMARK  status: ('A' for Active; 'I' for Inactive)
ROOT
ATOM      1  C   UNL d   1       0.559  -0.371  -4.522  0.00  0.00     0.077 C 
ATOM      2  C1  UNL d   1       1.952  -0.231  -3.982  0.00  0.00    -0.074 A 
ATOM      3  C2  UNL d   1       2.280   0.804  -3.101  0.00  0.00    -0.005 A 
ATOM      4  C3  UNL d   1       3.577   0.916  -2.599  0.00  0.00     0.006 A 
ATOM      5  C4  UNL d   1       4.556  -0.004  -2.973  0.00  0.00    -0.005 A 
ATOM      6  C5  UNL d   1       4.246  -1.047  -3.852  0.00  0.00    -0.074 A 
ATOM      7  C6  UNL d   1       5.285  -2.051  -4.256  0.00  0.00     0.077 C 
ATOM      8  C7  UNL d   1       2.940  -1.157  -4.346  0.00  0.00    -0.001 A 
ENDROOT
TORSDOF 0
ENDMDL
