MODEL 1
REMARK minimizedAffinity 10.4190302
REMARK minimizedRMSD -1
REMARK  2 active torsions:
REMARK  status: ('A' for Active; 'I' for Inactive)
REMARK    1  A    between atoms: C1_2  and  C2_3 
REMARK    2  A    between atoms: C2_3  and  C3_4 
ROOT
ATOM      1  C3  UNL d   1       1.379   3.803   4.035  0.00  0.00    -0.075 A 
ATOM      2  C4  UNL d   1       2.257   3.923   5.123  0.00  0.00     0.002 A 
ATOM      3  C5  UNL d   1       2.154   5.003   6.000  0.00  0.00     0.002 A 
ATOM      4  C6  UNL d   1       1.182   5.980   5.796  0.00  0.00    -0.004 A 
ATOM      5  C7  UNL d   1       0.316   5.879   4.709  0.00  0.00     0.002 A 
ATOM      6  C8  UNL d   1       0.413   4.797   3.832  0.00  0.00     0.002 A 
ENDROOT
BRANCH   1   7
ATOM      7  C2  UNL d   1       1.466   2.621   3.099  0.00  0.00     0.056 C 
BRANCH   7   8
ATOM      8  C1  UNL d   1       0.848   1.335   3.659  0.00  0.00     0.007 C 
ATOM      9  C   UNL d   1       1.346   0.076   2.961  0.00  0.00     0.009 C 
ENDBRANCH   7   8
ENDBRANCH   1   7
TORSDOF 2
ENDMDL
