MODEL 1
REMARK minimizedAffinity 6.5419364
REMARK minimizedRMSD -1
REMARK  2 active torsions:
REMARK  status: ('A' for Active; 'I' for Inactive)
REMARK    1  A    between atoms: C1_2  and  C2_3 
REMARK    2  A    between atoms: C2_3  and  C3_4 
ROOT
ATOM      1  C3  UNL d   1       0.509   5.752   5.323  0.00  0.00    -0.075 A 
ATOM      2  C4  UNL d   1      -0.697   6.000   5.995  0.00  0.00     0.002 A 
ATOM      3  C5  UNL d   1      -1.920   5.743   5.374  0.00  0.00     0.002 A 
ATOM      4  C6  UNL d   1      -1.953   5.247   4.073  0.00  0.00    -0.004 A 
ATOM      5  C7  UNL d   1      -0.762   5.013   3.390  0.00  0.00     0.002 A 
ATOM      6  C8  UNL d   1       0.463   5.265   4.010  0.00  0.00     0.002 A 
ENDROOT
BRANCH   1   7
ATOM      7  C2  UNL d   1       1.836   6.000   6.000  0.00  0.00     0.056 C 
BRANCH   7   8
ATOM      8  C1  UNL d   1       3.018   5.290   5.332  0.00  0.00     0.007 C 
ATOM      9  C   UNL d   1       4.348   5.997   5.558  0.00  0.00     0.009 C 
ENDBRANCH   7   8
ENDBRANCH   1   7
TORSDOF 2
ENDMDL
