MODEL 1
REMARK minimizedAffinity 11.0977211
REMARK minimizedRMSD -1
REMARK  2 active torsions:
REMARK  status: ('A' for Active; 'I' for Inactive)
REMARK    1  A    between atoms: C1_2  and  C2_3 
REMARK    2  A    between atoms: C2_3  and  C3_4 
ROOT
ATOM      1  C3  UNL d   1       0.605  -1.613  -1.106  0.00  0.00    -0.075 A 
ATOM      2  C4  UNL d   1       1.257  -1.038  -0.006  0.00  0.00     0.002 A 
ATOM      3  C5  UNL d   1       2.251  -1.741   0.676  0.00  0.00     0.002 A 
ATOM      4  C6  UNL d   1       2.597  -3.029   0.275  0.00  0.00    -0.004 A 
ATOM      5  C7  UNL d   1       1.943  -3.617  -0.806  0.00  0.00     0.002 A 
ATOM      6  C8  UNL d   1       0.952  -2.914  -1.493  0.00  0.00     0.002 A 
ENDROOT
BRANCH   1   7
ATOM      7  C2  UNL d   1      -0.450  -0.846  -1.867  0.00  0.00     0.056 C 
BRANCH   7   8
ATOM      8  C1  UNL d   1       0.113   0.097  -2.935  0.00  0.00     0.007 C 
ATOM      9  C   UNL d   1      -0.596   1.444  -2.980  0.00  0.00     0.009 C 
ENDBRANCH   7   8
ENDBRANCH   1   7
TORSDOF 2
ENDMDL
