MODEL 1
REMARK minimizedAffinity 4.14188766
REMARK minimizedRMSD -1
REMARK  2 active torsions:
REMARK  status: ('A' for Active; 'I' for Inactive)
REMARK    1  A    between atoms: C1_2  and  C2_3 
REMARK    2  A    between atoms: C2_3  and  C3_4 
ROOT
ATOM      1  C3  UNL d   1       4.102  -4.254   0.744  0.00  0.00    -0.075 A 
ATOM      2  C4  UNL d   1       3.128  -5.262   0.793  0.00  0.00     0.002 A 
ATOM      3  C5  UNL d   1       1.771  -4.936   0.806  0.00  0.00     0.002 A 
ATOM      4  C6  UNL d   1       1.372  -3.602   0.779  0.00  0.00    -0.004 A 
ATOM      5  C7  UNL d   1       2.331  -2.592   0.747  0.00  0.00     0.002 A 
ATOM      6  C8  UNL d   1       3.689  -2.915   0.730  0.00  0.00     0.002 A 
ENDROOT
BRANCH   1   7
ATOM      7  C2  UNL d   1       5.571  -4.601   0.701  0.00  0.00     0.056 C 
BRANCH   7   8
ATOM      8  C1  UNL d   1       5.867  -5.990   0.125  0.00  0.00     0.007 C 
ATOM      9  C   UNL d   1       5.979  -5.999  -1.394  0.00  0.00     0.009 C 
ENDBRANCH   7   8
ENDBRANCH   1   7
TORSDOF 2
ENDMDL
