MODEL 1
REMARK minimizedAffinity 13.3344603
REMARK minimizedRMSD -1
REMARK  2 active torsions:
REMARK  status: ('A' for Active; 'I' for Inactive)
REMARK    1  A    between atoms: C1_2  and  C2_3 
REMARK    2  A    between atoms: C2_3  and  C3_4 
ROOT
ATOM      1  C3  UNL d   1       3.593  -1.778   0.055  0.00  0.00    -0.075 A 
ATOM      2  C4  UNL d   1       2.760  -0.958   0.829  0.00  0.00     0.002 A 
ATOM      3  C5  UNL d   1       1.416  -1.283   1.010  0.00  0.00     0.002 A 
ATOM      4  C6  UNL d   1       0.885  -2.424   0.412  0.00  0.00    -0.004 A 
ATOM      5  C7  UNL d   1       1.700  -3.238  -0.372  0.00  0.00     0.002 A 
ATOM      6  C8  UNL d   1       3.046  -2.917  -0.551  0.00  0.00     0.002 A 
ENDROOT
BRANCH   1   7
ATOM      7  C2  UNL d   1       5.056  -1.448  -0.121  0.00  0.00     0.056 C 
BRANCH   7   8
ATOM      8  C1  UNL d   1       5.341   0.046  -0.304  0.00  0.00     0.007 C 
ATOM      9  C   UNL d   1       5.832   0.397  -1.702  0.00  0.00     0.009 C 
ENDBRANCH   7   8
ENDBRANCH   1   7
TORSDOF 2
ENDMDL
