MODEL 1
REMARK minimizedAffinity 15.6987114
REMARK minimizedRMSD -1
REMARK  2 active torsions:
REMARK  status: ('A' for Active; 'I' for Inactive)
REMARK    1  A    between atoms: C1_2  and  C2_3 
REMARK    2  A    between atoms: C2_3  and  C3_4 
ROOT
ATOM      1  C3  UNL d   1      -4.351   0.655   1.169  0.00  0.00    -0.075 A 
ATOM      2  C4  UNL d   1      -4.428   1.329  -0.058  0.00  0.00     0.002 A 
ATOM      3  C5  UNL d   1      -4.052   0.692  -1.241  0.00  0.00     0.002 A 
ATOM      4  C6  UNL d   1      -3.585  -0.621  -1.211  0.00  0.00    -0.004 A 
ATOM      5  C7  UNL d   1      -3.488  -1.294   0.005  0.00  0.00     0.002 A 
ATOM      6  C8  UNL d   1      -3.868  -0.661   1.190  0.00  0.00     0.002 A 
ENDROOT
BRANCH   1   7
ATOM      7  C2  UNL d   1      -4.785   1.328   2.449  0.00  0.00     0.056 C 
BRANCH   7   8
ATOM      8  C1  UNL d   1      -3.665   1.481   3.484  0.00  0.00     0.007 C 
ATOM      9  C   UNL d   1      -4.154   2.018   4.823  0.00  0.00     0.009 C 
ENDBRANCH   7   8
ENDBRANCH   1   7
TORSDOF 2
ENDMDL
