MODEL 1
REMARK minimizedAffinity 5.95771313
REMARK minimizedRMSD -1
REMARK  2 active torsions:
REMARK  status: ('A' for Active; 'I' for Inactive)
REMARK    1  A    between atoms: C1_2  and  C2_3 
REMARK    2  A    between atoms: C2_3  and  C3_4 
ROOT
ATOM      1  C3  UNL d   1       4.261  -2.434   4.316  0.00  0.00    -0.075 A 
ATOM      2  C4  UNL d   1       4.281  -3.826   4.152  0.00  0.00     0.002 A 
ATOM      3  C5  UNL d   1       5.142  -4.617   4.913  0.00  0.00     0.002 A 
ATOM      4  C6  UNL d   1       6.000  -4.026   5.839  0.00  0.00    -0.004 A 
ATOM      5  C7  UNL d   1       6.000  -2.642   5.998  0.00  0.00     0.002 A 
ATOM      6  C8  UNL d   1       5.136  -1.849   5.241  0.00  0.00     0.002 A 
ENDROOT
BRANCH   1   7
ATOM      7  C2  UNL d   1       3.310  -1.575   3.517  0.00  0.00     0.056 C 
BRANCH   7   8
ATOM      8  C1  UNL d   1       2.775  -2.250   2.250  0.00  0.00     0.007 C 
ATOM      9  C   UNL d   1       1.511  -1.595   1.708  0.00  0.00     0.009 C 
ENDBRANCH   7   8
ENDBRANCH   1   7
TORSDOF 2
ENDMDL
