MODEL 1
REMARK minimizedAffinity -0.15508619
REMARK minimizedRMSD -1
REMARK  2 active torsions:
REMARK  status: ('A' for Active; 'I' for Inactive)
REMARK    1  A    between atoms: C1_2  and  C2_3 
REMARK    2  A    between atoms: C2_3  and  C3_4 
ROOT
ATOM      1  C3  UNL d   1       1.584  -1.522   2.173  0.00  0.00    -0.075 A 
ATOM      2  C4  UNL d   1       2.126  -2.762   2.541  0.00  0.00     0.002 A 
ATOM      3  C5  UNL d   1       2.887  -3.500   1.634  0.00  0.00     0.002 A 
ATOM      4  C6  UNL d   1       3.107  -3.014   0.347  0.00  0.00    -0.004 A 
ATOM      5  C7  UNL d   1       2.560  -1.791  -0.035  0.00  0.00     0.002 A 
ATOM      6  C8  UNL d   1       1.802  -1.048   0.872  0.00  0.00     0.002 A 
ENDROOT
BRANCH   1   7
ATOM      7  C2  UNL d   1       0.785  -0.704   3.159  0.00  0.00     0.056 C 
BRANCH   7   8
ATOM      8  C1  UNL d   1      -0.730  -0.761   2.933  0.00  0.00     0.007 C 
ATOM      9  C   UNL d   1      -1.293  -2.175   2.990  0.00  0.00     0.009 C 
ENDBRANCH   7   8
ENDBRANCH   1   7
TORSDOF 2
ENDMDL
