MODEL 1
REMARK minimizedAffinity 9.13025475
REMARK minimizedRMSD -1
REMARK  2 active torsions:
REMARK  status: ('A' for Active; 'I' for Inactive)
REMARK    1  A    between atoms: C1_2  and  C2_3 
REMARK    2  A    between atoms: C2_3  and  C3_4 
ROOT
ATOM      1  C3  UNL d   1       0.600  -1.756   0.958  0.00  0.00    -0.075 A 
ATOM      2  C4  UNL d   1      -0.705  -2.268   1.004  0.00  0.00     0.002 A 
ATOM      3  C5  UNL d   1      -1.603  -1.833   1.979  0.00  0.00     0.002 A 
ATOM      4  C6  UNL d   1      -1.206  -0.890   2.925  0.00  0.00    -0.004 A 
ATOM      5  C7  UNL d   1       0.093  -0.386   2.898  0.00  0.00     0.002 A 
ATOM      6  C8  UNL d   1       0.992  -0.817   1.921  0.00  0.00     0.002 A 
ENDROOT
BRANCH   1   7
ATOM      7  C2  UNL d   1       1.567  -2.201  -0.113  0.00  0.00     0.056 C 
BRANCH   7   8
ATOM      8  C1  UNL d   1       2.635  -3.183   0.380  0.00  0.00     0.007 C 
ATOM      9  C   UNL d   1       2.364  -4.622  -0.036  0.00  0.00     0.009 C 
ENDBRANCH   7   8
ENDBRANCH   1   7
TORSDOF 2
ENDMDL
