MODEL 1
REMARK minimizedAffinity 9.97692394
REMARK minimizedRMSD -1
REMARK  2 active torsions:
REMARK  status: ('A' for Active; 'I' for Inactive)
REMARK    1  A    between atoms: C1_2  and  C2_3 
REMARK    2  A    between atoms: C2_3  and  C3_4 
ROOT
ATOM      1  C3  UNL d   1       1.908  -2.010   1.112  0.00  0.00    -0.075 A 
ATOM      2  C4  UNL d   1       2.226  -1.179   2.196  0.00  0.00     0.002 A 
ATOM      3  C5  UNL d   1       1.215  -0.585   2.953  0.00  0.00     0.002 A 
ATOM      4  C6  UNL d   1      -0.122  -0.805   2.630  0.00  0.00    -0.004 A 
ATOM      5  C7  UNL d   1      -0.449  -1.615   1.545  0.00  0.00     0.002 A 
ATOM      6  C8  UNL d   1       0.560  -2.214   0.788  0.00  0.00     0.002 A 
ENDROOT
BRANCH   1   7
ATOM      7  C2  UNL d   1       2.997  -2.679   0.307  0.00  0.00     0.056 C 
BRANCH   7   8
ATOM      8  C1  UNL d   1       2.476  -3.608  -0.795  0.00  0.00     0.007 C 
ATOM      9  C   UNL d   1       2.522  -5.081  -0.409  0.00  0.00     0.009 C 
ENDBRANCH   7   8
ENDBRANCH   1   7
TORSDOF 2
ENDMDL
