MODEL 1
REMARK minimizedAffinity 17.4463234
REMARK minimizedRMSD -1
REMARK  1 active torsions:
REMARK  status: ('A' for Active; 'I' for Inactive)
REMARK    1  A    between atoms: C1_2  and  C2_3 
ROOT
ATOM      1  C2  UNL d   1       4.204  -1.811   1.585  0.00  0.00    -0.081 A 
ATOM      2  C3  UNL d   1       3.793  -0.753   0.765  0.00  0.00     0.006 A 
ATOM      3  C4  UNL d   1       2.437  -0.450   0.627  0.00  0.00     0.002 A 
ATOM      4  C5  UNL d   1       1.470  -1.193   1.312  0.00  0.00    -0.080 A 
ATOM      5  C6  UNL d   1       0.012  -0.858   1.196  0.00  0.00     0.076 C 
ATOM      6  C7  UNL d   1       1.879  -2.261   2.118  0.00  0.00     0.002 A 
ATOM      7  C8  UNL d   1       3.235  -2.565   2.256  0.00  0.00     0.006 A 
ENDROOT
BRANCH   1   8
ATOM      8  C1  UNL d   1       5.670  -2.100   1.788  0.00  0.00     0.054 C 
ATOM      9  C   UNL d   1       6.000  -3.547   1.451  0.00  0.00     0.018 C 
ENDBRANCH   1   8
TORSDOF 1
ENDMDL
