MODEL 1
REMARK minimizedAffinity 15.9629297
REMARK minimizedRMSD -1
REMARK  1 active torsions:
REMARK  status: ('A' for Active; 'I' for Inactive)
REMARK    1  A    between atoms: C1_2  and  C2_3 
ROOT
ATOM      1  C2  UNL d   1       0.978  -5.640  -0.698  0.00  0.00    -0.081 A 
ATOM      2  C3  UNL d   1       0.767  -5.264  -2.030  0.00  0.00     0.006 A 
ATOM      3  C4  UNL d   1       1.825  -5.259  -2.941  0.00  0.00     0.002 A 
ATOM      4  C5  UNL d   1       3.110  -5.637  -2.538  0.00  0.00    -0.080 A 
ATOM      5  C6  UNL d   1       4.250  -5.666  -3.513  0.00  0.00     0.076 C 
ATOM      6  C7  UNL d   1       3.326  -5.996  -1.203  0.00  0.00     0.002 A 
ATOM      7  C8  UNL d   1       2.267  -6.000  -0.291  0.00  0.00     0.006 A 
ENDROOT
BRANCH   1   8
ATOM      8  C1  UNL d   1      -0.174  -5.708   0.271  0.00  0.00     0.054 C 
ATOM      9  C   UNL d   1      -1.508  -5.785  -0.459  0.00  0.00     0.018 C 
ENDBRANCH   1   8
TORSDOF 1
ENDMDL
