MODEL 1
REMARK minimizedAffinity 8.5290451
REMARK minimizedRMSD -1
REMARK  1 active torsions:
REMARK  status: ('A' for Active; 'I' for Inactive)
REMARK    1  A    between atoms: C1_2  and  C2_3 
ROOT
ATOM      1  C2  UNL d   1      -4.330   4.086   1.414  0.00  0.00    -0.081 A 
ATOM      2  C3  UNL d   1      -3.651   4.306   2.618  0.00  0.00     0.006 A 
ATOM      3  C4  UNL d   1      -2.328   3.884   2.772  0.00  0.00     0.002 A 
ATOM      4  C5  UNL d   1      -1.661   3.243   1.722  0.00  0.00    -0.080 A 
ATOM      5  C6  UNL d   1      -0.231   2.812   1.864  0.00  0.00     0.076 C 
ATOM      6  C7  UNL d   1      -2.345   3.008   0.525  0.00  0.00     0.002 A 
ATOM      7  C8  UNL d   1      -3.668   3.429   0.371  0.00  0.00     0.006 A 
ENDROOT
BRANCH   1   8
ATOM      8  C1  UNL d   1      -5.735   4.597   1.222  0.00  0.00     0.054 C 
ATOM      9  C   UNL d   1      -5.991   4.983  -0.228  0.00  0.00     0.018 C 
ENDBRANCH   1   8
TORSDOF 1
ENDMDL
