MODEL 1
REMARK minimizedAffinity 8.34647274
REMARK minimizedRMSD -1
REMARK  1 active torsions:
REMARK  status: ('A' for Active; 'I' for Inactive)
REMARK    1  A    between atoms: C1_2  and  C2_3 
ROOT
ATOM      1  C2  UNL d   1      -5.097   3.614  -0.490  0.00  0.00    -0.081 A 
ATOM      2  C3  UNL d   1      -3.737   3.336  -0.307  0.00  0.00     0.006 A 
ATOM      3  C4  UNL d   1      -3.123   2.303  -1.021  0.00  0.00     0.002 A 
ATOM      4  C5  UNL d   1      -3.857   1.538  -1.934  0.00  0.00    -0.080 A 
ATOM      5  C6  UNL d   1      -3.204   0.447  -2.729  0.00  0.00     0.076 C 
ATOM      6  C7  UNL d   1      -5.220   1.805  -2.104  0.00  0.00     0.002 A 
ATOM      7  C8  UNL d   1      -5.834   2.837  -1.390  0.00  0.00     0.006 A 
ENDROOT
BRANCH   1   8
ATOM      8  C1  UNL d   1      -5.746   4.769   0.230  0.00  0.00     0.054 C 
ATOM      9  C   UNL d   1      -5.999   4.436   1.694  0.00  0.00     0.018 C 
ENDBRANCH   1   8
TORSDOF 1
ENDMDL
