MODEL 1
REMARK minimizedAffinity 12.7217245
REMARK minimizedRMSD -1
REMARK  1 active torsions:
REMARK  status: ('A' for Active; 'I' for Inactive)
REMARK    1  A    between atoms: C1_2  and  C2_3 
ROOT
ATOM      1  C2  UNL d   1       1.768  -1.731   0.855  0.00  0.00    -0.081 A 
ATOM      2  C3  UNL d   1       0.861  -0.987   1.620  0.00  0.00     0.006 A 
ATOM      3  C4  UNL d   1       1.184   0.304   2.044  0.00  0.00     0.002 A 
ATOM      4  C5  UNL d   1       2.414   0.876   1.704  0.00  0.00    -0.080 A 
ATOM      5  C6  UNL d   1       2.761   2.272   2.127  0.00  0.00     0.076 C 
ATOM      6  C7  UNL d   1       3.328   0.126   0.955  0.00  0.00     0.002 A 
ATOM      7  C8  UNL d   1       3.006  -1.165   0.531  0.00  0.00     0.006 A 
ENDROOT
BRANCH   1   8
ATOM      8  C1  UNL d   1       1.397  -3.099   0.342  0.00  0.00     0.054 C 
ATOM      9  C   UNL d   1       1.283  -3.108  -1.176  0.00  0.00     0.018 C 
ENDBRANCH   1   8
TORSDOF 1
ENDMDL
