MODEL 1
REMARK minimizedAffinity -1.06166148
REMARK minimizedRMSD -1
REMARK  1 active torsions:
REMARK  status: ('A' for Active; 'I' for Inactive)
REMARK    1  A    between atoms: C1_2  and  C2_3 
ROOT
ATOM      1  C2  UNL d   1       4.811   4.950  -1.871  0.00  0.00    -0.081 A 
ATOM      2  C3  UNL d   1       4.364   3.860  -2.628  0.00  0.00     0.006 A 
ATOM      3  C4  UNL d   1       4.737   3.727  -3.967  0.00  0.00     0.002 A 
ATOM      4  C5  UNL d   1       5.568   4.678  -4.571  0.00  0.00    -0.080 A 
ATOM      5  C6  UNL d   1       5.999   4.531  -6.000  0.00  0.00     0.076 C 
ATOM      6  C7  UNL d   1       6.000   5.776  -3.820  0.00  0.00     0.002 A 
ATOM      7  C8  UNL d   1       5.627   5.910  -2.481  0.00  0.00     0.006 A 
ENDROOT
BRANCH   1   8
ATOM      8  C1  UNL d   1       4.464   5.062  -0.409  0.00  0.00     0.054 C 
ATOM      9  C   UNL d   1       5.436   5.978   0.322  0.00  0.00     0.018 C 
ENDBRANCH   1   8
TORSDOF 1
ENDMDL
