MODEL 1
REMARK minimizedAffinity 0.588132799
REMARK minimizedRMSD -1
REMARK  1 active torsions:
REMARK  status: ('A' for Active; 'I' for Inactive)
REMARK    1  A    between atoms: C1_2  and  C2_3 
ROOT
ATOM      1  C2  UNL d   1       3.929   4.721  -2.433  0.00  0.00    -0.081 A 
ATOM      2  C3  UNL d   1       5.187   5.330  -2.340  0.00  0.00     0.006 A 
ATOM      3  C4  UNL d   1       5.865   5.734  -3.492  0.00  0.00     0.002 A 
ATOM      4  C5  UNL d   1       5.294   5.543  -4.755  0.00  0.00    -0.080 A 
ATOM      5  C6  UNL d   1       5.998   5.999  -5.998  0.00  0.00     0.076 C 
ATOM      6  C7  UNL d   1       4.046   4.918  -4.850  0.00  0.00     0.002 A 
ATOM      7  C8  UNL d   1       3.368   4.514  -3.698  0.00  0.00     0.006 A 
ENDROOT
BRANCH   1   8
ATOM      8  C1  UNL d   1       3.167   4.342  -1.189  0.00  0.00     0.054 C 
ATOM      9  C   UNL d   1       1.687   4.142  -1.486  0.00  0.00     0.018 C 
ENDBRANCH   1   8
TORSDOF 1
ENDMDL
