MODEL 1
REMARK minimizedAffinity -4.37209368
REMARK minimizedRMSD -1
REMARK  1 active torsions:
REMARK  status: ('A' for Active; 'I' for Inactive)
REMARK    1  A    between atoms: N_2  and  C1_3 
ROOT
ATOM      1  C1  UNL d   1      -0.125   0.114   0.096  0.00  0.00     0.143 A 
ATOM      2  C2  UNL d   1       0.292   0.085   1.431  0.00  0.00    -0.057 A 
ATOM      3  C3  UNL d   1      -0.103   1.078   2.337  0.00  0.00     0.033 A 
ATOM      4  C4  UNL d   1      -0.901   2.135   1.915  0.00  0.00    -0.042 A 
ATOM      5  C5  UNL d   1      -1.307   2.198   0.587  0.00  0.00     0.033 A 
ATOM      6  C6  UNL d   1      -0.915   1.201  -0.311  0.00  0.00    -0.057 A 
ENDROOT
BRANCH   1   7
ATOM      7  N   UNL d   1       0.313  -0.789  -0.875  0.00  0.00    -0.732 N 
ATOM      8  C   UNL d   1      -0.413  -2.016  -1.123  0.00  0.00     0.284 C 
ATOM      9  H3  UNL d   1       0.642  -0.323  -1.718  0.00  0.00     0.395 HD
ENDBRANCH   1   7
TORSDOF 1
ENDMDL
