MODEL 1
REMARK minimizedAffinity -0.975544751
REMARK minimizedRMSD -1
REMARK  1 active torsions:
REMARK  status: ('A' for Active; 'I' for Inactive)
REMARK    1  A    between atoms: N_2  and  C1_3 
ROOT
ATOM      1  C1  UNL d   1       0.259   0.997   0.939  0.00  0.00     0.143 A 
ATOM      2  C2  UNL d   1       0.646  -0.348   0.940  0.00  0.00    -0.057 A 
ATOM      3  C3  UNL d   1       0.738  -1.078  -0.252  0.00  0.00     0.033 A 
ATOM      4  C4  UNL d   1       0.414  -0.482  -1.466  0.00  0.00    -0.042 A 
ATOM      5  C5  UNL d   1       0.002   0.846  -1.488  0.00  0.00     0.033 A 
ATOM      6  C6  UNL d   1      -0.081   1.572  -0.296  0.00  0.00    -0.057 A 
ENDROOT
BRANCH   1   7
ATOM      7  N   UNL d   1       0.054   1.747   2.099  0.00  0.00    -0.732 N 
ATOM      8  C   UNL d   1      -0.201   3.170   2.021  0.00  0.00     0.284 C 
ATOM      9  H3  UNL d   1      -0.522   1.259   2.781  0.00  0.00     0.395 HD
ENDBRANCH   1   7
TORSDOF 1
ENDMDL
