MODEL 1
REMARK minimizedAffinity -3.7542603
REMARK minimizedRMSD -1
REMARK  1 active torsions:
REMARK  status: ('A' for Active; 'I' for Inactive)
REMARK    1  A    between atoms: N_2  and  C1_3 
ROOT
ATOM      1  C1  UNL d   1       0.153   0.243  -0.490  0.00  0.00     0.143 A 
ATOM      2  C2  UNL d   1       0.345   0.096   0.888  0.00  0.00    -0.057 A 
ATOM      3  C3  UNL d   1       0.077   1.147   1.775  0.00  0.00     0.033 A 
ATOM      4  C4  UNL d   1      -0.360   2.376   1.294  0.00  0.00    -0.042 A 
ATOM      5  C5  UNL d   1      -0.534   2.553  -0.074  0.00  0.00     0.033 A 
ATOM      6  C6  UNL d   1      -0.272   1.498  -0.954  0.00  0.00    -0.057 A 
ENDROOT
BRANCH   1   7
ATOM      7  N   UNL d   1       0.495  -0.731  -1.431  0.00  0.00    -0.732 N 
ATOM      8  C   UNL d   1       0.135  -2.117  -1.221  0.00  0.00     0.284 C 
ATOM      9  H3  UNL d   1       0.367  -0.408  -2.387  0.00  0.00     0.395 HD
ENDBRANCH   1   7
TORSDOF 1
ENDMDL
