MODEL 1
REMARK minimizedAffinity -3.95551252
REMARK minimizedRMSD -1
REMARK  1 active torsions:
REMARK  status: ('A' for Active; 'I' for Inactive)
REMARK    1  A    between atoms: N_2  and  C1_3 
ROOT
ATOM      1  C1  UNL d   1      -0.501   1.119   0.208  0.00  0.00     0.143 A 
ATOM      2  C2  UNL d   1       0.265  -0.047   0.310  0.00  0.00    -0.057 A 
ATOM      3  C3  UNL d   1       1.071  -0.482  -0.749  0.00  0.00     0.033 A 
ATOM      4  C4  UNL d   1       1.103   0.229  -1.944  0.00  0.00    -0.042 A 
ATOM      5  C5  UNL d   1       0.330   1.377  -2.077  0.00  0.00     0.033 A 
ATOM      6  C6  UNL d   1      -0.468   1.810  -1.014  0.00  0.00    -0.057 A 
ENDROOT
BRANCH   1   7
ATOM      7  N   UNL d   1      -1.397   1.549   1.189  0.00  0.00    -0.732 N 
ATOM      8  C   UNL d   1      -1.218   2.828   1.842  0.00  0.00     0.284 C 
ATOM      9  H3  UNL d   1      -2.364   1.335   0.953  0.00  0.00     0.395 HD
ENDBRANCH   1   7
TORSDOF 1
ENDMDL
