MODEL 1
REMARK minimizedAffinity 9.82247448
REMARK minimizedRMSD -1
REMARK  0 active torsions:
REMARK  status: ('A' for Active; 'I' for Inactive)
ROOT
ATOM      1  C1  DEN d   1       1.528  -0.204   3.396  0.00  0.00     0.130 A 
ATOM      2  C2  DEN d   1       0.520   0.798   3.731  0.00  0.00    -0.031 A 
ATOM      3  C3  DEN d   1       0.501   1.805   2.651  0.00  0.00     0.027 A 
ATOM      4  C4  DEN d   1       1.923   1.906   0.501  0.00  0.00     0.027 A 
ATOM      5  C5  DEN d   1       2.921   1.283  -0.215  0.00  0.00    -0.003 A 
ATOM      6  C6  DEN d   1       3.543   0.148   0.235  0.00  0.00     0.001 A 
ATOM      7  C7  DEN d   1       3.142  -0.424   1.414  0.00  0.00     0.017 A 
ATOM      8  C8  DEN d   1       2.142   0.203   2.145  0.00  0.00    -0.094 A 
ATOM      9  C9  DEN d   1       1.517   1.342   1.667  0.00  0.00    -0.072 A 
ENDROOT
TORSDOF 0
ENDMDL
