MODEL 1
REMARK minimizedAffinity 18.771492
REMARK minimizedRMSD -1
REMARK  0 active torsions:
REMARK  status: ('A' for Active; 'I' for Inactive)
ROOT
ATOM      1  C1  DEN d   1       3.716  -0.696   0.886  0.00  0.00     0.130 A 
ATOM      2  C2  DEN d   1       4.488  -0.551  -0.344  0.00  0.00    -0.031 A 
ATOM      3  C3  DEN d   1       4.022   0.668  -1.035  0.00  0.00     0.027 A 
ATOM      4  C4  DEN d   1       2.192   2.340  -0.319  0.00  0.00     0.027 A 
ATOM      5  C5  DEN d   1       1.252   2.630   0.645  0.00  0.00    -0.003 A 
ATOM      6  C6  DEN d   1       1.046   1.821   1.730  0.00  0.00     0.001 A 
ATOM      7  C7  DEN d   1       1.821   0.705   1.902  0.00  0.00     0.017 A 
ATOM      8  C8  DEN d   1       2.766   0.401   0.931  0.00  0.00    -0.094 A 
ATOM      9  C9  DEN d   1       2.968   1.238  -0.153  0.00  0.00    -0.072 A 
ENDROOT
TORSDOF 0
ENDMDL
