MODEL 1
REMARK minimizedAffinity 22.6150913
REMARK minimizedRMSD -1
REMARK  0 active torsions:
REMARK  status: ('A' for Active; 'I' for Inactive)
ROOT
ATOM      1  C1  DEN d   1       5.988   0.530   0.747  0.00  0.00     0.130 A 
ATOM      2  C2  DEN d   1       6.000  -0.383   1.887  0.00  0.00    -0.031 A 
ATOM      3  C3  DEN d   1       4.602  -0.746   2.195  0.00  0.00     0.027 A 
ATOM      4  C4  DEN d   1       2.433   0.009   1.023  0.00  0.00     0.027 A 
ATOM      5  C5  DEN d   1       1.916   0.790   0.013  0.00  0.00    -0.003 A 
ATOM      6  C6  DEN d   1       2.711   1.559  -0.795  0.00  0.00     0.001 A 
ATOM      7  C7  DEN d   1       4.071   1.529  -0.635  0.00  0.00     0.017 A 
ATOM      8  C8  DEN d   1       4.599   0.750   0.386  0.00  0.00    -0.094 A 
ATOM      9  C9  DEN d   1       3.779  -0.030   1.183  0.00  0.00    -0.072 A 
ENDROOT
TORSDOF 0
ENDMDL
