MODEL 1
REMARK minimizedAffinity 15.5865536
REMARK minimizedRMSD -1
REMARK  0 active torsions:
REMARK  status: ('A' for Active; 'I' for Inactive)
ROOT
ATOM      1  C1  DEN d   1      -3.213  -2.382  -2.259  0.00  0.00     0.130 A 
ATOM      2  C2  DEN d   1      -2.411  -2.822  -1.121  0.00  0.00    -0.031 A 
ATOM      3  C3  DEN d   1      -2.902  -4.150  -0.703  0.00  0.00     0.027 A 
ATOM      4  C4  DEN d   1      -4.812  -5.564  -1.706  0.00  0.00     0.027 A 
ATOM      5  C5  DEN d   1      -5.790  -5.603  -2.675  0.00  0.00    -0.003 A 
ATOM      6  C6  DEN d   1      -5.998  -4.566  -3.545  0.00  0.00     0.001 A 
ATOM      7  C7  DEN d   1      -5.187  -3.463  -3.492  0.00  0.00     0.017 A 
ATOM      8  C8  DEN d   1      -4.204  -3.413  -2.512  0.00  0.00    -0.094 A 
ATOM      9  C9  DEN d   1      -4.001  -4.477  -1.650  0.00  0.00    -0.072 A 
ENDROOT
TORSDOF 0
ENDMDL
