MODEL 1
REMARK minimizedAffinity 9.36485291
REMARK minimizedRMSD -1
REMARK  0 active torsions:
REMARK  status: ('A' for Active; 'I' for Inactive)
ROOT
ATOM      1  C1  DEN d   1       3.301   1.154  -2.615  0.00  0.00     0.130 A 
ATOM      2  C2  DEN d   1       2.094   1.789  -3.139  0.00  0.00    -0.031 A 
ATOM      3  C3  DEN d   1       1.214   2.109  -1.997  0.00  0.00     0.027 A 
ATOM      4  C4  DEN d   1       1.603   1.688   0.518  0.00  0.00     0.027 A 
ATOM      5  C5  DEN d   1       2.475   1.165   1.447  0.00  0.00    -0.003 A 
ATOM      6  C6  DEN d   1       3.658   0.576   1.088  0.00  0.00     0.001 A 
ATOM      7  C7  DEN d   1       4.023   0.536  -0.232  0.00  0.00     0.017 A 
ATOM      8  C8  DEN d   1       3.146   1.055  -1.175  0.00  0.00    -0.094 A 
ATOM      9  C9  DEN d   1       1.960   1.657  -0.791  0.00  0.00    -0.072 A 
ENDROOT
TORSDOF 0
ENDMDL
