MODEL 1
REMARK minimizedAffinity 21.3116226
REMARK minimizedRMSD -1
REMARK  0 active torsions:
REMARK  status: ('A' for Active; 'I' for Inactive)
ROOT
ATOM      1  C1  DEN d   1      -2.225  -1.865  -2.394  0.00  0.00     0.130 A 
ATOM      2  C2  DEN d   1      -2.644  -3.000  -1.576  0.00  0.00    -0.031 A 
ATOM      3  C3  DEN d   1      -2.582  -4.214  -2.414  0.00  0.00     0.027 A 
ATOM      4  C4  DEN d   1      -1.876  -4.446  -4.884  0.00  0.00     0.027 A 
ATOM      5  C5  DEN d   1      -1.449  -3.759  -5.999  0.00  0.00    -0.003 A 
ATOM      6  C6  DEN d   1      -1.284  -2.399  -6.000  0.00  0.00     0.001 A 
ATOM      7  C7  DEN d   1      -1.505  -1.688  -4.850  0.00  0.00     0.017 A 
ATOM      8  C8  DEN d   1      -1.943  -2.373  -3.724  0.00  0.00    -0.094 A 
ATOM      9  C9  DEN d   1      -2.092  -3.749  -3.740  0.00  0.00    -0.072 A 
ENDROOT
TORSDOF 0
ENDMDL
