MODEL 1
REMARK minimizedAffinity 10.7718649
REMARK minimizedRMSD -1
REMARK  0 active torsions:
REMARK  status: ('A' for Active; 'I' for Inactive)
ROOT
ATOM      1  C1  DEN d   1      -3.299  -2.824  -1.643  0.00  0.00     0.130 A 
ATOM      2  C2  DEN d   1      -2.501  -2.419  -2.797  0.00  0.00    -0.031 A 
ATOM      3  C3  DEN d   1      -1.105  -2.245  -2.347  0.00  0.00     0.027 A 
ATOM      4  C4  DEN d   1      -0.107  -2.568   0.009  0.00  0.00     0.027 A 
ATOM      5  C5  DEN d   1      -0.396  -2.896   1.315  0.00  0.00    -0.003 A 
ATOM      6  C6  DEN d   1      -1.668  -3.188   1.730  0.00  0.00     0.001 A 
ATOM      7  C7  DEN d   1      -2.692  -3.201   0.821  0.00  0.00     0.017 A 
ATOM      8  C8  DEN d   1      -2.410  -2.864  -0.496  0.00  0.00    -0.094 A 
ATOM      9  C9  DEN d   1      -1.115  -2.584  -0.899  0.00  0.00    -0.072 A 
ENDROOT
TORSDOF 0
ENDMDL
