MODEL 1
REMARK minimizedAffinity 13.5106707
REMARK minimizedRMSD -1
REMARK  0 active torsions:
REMARK  status: ('A' for Active; 'I' for Inactive)
ROOT
ATOM      1  C1  DEN d   1      -1.611  -1.976  -1.902  0.00  0.00     0.130 A 
ATOM      2  C2  DEN d   1      -2.861  -2.255  -2.604  0.00  0.00    -0.031 A 
ATOM      3  C3  DEN d   1      -3.751  -2.984  -1.679  0.00  0.00     0.027 A 
ATOM      4  C4  DEN d   1      -3.321  -3.700   0.761  0.00  0.00     0.027 A 
ATOM      5  C5  DEN d   1      -2.402  -3.696   1.787  0.00  0.00    -0.003 A 
ATOM      6  C6  DEN d   1      -1.152  -3.153   1.645  0.00  0.00     0.001 A 
ATOM      7  C7  DEN d   1      -0.804  -2.551   0.465  0.00  0.00     0.017 A 
ATOM      8  C8  DEN d   1      -1.723  -2.557  -0.576  0.00  0.00    -0.094 A 
ATOM      9  C9  DEN d   1      -2.985  -3.100  -0.409  0.00  0.00    -0.072 A 
ENDROOT
TORSDOF 0
ENDMDL
