MODEL 1
REMARK minimizedAffinity 3.13935781
REMARK minimizedRMSD -1
REMARK  0 active torsions:
REMARK  status: ('A' for Active; 'I' for Inactive)
ROOT
ATOM      1  C1  DEN d   1      -2.903  -5.586   0.993  0.00  0.00     0.130 A 
ATOM      2  C2  DEN d   1      -2.020  -5.129   2.063  0.00  0.00    -0.031 A 
ATOM      3  C3  DEN d   1      -1.461  -3.821   1.665  0.00  0.00     0.027 A 
ATOM      4  C4  DEN d   1      -1.878  -2.465  -0.488  0.00  0.00     0.027 A 
ATOM      5  C5  DEN d   1      -2.542  -2.451  -1.695  0.00  0.00    -0.003 A 
ATOM      6  C6  DEN d   1      -3.339  -3.487  -2.102  0.00  0.00     0.001 A 
ATOM      7  C7  DEN d   1      -3.529  -4.563  -1.275  0.00  0.00     0.017 A 
ATOM      8  C8  DEN d   1      -2.857  -4.588  -0.060  0.00  0.00    -0.094 A 
ATOM      9  C9  DEN d   1      -2.065  -3.524   0.339  0.00  0.00    -0.072 A 
ENDROOT
TORSDOF 0
ENDMDL
