MODEL 1
REMARK minimizedAffinity 3.17526984
REMARK minimizedRMSD -1
REMARK  0 active torsions:
REMARK  status: ('A' for Active; 'I' for Inactive)
ROOT
ATOM      1  C1  DEN d   1       4.854  -0.419   0.067  0.00  0.00     0.130 A 
ATOM      2  C2  DEN d   1       4.458   0.166  -1.211  0.00  0.00    -0.031 A 
ATOM      3  C3  DEN d   1       3.211   0.928  -0.998  0.00  0.00     0.027 A 
ATOM      4  C4  DEN d   1       1.863   1.259   1.176  0.00  0.00     0.027 A 
ATOM      5  C5  DEN d   1       1.799   0.946   2.515  0.00  0.00    -0.003 A 
ATOM      6  C6  DEN d   1       2.722   0.135   3.121  0.00  0.00     0.001 A 
ATOM      7  C7  DEN d   1       3.775  -0.355   2.394  0.00  0.00     0.017 A 
ATOM      8  C8  DEN d   1       3.843  -0.049   1.041  0.00  0.00    -0.094 A 
ATOM      9  C9  DEN d   1       2.907   0.783   0.451  0.00  0.00    -0.072 A 
ENDROOT
TORSDOF 0
ENDMDL
