MODEL 1
REMARK minimizedAffinity 9.21113777
REMARK minimizedRMSD -1
REMARK  0 active torsions:
REMARK  status: ('A' for Active; 'I' for Inactive)
ROOT
ATOM      1  C1  DEN d   1       1.266   1.327   1.674  0.00  0.00     0.130 A 
ATOM      2  C2  DEN d   1       1.581   0.596   2.899  0.00  0.00    -0.031 A 
ATOM      3  C3  DEN d   1       2.850  -0.127   2.685  0.00  0.00     0.027 A 
ATOM      4  C4  DEN d   1       4.354  -0.180   0.591  0.00  0.00     0.027 A 
ATOM      5  C5  DEN d   1       4.496   0.274  -0.702  0.00  0.00    -0.003 A 
ATOM      6  C6  DEN d   1       3.561   1.077  -1.300  0.00  0.00     0.001 A 
ATOM      7  C7  DEN d   1       2.464   1.488  -0.589  0.00  0.00     0.017 A 
ATOM      8  C8  DEN d   1       2.311   1.028   0.713  0.00  0.00    -0.094 A 
ATOM      9  C9  DEN d   1       3.274   0.226   1.303  0.00  0.00    -0.072 A 
ENDROOT
TORSDOF 0
ENDMDL
