MODEL 1
REMARK minimizedAffinity 19.0036602
REMARK minimizedRMSD -1
REMARK  0 active torsions:
REMARK  status: ('A' for Active; 'I' for Inactive)
ROOT
ATOM      1  C1  DEN d   1      -1.425  -2.003   1.949  0.00  0.00     0.130 A 
ATOM      2  C2  DEN d   1      -1.474  -2.073   0.491  0.00  0.00    -0.031 A 
ATOM      3  C3  DEN d   1      -1.675  -3.485   0.108  0.00  0.00     0.027 A 
ATOM      4  C4  DEN d   1      -1.918  -5.558   1.623  0.00  0.00     0.027 A 
ATOM      5  C5  DEN d   1      -1.930  -6.000   2.928  0.00  0.00    -0.003 A 
ATOM      6  C6  DEN d   1      -1.743  -5.152   3.988  0.00  0.00     0.001 A 
ATOM      7  C7  DEN d   1      -1.579  -3.811   3.763  0.00  0.00     0.017 A 
ATOM      8  C8  DEN d   1      -1.558  -3.359   2.450  0.00  0.00    -0.094 A 
ATOM      9  C9  DEN d   1      -1.762  -4.230   1.393  0.00  0.00    -0.072 A 
ENDROOT
TORSDOF 0
ENDMDL
