MODEL 1
REMARK minimizedAffinity 12.5265064
REMARK minimizedRMSD -1
REMARK  0 active torsions:
REMARK  status: ('A' for Active; 'I' for Inactive)
ROOT
ATOM      1  C1  DEN d   1      -0.974  -5.438  -3.252  0.00  0.00     0.130 A 
ATOM      2  C2  DEN d   1      -0.520  -5.240  -4.626  0.00  0.00    -0.031 A 
ATOM      3  C3  DEN d   1      -1.008  -3.923  -5.082  0.00  0.00     0.027 A 
ATOM      4  C4  DEN d   1      -2.411  -2.179  -3.800  0.00  0.00     0.027 A 
ATOM      5  C5  DEN d   1      -3.046  -1.906  -2.608  0.00  0.00    -0.003 A 
ATOM      6  C6  DEN d   1      -3.063  -2.797  -1.569  0.00  0.00     0.001 A 
ATOM      7  C7  DEN d   1      -2.395  -3.987  -1.684  0.00  0.00     0.017 A 
ATOM      8  C8  DEN d   1      -1.759  -4.274  -2.885  0.00  0.00    -0.094 A 
ATOM      9  C9  DEN d   1      -1.743  -3.354  -3.920  0.00  0.00    -0.072 A 
ENDROOT
TORSDOF 0
ENDMDL
