MODEL 1
REMARK minimizedAffinity 3.74102545
REMARK minimizedRMSD -1
REMARK  0 active torsions:
REMARK  status: ('A' for Active; 'I' for Inactive)
ROOT
ATOM      1  C1  DEN d   1       2.008   0.138   1.596  0.00  0.00     0.130 A 
ATOM      2  C2  DEN d   1       3.028   1.111   1.217  0.00  0.00    -0.031 A 
ATOM      3  C3  DEN d   1       2.387   2.440   1.147  0.00  0.00     0.027 A 
ATOM      4  C4  DEN d   1      -0.071   3.081   1.590  0.00  0.00     0.027 A 
ATOM      5  C5  DEN d   1      -1.314   2.595   1.929  0.00  0.00    -0.003 A 
ATOM      6  C6  DEN d   1      -1.543   1.262   2.146  0.00  0.00     0.001 A 
ATOM      7  C7  DEN d   1      -0.503   0.374   2.070  0.00  0.00     0.017 A 
ATOM      8  C8  DEN d   1       0.752   0.856   1.721  0.00  0.00    -0.094 A 
ATOM      9  C9  DEN d   1       0.966   2.209   1.518  0.00  0.00    -0.072 A 
ENDROOT
TORSDOF 0
ENDMDL
