MODEL 1
REMARK minimizedAffinity 3.55019379
REMARK minimizedRMSD -1
REMARK  0 active torsions:
REMARK  status: ('A' for Active; 'I' for Inactive)
ROOT
ATOM      1  C1  DEN d   1      -4.215   3.299   5.040  0.00  0.00     0.130 A 
ATOM      2  C2  DEN d   1      -5.275   2.431   5.544  0.00  0.00    -0.031 A 
ATOM      3  C3  DEN d   1      -5.064   1.080   4.987  0.00  0.00     0.027 A 
ATOM      4  C4  DEN d   1      -3.204   0.250   3.404  0.00  0.00     0.027 A 
ATOM      5  C5  DEN d   1      -2.084   0.624   2.695  0.00  0.00    -0.003 A 
ATOM      6  C6  DEN d   1      -1.619   1.913   2.691  0.00  0.00     0.001 A 
ATOM      7  C7  DEN d   1      -2.251   2.865   3.446  0.00  0.00     0.017 A 
ATOM      8  C8  DEN d   1      -3.386   2.497   4.158  0.00  0.00    -0.094 A 
ATOM      9  C9  DEN d   1      -3.833   1.187   4.159  0.00  0.00    -0.072 A 
ENDROOT
TORSDOF 0
ENDMDL
