MODEL 1
REMARK minimizedAffinity 10.2437267
REMARK minimizedRMSD -1
REMARK  0 active torsions:
REMARK  status: ('A' for Active; 'I' for Inactive)
ROOT
ATOM      1  C1  DEN d   1       1.059   2.139   2.429  0.00  0.00     0.130 A 
ATOM      2  C2  DEN d   1      -0.336   1.705   2.414  0.00  0.00    -0.031 A 
ATOM      3  C3  DEN d   1      -0.492   0.711   1.333  0.00  0.00     0.027 A 
ATOM      4  C4  DEN d   1       1.281  -0.198  -0.304  0.00  0.00     0.027 A 
ATOM      5  C5  DEN d   1       2.602  -0.119  -0.685  0.00  0.00    -0.003 A 
ATOM      6  C6  DEN d   1       3.487   0.736  -0.082  0.00  0.00     0.001 A 
ATOM      7  C7  DEN d   1       3.071   1.514   0.965  0.00  0.00     0.017 A 
ATOM      8  C8  DEN d   1       1.738   1.445   1.350  0.00  0.00    -0.094 A 
ATOM      9  C9  DEN d   1       0.863   0.566   0.736  0.00  0.00    -0.072 A 
ENDROOT
TORSDOF 0
ENDMDL
