MODEL 1
REMARK minimizedAffinity 17.8284054
REMARK minimizedRMSD -1
REMARK  3 active torsions:
REMARK  status: ('A' for Active; 'I' for Inactive)
REMARK    1  A    between atoms: C3'_2  and  C2'_3 
REMARK    2  A    between atoms: C2'_3  and  C1'_4 
REMARK    3  A    between atoms: C1'_4  and  C1_5 
ROOT
ATOM      1  C1  N4B d   1      -5.292   2.443   5.133  0.00  0.00    -0.075 A 
ATOM      2  C2  N4B d   1      -5.965   1.209   5.262  0.00  0.00     0.002 A 
ATOM      3  C3  N4B d   1      -5.668   0.173   4.411  0.00  0.00     0.002 A 
ATOM      4  C4  N4B d   1      -4.719   0.353   3.416  0.00  0.00    -0.004 A 
ATOM      5  C5  N4B d   1      -4.055   1.540   3.314  0.00  0.00     0.002 A 
ATOM      6  C6  N4B d   1      -4.341   2.589   4.165  0.00  0.00     0.002 A 
ENDROOT
BRANCH   1   7
ATOM      7  C1' N4B d   1      -5.644   3.633   5.984  0.00  0.00     0.057 C 
BRANCH   7   8
ATOM      8  C2' N4B d   1      -4.468   4.604   5.998  0.00  0.00     0.009 C 
BRANCH   8   9
ATOM      9  C3' N4B d   1      -4.877   5.998   5.553  0.00  0.00     0.004 C 
ATOM     10  C4' N4B d   1      -5.632   5.996   4.258  0.00  0.00     0.003 C 
ENDBRANCH   8   9
ENDBRANCH   7   8
ENDBRANCH   1   7
TORSDOF 3
ENDMDL
