MODEL 1
REMARK minimizedAffinity 19.716711
REMARK minimizedRMSD -1
REMARK  3 active torsions:
REMARK  status: ('A' for Active; 'I' for Inactive)
REMARK    1  A    between atoms: C3'_2  and  C2'_3 
REMARK    2  A    between atoms: C2'_3  and  C1'_4 
REMARK    3  A    between atoms: C1'_4  and  C1_5 
ROOT
ATOM      1  C1  N4B d   1      -2.181  -3.490  -2.876  0.00  0.00    -0.075 A 
ATOM      2  C2  N4B d   1      -1.203  -2.892  -3.702  0.00  0.00     0.002 A 
ATOM      3  C3  N4B d   1      -0.270  -3.674  -4.337  0.00  0.00     0.002 A 
ATOM      4  C4  N4B d   1      -0.282  -5.048  -4.147  0.00  0.00    -0.004 A 
ATOM      5  C5  N4B d   1      -1.245  -5.619  -3.367  0.00  0.00     0.002 A 
ATOM      6  C6  N4B d   1      -2.192  -4.846  -2.727  0.00  0.00     0.002 A 
ENDROOT
BRANCH   1   7
ATOM      7  C1' N4B d   1      -3.169  -2.669  -2.094  0.00  0.00     0.057 C 
BRANCH   7   8
ATOM      8  C2' N4B d   1      -2.423  -1.866  -1.032  0.00  0.00     0.009 C 
BRANCH   8   9
ATOM      9  C3' N4B d   1      -2.750  -2.340   0.373  0.00  0.00     0.004 C 
ATOM     10  C4' N4B d   1      -1.569  -2.282   1.296  0.00  0.00     0.003 C 
ENDBRANCH   8   9
ENDBRANCH   7   8
ENDBRANCH   1   7
TORSDOF 3
ENDMDL
