MODEL 1
REMARK minimizedAffinity 18.4936485
REMARK minimizedRMSD -1
REMARK  3 active torsions:
REMARK  status: ('A' for Active; 'I' for Inactive)
REMARK    1  A    between atoms: C3'_2  and  C2'_3 
REMARK    2  A    between atoms: C2'_3  and  C1'_4 
REMARK    3  A    between atoms: C1'_4  and  C1_5 
ROOT
ATOM      1  C1  N4B d   1       0.314   3.838   1.922  0.00  0.00    -0.075 A 
ATOM      2  C2  N4B d   1       1.036   2.702   1.497  0.00  0.00     0.002 A 
ATOM      3  C3  N4B d   1       2.336   2.834   1.074  0.00  0.00     0.002 A 
ATOM      4  C4  N4B d   1       2.925   4.089   1.049  0.00  0.00    -0.004 A 
ATOM      5  C5  N4B d   1       2.229   5.178   1.486  0.00  0.00     0.002 A 
ATOM      6  C6  N4B d   1       0.923   5.059   1.918  0.00  0.00     0.002 A 
ENDROOT
BRANCH   1   7
ATOM      7  C1' N4B d   1      -1.137   3.756   2.312  0.00  0.00     0.057 C 
BRANCH   7   8
ATOM      8  C2' N4B d   1      -1.312   2.666   3.365  0.00  0.00     0.009 C 
BRANCH   8   9
ATOM      9  C3' N4B d   1      -2.726   2.631   3.918  0.00  0.00     0.004 C 
ATOM     10  C4' N4B d   1      -3.511   1.449   3.430  0.00  0.00     0.003 C 
ENDBRANCH   8   9
ENDBRANCH   7   8
ENDBRANCH   1   7
TORSDOF 3
ENDMDL
