MODEL 1
REMARK minimizedAffinity 17.0750504
REMARK minimizedRMSD -1
REMARK  3 active torsions:
REMARK  status: ('A' for Active; 'I' for Inactive)
REMARK    1  A    between atoms: C3'_2  and  C2'_3 
REMARK    2  A    between atoms: C2'_3  and  C1'_4 
REMARK    3  A    between atoms: C1'_4  and  C1_5 
ROOT
ATOM      1  C1  N4B d   1      -3.666  -3.244  -2.283  0.00  0.00    -0.075 A 
ATOM      2  C2  N4B d   1      -4.975  -3.095  -2.792  0.00  0.00     0.002 A 
ATOM      3  C3  N4B d   1      -5.827  -4.172  -2.819  0.00  0.00     0.002 A 
ATOM      4  C4  N4B d   1      -5.388  -5.406  -2.362  0.00  0.00    -0.004 A 
ATOM      5  C5  N4B d   1      -4.130  -5.535  -1.849  0.00  0.00     0.002 A 
ATOM      6  C6  N4B d   1      -3.265  -4.461  -1.812  0.00  0.00     0.002 A 
ENDROOT
BRANCH   1   7
ATOM      7  C1' N4B d   1      -2.670  -2.117  -2.312  0.00  0.00     0.057 C 
BRANCH   7   8
ATOM      8  C2' N4B d   1      -2.569  -1.575  -3.735  0.00  0.00     0.009 C 
BRANCH   8   9
ATOM      9  C3' N4B d   1      -1.866  -2.548  -4.666  0.00  0.00     0.004 C 
ATOM     10  C4' N4B d   1      -1.539  -1.944  -5.999  0.00  0.00     0.003 C 
ENDBRANCH   8   9
ENDBRANCH   7   8
ENDBRANCH   1   7
TORSDOF 3
ENDMDL
