MODEL 1
REMARK minimizedAffinity 14.4561663
REMARK minimizedRMSD -1
REMARK  3 active torsions:
REMARK  status: ('A' for Active; 'I' for Inactive)
REMARK    1  A    between atoms: C3'_2  and  C2'_3 
REMARK    2  A    between atoms: C2'_3  and  C1'_4 
REMARK    3  A    between atoms: C1'_4  and  C1_5 
ROOT
ATOM      1  C1  N4B d   1      -1.763  -3.657   0.770  0.00  0.00    -0.075 A 
ATOM      2  C2  N4B d   1      -2.592  -4.708   0.321  0.00  0.00     0.002 A 
ATOM      3  C3  N4B d   1      -2.694  -5.865   1.055  0.00  0.00     0.002 A 
ATOM      4  C4  N4B d   1      -1.964  -6.000   2.226  0.00  0.00    -0.004 A 
ATOM      5  C5  N4B d   1      -1.185  -4.970   2.666  0.00  0.00     0.002 A 
ATOM      6  C6  N4B d   1      -1.076  -3.801   1.941  0.00  0.00     0.002 A 
ENDROOT
BRANCH   1   7
ATOM      7  C1' N4B d   1      -1.553  -2.408  -0.042  0.00  0.00     0.057 C 
BRANCH   7   8
ATOM      8  C2' N4B d   1      -2.828  -2.098  -0.820  0.00  0.00     0.009 C 
BRANCH   8   9
ATOM      9  C3' N4B d   1      -2.614  -2.191  -2.321  0.00  0.00     0.004 C 
ATOM     10  C4' N4B d   1      -3.730  -2.905  -3.024  0.00  0.00     0.003 C 
ENDBRANCH   8   9
ENDBRANCH   7   8
ENDBRANCH   1   7
TORSDOF 3
ENDMDL
