MODEL 1
REMARK minimizedAffinity 12.4627132
REMARK minimizedRMSD -1
REMARK  3 active torsions:
REMARK  status: ('A' for Active; 'I' for Inactive)
REMARK    1  A    between atoms: C3'_2  and  C2'_3 
REMARK    2  A    between atoms: C2'_3  and  C1'_4 
REMARK    3  A    between atoms: C1'_4  and  C1_5 
ROOT
ATOM      1  C1  N4B d   1       3.025   0.974  -0.580  0.00  0.00    -0.075 A 
ATOM      2  C2  N4B d   1       3.258  -0.171   0.213  0.00  0.00     0.002 A 
ATOM      3  C3  N4B d   1       2.622  -0.309   1.423  0.00  0.00     0.002 A 
ATOM      4  C4  N4B d   1       1.766   0.688   1.865  0.00  0.00    -0.004 A 
ATOM      5  C5  N4B d   1       1.526   1.778   1.081  0.00  0.00     0.002 A 
ATOM      6  C6  N4B d   1       2.156   1.929  -0.138  0.00  0.00     0.002 A 
ENDROOT
BRANCH   1   7
ATOM      7  C1' N4B d   1       3.763   1.210  -1.869  0.00  0.00     0.057 C 
BRANCH   7   8
ATOM      8  C2' N4B d   1       3.227   2.478  -2.528  0.00  0.00     0.009 C 
BRANCH   8   9
ATOM      9  C3' N4B d   1       3.044   2.306  -4.026  0.00  0.00     0.004 C 
ATOM     10  C4' N4B d   1       2.136   3.339  -4.623  0.00  0.00     0.003 C 
ENDBRANCH   8   9
ENDBRANCH   7   8
ENDBRANCH   1   7
TORSDOF 3
ENDMDL
