MODEL 1
REMARK minimizedAffinity 8.93980026
REMARK minimizedRMSD -1
REMARK  3 active torsions:
REMARK  status: ('A' for Active; 'I' for Inactive)
REMARK    1  A    between atoms: C3'_2  and  C2'_3 
REMARK    2  A    between atoms: C2'_3  and  C1'_4 
REMARK    3  A    between atoms: C1'_4  and  C1_5 
ROOT
ATOM      1  C1  N4B d   1      -3.510  -5.167  -2.334  0.00  0.00    -0.075 A 
ATOM      2  C2  N4B d   1      -2.491  -5.999  -2.847  0.00  0.00     0.002 A 
ATOM      3  C3  N4B d   1      -1.307  -5.451  -3.275  0.00  0.00     0.002 A 
ATOM      4  C4  N4B d   1      -1.127  -4.077  -3.217  0.00  0.00    -0.004 A 
ATOM      5  C5  N4B d   1      -2.106  -3.283  -2.697  0.00  0.00     0.002 A 
ATOM      6  C6  N4B d   1      -3.300  -3.821  -2.259  0.00  0.00     0.002 A 
ENDROOT
BRANCH   1   7
ATOM      7  C1' N4B d   1      -4.854  -5.712  -1.935  0.00  0.00     0.057 C 
BRANCH   7   8
ATOM      8  C2' N4B d   1      -5.895  -5.283  -2.965  0.00  0.00     0.009 C 
BRANCH   8   9
ATOM      9  C3' N4B d   1      -6.000  -3.772  -3.072  0.00  0.00     0.004 C 
ATOM     10  C4' N4B d   1      -5.999  -3.288  -4.491  0.00  0.00     0.003 C 
ENDBRANCH   8   9
ENDBRANCH   7   8
ENDBRANCH   1   7
TORSDOF 3
ENDMDL
