MODEL 1
REMARK minimizedAffinity 16.4039059
REMARK minimizedRMSD -1
REMARK  3 active torsions:
REMARK  status: ('A' for Active; 'I' for Inactive)
REMARK    1  A    between atoms: C3'_2  and  C2'_3 
REMARK    2  A    between atoms: C2'_3  and  C1'_4 
REMARK    3  A    between atoms: C1'_4  and  C1_5 
ROOT
ATOM      1  C1  N4B d   1      -3.428  -4.137  -2.007  0.00  0.00    -0.075 A 
ATOM      2  C2  N4B d   1      -3.946  -5.423  -1.736  0.00  0.00     0.002 A 
ATOM      3  C3  N4B d   1      -5.106  -5.837  -2.344  0.00  0.00     0.002 A 
ATOM      4  C4  N4B d   1      -5.773  -4.980  -3.207  0.00  0.00    -0.004 A 
ATOM      5  C5  N4B d   1      -5.252  -3.750  -3.482  0.00  0.00     0.002 A 
ATOM      6  C6  N4B d   1      -4.085  -3.322  -2.882  0.00  0.00     0.002 A 
ENDROOT
BRANCH   1   7
ATOM      7  C1' N4B d   1      -2.210  -3.607  -1.301  0.00  0.00     0.057 C 
BRANCH   7   8
ATOM      8  C2' N4B d   1      -2.649  -2.717  -0.143  0.00  0.00     0.009 C 
BRANCH   8   9
ATOM      9  C3' N4B d   1      -2.465  -3.402   1.201  0.00  0.00     0.004 C 
ATOM     10  C4' N4B d   1      -1.149  -3.075   1.843  0.00  0.00     0.003 C 
ENDBRANCH   8   9
ENDBRANCH   7   8
ENDBRANCH   1   7
TORSDOF 3
ENDMDL
