MODEL 1
REMARK minimizedAffinity 3.75137448
REMARK minimizedRMSD -1
REMARK  3 active torsions:
REMARK  status: ('A' for Active; 'I' for Inactive)
REMARK    1  A    between atoms: C3'_2  and  C2'_3 
REMARK    2  A    between atoms: C2'_3  and  C1'_4 
REMARK    3  A    between atoms: C1'_4  and  C1_5 
ROOT
ATOM      1  C1  N4B d   1      -5.218   4.120   3.642  0.00  0.00    -0.075 A 
ATOM      2  C2  N4B d   1      -4.420   3.736   4.742  0.00  0.00     0.002 A 
ATOM      3  C3  N4B d   1      -4.427   4.488   5.891  0.00  0.00     0.002 A 
ATOM      4  C4  N4B d   1      -5.206   5.633   5.957  0.00  0.00    -0.004 A 
ATOM      5  C5  N4B d   1      -5.993   5.984   4.899  0.00  0.00     0.002 A 
ATOM      6  C6  N4B d   1      -5.999   5.236   3.740  0.00  0.00     0.002 A 
ENDROOT
BRANCH   1   7
ATOM      7  C1' N4B d   1      -5.179   3.378   2.334  0.00  0.00     0.057 C 
BRANCH   7   8
ATOM      8  C2' N4B d   1      -5.998   4.144   1.299  0.00  0.00     0.009 C 
BRANCH   8   9
ATOM      9  C3' N4B d   1      -5.130   5.056   0.449  0.00  0.00     0.004 C 
ATOM     10  C4' N4B d   1      -5.934   5.975  -0.422  0.00  0.00     0.003 C 
ENDBRANCH   8   9
ENDBRANCH   7   8
ENDBRANCH   1   7
TORSDOF 3
ENDMDL
