MODEL 1
REMARK minimizedAffinity 14.1536427
REMARK minimizedRMSD -1
REMARK  3 active torsions:
REMARK  status: ('A' for Active; 'I' for Inactive)
REMARK    1  A    between atoms: C3'_2  and  C2'_3 
REMARK    2  A    between atoms: C2'_3  and  C1'_4 
REMARK    3  A    between atoms: C1'_4  and  C1_5 
ROOT
ATOM      1  C1  N4B d   1       3.292   2.893  -3.823  0.00  0.00    -0.075 A 
ATOM      2  C2  N4B d   1       3.922   1.922  -3.013  0.00  0.00     0.002 A 
ATOM      3  C3  N4B d   1       5.262   1.663  -3.167  0.00  0.00     0.002 A 
ATOM      4  C4  N4B d   1       5.985   2.346  -4.134  0.00  0.00    -0.004 A 
ATOM      5  C5  N4B d   1       5.375   3.300  -4.895  0.00  0.00     0.002 A 
ATOM      6  C6  N4B d   1       4.030   3.574  -4.748  0.00  0.00     0.002 A 
ENDROOT
BRANCH   1   7
ATOM      7  C1' N4B d   1       1.812   3.150  -3.749  0.00  0.00     0.057 C 
BRANCH   7   8
ATOM      8  C2' N4B d   1       1.536   4.602  -4.126  0.00  0.00     0.009 C 
BRANCH   8   9
ATOM      9  C3' N4B d   1       1.392   4.782  -5.628  0.00  0.00     0.004 C 
ATOM     10  C4' N4B d   1       0.274   5.711  -5.997  0.00  0.00     0.003 C 
ENDBRANCH   8   9
ENDBRANCH   7   8
ENDBRANCH   1   7
TORSDOF 3
ENDMDL
