MODEL 1
REMARK minimizedAffinity 1.37746775
REMARK minimizedRMSD -1
REMARK  3 active torsions:
REMARK  status: ('A' for Active; 'I' for Inactive)
REMARK    1  A    between atoms: C3'_2  and  C2'_3 
REMARK    2  A    between atoms: C2'_3  and  C1'_4 
REMARK    3  A    between atoms: C1'_4  and  C1_5 
ROOT
ATOM      1  C1  N4B d   1       5.870   4.010  -4.971  0.00  0.00    -0.075 A 
ATOM      2  C2  N4B d   1       5.925   4.294  -3.588  0.00  0.00     0.002 A 
ATOM      3  C3  N4B d   1       5.999   3.268  -2.679  0.00  0.00     0.002 A 
ATOM      4  C4  N4B d   1       6.000   1.955  -3.125  0.00  0.00    -0.004 A 
ATOM      5  C5  N4B d   1       5.972   1.690  -4.463  0.00  0.00     0.002 A 
ATOM      6  C6  N4B d   1       5.901   2.711  -5.389  0.00  0.00     0.002 A 
ENDROOT
BRANCH   1   7
ATOM      7  C1' N4B d   1       5.701   5.096  -5.998  0.00  0.00     0.057 C 
BRANCH   7   8
ATOM      8  C2' N4B d   1       4.265   5.609  -5.954  0.00  0.00     0.009 C 
BRANCH   8   9
ATOM      9  C3' N4B d   1       3.255   4.475  -6.000  0.00  0.00     0.004 C 
ATOM     10  C4' N4B d   1       1.841   4.951  -5.851  0.00  0.00     0.003 C 
ENDBRANCH   8   9
ENDBRANCH   7   8
ENDBRANCH   1   7
TORSDOF 3
ENDMDL
