MODEL 1
REMARK minimizedAffinity 17.3737373
REMARK minimizedRMSD -1
REMARK  0 active torsions:
REMARK  status: ('A' for Active; 'I' for Inactive)
ROOT
ATOM      1  C2' OXE d   1      -1.247   1.686  -0.563  0.00  0.00     0.078 C 
ATOM      2  C1' OXE d   1      -0.417   3.635   1.279  0.00  0.00     0.078 C 
ATOM      3  C1  OXE d   1      -1.735   3.847   0.577  0.00  0.00    -0.078 A 
ATOM      4  C2  OXE d   1      -2.111   2.912  -0.357  0.00  0.00    -0.078 A 
ATOM      5  C3  OXE d   1      -3.343   3.031  -0.994  0.00  0.00     0.003 A 
ATOM      6  C4  OXE d   1      -4.131   4.173  -0.806  0.00  0.00    -0.002 A 
ATOM      7  C5  OXE d   1      -3.747   5.157   0.111  0.00  0.00    -0.002 A 
ATOM      8  C6  OXE d   1      -2.575   4.989   0.840  0.00  0.00     0.003 A 
ENDROOT
TORSDOF 0
ENDMDL
