MODEL 1
REMARK minimizedAffinity 16.6803341
REMARK minimizedRMSD -1
REMARK  0 active torsions:
REMARK  status: ('A' for Active; 'I' for Inactive)
ROOT
ATOM      1  C2' OXE d   1      -0.039  -3.410   1.784  0.00  0.00     0.078 C 
ATOM      2  C1' OXE d   1       0.030  -2.064  -0.679  0.00  0.00     0.078 C 
ATOM      3  C1  OXE d   1      -1.308  -2.550  -0.180  0.00  0.00    -0.078 A 
ATOM      4  C2  OXE d   1      -1.326  -3.248   1.003  0.00  0.00    -0.078 A 
ATOM      5  C3  OXE d   1      -2.541  -3.671   1.535  0.00  0.00     0.003 A 
ATOM      6  C4  OXE d   1      -3.724  -3.527   0.802  0.00  0.00    -0.002 A 
ATOM      7  C5  OXE d   1      -3.722  -2.853  -0.424  0.00  0.00    -0.002 A 
ATOM      8  C6  OXE d   1      -2.532  -2.322  -0.908  0.00  0.00     0.003 A 
ENDROOT
TORSDOF 0
ENDMDL
