MODEL 1
REMARK minimizedAffinity 10.0414886
REMARK minimizedRMSD -1
REMARK  0 active torsions:
REMARK  status: ('A' for Active; 'I' for Inactive)
ROOT
ATOM      1  C2' OXE d   1      -2.631   0.095   5.113  0.00  0.00     0.078 C 
ATOM      2  C1' OXE d   1      -2.491   2.479   3.638  0.00  0.00     0.078 C 
ATOM      3  C1  OXE d   1      -3.725   2.238   4.470  0.00  0.00    -0.078 A 
ATOM      4  C2  OXE d   1      -3.806   1.048   5.152  0.00  0.00    -0.078 A 
ATOM      5  C3  OXE d   1      -4.899   0.799   5.978  0.00  0.00     0.003 A 
ATOM      6  C4  OXE d   1      -5.986   1.681   6.000  0.00  0.00    -0.002 A 
ATOM      7  C5  OXE d   1      -5.941   2.881   5.282  0.00  0.00    -0.002 A 
ATOM      8  C6  OXE d   1      -4.803   3.193   4.547  0.00  0.00     0.003 A 
ENDROOT
TORSDOF 0
ENDMDL
