MODEL 1
REMARK minimizedAffinity 1.93056619
REMARK minimizedRMSD -1
REMARK  0 active torsions:
REMARK  status: ('A' for Active; 'I' for Inactive)
ROOT
ATOM      1  C2' OXE d   1       5.988  -2.545  -2.126  0.00  0.00     0.078 C 
ATOM      2  C1' OXE d   1       4.267  -1.005  -3.722  0.00  0.00     0.078 C 
ATOM      3  C1  OXE d   1       4.717  -2.341  -4.259  0.00  0.00    -0.078 A 
ATOM      4  C2  OXE d   1       5.596  -3.067  -3.491  0.00  0.00    -0.078 A 
ATOM      5  C3  OXE d   1       6.000  -4.330  -3.914  0.00  0.00     0.003 A 
ATOM      6  C4  OXE d   1       5.641  -4.801  -5.183  0.00  0.00    -0.002 A 
ATOM      7  C5  OXE d   1       4.778  -4.060  -5.997  0.00  0.00    -0.002 A 
ATOM      8  C6  OXE d   1       4.274  -2.850  -5.533  0.00  0.00     0.003 A 
ENDROOT
TORSDOF 0
ENDMDL
