MODEL 1
REMARK minimizedAffinity 5.60617399
REMARK minimizedRMSD -1
REMARK  0 active torsions:
REMARK  status: ('A' for Active; 'I' for Inactive)
ROOT
ATOM      1  C2' OXE d   1       4.885  -1.150  -3.801  0.00  0.00     0.078 C 
ATOM      2  C1' OXE d   1       2.407  -2.469  -3.777  0.00  0.00     0.078 C 
ATOM      3  C1  OXE d   1       3.534  -3.103  -4.554  0.00  0.00    -0.078 A 
ATOM      4  C2  OXE d   1       4.729  -2.426  -4.599  0.00  0.00    -0.078 A 
ATOM      5  C3  OXE d   1       5.818  -2.993  -5.256  0.00  0.00     0.003 A 
ATOM      6  C4  OXE d   1       5.663  -4.169  -6.000  0.00  0.00    -0.002 A 
ATOM      7  C5  OXE d   1       4.443  -4.854  -6.000  0.00  0.00    -0.002 A 
ATOM      8  C6  OXE d   1       3.383  -4.357  -5.249  0.00  0.00     0.003 A 
ENDROOT
TORSDOF 0
ENDMDL
