MODEL 1
REMARK minimizedAffinity 9.75287914
REMARK minimizedRMSD -1
REMARK  0 active torsions:
REMARK  status: ('A' for Active; 'I' for Inactive)
ROOT
ATOM      1  C2' OXE d   1       4.502  -0.814   4.505  0.00  0.00     0.078 C 
ATOM      2  C1' OXE d   1       2.178  -2.220   5.215  0.00  0.00     0.078 C 
ATOM      3  C1  OXE d   1       3.503  -2.918   5.389  0.00  0.00    -0.078 A 
ATOM      4  C2  OXE d   1       4.632  -2.240   4.995  0.00  0.00    -0.078 A 
ATOM      5  C3  OXE d   1       5.884  -2.817   5.185  0.00  0.00     0.003 A 
ATOM      6  C4  OXE d   1       5.995  -4.140   5.630  0.00  0.00    -0.002 A 
ATOM      7  C5  OXE d   1       4.855  -4.863   5.999  0.00  0.00    -0.002 A 
ATOM      8  C6  OXE d   1       3.608  -4.253   5.925  0.00  0.00     0.003 A 
ENDROOT
TORSDOF 0
ENDMDL
