MODEL 1
REMARK minimizedAffinity -0.768168032
REMARK minimizedRMSD -1
REMARK  0 active torsions:
REMARK  status: ('A' for Active; 'I' for Inactive)
ROOT
ATOM      1  C2' OXE d   1       6.000  -1.861   4.647  0.00  0.00     0.078 C 
ATOM      2  C1' OXE d   1       5.559  -4.631   4.549  0.00  0.00     0.078 C 
ATOM      3  C1  OXE d   1       4.435  -3.757   5.048  0.00  0.00    -0.078 A 
ATOM      4  C2  OXE d   1       4.676  -2.407   5.137  0.00  0.00    -0.078 A 
ATOM      5  C3  OXE d   1       3.656  -1.550   5.539  0.00  0.00     0.003 A 
ATOM      6  C4  OXE d   1       2.438  -2.065   6.000  0.00  0.00    -0.002 A 
ATOM      7  C5  OXE d   1       2.186  -3.440   5.955  0.00  0.00    -0.002 A 
ATOM      8  C6  OXE d   1       3.157  -4.294   5.444  0.00  0.00     0.003 A 
ENDROOT
TORSDOF 0
ENDMDL
