MODEL 1
REMARK minimizedAffinity 14.3522406
REMARK minimizedRMSD -1
REMARK  0 active torsions:
REMARK  status: ('A' for Active; 'I' for Inactive)
ROOT
ATOM      1  C2' OXE d   1      -2.250  -1.259   1.140  0.00  0.00     0.078 C 
ATOM      2  C1' OXE d   1      -1.720   1.296   2.176  0.00  0.00     0.078 C 
ATOM      3  C1  OXE d   1      -2.101   0.208   3.148  0.00  0.00    -0.078 A 
ATOM      4  C2  OXE d   1      -2.404  -1.028   2.628  0.00  0.00    -0.078 A 
ATOM      5  C3  OXE d   1      -2.708  -2.081   3.486  0.00  0.00     0.003 A 
ATOM      6  C4  OXE d   1      -2.858  -1.856   4.859  0.00  0.00    -0.002 A 
ATOM      7  C5  OXE d   1      -2.593  -0.596   5.406  0.00  0.00    -0.002 A 
ATOM      8  C6  OXE d   1      -2.173   0.434   4.571  0.00  0.00     0.003 A 
ENDROOT
TORSDOF 0
ENDMDL
