MODEL 1
REMARK minimizedAffinity 5.45238304
REMARK minimizedRMSD -1
REMARK  0 active torsions:
REMARK  status: ('A' for Active; 'I' for Inactive)
ROOT
ATOM      1  C2' OXE d   1       3.940  -1.470   3.729  0.00  0.00     0.078 C 
ATOM      2  C1' OXE d   1       2.246  -3.708   3.786  0.00  0.00     0.078 C 
ATOM      3  C1  OXE d   1       3.548  -3.792   4.543  0.00  0.00    -0.078 A 
ATOM      4  C2  OXE d   1       4.392  -2.709   4.471  0.00  0.00    -0.078 A 
ATOM      5  C3  OXE d   1       5.580  -2.713   5.195  0.00  0.00     0.003 A 
ATOM      6  C4  OXE d   1       5.996  -3.866   5.871  0.00  0.00    -0.002 A 
ATOM      7  C5  OXE d   1       5.170  -4.994   5.924  0.00  0.00    -0.002 A 
ATOM      8  C6  OXE d   1       3.926  -4.958   5.302  0.00  0.00     0.003 A 
ENDROOT
TORSDOF 0
ENDMDL
