MODEL 1
REMARK minimizedAffinity 22.7955666
REMARK minimizedRMSD -1
REMARK  0 active torsions:
REMARK  status: ('A' for Active; 'I' for Inactive)
ROOT
ATOM      1  C2' OXE d   1      -5.974  -2.997   5.955  0.00  0.00     0.078 C 
ATOM      2  C1' OXE d   1      -5.996  -0.253   5.366  0.00  0.00     0.078 C 
ATOM      3  C1  OXE d   1      -4.672  -0.974   5.309  0.00  0.00    -0.078 A 
ATOM      4  C2  OXE d   1      -4.663  -2.306   5.644  0.00  0.00    -0.078 A 
ATOM      5  C3  OXE d   1      -3.479  -3.032   5.556  0.00  0.00     0.003 A 
ATOM      6  C4  OXE d   1      -2.269  -2.383   5.278  0.00  0.00    -0.002 A 
ATOM      7  C5  OXE d   1      -2.250  -1.018   4.972  0.00  0.00    -0.002 A 
ATOM      8  C6  OXE d   1      -3.446  -0.309   4.942  0.00  0.00     0.003 A 
ENDROOT
TORSDOF 0
ENDMDL
