MODEL 1
REMARK minimizedAffinity 8.24553204
REMARK minimizedRMSD -1
REMARK  0 active torsions:
REMARK  status: ('A' for Active; 'I' for Inactive)
ROOT
ATOM      1  C2' OXE d   1      -4.690   1.125   5.987  0.00  0.00     0.078 C 
ATOM      2  C1' OXE d   1      -2.299   1.436   4.550  0.00  0.00     0.078 C 
ATOM      3  C1  OXE d   1      -2.715   0.037   4.928  0.00  0.00    -0.078 A 
ATOM      4  C2  OXE d   1      -3.863  -0.102   5.671  0.00  0.00    -0.078 A 
ATOM      5  C3  OXE d   1      -4.321  -1.375   6.000  0.00  0.00     0.003 A 
ATOM      6  C4  OXE d   1      -3.545  -2.504   5.713  0.00  0.00    -0.002 A 
ATOM      7  C5  OXE d   1      -2.353  -2.381   4.991  0.00  0.00    -0.002 A 
ATOM      8  C6  OXE d   1      -1.947  -1.125   4.555  0.00  0.00     0.003 A 
ENDROOT
TORSDOF 0
ENDMDL
