MODEL 1
REMARK minimizedAffinity 1.59621561
REMARK minimizedRMSD -1
REMARK  0 active torsions:
REMARK  status: ('A' for Active; 'I' for Inactive)
ROOT
ATOM      1  C2' OXE d   1       2.633  -2.354  -3.721  0.00  0.00     0.078 C 
ATOM      2  C1' OXE d   1       5.270  -1.393  -3.666  0.00  0.00     0.078 C 
ATOM      3  C1  OXE d   1       4.982  -2.610  -4.509  0.00  0.00    -0.078 A 
ATOM      4  C2  OXE d   1       3.699  -3.101  -4.493  0.00  0.00    -0.078 A 
ATOM      5  C3  OXE d   1       3.366  -4.188  -5.296  0.00  0.00     0.003 A 
ATOM      6  C4  OXE d   1       4.360  -4.880  -6.000  0.00  0.00    -0.002 A 
ATOM      7  C5  OXE d   1       5.681  -4.420  -5.998  0.00  0.00    -0.002 A 
ATOM      8  C6  OXE d   1       6.000  -3.265  -5.294  0.00  0.00     0.003 A 
ENDROOT
TORSDOF 0
ENDMDL
