MODEL 1
REMARK minimizedAffinity 11.5975199
REMARK minimizedRMSD -1
REMARK  0 active torsions:
REMARK  status: ('A' for Active; 'I' for Inactive)
ROOT
ATOM      1  C2' OXE d   1       2.392  -1.527   5.509  0.00  0.00     0.078 C 
ATOM      2  C1' OXE d   1       5.015  -0.616   5.926  0.00  0.00     0.078 C 
ATOM      3  C1  OXE d   1       4.788  -2.107   5.870  0.00  0.00    -0.078 A 
ATOM      4  C2  OXE d   1       3.495  -2.544   5.712  0.00  0.00    -0.078 A 
ATOM      5  C3  OXE d   1       3.237  -3.907   5.599  0.00  0.00     0.003 A 
ATOM      6  C4  OXE d   1       4.261  -4.841   5.798  0.00  0.00    -0.002 A 
ATOM      7  C5  OXE d   1       5.579  -4.417   6.000  0.00  0.00    -0.002 A 
ATOM      8  C6  OXE d   1       5.865  -3.057   5.996  0.00  0.00     0.003 A 
ENDROOT
TORSDOF 0
ENDMDL
