MODEL 1
REMARK minimizedAffinity 12.9846983
REMARK minimizedRMSD -1
REMARK  0 active torsions:
REMARK  status: ('A' for Active; 'I' for Inactive)
ROOT
ATOM      1  C2' OXE d   1      -3.432   3.270  -0.368  0.00  0.00     0.078 C 
ATOM      2  C1' OXE d   1      -2.335   0.930   0.728  0.00  0.00     0.078 C 
ATOM      3  C1  OXE d   1      -1.522   2.197   0.819  0.00  0.00    -0.078 A 
ATOM      4  C2  OXE d   1      -2.047   3.327   0.239  0.00  0.00    -0.078 A 
ATOM      5  C3  OXE d   1      -1.364   4.536   0.343  0.00  0.00     0.003 A 
ATOM      6  C4  OXE d   1      -0.079   4.578   0.898  0.00  0.00    -0.002 A 
ATOM      7  C5  OXE d   1       0.491   3.430   1.459  0.00  0.00    -0.002 A 
ATOM      8  C6  OXE d   1      -0.234   2.244   1.466  0.00  0.00     0.003 A 
ENDROOT
TORSDOF 0
ENDMDL
