MODEL 1
REMARK minimizedAffinity 3.54179788
REMARK minimizedRMSD -1
REMARK  0 active torsions:
REMARK  status: ('A' for Active; 'I' for Inactive)
ROOT
ATOM      1  C2' OXE d   1       5.991   5.081  -1.558  0.00  0.00     0.078 C 
ATOM      2  C1' OXE d   1       5.989   3.352  -3.770  0.00  0.00     0.078 C 
ATOM      3  C1  OXE d   1       4.797   4.257  -3.583  0.00  0.00    -0.078 A 
ATOM      4  C2  OXE d   1       4.785   5.067  -2.473  0.00  0.00    -0.078 A 
ATOM      5  C3  OXE d   1       3.735   5.960  -2.282  0.00  0.00     0.003 A 
ATOM      6  C4  OXE d   1       2.619   5.933  -3.127  0.00  0.00    -0.002 A 
ATOM      7  C5  OXE d   1       2.593   5.088  -4.241  0.00  0.00    -0.002 A 
ATOM      8  C6  OXE d   1       3.690   4.276  -4.507  0.00  0.00     0.003 A 
ENDROOT
TORSDOF 0
ENDMDL
