MODEL 1
REMARK minimizedAffinity 0.770964563
REMARK minimizedRMSD -1
REMARK  0 active torsions:
REMARK  status: ('A' for Active; 'I' for Inactive)
ROOT
ATOM      1  C2' OXE d   1       2.379   5.635  -2.617  0.00  0.00     0.078 C 
ATOM      2  C1' OXE d   1       4.730   6.000  -1.127  0.00  0.00     0.078 C 
ATOM      3  C1  OXE d   1       4.787   5.073  -2.315  0.00  0.00    -0.078 A 
ATOM      4  C2  OXE d   1       3.620   4.864  -3.011  0.00  0.00    -0.078 A 
ATOM      5  C3  OXE d   1       3.630   4.062  -4.149  0.00  0.00     0.003 A 
ATOM      6  C4  OXE d   1       4.780   3.345  -4.500  0.00  0.00    -0.002 A 
ATOM      7  C5  OXE d   1       5.969   3.512  -3.781  0.00  0.00    -0.002 A 
ATOM      8  C6  OXE d   1       6.000   4.403  -2.714  0.00  0.00     0.003 A 
ENDROOT
TORSDOF 0
ENDMDL
