MODEL 1
REMARK minimizedAffinity 3.10110283
REMARK minimizedRMSD -1
REMARK  0 active torsions:
REMARK  status: ('A' for Active; 'I' for Inactive)
ROOT
ATOM      1  C2' OXE d   1       0.077  -2.419  -2.391  0.00  0.00     0.078 C 
ATOM      2  C1' OXE d   1       0.468  -2.435   0.389  0.00  0.00     0.078 C 
ATOM      3  C1  OXE d   1      -0.937  -2.626  -0.125  0.00  0.00    -0.078 A 
ATOM      4  C2  OXE d   1      -1.126  -2.570  -1.485  0.00  0.00    -0.078 A 
ATOM      5  C3  OXE d   1      -2.393  -2.795  -2.015  0.00  0.00     0.003 A 
ATOM      6  C4  OXE d   1      -3.502  -2.925  -1.170  0.00  0.00    -0.002 A 
ATOM      7  C5  OXE d   1      -3.337  -2.944   0.219  0.00  0.00    -0.002 A 
ATOM      8  C6  OXE d   1      -2.059  -2.839   0.755  0.00  0.00     0.003 A 
ENDROOT
TORSDOF 0
ENDMDL
