MODEL 1
REMARK minimizedAffinity -1.44579411
REMARK minimizedRMSD -1
REMARK  0 active torsions:
REMARK  status: ('A' for Active; 'I' for Inactive)
ROOT
ATOM      1  C2' OXE d   1      -0.490  -2.397   0.156  0.00  0.00     0.078 C 
ATOM      2  C1' OXE d   1      -1.326  -0.083   1.506  0.00  0.00     0.078 C 
ATOM      3  C1  OXE d   1      -0.490   0.091   0.262  0.00  0.00    -0.078 A 
ATOM      4  C2  OXE d   1      -0.046  -1.048  -0.366  0.00  0.00    -0.078 A 
ATOM      5  C3  OXE d   1       0.682  -0.944  -1.547  0.00  0.00     0.003 A 
ATOM      6  C4  OXE d   1       1.097   0.308  -2.017  0.00  0.00    -0.002 A 
ATOM      7  C5  OXE d   1       0.689   1.479  -1.370  0.00  0.00    -0.002 A 
ATOM      8  C6  OXE d   1      -0.138   1.390  -0.256  0.00  0.00     0.003 A 
ENDROOT
TORSDOF 0
ENDMDL
