MODEL 1
REMARK minimizedAffinity 6.39243269
REMARK minimizedRMSD -1
REMARK  0 active torsions:
REMARK  status: ('A' for Active; 'I' for Inactive)
ROOT
ATOM      1  C2' OXE d   1      -3.312   4.518   5.187  0.00  0.00     0.078 C 
ATOM      2  C1' OXE d   1      -5.111   5.997   3.619  0.00  0.00     0.078 C 
ATOM      3  C1  OXE d   1      -3.780   5.635   3.010  0.00  0.00    -0.078 A 
ATOM      4  C2  OXE d   1      -2.887   4.952   3.800  0.00  0.00    -0.078 A 
ATOM      5  C3  OXE d   1      -1.666   4.546   3.269  0.00  0.00     0.003 A 
ATOM      6  C4  OXE d   1      -1.277   4.959   1.989  0.00  0.00    -0.002 A 
ATOM      7  C5  OXE d   1      -2.156   5.690   1.182  0.00  0.00    -0.002 A 
ATOM      8  C6  OXE d   1      -3.424   5.999   1.660  0.00  0.00     0.003 A 
ENDROOT
TORSDOF 0
ENDMDL
