MODEL 1
REMARK minimizedAffinity -3.06757617
REMARK minimizedRMSD -1
REMARK  0 active torsions:
REMARK  status: ('A' for Active; 'I' for Inactive)
ROOT
ATOM      1  C   UNL d   1       0.995  -1.151   1.333  0.00  0.00     0.124 A 
ATOM      2  C1  UNL d   1       1.635  -1.000   0.111  0.00  0.00     0.062 A 
ATOM      3  C2  UNL d   1       1.029  -0.277  -0.912  0.00  0.00     0.162 A 
ATOM      4  C3  UNL d   1      -0.225   0.303  -0.717  0.00  0.00    -0.034 A 
ATOM      5  C4  UNL d   1      -0.863   0.146   0.515  0.00  0.00     0.162 A 
ATOM      6  C5  UNL d   1      -0.253  -0.578   1.534  0.00  0.00     0.062 A 
ATOM      7  F   UNL d   1      -0.873  -0.722   2.714  0.00  0.00    -0.097 F 
ATOM      8  F1  UNL d   1      -2.069   0.691   0.736  0.00  0.00    -0.096 F 
ATOM      9  I   UNL d   1      -1.135   1.386  -2.244  0.00  0.00    -0.060 I 
ATOM     10  F2  UNL d   1       1.670  -0.147  -2.083  0.00  0.00    -0.096 F 
ATOM     11  F3  UNL d   1       2.840  -1.554  -0.086  0.00  0.00    -0.097 F 
ATOM     12  F4  UNL d   1       1.580  -1.848   2.315  0.00  0.00    -0.092 F 
ENDROOT
TORSDOF 0
ENDMDL
