MODEL 1
REMARK minimizedAffinity -1.73207843
REMARK minimizedRMSD -1
REMARK  0 active torsions:
REMARK  status: ('A' for Active; 'I' for Inactive)
ROOT
ATOM      1  C   UNL d   1       0.655  -1.521   1.017  0.00  0.00     0.124 A 
ATOM      2  C1  UNL d   1       1.085  -1.558  -0.302  0.00  0.00     0.062 A 
ATOM      3  C2  UNL d   1       0.521  -0.705  -1.246  0.00  0.00     0.162 A 
ATOM      4  C3  UNL d   1      -0.479   0.194  -0.875  0.00  0.00    -0.034 A 
ATOM      5  C4  UNL d   1      -0.907   0.225   0.454  0.00  0.00     0.162 A 
ATOM      6  C5  UNL d   1      -0.340  -0.630   1.394  0.00  0.00     0.062 A 
ATOM      7  F   UNL d   1      -0.757  -0.593   2.668  0.00  0.00    -0.097 F 
ATOM      8  F1  UNL d   1      -1.866   1.076   0.845  0.00  0.00    -0.096 F 
ATOM      9  I   UNL d   1      -1.324   1.472  -2.283  0.00  0.00    -0.060 I 
ATOM     10  F2  UNL d   1       0.956  -0.762  -2.514  0.00  0.00    -0.096 F 
ATOM     11  F3  UNL d   1       2.045  -2.418  -0.669  0.00  0.00    -0.097 F 
ATOM     12  F4  UNL d   1       1.198  -2.344   1.923  0.00  0.00    -0.092 F 
ENDROOT
TORSDOF 0
ENDMDL
