MODEL 1
REMARK minimizedAffinity -0.694713473
REMARK minimizedRMSD -1
REMARK  0 active torsions:
REMARK  status: ('A' for Active; 'I' for Inactive)
ROOT
ATOM      1  C   UNL d   1      -1.116   0.140   2.284  0.00  0.00     0.124 A 
ATOM      2  C1  UNL d   1      -0.856   0.883   1.141  0.00  0.00     0.062 A 
ATOM      3  C2  UNL d   1       0.218   0.553   0.321  0.00  0.00     0.162 A 
ATOM      4  C3  UNL d   1       1.041  -0.527   0.639  0.00  0.00    -0.034 A 
ATOM      5  C4  UNL d   1       0.774  -1.270   1.790  0.00  0.00     0.162 A 
ATOM      6  C5  UNL d   1      -0.301  -0.936   2.607  0.00  0.00     0.062 A 
ATOM      7  F   UNL d   1      -0.550  -1.656   3.711  0.00  0.00    -0.097 F 
ATOM      8  F1  UNL d   1       1.545  -2.315   2.126  0.00  0.00    -0.096 F 
ATOM      9  I   UNL d   1       2.649  -1.024  -0.586  0.00  0.00    -0.060 I 
ATOM     10  F2  UNL d   1       0.446   1.290  -0.777  0.00  0.00    -0.096 F 
ATOM     11  F3  UNL d   1      -1.642   1.924   0.827  0.00  0.00    -0.097 F 
ATOM     12  F4  UNL d   1      -2.150   0.460   3.073  0.00  0.00    -0.092 F 
ENDROOT
TORSDOF 0
ENDMDL
