MODEL 1
REMARK minimizedAffinity 2.72073889
REMARK minimizedRMSD -1
REMARK  0 active torsions:
REMARK  status: ('A' for Active; 'I' for Inactive)
ROOT
ATOM      1  C   UNL d   1       0.414  -1.229   1.459  0.00  0.00     0.124 A 
ATOM      2  C1  UNL d   1      -0.886  -0.745   1.498  0.00  0.00     0.062 A 
ATOM      3  C2  UNL d   1      -1.414  -0.068   0.403  0.00  0.00     0.162 A 
ATOM      4  C3  UNL d   1      -0.642   0.128  -0.742  0.00  0.00    -0.034 A 
ATOM      5  C4  UNL d   1       0.665  -0.360  -0.774  0.00  0.00     0.162 A 
ATOM      6  C5  UNL d   1       1.189  -1.036   0.324  0.00  0.00     0.062 A 
ATOM      7  F   UNL d   1       2.445  -1.503   0.284  0.00  0.00    -0.097 F 
ATOM      8  F1  UNL d   1       1.435  -0.189  -1.859  0.00  0.00    -0.096 F 
ATOM      9  I   UNL d   1      -1.428   1.140  -2.383  0.00  0.00    -0.060 I 
ATOM     10  F2  UNL d   1      -2.673   0.389   0.468  0.00  0.00    -0.096 F 
ATOM     11  F3  UNL d   1      -1.636  -0.928   2.594  0.00  0.00    -0.097 F 
ATOM     12  F4  UNL d   1       0.920  -1.879   2.515  0.00  0.00    -0.092 F 
ENDROOT
TORSDOF 0
ENDMDL
