MODEL 1
REMARK minimizedAffinity 1.92422974
REMARK minimizedRMSD -1
REMARK  0 active torsions:
REMARK  status: ('A' for Active; 'I' for Inactive)
ROOT
ATOM      1  C   UNL d   1       0.933  -1.054   1.472  0.00  0.00     0.124 A 
ATOM      2  C1  UNL d   1       1.523  -0.883   0.227  0.00  0.00     0.062 A 
ATOM      3  C2  UNL d   1       0.878  -0.140  -0.757  0.00  0.00     0.162 A 
ATOM      4  C3  UNL d   1      -0.365   0.440  -0.501  0.00  0.00    -0.034 A 
ATOM      5  C4  UNL d   1      -0.952   0.263   0.753  0.00  0.00     0.162 A 
ATOM      6  C5  UNL d   1      -0.303  -0.481   1.734  0.00  0.00     0.062 A 
ATOM      7  F   UNL d   1      -0.875  -0.645   2.936  0.00  0.00    -0.097 F 
ATOM      8  F1  UNL d   1      -2.146   0.806   1.034  0.00  0.00    -0.096 F 
ATOM      9  I   UNL d   1      -1.332   1.552  -1.970  0.00  0.00    -0.060 I 
ATOM     10  F2  UNL d   1       1.471   0.009  -1.951  0.00  0.00    -0.096 F 
ATOM     11  F3  UNL d   1       2.717  -1.437  -0.029  0.00  0.00    -0.097 F 
ATOM     12  F4  UNL d   1       1.555  -1.771   2.416  0.00  0.00    -0.092 F 
ENDROOT
TORSDOF 0
ENDMDL
