MODEL 1
REMARK minimizedAffinity -0.787982047
REMARK minimizedRMSD -1
REMARK  0 active torsions:
REMARK  status: ('A' for Active; 'I' for Inactive)
ROOT
ATOM      1  C   UNL d   1       0.763  -1.246   1.217  0.00  0.00     0.124 A 
ATOM      2  C1  UNL d   1      -0.392  -0.573   1.589  0.00  0.00     0.062 A 
ATOM      3  C2  UNL d   1      -1.033   0.271   0.686  0.00  0.00     0.162 A 
ATOM      4  C3  UNL d   1      -0.520   0.445  -0.600  0.00  0.00    -0.034 A 
ATOM      5  C4  UNL d   1       0.643  -0.235  -0.967  0.00  0.00     0.162 A 
ATOM      6  C5  UNL d   1       1.279  -1.077  -0.060  0.00  0.00     0.062 A 
ATOM      7  F   UNL d   1       2.395  -1.726  -0.422  0.00  0.00    -0.097 F 
ATOM      8  F1  UNL d   1       1.163  -0.091  -2.194  0.00  0.00    -0.096 F 
ATOM      9  I   UNL d   1      -1.475   1.705  -1.953  0.00  0.00    -0.060 I 
ATOM     10  F2  UNL d   1      -2.147   0.909   1.073  0.00  0.00    -0.096 F 
ATOM     11  F3  UNL d   1      -0.892  -0.734   2.823  0.00  0.00    -0.097 F 
ATOM     12  F4  UNL d   1       1.378  -2.056   2.088  0.00  0.00    -0.092 F 
ENDROOT
TORSDOF 0
ENDMDL
