MODEL 1
REMARK minimizedAffinity 13.3373995
REMARK minimizedRMSD -1
REMARK  0 active torsions:
REMARK  status: ('A' for Active; 'I' for Inactive)
ROOT
ATOM      1  C   UNL d   1      -4.217   2.445  -1.919  0.00  0.00     0.124 A 
ATOM      2  C1  UNL d   1      -3.239   2.263  -2.887  0.00  0.00     0.062 A 
ATOM      3  C2  UNL d   1      -2.324   3.277  -3.156  0.00  0.00     0.162 A 
ATOM      4  C3  UNL d   1      -2.382   4.481  -2.456  0.00  0.00    -0.034 A 
ATOM      5  C4  UNL d   1      -3.369   4.658  -1.484  0.00  0.00     0.162 A 
ATOM      6  C5  UNL d   1      -4.281   3.642  -1.219  0.00  0.00     0.062 A 
ATOM      7  F   UNL d   1      -5.226   3.819  -0.283  0.00  0.00    -0.097 F 
ATOM      8  F1  UNL d   1      -3.453   5.803  -0.792  0.00  0.00    -0.096 F 
ATOM      9  I   UNL d   1      -1.015   5.999  -2.855  0.00  0.00    -0.060 I 
ATOM     10  F2  UNL d   1      -1.389   3.073  -4.096  0.00  0.00    -0.096 F 
ATOM     11  F3  UNL d   1      -3.176   1.108  -3.565  0.00  0.00    -0.097 F 
ATOM     12  F4  UNL d   1      -5.097   1.469  -1.662  0.00  0.00    -0.092 F 
ENDROOT
TORSDOF 0
ENDMDL
