MODEL 1
REMARK minimizedAffinity 11.0950756
REMARK minimizedRMSD -1
REMARK  0 active torsions:
REMARK  status: ('A' for Active; 'I' for Inactive)
ROOT
ATOM      1  C   UNL d   1      -1.514   2.702  -3.141  0.00  0.00     0.124 A 
ATOM      2  C1  UNL d   1      -0.894   3.185  -1.997  0.00  0.00     0.062 A 
ATOM      3  C2  UNL d   1      -0.871   2.417  -0.837  0.00  0.00     0.162 A 
ATOM      4  C3  UNL d   1      -1.469   1.157  -0.814  0.00  0.00    -0.034 A 
ATOM      5  C4  UNL d   1      -2.092   0.679  -1.969  0.00  0.00     0.162 A 
ATOM      6  C5  UNL d   1      -2.113   1.450  -3.126  0.00  0.00     0.062 A 
ATOM      7  F   UNL d   1      -2.713   0.983  -4.230  0.00  0.00    -0.097 F 
ATOM      8  F1  UNL d   1      -2.677  -0.528  -1.982  0.00  0.00    -0.096 F 
ATOM      9  I   UNL d   1      -1.437   0.005   0.919  0.00  0.00    -0.060 I 
ATOM     10  F2  UNL d   1      -0.264   2.908   0.254  0.00  0.00    -0.096 F 
ATOM     11  F3  UNL d   1      -0.316   4.395  -2.009  0.00  0.00    -0.097 F 
ATOM     12  F4  UNL d   1      -1.536   3.444  -4.256  0.00  0.00    -0.092 F 
ENDROOT
TORSDOF 0
ENDMDL
