MODEL 1
REMARK minimizedAffinity 0.336372882
REMARK minimizedRMSD -1
REMARK  0 active torsions:
REMARK  status: ('A' for Active; 'I' for Inactive)
ROOT
ATOM      1  C   UNL d   1       0.853  -1.749   1.767  0.00  0.00     0.124 A 
ATOM      2  C1  UNL d   1       1.441  -1.495   0.536  0.00  0.00     0.062 A 
ATOM      3  C2  UNL d   1       0.846  -0.605  -0.354  0.00  0.00     0.162 A 
ATOM      4  C3  UNL d   1      -0.344   0.038  -0.015  0.00  0.00    -0.034 A 
ATOM      5  C4  UNL d   1      -0.931  -0.224   1.224  0.00  0.00     0.162 A 
ATOM      6  C5  UNL d   1      -0.332  -1.114   2.110  0.00  0.00     0.062 A 
ATOM      7  F   UNL d   1      -0.903  -1.359   3.299  0.00  0.00    -0.097 F 
ATOM      8  F1  UNL d   1      -2.076   0.377   1.581  0.00  0.00    -0.096 F 
ATOM      9  I   UNL d   1      -1.237   1.369  -1.343  0.00  0.00    -0.060 I 
ATOM     10  F2  UNL d   1       1.437  -0.378  -1.536  0.00  0.00    -0.096 F 
ATOM     11  F3  UNL d   1       2.586  -2.108   0.202  0.00  0.00    -0.097 F 
ATOM     12  F4  UNL d   1       1.427  -2.607   2.621  0.00  0.00    -0.092 F 
ENDROOT
TORSDOF 0
ENDMDL
