MODEL 1
REMARK minimizedAffinity 14.0831289
REMARK minimizedRMSD -1
REMARK  0 active torsions:
REMARK  status: ('A' for Active; 'I' for Inactive)
ROOT
ATOM      1  C   UNL d   1       2.924  -0.771   0.868  0.00  0.00     0.124 A 
ATOM      2  C1  UNL d   1       2.373  -0.045  -0.179  0.00  0.00     0.062 A 
ATOM      3  C2  UNL d   1       1.015   0.260  -0.181  0.00  0.00     0.162 A 
ATOM      4  C3  UNL d   1       0.198  -0.161   0.869  0.00  0.00    -0.034 A 
ATOM      5  C4  UNL d   1       0.759  -0.892   1.918  0.00  0.00     0.162 A 
ATOM      6  C5  UNL d   1       2.117  -1.193   1.915  0.00  0.00     0.062 A 
ATOM      7  F   UNL d   1       2.648  -1.895   2.927  0.00  0.00    -0.097 F 
ATOM      8  F1  UNL d   1       0.002  -1.312   2.942  0.00  0.00    -0.096 F 
ATOM      9  I   UNL d   1      -1.833   0.292   0.869  0.00  0.00    -0.060 I 
ATOM     10  F2  UNL d   1       0.510   0.963  -1.205  0.00  0.00    -0.096 F 
ATOM     11  F3  UNL d   1       3.151   0.364  -1.192  0.00  0.00    -0.097 F 
ATOM     12  F4  UNL d   1       4.231  -1.063   0.867  0.00  0.00    -0.092 F 
ENDROOT
TORSDOF 0
ENDMDL
