MODEL 1
REMARK minimizedAffinity 0.682132781
REMARK minimizedRMSD -1
REMARK  0 active torsions:
REMARK  status: ('A' for Active; 'I' for Inactive)
ROOT
ATOM      1  C   UNL d   1      -3.335  -5.826  -2.620  0.00  0.00     0.124 A 
ATOM      2  C1  UNL d   1      -2.223  -5.724  -1.795  0.00  0.00     0.062 A 
ATOM      3  C2  UNL d   1      -2.377  -5.696  -0.412  0.00  0.00     0.162 A 
ATOM      4  C3  UNL d   1      -3.648  -5.772   0.156  0.00  0.00    -0.034 A 
ATOM      5  C4  UNL d   1      -4.762  -5.873  -0.680  0.00  0.00     0.162 A 
ATOM      6  C5  UNL d   1      -4.603  -5.900  -2.061  0.00  0.00     0.062 A 
ATOM      7  F   UNL d   1      -5.679  -5.999  -2.856  0.00  0.00    -0.097 F 
ATOM      8  F1  UNL d   1      -5.999  -5.948  -0.167  0.00  0.00    -0.096 F 
ATOM      9  I   UNL d   1      -3.883  -5.731   2.223  0.00  0.00    -0.060 I 
ATOM     10  F2  UNL d   1      -1.285  -5.597   0.360  0.00  0.00    -0.096 F 
ATOM     11  F3  UNL d   1      -0.997  -5.651  -2.333  0.00  0.00    -0.097 F 
ATOM     12  F4  UNL d   1      -3.184  -5.851  -3.950  0.00  0.00    -0.092 F 
ENDROOT
TORSDOF 0
ENDMDL
