MODEL 1
REMARK minimizedAffinity -0.450452864
REMARK minimizedRMSD -1
REMARK  0 active torsions:
REMARK  status: ('A' for Active; 'I' for Inactive)
ROOT
ATOM      1  C   UNL d   1       1.530  -0.647  -0.993  0.00  0.00     0.124 A 
ATOM      2  C1  UNL d   1       0.959   0.168  -0.025  0.00  0.00     0.062 A 
ATOM      3  C2  UNL d   1      -0.135   0.969  -0.341  0.00  0.00     0.162 A 
ATOM      4  C3  UNL d   1      -0.665   0.960  -1.631  0.00  0.00    -0.034 A 
ATOM      5  C4  UNL d   1      -0.085   0.139  -2.600  0.00  0.00     0.162 A 
ATOM      6  C5  UNL d   1       1.008  -0.661  -2.279  0.00  0.00     0.062 A 
ATOM      7  F   UNL d   1       1.559  -1.447  -3.216  0.00  0.00    -0.097 F 
ATOM      8  F1  UNL d   1      -0.569   0.105  -3.850  0.00  0.00    -0.096 F 
ATOM      9  I   UNL d   1      -2.300   2.157  -2.107  0.00  0.00    -0.060 I 
ATOM     10  F2  UNL d   1      -0.666   1.746   0.614  0.00  0.00    -0.096 F 
ATOM     11  F3  UNL d   1       1.462   0.183   1.217  0.00  0.00    -0.097 F 
ATOM     12  F4  UNL d   1       2.582  -1.416  -0.687  0.00  0.00    -0.092 F 
ENDROOT
TORSDOF 0
ENDMDL
