MODEL 1
REMARK minimizedAffinity -2.39162564
REMARK minimizedRMSD -1
REMARK  0 active torsions:
REMARK  status: ('A' for Active; 'I' for Inactive)
ROOT
ATOM      1  C   UNL d   1      -1.597   1.169  -2.770  0.00  0.00     0.124 A 
ATOM      2  C1  UNL d   1      -1.316   1.719  -1.527  0.00  0.00     0.062 A 
ATOM      3  C2  UNL d   1      -0.360   1.134  -0.703  0.00  0.00     0.162 A 
ATOM      4  C3  UNL d   1       0.324  -0.009  -1.119  0.00  0.00    -0.034 A 
ATOM      5  C4  UNL d   1       0.035  -0.557  -2.370  0.00  0.00     0.162 A 
ATOM      6  C5  UNL d   1      -0.921   0.032  -3.190  0.00  0.00     0.062 A 
ATOM      7  F   UNL d   1      -1.192  -0.501  -4.391  0.00  0.00    -0.097 F 
ATOM      8  F1  UNL d   1       0.674  -1.655  -2.801  0.00  0.00    -0.096 F 
ATOM      9  I   UNL d   1       1.755  -0.887   0.111  0.00  0.00    -0.060 I 
ATOM     10  F2  UNL d   1      -0.109   1.687   0.493  0.00  0.00    -0.096 F 
ATOM     11  F3  UNL d   1      -1.968   2.817  -1.119  0.00  0.00    -0.097 F 
ATOM     12  F4  UNL d   1      -2.518   1.734  -3.561  0.00  0.00    -0.092 F 
ENDROOT
TORSDOF 0
ENDMDL
