MODEL 1
REMARK minimizedAffinity 2.61263776
REMARK minimizedRMSD -1
REMARK  0 active torsions:
REMARK  status: ('A' for Active; 'I' for Inactive)
ROOT
ATOM      1  C   UNL d   1       1.171  -0.631  -0.966  0.00  0.00     0.124 A 
ATOM      2  C1  UNL d   1       0.534   0.103   0.025  0.00  0.00     0.062 A 
ATOM      3  C2  UNL d   1      -0.502   0.972  -0.304  0.00  0.00     0.162 A 
ATOM      4  C3  UNL d   1      -0.908   1.112  -1.632  0.00  0.00    -0.034 A 
ATOM      5  C4  UNL d   1      -0.262   0.372  -2.623  0.00  0.00     0.162 A 
ATOM      6  C5  UNL d   1       0.773  -0.496  -2.288  0.00  0.00     0.062 A 
ATOM      7  F   UNL d   1       1.388  -1.204  -3.247  0.00  0.00    -0.097 F 
ATOM      8  F1  UNL d   1      -0.627   0.482  -3.909  0.00  0.00    -0.096 F 
ATOM      9  I   UNL d   1      -2.457   2.411  -2.128  0.00  0.00    -0.060 I 
ATOM     10  F2  UNL d   1      -1.100   1.669   0.674  0.00  0.00    -0.096 F 
ATOM     11  F3  UNL d   1       0.917  -0.025   1.304  0.00  0.00    -0.097 F 
ATOM     12  F4  UNL d   1       2.168  -1.466  -0.646  0.00  0.00    -0.092 F 
ENDROOT
TORSDOF 0
ENDMDL
