MODEL 1
REMARK minimizedAffinity -0.871592164
REMARK minimizedRMSD -1
REMARK  0 active torsions:
REMARK  status: ('A' for Active; 'I' for Inactive)
ROOT
ATOM      1  C   UNL d   1       0.646  -1.401   1.431  0.00  0.00     0.124 A 
ATOM      2  C1  UNL d   1       1.309  -1.242   0.222  0.00  0.00     0.062 A 
ATOM      3  C2  UNL d   1       0.851  -0.316  -0.710  0.00  0.00     0.162 A 
ATOM      4  C3  UNL d   1      -0.275   0.461  -0.437  0.00  0.00    -0.034 A 
ATOM      5  C4  UNL d   1      -0.937   0.295   0.781  0.00  0.00     0.162 A 
ATOM      6  C5  UNL d   1      -0.476  -0.633   1.710  0.00  0.00     0.062 A 
ATOM      7  F   UNL d   1      -1.117  -0.784   2.877  0.00  0.00    -0.097 F 
ATOM      8  F1  UNL d   1      -2.022   1.025   1.076  0.00  0.00    -0.096 F 
ATOM      9  I   UNL d   1      -0.962   1.847  -1.829  0.00  0.00    -0.060 I 
ATOM     10  F2  UNL d   1       1.511  -0.183  -1.871  0.00  0.00    -0.096 F 
ATOM     11  F3  UNL d   1       2.392  -1.984  -0.049  0.00  0.00    -0.097 F 
ATOM     12  F4  UNL d   1       1.088  -2.294   2.326  0.00  0.00    -0.092 F 
ENDROOT
TORSDOF 0
ENDMDL
