MODEL 1
REMARK minimizedAffinity 1.52504408
REMARK minimizedRMSD -1
REMARK  0 active torsions:
REMARK  status: ('A' for Active; 'I' for Inactive)
ROOT
ATOM      1  C   UNL d   1       0.809  -1.260   1.234  0.00  0.00     0.124 A 
ATOM      2  C1  UNL d   1       1.378  -0.844   0.038  0.00  0.00     0.062 A 
ATOM      3  C2  UNL d   1       0.688   0.030  -0.798  0.00  0.00     0.162 A 
ATOM      4  C3  UNL d   1      -0.577   0.495  -0.441  0.00  0.00    -0.034 A 
ATOM      5  C4  UNL d   1      -1.143   0.071   0.763  0.00  0.00     0.162 A 
ATOM      6  C5  UNL d   1      -0.450  -0.802   1.595  0.00  0.00     0.062 A 
ATOM      7  F   UNL d   1      -1.001  -1.203   2.750  0.00  0.00    -0.097 F 
ATOM      8  F1  UNL d   1      -2.358   0.498   1.137  0.00  0.00    -0.096 F 
ATOM      9  I   UNL d   1      -1.611   1.801  -1.689  0.00  0.00    -0.060 I 
ATOM     10  F2  UNL d   1       1.262   0.415  -1.948  0.00  0.00    -0.096 F 
ATOM     11  F3  UNL d   1       2.594  -1.285  -0.314  0.00  0.00    -0.097 F 
ATOM     12  F4  UNL d   1       1.474  -2.101   2.036  0.00  0.00    -0.092 F 
ENDROOT
TORSDOF 0
ENDMDL
