MODEL 1
REMARK minimizedAffinity 16.5294647
REMARK minimizedRMSD -1
REMARK  0 active torsions:
REMARK  status: ('A' for Active; 'I' for Inactive)
ROOT
ATOM      1  C   UNL d   1      -1.333   1.321   0.244  0.00  0.00     0.124 A 
ATOM      2  C1  UNL d   1       0.007   1.630   0.053  0.00  0.00     0.062 A 
ATOM      3  C2  UNL d   1       0.419   2.268  -1.113  0.00  0.00     0.162 A 
ATOM      4  C3  UNL d   1      -0.510   2.603  -2.098  0.00  0.00    -0.034 A 
ATOM      5  C4  UNL d   1      -1.855   2.288  -1.900  0.00  0.00     0.162 A 
ATOM      6  C5  UNL d   1      -2.262   1.649  -0.733  0.00  0.00     0.062 A 
ATOM      7  F   UNL d   1      -3.557   1.351  -0.551  0.00  0.00    -0.097 F 
ATOM      8  F1  UNL d   1      -2.775   2.595  -2.827  0.00  0.00    -0.096 F 
ATOM      9  I   UNL d   1       0.102   3.558  -3.843  0.00  0.00    -0.060 I 
ATOM     10  F2  UNL d   1       1.720   2.555  -1.270  0.00  0.00    -0.096 F 
ATOM     11  F3  UNL d   1       0.907   1.312   0.995  0.00  0.00    -0.097 F 
ATOM     12  F4  UNL d   1      -1.726   0.705   1.366  0.00  0.00    -0.092 F 
ENDROOT
TORSDOF 0
ENDMDL
