MODEL 1
REMARK minimizedAffinity -3.69913626
REMARK minimizedRMSD -1
REMARK  1 active torsions:
REMARK  status: ('A' for Active; 'I' for Inactive)
REMARK    1  A    between atoms: C1_2  and  C2_3 
ROOT
ATOM      1  C2  UNL d   1       0.133  -0.487   0.544  0.00  0.00    -0.081 A 
ATOM      2  C3  UNL d   1       0.589  -0.462  -0.779  0.00  0.00     0.006 A 
ATOM      3  C4  UNL d   1       0.352   0.652  -1.589  0.00  0.00     0.002 A 
ATOM      4  C5  UNL d   1      -0.337   1.761  -1.086  0.00  0.00    -0.080 A 
ATOM      5  C6  UNL d   1      -0.572   2.975  -1.935  0.00  0.00     0.076 C 
ATOM      6  C7  UNL d   1      -0.808   1.729   0.231  0.00  0.00     0.002 A 
ATOM      7  C8  UNL d   1      -0.572   0.615   1.040  0.00  0.00     0.006 A 
ENDROOT
BRANCH   1   8
ATOM      8  C1  UNL d   1       0.443  -1.659   1.440  0.00  0.00     0.054 C 
ATOM      9  C   UNL d   1       1.825  -1.527   2.065  0.00  0.00     0.018 C 
ENDBRANCH   1   8
TORSDOF 1
ENDMDL
