MODEL 1
REMARK minimizedAffinity -1.29225004
REMARK minimizedRMSD -1
REMARK  1 active torsions:
REMARK  status: ('A' for Active; 'I' for Inactive)
REMARK    1  A    between atoms: C1_2  and  C2_3 
ROOT
ATOM      1  C2  UNL d   1       2.105   5.946   4.292  0.00  0.00    -0.081 A 
ATOM      2  C3  UNL d   1       2.139   5.969   2.892  0.00  0.00     0.006 A 
ATOM      3  C4  UNL d   1       3.359   5.999   2.213  0.00  0.00     0.002 A 
ATOM      4  C5  UNL d   1       4.566   5.999   2.922  0.00  0.00    -0.080 A 
ATOM      5  C6  UNL d   1       5.883   6.000   2.205  0.00  0.00     0.076 C 
ATOM      6  C7  UNL d   1       4.532   5.993   4.320  0.00  0.00     0.002 A 
ATOM      7  C8  UNL d   1       3.312   5.964   4.999  0.00  0.00     0.006 A 
ENDROOT
BRANCH   1   8
ATOM      8  C1  UNL d   1       0.792   5.849   5.025  0.00  0.00     0.054 C 
ATOM      9  C   UNL d   1       0.758   4.633   5.940  0.00  0.00     0.018 C 
ENDBRANCH   1   8
TORSDOF 1
ENDMDL
