MODEL 1
REMARK minimizedAffinity 5.7619772
REMARK minimizedRMSD -1
REMARK  1 active torsions:
REMARK  status: ('A' for Active; 'I' for Inactive)
REMARK    1  A    between atoms: C1_2  and  C2_3 
ROOT
ATOM      1  C2  UNL d   1       2.924   5.261   4.493  0.00  0.00    -0.081 A 
ATOM      2  C3  UNL d   1       2.410   5.997   3.419  0.00  0.00     0.006 A 
ATOM      3  C4  UNL d   1       2.726   5.646   2.104  0.00  0.00     0.002 A 
ATOM      4  C5  UNL d   1       3.553   4.549   1.841  0.00  0.00    -0.080 A 
ATOM      5  C6  UNL d   1       3.875   4.143   0.434  0.00  0.00     0.076 C 
ATOM      6  C7  UNL d   1       4.080   3.824   2.915  0.00  0.00     0.002 A 
ATOM      7  C8  UNL d   1       3.766   4.175   4.230  0.00  0.00     0.006 A 
ENDROOT
BRANCH   1   8
ATOM      8  C1  UNL d   1       2.533   5.597   5.910  0.00  0.00     0.054 C 
ATOM      9  C   UNL d   1       1.068   6.000   5.999  0.00  0.00     0.018 C 
ENDBRANCH   1   8
TORSDOF 1
ENDMDL
