MODEL 1
REMARK minimizedAffinity 3.86526322
REMARK minimizedRMSD -1
REMARK  1 active torsions:
REMARK  status: ('A' for Active; 'I' for Inactive)
REMARK    1  A    between atoms: C1_2  and  C2_3 
ROOT
ATOM      1  C2  UNL d   1       2.762   5.148   4.126  0.00  0.00    -0.081 A 
ATOM      2  C3  UNL d   1       3.733   5.708   3.287  0.00  0.00     0.006 A 
ATOM      3  C4  UNL d   1       4.358   4.931   2.310  0.00  0.00     0.002 A 
ATOM      4  C5  UNL d   1       4.018   3.583   2.149  0.00  0.00    -0.080 A 
ATOM      5  C6  UNL d   1       4.660   2.745   1.084  0.00  0.00     0.076 C 
ATOM      6  C7  UNL d   1       3.060   3.019   2.999  0.00  0.00     0.002 A 
ATOM      7  C8  UNL d   1       2.435   3.796   3.977  0.00  0.00     0.006 A 
ENDROOT
BRANCH   1   8
ATOM      8  C1  UNL d   1       2.039   6.000   5.138  0.00  0.00     0.054 C 
ATOM      9  C   UNL d   1       0.537   6.000   4.890  0.00  0.00     0.018 C 
ENDBRANCH   1   8
TORSDOF 1
ENDMDL
