MODEL 1
REMARK minimizedAffinity 13.0104876
REMARK minimizedRMSD -1
REMARK  1 active torsions:
REMARK  status: ('A' for Active; 'I' for Inactive)
REMARK    1  A    between atoms: C1_2  and  C2_3 
ROOT
ATOM      1  C2  UNL d   1      -1.971   2.346  -2.354  0.00  0.00    -0.073 A 
ATOM      2  C3  UNL d   1      -0.630   1.971  -2.490  0.00  0.00    -0.002 A 
ATOM      3  C4  UNL d   1       0.201   1.907  -1.371  0.00  0.00     0.004 A 
ATOM      4  C5  UNL d   1      -0.301   2.209  -0.105  0.00  0.00    -0.004 A 
ATOM      5  C6  UNL d   1      -1.642   2.575   0.053  0.00  0.00    -0.075 A 
ATOM      6  C7  UNL d   1      -2.197   2.906   1.407  0.00  0.00     0.076 C 
ATOM      7  C8  UNL d   1      -2.469   2.640  -1.077  0.00  0.00     0.001 A 
ENDROOT
BRANCH   1   8
ATOM      8  C1  UNL d   1      -2.874   2.411  -3.559  0.00  0.00     0.053 C 
ATOM      9  C   UNL d   1      -3.145   3.843  -3.992  0.00  0.00     0.018 C 
ENDBRANCH   1   8
TORSDOF 1
ENDMDL
