MODEL 1
REMARK minimizedAffinity 11.0131407
REMARK minimizedRMSD -1
REMARK  1 active torsions:
REMARK  status: ('A' for Active; 'I' for Inactive)
REMARK    1  A    between atoms: C1_2  and  C2_3 
ROOT
ATOM      1  C2  UNL d   1       3.634  -3.710  -0.114  0.00  0.00    -0.073 A 
ATOM      2  C3  UNL d   1       4.875  -4.241   0.256  0.00  0.00    -0.002 A 
ATOM      3  C4  UNL d   1       5.402  -5.340  -0.423  0.00  0.00     0.004 A 
ATOM      4  C5  UNL d   1       4.699  -5.915  -1.481  0.00  0.00    -0.004 A 
ATOM      5  C6  UNL d   1       3.463  -5.391  -1.873  0.00  0.00    -0.075 A 
ATOM      6  C7  UNL d   1       2.692  -5.999  -3.008  0.00  0.00     0.076 C 
ATOM      7  C8  UNL d   1       2.939  -4.288  -1.185  0.00  0.00     0.001 A 
ENDROOT
BRANCH   1   8
ATOM      8  C1  UNL d   1       3.064  -2.519   0.612  0.00  0.00     0.053 C 
ATOM      9  C   UNL d   1       3.498  -1.205  -0.019  0.00  0.00     0.018 C 
ENDBRANCH   1   8
TORSDOF 1
ENDMDL
