MODEL 1
REMARK minimizedAffinity 14.0492163
REMARK minimizedRMSD -1
REMARK  1 active torsions:
REMARK  status: ('A' for Active; 'I' for Inactive)
REMARK    1  A    between atoms: C1_2  and  C2_3 
ROOT
ATOM      1  C2  UNL d   1      -1.348   1.888  -1.944  0.00  0.00    -0.073 A 
ATOM      2  C3  UNL d   1      -2.030   2.325  -3.085  0.00  0.00    -0.002 A 
ATOM      3  C4  UNL d   1      -3.337   1.904  -3.330  0.00  0.00     0.004 A 
ATOM      4  C5  UNL d   1      -3.979   1.049  -2.434  0.00  0.00    -0.004 A 
ATOM      5  C6  UNL d   1      -3.319   0.611  -1.282  0.00  0.00    -0.075 A 
ATOM      6  C7  UNL d   1      -3.995  -0.310  -0.309  0.00  0.00     0.076 C 
ATOM      7  C8  UNL d   1      -2.005   1.036  -1.044  0.00  0.00     0.001 A 
ENDROOT
BRANCH   1   8
ATOM      8  C1  UNL d   1       0.062   2.344  -1.672  0.00  0.00     0.053 C 
ATOM      9  C   UNL d   1       0.346   3.709  -2.279  0.00  0.00     0.018 C 
ENDBRANCH   1   8
TORSDOF 1
ENDMDL
