MODEL 1
REMARK minimizedAffinity 10.9175014
REMARK minimizedRMSD -1
REMARK  1 active torsions:
REMARK  status: ('A' for Active; 'I' for Inactive)
REMARK    1  A    between atoms: C1_2  and  C2_3 
ROOT
ATOM      1  C2  UNL d   1      -2.978  -3.618  -5.380  0.00  0.00    -0.073 A 
ATOM      2  C3  UNL d   1      -2.336  -4.312  -4.349  0.00  0.00    -0.002 A 
ATOM      3  C4  UNL d   1      -2.882  -5.496  -3.850  0.00  0.00     0.004 A 
ATOM      4  C5  UNL d   1      -4.069  -6.000  -4.380  0.00  0.00    -0.004 A 
ATOM      5  C6  UNL d   1      -4.719  -5.326  -5.419  0.00  0.00    -0.075 A 
ATOM      6  C7  UNL d   1      -5.999  -5.854  -6.000  0.00  0.00     0.076 C 
ATOM      7  C8  UNL d   1      -4.167  -4.137  -5.913  0.00  0.00     0.001 A 
ENDROOT
BRANCH   1   8
ATOM      8  C1  UNL d   1      -2.390  -2.343  -5.926  0.00  0.00     0.053 C 
ATOM      9  C   UNL d   1      -1.090  -1.971  -5.230  0.00  0.00     0.018 C 
ENDBRANCH   1   8
TORSDOF 1
ENDMDL
