MODEL 1
REMARK minimizedAffinity 7.5489316
REMARK minimizedRMSD -1
REMARK  1 active torsions:
REMARK  status: ('A' for Active; 'I' for Inactive)
REMARK    1  A    between atoms: C1_2  and  C2_3 
ROOT
ATOM      1  C2  UNL d   1       0.090   2.870   0.690  0.00  0.00    -0.073 A 
ATOM      2  C3  UNL d   1       0.725   3.956   1.304  0.00  0.00    -0.002 A 
ATOM      3  C4  UNL d   1       1.246   3.831   2.592  0.00  0.00     0.004 A 
ATOM      4  C5  UNL d   1       1.143   2.620   3.277  0.00  0.00    -0.004 A 
ATOM      5  C6  UNL d   1       0.522   1.520   2.676  0.00  0.00    -0.075 A 
ATOM      6  C7  UNL d   1       0.401   0.212   3.400  0.00  0.00     0.076 C 
ATOM      7  C8  UNL d   1      -0.001   1.654   1.383  0.00  0.00     0.001 A 
ENDROOT
BRANCH   1   8
ATOM      8  C1  UNL d   1      -0.469   2.999  -0.704  0.00  0.00     0.053 C 
ATOM      9  C   UNL d   1      -1.274   1.775  -1.110  0.00  0.00     0.018 C 
ENDBRANCH   1   8
TORSDOF 1
ENDMDL
