MODEL 1
REMARK minimizedAffinity 11.9267168
REMARK minimizedRMSD -1
REMARK  1 active torsions:
REMARK  status: ('A' for Active; 'I' for Inactive)
REMARK    1  A    between atoms: C1_2  and  C2_3 
ROOT
ATOM      1  C2  UNL d   1       0.242   0.853   3.204  0.00  0.00    -0.073 A 
ATOM      2  C3  UNL d   1       1.374   0.308   2.586  0.00  0.00    -0.002 A 
ATOM      3  C4  UNL d   1       1.947  -0.866   3.076  0.00  0.00     0.004 A 
ATOM      4  C5  UNL d   1       1.392  -1.511   4.182  0.00  0.00    -0.004 A 
ATOM      5  C6  UNL d   1       0.255  -0.988   4.806  0.00  0.00    -0.075 A 
ATOM      6  C7  UNL d   1      -0.352  -1.668   5.997  0.00  0.00     0.076 C 
ATOM      7  C8  UNL d   1      -0.313   0.193   4.310  0.00  0.00     0.001 A 
ENDROOT
BRANCH   1   8
ATOM      8  C1  UNL d   1      -0.384   2.117   2.676  0.00  0.00     0.053 C 
ATOM      9  C   UNL d   1       0.659   3.167   2.325  0.00  0.00     0.018 C 
ENDBRANCH   1   8
TORSDOF 1
ENDMDL
