MODEL 1
REMARK minimizedAffinity 16.621397
REMARK minimizedRMSD -1
REMARK  0 active torsions:
REMARK  status: ('A' for Active; 'I' for Inactive)
ROOT
ATOM      1  N1  IND d   1      -2.983  -0.123  -2.716  0.00  0.00    -0.196 N 
ATOM      2  C2  IND d   1      -3.828   0.577  -1.901  0.00  0.00     0.054 A 
ATOM      3  C3  IND d   1      -3.686   0.172  -0.618  0.00  0.00    -0.031 A 
ATOM      4  C4  IND d   1      -2.057  -1.552   0.382  0.00  0.00     0.051 A 
ATOM      5  C5  IND d   1      -1.115  -2.477   0.026  0.00  0.00    -0.031 A 
ATOM      6  C6  IND d   1      -0.739  -2.667  -1.288  0.00  0.00     0.015 A 
ATOM      7  C7  IND d   1      -1.284  -1.927  -2.299  0.00  0.00    -0.016 A 
ATOM      8  C8  IND d   1      -2.246  -0.992  -1.942  0.00  0.00    -0.047 A 
ATOM      9  C9  IND d   1      -2.662  -0.825  -0.615  0.00  0.00    -0.096 A 
ATOM     10  HN1 IND d   1      -2.923  -0.036  -3.570  0.00  0.00     0.298 HD
ENDROOT
TORSDOF 0
ENDMDL
