MODEL 1
REMARK minimizedAffinity 5.11972094
REMARK minimizedRMSD -1
REMARK  0 active torsions:
REMARK  status: ('A' for Active; 'I' for Inactive)
ROOT
ATOM      1  N1  IND d   1       2.473   5.989   5.993  0.00  0.00    -0.196 N 
ATOM      2  C2  IND d   1       1.476   5.054   5.984  0.00  0.00     0.054 A 
ATOM      3  C3  IND d   1       2.000   3.808   5.948  0.00  0.00    -0.031 A 
ATOM      4  C4  IND d   1       4.466   3.069   5.999  0.00  0.00     0.051 A 
ATOM      5  C5  IND d   1       5.739   3.564   5.971  0.00  0.00    -0.031 A 
ATOM      6  C6  IND d   1       5.994   4.920   5.952  0.00  0.00     0.015 A 
ATOM      7  C7  IND d   1       4.981   5.836   5.970  0.00  0.00    -0.016 A 
ATOM      8  C8  IND d   1       3.686   5.337   5.992  0.00  0.00    -0.047 A 
ATOM      9  C9  IND d   1       3.420   3.962   5.969  0.00  0.00    -0.096 A 
ATOM     10  HN1 IND d   1       2.360   6.842   5.998  0.00  0.00     0.298 HD
ENDROOT
TORSDOF 0
ENDMDL
