MODEL 1
REMARK minimizedAffinity 18.771862
REMARK minimizedRMSD -1
REMARK  0 active torsions:
REMARK  status: ('A' for Active; 'I' for Inactive)
ROOT
ATOM      1  N1  IND d   1       4.745   3.407   0.345  0.00  0.00    -0.196 N 
ATOM      2  C2  IND d   1       3.421   3.431   0.682  0.00  0.00     0.054 A 
ATOM      3  C3  IND d   1       2.671   2.920  -0.321  0.00  0.00    -0.031 A 
ATOM      4  C4  IND d   1       3.416   1.891  -2.560  0.00  0.00     0.051 A 
ATOM      5  C5  IND d   1       4.524   1.679  -3.332  0.00  0.00    -0.031 A 
ATOM      6  C6  IND d   1       5.787   2.037  -2.909  0.00  0.00     0.015 A 
ATOM      7  C7  IND d   1       5.993   2.612  -1.687  0.00  0.00    -0.016 A 
ATOM      8  C8  IND d   1       4.870   2.835  -0.903  0.00  0.00    -0.047 A 
ATOM      9  C9  IND d   1       3.580   2.514  -1.345  0.00  0.00    -0.096 A 
ATOM     10  HN1 IND d   1       5.392   3.699   0.830  0.00  0.00     0.298 HD
ENDROOT
TORSDOF 0
ENDMDL
