MODEL 1
REMARK minimizedAffinity 12.4131393
REMARK minimizedRMSD -1
REMARK  0 active torsions:
REMARK  status: ('A' for Active; 'I' for Inactive)
ROOT
ATOM      1  N1  IND d   1      -4.361  -1.156   0.719  0.00  0.00    -0.196 N 
ATOM      2  C2  IND d   1      -4.919  -2.104   1.531  0.00  0.00     0.054 A 
ATOM      3  C3  IND d   1      -3.991  -3.016   1.896  0.00  0.00    -0.031 A 
ATOM      4  C4  IND d   1      -1.473  -3.093   1.362  0.00  0.00     0.051 A 
ATOM      5  C5  IND d   1      -0.509  -2.464   0.626  0.00  0.00    -0.031 A 
ATOM      6  C6  IND d   1      -0.784  -1.342  -0.129  0.00  0.00     0.015 A 
ATOM      7  C7  IND d   1      -2.037  -0.799  -0.168  0.00  0.00    -0.016 A 
ATOM      8  C8  IND d   1      -3.020  -1.440   0.572  0.00  0.00    -0.047 A 
ATOM      9  C9  IND d   1      -2.757  -2.603   1.307  0.00  0.00    -0.096 A 
ATOM     10  HN1 IND d   1      -4.776  -0.495   0.361  0.00  0.00     0.298 HD
ENDROOT
TORSDOF 0
ENDMDL
