MODEL 1
REMARK minimizedAffinity 21.3146496
REMARK minimizedRMSD -1
REMARK  0 active torsions:
REMARK  status: ('A' for Active; 'I' for Inactive)
ROOT
ATOM      1  N1  IND d   1       2.020   3.705   5.532  0.00  0.00    -0.196 N 
ATOM      2  C2  IND d   1       1.335   4.871   5.734  0.00  0.00     0.054 A 
ATOM      3  C3  IND d   1       2.196   5.885   5.977  0.00  0.00    -0.031 A 
ATOM      4  C4  IND d   1       4.770   5.879   5.991  0.00  0.00     0.051 A 
ATOM      5  C5  IND d   1       5.846   5.041   5.895  0.00  0.00    -0.031 A 
ATOM      6  C6  IND d   1       5.698   3.688   5.667  0.00  0.00     0.015 A 
ATOM      7  C7  IND d   1       4.464   3.122   5.513  0.00  0.00    -0.016 A 
ATOM      8  C8  IND d   1       3.369   3.969   5.616  0.00  0.00    -0.047 A 
ATOM      9  C9  IND d   1       3.511   5.335   5.890  0.00  0.00    -0.096 A 
ATOM     10  HN1 IND d   1       1.667   2.936   5.378  0.00  0.00     0.298 HD
ENDROOT
TORSDOF 0
ENDMDL
