MODEL 1
REMARK minimizedAffinity 14.2973108
REMARK minimizedRMSD -1
REMARK  0 active torsions:
REMARK  status: ('A' for Active; 'I' for Inactive)
ROOT
ATOM      1  N1  IND d   1       2.664  -0.330  -2.101  0.00  0.00    -0.196 N 
ATOM      2  C2  IND d   1       1.351  -0.506  -1.761  0.00  0.00     0.054 A 
ATOM      3  C3  IND d   1       0.960   0.448  -0.887  0.00  0.00    -0.031 A 
ATOM      4  C4  IND d   1       2.278   2.454   0.043  0.00  0.00     0.051 A 
ATOM      5  C5  IND d   1       3.525   3.014   0.050  0.00  0.00    -0.031 A 
ATOM      6  C6  IND d   1       4.568   2.478  -0.676  0.00  0.00     0.015 A 
ATOM      7  C7  IND d   1       4.401   1.364  -1.449  0.00  0.00    -0.016 A 
ATOM      8  C8  IND d   1       3.138   0.789  -1.453  0.00  0.00    -0.047 A 
ATOM      9  C9  IND d   1       2.086   1.304  -0.685  0.00  0.00    -0.096 A 
ATOM     10  HN1 IND d   1       3.117  -0.834  -2.631  0.00  0.00     0.298 HD
ENDROOT
TORSDOF 0
ENDMDL
