MODEL 1
REMARK minimizedAffinity 7.85139275
REMARK minimizedRMSD -1
REMARK  0 active torsions:
REMARK  status: ('A' for Active; 'I' for Inactive)
ROOT
ATOM      1  N1  IND d   1       5.582   2.302   5.952  0.00  0.00    -0.196 N 
ATOM      2  C2  IND d   1       4.460   1.521   5.970  0.00  0.00     0.054 A 
ATOM      3  C3  IND d   1       3.350   2.293   5.951  0.00  0.00    -0.031 A 
ATOM      4  C4  IND d   1       3.141   4.854   5.784  0.00  0.00     0.051 A 
ATOM      5  C5  IND d   1       3.889   5.997   5.778  0.00  0.00    -0.031 A 
ATOM      6  C6  IND d   1       5.268   5.967   5.828  0.00  0.00     0.015 A 
ATOM      7  C7  IND d   1       5.953   4.786   5.874  0.00  0.00    -0.016 A 
ATOM      8  C8  IND d   1       5.196   3.623   5.888  0.00  0.00    -0.047 A 
ATOM      9  C9  IND d   1       3.796   3.649   5.880  0.00  0.00    -0.096 A 
ATOM     10  HN1 IND d   1       6.392   2.016   5.976  0.00  0.00     0.298 HD
ENDROOT
TORSDOF 0
ENDMDL
