MODEL 1
REMARK minimizedAffinity 9.63498974
REMARK minimizedRMSD -1
REMARK  0 active torsions:
REMARK  status: ('A' for Active; 'I' for Inactive)
ROOT
ATOM      1  N1  IND d   1       3.132   2.347   5.991  0.00  0.00    -0.196 N 
ATOM      2  C2  IND d   1       4.235   1.540   6.000  0.00  0.00     0.054 A 
ATOM      3  C3  IND d   1       5.361   2.281   5.896  0.00  0.00    -0.031 A 
ATOM      4  C4  IND d   1       5.633   4.839   5.804  0.00  0.00     0.051 A 
ATOM      5  C5  IND d   1       4.911   5.997   5.732  0.00  0.00    -0.031 A 
ATOM      6  C6  IND d   1       3.531   5.998   5.745  0.00  0.00     0.015 A 
ATOM      7  C7  IND d   1       2.819   4.836   5.843  0.00  0.00    -0.016 A 
ATOM      8  C8  IND d   1       3.549   3.658   5.910  0.00  0.00    -0.047 A 
ATOM      9  C9  IND d   1       4.948   3.648   5.854  0.00  0.00    -0.096 A 
ATOM     10  HN1 IND d   1       2.315   2.081   6.031  0.00  0.00     0.298 HD
ENDROOT
TORSDOF 0
ENDMDL
