MODEL 1
REMARK minimizedAffinity 6.42838287
REMARK minimizedRMSD -1
REMARK  0 active torsions:
REMARK  status: ('A' for Active; 'I' for Inactive)
ROOT
ATOM      1  N1  IND d   1       5.993   4.809   5.675  0.00  0.00    -0.196 N 
ATOM      2  C2  IND d   1       5.270   5.969   5.668  0.00  0.00     0.054 A 
ATOM      3  C3  IND d   1       3.947   5.698   5.741  0.00  0.00    -0.031 A 
ATOM      4  C4  IND d   1       2.753   3.430   5.983  0.00  0.00     0.051 A 
ATOM      5  C5  IND d   1       2.989   2.084   5.998  0.00  0.00    -0.031 A 
ATOM      6  C6  IND d   1       4.266   1.567   5.907  0.00  0.00     0.015 A 
ATOM      7  C7  IND d   1       5.358   2.381   5.809  0.00  0.00    -0.016 A 
ATOM      8  C8  IND d   1       5.121   3.748   5.786  0.00  0.00    -0.047 A 
ATOM      9  C9  IND d   1       3.825   4.278   5.835  0.00  0.00    -0.096 A 
ATOM     10  HN1 IND d   1       6.850   4.752   5.620  0.00  0.00     0.298 HD
ENDROOT
TORSDOF 0
ENDMDL
