MODEL 1
REMARK minimizedAffinity 11.6352749
REMARK minimizedRMSD -1
REMARK  0 active torsions:
REMARK  status: ('A' for Active; 'I' for Inactive)
ROOT
ATOM      1  N1  IND d   1       2.552   4.742   5.949  0.00  0.00    -0.196 N 
ATOM      2  C2  IND d   1       3.088   6.000   5.956  0.00  0.00     0.054 A 
ATOM      3  C3  IND d   1       4.439   5.935   5.944  0.00  0.00    -0.031 A 
ATOM      4  C4  IND d   1       5.977   3.876   5.809  0.00  0.00     0.051 A 
ATOM      5  C5  IND d   1       5.951   2.509   5.819  0.00  0.00    -0.031 A 
ATOM      6  C6  IND d   1       4.767   1.803   5.871  0.00  0.00     0.015 A 
ATOM      7  C7  IND d   1       3.558   2.440   5.904  0.00  0.00    -0.016 A 
ATOM      8  C8  IND d   1       3.581   3.827   5.901  0.00  0.00    -0.047 A 
ATOM      9  C9  IND d   1       4.781   4.549   5.892  0.00  0.00    -0.096 A 
ATOM     10  HN1 IND d   1       1.714   4.554   5.971  0.00  0.00     0.298 HD
ENDROOT
TORSDOF 0
ENDMDL
