MODEL 1
REMARK minimizedAffinity 20.5088673
REMARK minimizedRMSD -1
REMARK  0 active torsions:
REMARK  status: ('A' for Active; 'I' for Inactive)
ROOT
ATOM      1  N1  IND d   1      -4.797  -3.006   1.718  0.00  0.00    -0.196 N 
ATOM      2  C2  IND d   1      -5.995  -2.367   1.878  0.00  0.00     0.054 A 
ATOM      3  C3  IND d   1      -6.000  -1.200   1.195  0.00  0.00    -0.031 A 
ATOM      4  C4  IND d   1      -4.190  -0.191  -0.333  0.00  0.00     0.051 A 
ATOM      5  C5  IND d   1      -2.908  -0.391  -0.761  0.00  0.00    -0.031 A 
ATOM      6  C6  IND d   1      -2.176  -1.497  -0.379  0.00  0.00     0.015 A 
ATOM      7  C7  IND d   1      -2.705  -2.454   0.440  0.00  0.00    -0.016 A 
ATOM      8  C8  IND d   1      -4.005  -2.250   0.882  0.00  0.00    -0.047 A 
ATOM      9  C9  IND d   1      -4.738  -1.109   0.532  0.00  0.00    -0.096 A 
ATOM     10  HN1 IND d   1      -4.576  -3.755   2.079  0.00  0.00     0.298 HD
ENDROOT
TORSDOF 0
ENDMDL
