MODEL 1
REMARK minimizedAffinity 7.1627779
REMARK minimizedRMSD -1
REMARK  0 active torsions:
REMARK  status: ('A' for Active; 'I' for Inactive)
ROOT
ATOM      1  N1  IND d   1       2.444   4.718   5.999  0.00  0.00    -0.196 N 
ATOM      2  C2  IND d   1       2.920   5.999   5.989  0.00  0.00     0.054 A 
ATOM      3  C3  IND d   1       4.272   5.999   5.987  0.00  0.00    -0.031 A 
ATOM      4  C4  IND d   1       5.907   4.013   5.898  0.00  0.00     0.051 A 
ATOM      5  C5  IND d   1       5.945   2.647   5.930  0.00  0.00    -0.031 A 
ATOM      6  C6  IND d   1       4.795   1.886   5.986  0.00  0.00     0.015 A 
ATOM      7  C7  IND d   1       3.558   2.465   5.999  0.00  0.00    -0.016 A 
ATOM      8  C8  IND d   1       3.515   3.852   5.974  0.00  0.00    -0.047 A 
ATOM      9  C9  IND d   1       4.680   4.630   5.960  0.00  0.00    -0.096 A 
ATOM     10  HN1 IND d   1       1.615   4.490   6.019  0.00  0.00     0.298 HD
ENDROOT
TORSDOF 0
ENDMDL
