MODEL 1
REMARK minimizedAffinity 9.60668182
REMARK minimizedRMSD -1
REMARK  0 active torsions:
REMARK  status: ('A' for Active; 'I' for Inactive)
ROOT
ATOM      1  N1  IND d   1       5.475   2.203   5.763  0.00  0.00    -0.196 N 
ATOM      2  C2  IND d   1       4.308   1.492   5.781  0.00  0.00     0.054 A 
ATOM      3  C3  IND d   1       3.250   2.327   5.890  0.00  0.00    -0.031 A 
ATOM      4  C4  IND d   1       3.196   4.900   5.951  0.00  0.00     0.051 A 
ATOM      5  C5  IND d   1       4.015   5.993   5.998  0.00  0.00    -0.031 A 
ATOM      6  C6  IND d   1       5.389   5.877   5.965  0.00  0.00     0.015 A 
ATOM      7  C7  IND d   1       5.999   4.659   5.873  0.00  0.00    -0.016 A 
ATOM      8  C8  IND d   1       5.172   3.545   5.832  0.00  0.00    -0.047 A 
ATOM      9  C9  IND d   1       3.777   3.654   5.908  0.00  0.00    -0.096 A 
ATOM     10  HN1 IND d   1       6.266   1.869   5.716  0.00  0.00     0.298 HD
ENDROOT
TORSDOF 0
ENDMDL
