MODEL 1
REMARK minimizedAffinity 26.0324478
REMARK minimizedRMSD -1
REMARK  0 active torsions:
REMARK  status: ('A' for Active; 'I' for Inactive)
ROOT
ATOM      1  N1  IND d   1       3.530   3.316  -0.039  0.00  0.00    -0.196 N 
ATOM      2  C2  IND d   1       4.536   2.947   0.810  0.00  0.00     0.054 A 
ATOM      3  C3  IND d   1       4.830   1.637   0.651  0.00  0.00    -0.031 A 
ATOM      4  C4  IND d   1       3.856  -0.066  -1.015  0.00  0.00     0.051 A 
ATOM      5  C5  IND d   1       2.887  -0.208  -1.968  0.00  0.00    -0.031 A 
ATOM      6  C6  IND d   1       2.068   0.840  -2.337  0.00  0.00     0.015 A 
ATOM      7  C7  IND d   1       2.196   2.077  -1.771  0.00  0.00    -0.016 A 
ATOM      8  C8  IND d   1       3.174   2.222  -0.797  0.00  0.00    -0.047 A 
ATOM      9  C9  IND d   1       3.979   1.151  -0.389  0.00  0.00    -0.096 A 
ATOM     10  HN1 IND d   1       3.178   4.099  -0.090  0.00  0.00     0.298 HD
ENDROOT
TORSDOF 0
ENDMDL
