MODEL 1
REMARK minimizedAffinity 12.1997175
REMARK minimizedRMSD -1
REMARK  0 active torsions:
REMARK  status: ('A' for Active; 'I' for Inactive)
ROOT
ATOM      1  N1  IND d   1       2.856   4.931   5.980  0.00  0.00    -0.196 N 
ATOM      2  C2  IND d   1       3.708   6.000   5.986  0.00  0.00     0.054 A 
ATOM      3  C3  IND d   1       4.992   5.578   5.993  0.00  0.00    -0.031 A 
ATOM      4  C4  IND d   1       5.927   3.182   5.893  0.00  0.00     0.051 A 
ATOM      5  C5  IND d   1       5.538   1.872   5.912  0.00  0.00    -0.031 A 
ATOM      6  C6  IND d   1       4.208   1.507   5.952  0.00  0.00     0.015 A 
ATOM      7  C7  IND d   1       3.213   2.443   5.964  0.00  0.00    -0.016 A 
ATOM      8  C8  IND d   1       3.605   3.774   5.952  0.00  0.00    -0.047 A 
ATOM      9  C9  IND d   1       4.954   4.151   5.954  0.00  0.00    -0.096 A 
ATOM     10  HN1 IND d   1       1.998   4.973   5.991  0.00  0.00     0.298 HD
ENDROOT
TORSDOF 0
ENDMDL
