MODEL 1
REMARK minimizedAffinity 8.76217079
REMARK minimizedRMSD -1
REMARK  0 active torsions:
REMARK  status: ('A' for Active; 'I' for Inactive)
ROOT
ATOM      1  N1  IND d   1       5.071   2.907   2.611  0.00  0.00    -0.196 N 
ATOM      2  C2  IND d   1       3.934   2.836   1.856  0.00  0.00     0.054 A 
ATOM      3  C3  IND d   1       2.881   3.331   2.543  0.00  0.00    -0.031 A 
ATOM      4  C4  IND d   1       2.813   4.405   4.882  0.00  0.00     0.051 A 
ATOM      5  C5  IND d   1       3.596   4.661   5.973  0.00  0.00    -0.031 A 
ATOM      6  C6  IND d   1       4.938   4.341   5.998  0.00  0.00     0.015 A 
ATOM      7  C7  IND d   1       5.553   3.761   4.925  0.00  0.00    -0.016 A 
ATOM      8  C8  IND d   1       4.760   3.494   3.818  0.00  0.00    -0.047 A 
ATOM      9  C9  IND d   1       3.388   3.777   3.802  0.00  0.00    -0.096 A 
ATOM     10  HN1 IND d   1       5.850   2.632   2.373  0.00  0.00     0.298 HD
ENDROOT
TORSDOF 0
ENDMDL
