MODEL 1
REMARK minimizedAffinity 19.8055344
REMARK minimizedRMSD -1
REMARK  0 active torsions:
REMARK  status: ('A' for Active; 'I' for Inactive)
ROOT
ATOM      1  N1  IND d   1      -5.986   5.911   2.477  0.00  0.00    -0.196 N 
ATOM      2  C2  IND d   1      -5.596   5.089   3.497  0.00  0.00     0.054 A 
ATOM      3  C3  IND d   1      -4.748   4.142   3.040  0.00  0.00    -0.031 A 
ATOM      4  C4  IND d   1      -3.783   3.814   0.676  0.00  0.00     0.051 A 
ATOM      5  C5  IND d   1      -3.873   4.294  -0.601  0.00  0.00    -0.031 A 
ATOM      6  C6  IND d   1      -4.686   5.361  -0.923  0.00  0.00     0.015 A 
ATOM      7  C7  IND d   1      -5.435   5.998   0.027  0.00  0.00    -0.016 A 
ATOM      8  C8  IND d   1      -5.351   5.508   1.322  0.00  0.00    -0.047 A 
ATOM      9  C9  IND d   1      -4.560   4.399   1.647  0.00  0.00    -0.096 A 
ATOM     10  HN1 IND d   1      -6.536   6.569   2.544  0.00  0.00     0.298 HD
ENDROOT
TORSDOF 0
ENDMDL
