MODEL 1
REMARK minimizedAffinity 5.59798717
REMARK minimizedRMSD -1
REMARK  0 active torsions:
REMARK  status: ('A' for Active; 'I' for Inactive)
ROOT
ATOM      1  N1  IND d   1       5.362   2.147   5.967  0.00  0.00    -0.196 N 
ATOM      2  C2  IND d   1       4.166   1.485   5.938  0.00  0.00     0.054 A 
ATOM      3  C3  IND d   1       3.141   2.366   5.927  0.00  0.00    -0.031 A 
ATOM      4  C4  IND d   1       3.195   4.938   5.849  0.00  0.00     0.051 A 
ATOM      5  C5  IND d   1       4.055   5.999   5.896  0.00  0.00    -0.031 A 
ATOM      6  C6  IND d   1       5.422   5.827   5.969  0.00  0.00     0.015 A 
ATOM      7  C7  IND d   1       5.983   4.582   5.985  0.00  0.00    -0.016 A 
ATOM      8  C8  IND d   1       5.113   3.502   5.944  0.00  0.00    -0.047 A 
ATOM      9  C9  IND d   1       3.723   3.670   5.913  0.00  0.00    -0.096 A 
ATOM     10  HN1 IND d   1       6.139   1.780   5.995  0.00  0.00     0.298 HD
ENDROOT
TORSDOF 0
ENDMDL
