MODEL 1
REMARK minimizedAffinity -1.1416285
REMARK minimizedRMSD -1
REMARK  0 active torsions:
REMARK  status: ('A' for Active; 'I' for Inactive)
ROOT
ATOM      1  C   UNL d   1      -0.621  -2.152   0.393  0.00  0.00    -0.002 A 
ATOM      2  C1  UNL d   1       0.189  -1.899   1.491  0.00  0.00     0.010 A 
ATOM      3  C2  UNL d   1       0.834  -0.669   1.629  0.00  0.00     0.041 A 
ATOM      4  C3  UNL d   1       0.649   0.313   0.636  0.00  0.00    -0.075 A 
ATOM      5  S   UNL d   1       1.338   1.893   0.595  0.00  0.00     0.015 SA
ATOM      6  C4  UNL d   1       0.573   2.270  -0.881  0.00  0.00     0.022 A 
ATOM      7  C5  UNL d   1      -0.193   1.227  -1.345  0.00  0.00     0.026 A 
ATOM      8  C6  UNL d   1      -0.163   0.082  -0.479  0.00  0.00    -0.082 A 
ATOM      9  C7  UNL d   1      -0.803  -1.176  -0.590  0.00  0.00     0.045 A 
ENDROOT
TORSDOF 0
ENDMDL
