MODEL 1
REMARK minimizedAffinity -4.43869591
REMARK minimizedRMSD -1
REMARK  0 active torsions:
REMARK  status: ('A' for Active; 'I' for Inactive)
ROOT
ATOM      1  C   UNL d   1      -0.689  -0.920   1.433  0.00  0.00    -0.002 A 
ATOM      2  C1  UNL d   1      -0.239  -0.207   0.330  0.00  0.00     0.010 A 
ATOM      3  C2  UNL d   1      -1.038   0.779  -0.253  0.00  0.00     0.041 A 
ATOM      4  C3  UNL d   1      -2.308   1.041   0.298  0.00  0.00    -0.075 A 
ATOM      5  S   UNL d   1      -3.458   2.203  -0.248  0.00  0.00     0.015 SA
ATOM      6  C4  UNL d   1      -4.573   1.783   0.970  0.00  0.00     0.022 A 
ATOM      7  C5  UNL d   1      -4.096   0.781   1.782  0.00  0.00     0.026 A 
ATOM      8  C6  UNL d   1      -2.782   0.338   1.409  0.00  0.00    -0.082 A 
ATOM      9  C7  UNL d   1      -1.949  -0.657   1.976  0.00  0.00     0.045 A 
ENDROOT
TORSDOF 0
ENDMDL
