MODEL 1
REMARK minimizedAffinity -4.22056293
REMARK minimizedRMSD -1
REMARK  0 active torsions:
REMARK  status: ('A' for Active; 'I' for Inactive)
ROOT
ATOM      1  C   UNL d   1       0.522   1.856   0.062  0.00  0.00    -0.002 A 
ATOM      2  C1  UNL d   1      -0.861   1.861   0.167  0.00  0.00     0.010 A 
ATOM      3  C2  UNL d   1      -1.562   0.672   0.379  0.00  0.00     0.041 A 
ATOM      4  C3  UNL d   1      -0.842  -0.534   0.486  0.00  0.00    -0.075 A 
ATOM      5  S   UNL d   1      -1.487  -2.111   0.746  0.00  0.00     0.015 SA
ATOM      6  C4  UNL d   1       0.058  -2.829   0.725  0.00  0.00     0.022 A 
ATOM      7  C5  UNL d   1       1.054  -1.903   0.524  0.00  0.00     0.026 A 
ATOM      8  C6  UNL d   1       0.552  -0.565   0.384  0.00  0.00    -0.082 A 
ATOM      9  C7  UNL d   1       1.234   0.657   0.168  0.00  0.00     0.045 A 
ENDROOT
TORSDOF 0
ENDMDL
