MODEL 1
REMARK minimizedAffinity -2.61527824
REMARK minimizedRMSD -1
REMARK  0 active torsions:
REMARK  status: ('A' for Active; 'I' for Inactive)
ROOT
ATOM      1  C   UNL d   1      -0.691  -2.983   1.421  0.00  0.00    -0.002 A 
ATOM      2  C1  UNL d   1      -0.037  -3.485   0.305  0.00  0.00     0.010 A 
ATOM      3  C2  UNL d   1       0.481  -2.622  -0.663  0.00  0.00     0.041 A 
ATOM      4  C3  UNL d   1       0.330  -1.232  -0.487  0.00  0.00    -0.075 A 
ATOM      5  S   UNL d   1       0.884   0.015  -1.541  0.00  0.00     0.015 SA
ATOM      6  C4  UNL d   1       0.266   1.243  -0.534  0.00  0.00     0.022 A 
ATOM      7  C5  UNL d   1      -0.351   0.732   0.583  0.00  0.00     0.026 A 
ATOM      8  C6  UNL d   1      -0.323  -0.703   0.629  0.00  0.00    -0.082 A 
ATOM      9  C7  UNL d   1      -0.838  -1.604   1.592  0.00  0.00     0.045 A 
ENDROOT
TORSDOF 0
ENDMDL
