MODEL 1
REMARK minimizedAffinity -0.987124324
REMARK minimizedRMSD -1
REMARK  0 active torsions:
REMARK  status: ('A' for Active; 'I' for Inactive)
ROOT
ATOM      1  C   UNL d   1      -0.298  -2.869   1.917  0.00  0.00    -0.002 A 
ATOM      2  C1  UNL d   1      -1.536  -2.387   1.516  0.00  0.00     0.010 A 
ATOM      3  C2  UNL d   1      -1.640  -1.504   0.439  0.00  0.00     0.041 A 
ATOM      4  C3  UNL d   1      -0.467  -1.112  -0.235  0.00  0.00    -0.075 A 
ATOM      5  S   UNL d   1      -0.352  -0.041  -1.582  0.00  0.00     0.015 SA
ATOM      6  C4  UNL d   1       1.344  -0.199  -1.657  0.00  0.00     0.022 A 
ATOM      7  C5  UNL d   1       1.827  -1.043  -0.686  0.00  0.00     0.026 A 
ATOM      8  C6  UNL d   1       0.791  -1.584   0.149  0.00  0.00    -0.082 A 
ATOM      9  C7  UNL d   1       0.863  -2.477   1.245  0.00  0.00     0.045 A 
ENDROOT
TORSDOF 0
ENDMDL
