MODEL 1
REMARK minimizedAffinity -2.29933596
REMARK minimizedRMSD -1
REMARK  0 active torsions:
REMARK  status: ('A' for Active; 'I' for Inactive)
ROOT
ATOM      1  C   UNL d   1       0.591   2.931  -0.763  0.00  0.00    -0.002 A 
ATOM      2  C1  UNL d   1       1.179   2.822   0.490  0.00  0.00     0.010 A 
ATOM      3  C2  UNL d   1       1.235   1.589   1.143  0.00  0.00     0.041 A 
ATOM      4  C3  UNL d   1       0.687   0.456   0.510  0.00  0.00    -0.075 A 
ATOM      5  S   UNL d   1       0.642  -1.156   1.119  0.00  0.00     0.015 SA
ATOM      6  C4  UNL d   1      -0.158  -1.738  -0.269  0.00  0.00     0.022 A 
ATOM      7  C5  UNL d   1      -0.393  -0.740  -1.185  0.00  0.00     0.026 A 
ATOM      8  C6  UNL d   1       0.090   0.541  -0.752  0.00  0.00    -0.082 A 
ATOM      9  C7  UNL d   1       0.048   1.805  -1.388  0.00  0.00     0.045 A 
ENDROOT
TORSDOF 0
ENDMDL
