MODEL 1
REMARK minimizedAffinity -2.64646816
REMARK minimizedRMSD -1
REMARK  0 active torsions:
REMARK  status: ('A' for Active; 'I' for Inactive)
ROOT
ATOM      1  C   UNL d   1      -0.262  -3.132   2.233  0.00  0.00    -0.002 A 
ATOM      2  C1  UNL d   1      -0.997  -3.255   1.062  0.00  0.00     0.010 A 
ATOM      3  C2  UNL d   1      -1.172  -2.159   0.215  0.00  0.00     0.041 A 
ATOM      4  C3  UNL d   1      -0.588  -0.926   0.567  0.00  0.00    -0.075 A 
ATOM      5  S   UNL d   1      -0.668   0.552  -0.317  0.00  0.00     0.015 SA
ATOM      6  C4  UNL d   1       0.272   1.381   0.837  0.00  0.00     0.022 A 
ATOM      7  C5  UNL d   1       0.646   0.565   1.879  0.00  0.00     0.026 A 
ATOM      8  C6  UNL d   1       0.157  -0.778   1.740  0.00  0.00    -0.082 A 
ATOM      9  C7  UNL d   1       0.315  -1.908   2.579  0.00  0.00     0.045 A 
ENDROOT
TORSDOF 0
ENDMDL
