MODEL 1
REMARK minimizedAffinity 1.90276623
REMARK minimizedRMSD -1
REMARK  0 active torsions:
REMARK  status: ('A' for Active; 'I' for Inactive)
ROOT
ATOM      1  C   UNL d   1       2.986   3.579   0.748  0.00  0.00    -0.002 A 
ATOM      2  C1  UNL d   1       2.969   3.876  -0.608  0.00  0.00     0.010 A 
ATOM      3  C2  UNL d   1       2.063   3.243  -1.462  0.00  0.00     0.041 A 
ATOM      4  C3  UNL d   1       1.166   2.298  -0.925  0.00  0.00    -0.075 A 
ATOM      5  S   UNL d   1      -0.031   1.399  -1.779  0.00  0.00     0.015 SA
ATOM      6  C4  UNL d   1      -0.548   0.601  -0.365  0.00  0.00     0.022 A 
ATOM      7  C5  UNL d   1       0.165   0.998   0.741  0.00  0.00     0.026 A 
ATOM      8  C6  UNL d   1       1.164   1.983   0.437  0.00  0.00    -0.082 A 
ATOM      9  C7  UNL d   1       2.095   2.642   1.277  0.00  0.00     0.045 A 
ENDROOT
TORSDOF 0
ENDMDL
