MODEL 1
REMARK minimizedAffinity 9.21361256
REMARK minimizedRMSD -1
REMARK  0 active torsions:
REMARK  status: ('A' for Active; 'I' for Inactive)
ROOT
ATOM      1  C   UNL d   1      -3.515   1.861   1.911  0.00  0.00    -0.002 A 
ATOM      2  C1  UNL d   1      -3.415   2.918   1.016  0.00  0.00     0.010 A 
ATOM      3  C2  UNL d   1      -2.382   2.959   0.078  0.00  0.00     0.041 A 
ATOM      4  C3  UNL d   1      -1.442   1.910   0.053  0.00  0.00    -0.075 A 
ATOM      5  S   UNL d   1      -0.093   1.748  -1.008  0.00  0.00     0.015 SA
ATOM      6  C4  UNL d   1       0.383   0.273  -0.300  0.00  0.00     0.022 A 
ATOM      7  C5  UNL d   1      -0.456  -0.102   0.723  0.00  0.00     0.026 A 
ATOM      8  C6  UNL d   1      -1.522   0.835   0.943  0.00  0.00    -0.082 A 
ATOM      9  C7  UNL d   1      -2.580   0.823   1.882  0.00  0.00     0.045 A 
ENDROOT
TORSDOF 0
ENDMDL
