MODEL 1
REMARK minimizedAffinity -6.04168749
REMARK minimizedRMSD -1
REMARK  3 active torsions:
REMARK  status: ('A' for Active; 'I' for Inactive)
REMARK    1  A    between atoms: C3'_2  and  C2'_3 
REMARK    2  A    between atoms: C2'_3  and  C1'_4 
REMARK    3  A    between atoms: C1'_4  and  C1_5 
ROOT
ATOM      1  C1  N4B d   1      -0.023   0.639   0.261  0.00  0.00    -0.075 A 
ATOM      2  C2  N4B d   1       1.137   1.028  -0.445  0.00  0.00     0.002 A 
ATOM      3  C3  N4B d   1       2.105   1.773   0.182  0.00  0.00     0.002 A 
ATOM      4  C4  N4B d   1       1.928   2.154   1.504  0.00  0.00    -0.004 A 
ATOM      5  C5  N4B d   1       0.818   1.752   2.187  0.00  0.00     0.002 A 
ATOM      6  C6  N4B d   1      -0.162   1.000   1.570  0.00  0.00     0.002 A 
ENDROOT
BRANCH   1   7
ATOM      7  C1' N4B d   1      -1.148  -0.102  -0.408  0.00  0.00     0.057 C 
BRANCH   7   8
ATOM      8  C2' N4B d   1      -0.579  -0.984  -1.515  0.00  0.00     0.009 C 
BRANCH   8   9
ATOM      9  C3' N4B d   1      -1.519  -1.081  -2.704  0.00  0.00     0.004 C 
ATOM     10  C4' N4B d   1      -2.795  -1.799  -2.379  0.00  0.00     0.003 C 
ENDBRANCH   8   9
ENDBRANCH   7   8
ENDBRANCH   1   7
TORSDOF 3
ENDMDL
