MODEL 1
REMARK minimizedAffinity 1.05675507
REMARK minimizedRMSD -1
REMARK  3 active torsions:
REMARK  status: ('A' for Active; 'I' for Inactive)
REMARK    1  A    between atoms: C3'_2  and  C2'_3 
REMARK    2  A    between atoms: C2'_3  and  C1'_4 
REMARK    3  A    between atoms: C1'_4  and  C1_5 
ROOT
ATOM      1  C1  N4B d   1      -4.086  -2.601  -1.775  0.00  0.00    -0.075 A 
ATOM      2  C2  N4B d   1      -4.054  -2.392  -3.171  0.00  0.00     0.002 A 
ATOM      3  C3  N4B d   1      -2.926  -1.879  -3.763  0.00  0.00     0.002 A 
ATOM      4  C4  N4B d   1      -1.830  -1.551  -2.980  0.00  0.00    -0.004 A 
ATOM      5  C5  N4B d   1      -1.860  -1.779  -1.635  0.00  0.00     0.002 A 
ATOM      6  C6  N4B d   1      -2.985  -2.298  -1.028  0.00  0.00     0.002 A 
ENDROOT
BRANCH   1   7
ATOM      7  C1' N4B d   1      -5.327  -3.080  -1.072  0.00  0.00     0.057 C 
BRANCH   7   8
ATOM      8  C2' N4B d   1      -4.932  -4.053   0.035  0.00  0.00     0.009 C 
BRANCH   8   9
ATOM      9  C3' N4B d   1      -5.637  -5.391  -0.107  0.00  0.00     0.004 C 
ATOM     10  C4' N4B d   1      -5.998  -6.000   1.215  0.00  0.00     0.003 C 
ENDBRANCH   8   9
ENDBRANCH   7   8
ENDBRANCH   1   7
TORSDOF 3
ENDMDL
