MODEL 1
REMARK minimizedAffinity -3.62902951
REMARK minimizedRMSD -1
REMARK  3 active torsions:
REMARK  status: ('A' for Active; 'I' for Inactive)
REMARK    1  A    between atoms: C3'_2  and  C2'_3 
REMARK    2  A    between atoms: C2'_3  and  C1'_4 
REMARK    3  A    between atoms: C1'_4  and  C1_5 
ROOT
ATOM      1  C1  N4B d   1       0.272   1.095   0.986  0.00  0.00    -0.075 A 
ATOM      2  C2  N4B d   1       1.217   0.754  -0.006  0.00  0.00     0.002 A 
ATOM      3  C3  N4B d   1       1.076  -0.413  -0.716  0.00  0.00     0.002 A 
ATOM      4  C4  N4B d   1       0.013  -1.260  -0.440  0.00  0.00    -0.004 A 
ATOM      5  C5  N4B d   1      -0.909  -0.911   0.503  0.00  0.00     0.002 A 
ATOM      6  C6  N4B d   1      -0.782   0.261   1.222  0.00  0.00     0.002 A 
ENDROOT
BRANCH   1   7
ATOM      7  C1' N4B d   1       0.431   2.318   1.848  0.00  0.00     0.057 C 
BRANCH   7   8
ATOM      8  C2' N4B d   1       1.782   2.260   2.554  0.00  0.00     0.009 C 
BRANCH   8   9
ATOM      9  C3' N4B d   1       1.859   1.107   3.540  0.00  0.00     0.004 C 
ATOM     10  C4' N4B d   1       1.097   1.371   4.804  0.00  0.00     0.003 C 
ENDBRANCH   8   9
ENDBRANCH   7   8
ENDBRANCH   1   7
TORSDOF 3
ENDMDL
