MODEL 1
REMARK minimizedAffinity -4.10414743
REMARK minimizedRMSD -1
REMARK  3 active torsions:
REMARK  status: ('A' for Active; 'I' for Inactive)
REMARK    1  A    between atoms: C3'_2  and  C2'_3 
REMARK    2  A    between atoms: C2'_3  and  C1'_4 
REMARK    3  A    between atoms: C1'_4  and  C1_5 
ROOT
ATOM      1  C1  N4B d   1       0.717  -0.352  -0.367  0.00  0.00    -0.075 A 
ATOM      2  C2  N4B d   1       1.895   0.332  -0.740  0.00  0.00     0.002 A 
ATOM      3  C3  N4B d   1       2.236   1.504  -0.110  0.00  0.00     0.002 A 
ATOM      4  C4  N4B d   1       1.409   2.018   0.877  0.00  0.00    -0.004 A 
ATOM      5  C5  N4B d   1       0.286   1.338   1.248  0.00  0.00     0.002 A 
ATOM      6  C6  N4B d   1      -0.067   0.157   0.627  0.00  0.00     0.002 A 
ENDROOT
BRANCH   1   7
ATOM      7  C1' N4B d   1       0.258  -1.591  -1.086  0.00  0.00     0.057 C 
BRANCH   7   8
ATOM      8  C2' N4B d   1      -1.259  -1.542  -1.250  0.00  0.00     0.009 C 
BRANCH   8   9
ATOM      9  C3' N4B d   1      -1.674  -1.595  -2.710  0.00  0.00     0.004 C 
ATOM     10  C4' N4B d   1      -3.156  -1.463  -2.897  0.00  0.00     0.003 C 
ENDBRANCH   8   9
ENDBRANCH   7   8
ENDBRANCH   1   7
TORSDOF 3
ENDMDL
