MODEL 1
REMARK minimizedAffinity -3.58904648
REMARK minimizedRMSD -1
REMARK  3 active torsions:
REMARK  status: ('A' for Active; 'I' for Inactive)
REMARK    1  A    between atoms: C3'_2  and  C2'_3 
REMARK    2  A    between atoms: C2'_3  and  C1'_4 
REMARK    3  A    between atoms: C1'_4  and  C1_5 
ROOT
ATOM      1  C1  N4B d   1      -0.024  -0.182  -0.055  0.00  0.00    -0.075 A 
ATOM      2  C2  N4B d   1       0.895   0.827  -0.417  0.00  0.00     0.002 A 
ATOM      3  C3  N4B d   1       0.871   2.040   0.227  0.00  0.00     0.002 A 
ATOM      4  C4  N4B d   1      -0.071   2.272   1.218  0.00  0.00    -0.004 A 
ATOM      5  C5  N4B d   1      -0.939   1.283   1.579  0.00  0.00     0.002 A 
ATOM      6  C6  N4B d   1      -0.923   0.058   0.943  0.00  0.00     0.002 A 
ENDROOT
BRANCH   1   7
ATOM      7  C1' N4B d   1      -0.092  -1.494  -0.789  0.00  0.00     0.057 C 
BRANCH   7   8
ATOM      8  C2' N4B d   1      -1.520  -1.723  -1.274  0.00  0.00     0.009 C 
BRANCH   8   9
ATOM      9  C3' N4B d   1      -1.667  -1.445  -2.760  0.00  0.00     0.004 C 
ATOM     10  C4' N4B d   1      -0.423  -1.760  -3.536  0.00  0.00     0.003 C 
ENDBRANCH   8   9
ENDBRANCH   7   8
ENDBRANCH   1   7
TORSDOF 3
ENDMDL
