MODEL 1
REMARK minimizedAffinity -1.17556059
REMARK minimizedRMSD -1
REMARK  3 active torsions:
REMARK  status: ('A' for Active; 'I' for Inactive)
REMARK    1  A    between atoms: C3'_2  and  C2'_3 
REMARK    2  A    between atoms: C2'_3  and  C1'_4 
REMARK    3  A    between atoms: C1'_4  and  C1_5 
ROOT
ATOM      1  C1  N4B d   1      -0.118   0.029   0.155  0.00  0.00    -0.075 A 
ATOM      2  C2  N4B d   1      -1.038  -0.376   1.147  0.00  0.00     0.002 A 
ATOM      3  C3  N4B d   1      -1.175   0.360   2.298  0.00  0.00     0.002 A 
ATOM      4  C4  N4B d   1      -0.393   1.490   2.486  0.00  0.00    -0.004 A 
ATOM      5  C5  N4B d   1       0.475   1.889   1.512  0.00  0.00     0.002 A 
ATOM      6  C6  N4B d   1       0.620   1.160   0.348  0.00  0.00     0.002 A 
ENDROOT
BRANCH   1   7
ATOM      7  C1' N4B d   1       0.128  -0.792  -1.082  0.00  0.00     0.057 C 
BRANCH   7   8
ATOM      8  C2' N4B d   1      -1.198  -1.362  -1.577  0.00  0.00     0.009 C 
BRANCH   8   9
ATOM      9  C3' N4B d   1      -1.371  -1.179  -3.075  0.00  0.00     0.004 C 
ATOM     10  C4' N4B d   1      -2.753  -1.523  -3.545  0.00  0.00     0.003 C 
ENDBRANCH   8   9
ENDBRANCH   7   8
ENDBRANCH   1   7
TORSDOF 3
ENDMDL
