MODEL 1
REMARK minimizedAffinity -6.34343672
REMARK minimizedRMSD -1
REMARK  3 active torsions:
REMARK  status: ('A' for Active; 'I' for Inactive)
REMARK    1  A    between atoms: C3'_2  and  C2'_3 
REMARK    2  A    between atoms: C2'_3  and  C1'_4 
REMARK    3  A    between atoms: C1'_4  and  C1_5 
ROOT
ATOM      1  C1  N4B d   1       0.298   0.150   0.400  0.00  0.00    -0.075 A 
ATOM      2  C2  N4B d   1      -0.237   1.023   1.372  0.00  0.00     0.002 A 
ATOM      3  C3  N4B d   1       0.442   2.167   1.715  0.00  0.00     0.002 A 
ATOM      4  C4  N4B d   1       1.660   2.448   1.115  0.00  0.00    -0.004 A 
ATOM      5  C5  N4B d   1       2.158   1.612   0.158  0.00  0.00     0.002 A 
ATOM      6  C6  N4B d   1       1.485   0.461  -0.199  0.00  0.00     0.002 A 
ENDROOT
BRANCH   1   7
ATOM      7  C1' N4B d   1      -0.364  -1.156   0.055  0.00  0.00     0.057 C 
BRANCH   7   8
ATOM      8  C2' N4B d   1      -1.245  -0.961  -1.176  0.00  0.00     0.009 C 
BRANCH   8   9
ATOM      9  C3' N4B d   1      -2.373  -1.976  -1.235  0.00  0.00     0.004 C 
ATOM     10  C4' N4B d   1      -3.618  -1.426  -1.864  0.00  0.00     0.003 C 
ENDBRANCH   8   9
ENDBRANCH   7   8
ENDBRANCH   1   7
TORSDOF 3
ENDMDL
