MODEL 1
REMARK minimizedAffinity -5.69035959
REMARK minimizedRMSD -1
REMARK  3 active torsions:
REMARK  status: ('A' for Active; 'I' for Inactive)
REMARK    1  A    between atoms: C3'_2  and  C2'_3 
REMARK    2  A    between atoms: C2'_3  and  C1'_4 
REMARK    3  A    between atoms: C1'_4  and  C1_5 
ROOT
ATOM      1  C1  N4B d   1       0.555   0.873   0.364  0.00  0.00    -0.075 A 
ATOM      2  C2  N4B d   1       0.458   2.105   1.048  0.00  0.00     0.002 A 
ATOM      3  C3  N4B d   1       1.590   2.839   1.303  0.00  0.00     0.002 A 
ATOM      4  C4  N4B d   1       2.826   2.355   0.902  0.00  0.00    -0.004 A 
ATOM      5  C5  N4B d   1       2.909   1.176   0.220  0.00  0.00     0.002 A 
ATOM      6  C6  N4B d   1       1.779   0.430  -0.046  0.00  0.00     0.002 A 
ENDROOT
BRANCH   1   7
ATOM      7  C1' N4B d   1      -0.645  -0.006   0.139  0.00  0.00     0.057 C 
BRANCH   7   8
ATOM      8  C2' N4B d   1      -0.203  -1.285  -0.567  0.00  0.00     0.009 C 
BRANCH   8   9
ATOM      9  C3' N4B d   1      -1.298  -1.851  -1.455  0.00  0.00     0.004 C 
ATOM     10  C4' N4B d   1      -1.468  -1.080  -2.730  0.00  0.00     0.003 C 
ENDBRANCH   8   9
ENDBRANCH   7   8
ENDBRANCH   1   7
TORSDOF 3
ENDMDL
