MODEL 1
REMARK minimizedAffinity -4.06886244
REMARK minimizedRMSD -1
REMARK  1 active torsions:
REMARK  status: ('A' for Active; 'I' for Inactive)
REMARK    1  A    between atoms: N_2  and  C1_3 
ROOT
ATOM      1  C1  UNL d   1      -3.903  -3.578  -4.909  0.00  0.00     0.143 A 
ATOM      2  C2  UNL d   1      -5.300  -3.544  -4.962  0.00  0.00    -0.057 A 
ATOM      3  C3  UNL d   1      -5.998  -2.330  -4.960  0.00  0.00     0.033 A 
ATOM      4  C4  UNL d   1      -5.309  -1.125  -4.876  0.00  0.00    -0.042 A 
ATOM      5  C5  UNL d   1      -3.921  -1.135  -4.797  0.00  0.00     0.033 A 
ATOM      6  C6  UNL d   1      -3.229  -2.350  -4.806  0.00  0.00    -0.057 A 
ENDROOT
BRANCH   1   7
ATOM      7  N   UNL d   1      -3.156  -4.754  -4.808  0.00  0.00    -0.732 N 
ATOM      8  C   UNL d   1      -1.760  -4.776  -5.189  0.00  0.00     0.284 C 
ATOM      9  H3  UNL d   1      -3.363  -5.274  -3.958  0.00  0.00     0.395 HD
ENDBRANCH   1   7
TORSDOF 1
ENDMDL
