MODEL 1
REMARK minimizedAffinity -3.20780373
REMARK minimizedRMSD -1
REMARK  1 active torsions:
REMARK  status: ('A' for Active; 'I' for Inactive)
REMARK    1  A    between atoms: N_2  and  C1_3 
ROOT
ATOM      1  C1  UNL d   1      -3.910  -3.427  -5.177  0.00  0.00     0.143 A 
ATOM      2  C2  UNL d   1      -2.714  -3.302  -5.893  0.00  0.00    -0.057 A 
ATOM      3  C3  UNL d   1      -1.816  -4.371  -5.998  0.00  0.00     0.033 A 
ATOM      4  C4  UNL d   1      -2.085  -5.578  -5.362  0.00  0.00    -0.042 A 
ATOM      5  C5  UNL d   1      -3.255  -5.717  -4.625  0.00  0.00     0.033 A 
ATOM      6  C6  UNL d   1      -4.152  -4.648  -4.529  0.00  0.00    -0.057 A 
ENDROOT
BRANCH   1   7
ATOM      7  N   UNL d   1      -4.797  -2.370  -4.954  0.00  0.00    -0.732 N 
ATOM      8  C   UNL d   1      -5.045  -1.386  -5.986  0.00  0.00     0.284 C 
ATOM      9  H3  UNL d   1      -5.630  -2.663  -4.449  0.00  0.00     0.395 HD
ENDBRANCH   1   7
TORSDOF 1
ENDMDL
