MODEL 1
REMARK minimizedAffinity -2.21905017
REMARK minimizedRMSD -1
REMARK  1 active torsions:
REMARK  status: ('A' for Active; 'I' for Inactive)
REMARK    1  A    between atoms: N_2  and  C1_3 
ROOT
ATOM      1  C1  UNL d   1      -5.573  -3.408  -4.685  0.00  0.00     0.143 A 
ATOM      2  C2  UNL d   1      -5.997  -4.254  -5.715  0.00  0.00    -0.057 A 
ATOM      3  C3  UNL d   1      -5.470  -5.543  -5.860  0.00  0.00     0.033 A 
ATOM      4  C4  UNL d   1      -4.484  -5.999  -4.992  0.00  0.00    -0.042 A 
ATOM      5  C5  UNL d   1      -4.029  -5.166  -3.976  0.00  0.00     0.033 A 
ATOM      6  C6  UNL d   1      -4.564  -3.883  -3.832  0.00  0.00    -0.057 A 
ENDROOT
BRANCH   1   7
ATOM      7  N   UNL d   1      -5.988  -2.081  -4.548  0.00  0.00    -0.732 N 
ATOM      8  C   UNL d   1      -5.832  -1.143  -5.639  0.00  0.00     0.284 C 
ATOM      9  H3  UNL d   1      -6.873  -2.000  -4.053  0.00  0.00     0.395 HD
ENDBRANCH   1   7
TORSDOF 1
ENDMDL
