MODEL 1
REMARK minimizedAffinity -3.28886819
REMARK minimizedRMSD -1
REMARK  1 active torsions:
REMARK  status: ('A' for Active; 'I' for Inactive)
REMARK    1  A    between atoms: N_2  and  C1_3 
ROOT
ATOM      1  C1  UNL d   1      -4.114  -5.050  -4.963  0.00  0.00     0.143 A 
ATOM      2  C2  UNL d   1      -4.488  -4.730  -3.653  0.00  0.00    -0.057 A 
ATOM      3  C3  UNL d   1      -5.405  -3.705  -3.390  0.00  0.00     0.033 A 
ATOM      4  C4  UNL d   1      -5.944  -2.961  -4.434  0.00  0.00    -0.042 A 
ATOM      5  C5  UNL d   1      -5.567  -3.245  -5.742  0.00  0.00     0.033 A 
ATOM      6  C6  UNL d   1      -4.656  -4.274  -5.999  0.00  0.00    -0.057 A 
ENDROOT
BRANCH   1   7
ATOM      7  N   UNL d   1      -3.133  -5.992  -5.283  0.00  0.00    -0.732 N 
ATOM      8  C   UNL d   1      -1.868  -5.575  -5.851  0.00  0.00     0.284 C 
ATOM      9  H3  UNL d   1      -3.052  -6.723  -4.581  0.00  0.00     0.395 HD
ENDBRANCH   1   7
TORSDOF 1
ENDMDL
