MODEL 1
REMARK minimizedAffinity -2.07546401
REMARK minimizedRMSD -1
REMARK  1 active torsions:
REMARK  status: ('A' for Active; 'I' for Inactive)
REMARK    1  A    between atoms: N_2  and  C1_3 
ROOT
ATOM      1  C1  UNL d   1      -4.121  -4.486  -4.807  0.00  0.00     0.143 A 
ATOM      2  C2  UNL d   1      -3.913  -5.592  -5.637  0.00  0.00    -0.057 A 
ATOM      3  C3  UNL d   1      -2.621  -5.995  -6.000  0.00  0.00     0.033 A 
ATOM      4  C4  UNL d   1      -1.514  -5.277  -5.561  0.00  0.00    -0.042 A 
ATOM      5  C5  UNL d   1      -1.699  -4.159  -4.756  0.00  0.00     0.033 A 
ATOM      6  C6  UNL d   1      -2.990  -3.766  -4.392  0.00  0.00    -0.057 A 
ENDROOT
BRANCH   1   7
ATOM      7  N   UNL d   1      -5.384  -3.978  -4.492  0.00  0.00    -0.732 N 
ATOM      8  C   UNL d   1      -5.754  -2.632  -4.874  0.00  0.00     0.284 C 
ATOM      9  H3  UNL d   1      -6.123  -4.665  -4.622  0.00  0.00     0.395 HD
ENDBRANCH   1   7
TORSDOF 1
ENDMDL
