MODEL 1
REMARK minimizedAffinity -3.10265994
REMARK minimizedRMSD -1
REMARK  1 active torsions:
REMARK  status: ('A' for Active; 'I' for Inactive)
REMARK    1  A    between atoms: N_2  and  C1_3 
ROOT
ATOM      1  C1  UNL d   1      -4.288  -3.318  -5.497  0.00  0.00     0.143 A 
ATOM      2  C2  UNL d   1      -5.191  -4.385  -5.556  0.00  0.00    -0.057 A 
ATOM      3  C3  UNL d   1      -4.746  -5.712  -5.583  0.00  0.00     0.033 A 
ATOM      4  C4  UNL d   1      -3.385  -5.996  -5.582  0.00  0.00    -0.042 A 
ATOM      5  C5  UNL d   1      -2.468  -4.951  -5.549  0.00  0.00     0.033 A 
ATOM      6  C6  UNL d   1      -2.919  -3.628  -5.515  0.00  0.00    -0.057 A 
ENDROOT
BRANCH   1   7
ATOM      7  N   UNL d   1      -4.665  -1.975  -5.566  0.00  0.00    -0.732 N 
ATOM      8  C   UNL d   1      -5.996  -1.604  -5.998  0.00  0.00     0.284 C 
ATOM      9  H3  UNL d   1      -4.317  -1.433  -4.779  0.00  0.00     0.395 HD
ENDBRANCH   1   7
TORSDOF 1
ENDMDL
