MODEL 1
REMARK minimizedAffinity -0.826411009
REMARK minimizedRMSD -1
REMARK  1 active torsions:
REMARK  status: ('A' for Active; 'I' for Inactive)
REMARK    1  A    between atoms: N_2  and  C1_3 
ROOT
ATOM      1  C1  UNL d   1      -1.571  -1.194   1.839  0.00  0.00     0.143 A 
ATOM      2  C2  UNL d   1      -2.315  -1.996   0.968  0.00  0.00    -0.057 A 
ATOM      3  C3  UNL d   1      -1.739  -2.548  -0.182  0.00  0.00     0.033 A 
ATOM      4  C4  UNL d   1      -0.410  -2.283  -0.498  0.00  0.00    -0.042 A 
ATOM      5  C5  UNL d   1       0.342  -1.467   0.341  0.00  0.00     0.033 A 
ATOM      6  C6  UNL d   1      -0.238  -0.925   1.491  0.00  0.00    -0.057 A 
ENDROOT
BRANCH   1   7
ATOM      7  N   UNL d   1      -2.114  -0.536   2.946  0.00  0.00    -0.732 N 
ATOM      8  C   UNL d   1      -3.544  -0.520   3.166  0.00  0.00     0.284 C 
ATOM      9  H3  UNL d   1      -1.565  -0.680   3.791  0.00  0.00     0.395 HD
ENDBRANCH   1   7
TORSDOF 1
ENDMDL
