MODEL 1
REMARK minimizedAffinity 3.91761494
REMARK minimizedRMSD -1
REMARK  1 active torsions:
REMARK  status: ('A' for Active; 'I' for Inactive)
REMARK    1  A    between atoms: N_2  and  C1_3 
ROOT
ATOM      1  C1  UNL d   1      -3.607  -4.729  -4.381  0.00  0.00     0.143 A 
ATOM      2  C2  UNL d   1      -3.089  -4.688  -5.680  0.00  0.00    -0.057 A 
ATOM      3  C3  UNL d   1      -1.875  -5.309  -5.998  0.00  0.00     0.033 A 
ATOM      4  C4  UNL d   1      -1.141  -5.960  -5.012  0.00  0.00    -0.042 A 
ATOM      5  C5  UNL d   1      -1.624  -5.992  -3.709  0.00  0.00     0.033 A 
ATOM      6  C6  UNL d   1      -2.840  -5.376  -3.399  0.00  0.00    -0.057 A 
ENDROOT
BRANCH   1   7
ATOM      7  N   UNL d   1      -4.759  -4.048  -3.981  0.00  0.00    -0.732 N 
ATOM      8  C   UNL d   1      -5.219  -2.886  -4.711  0.00  0.00     0.284 C 
ATOM      9  H3  UNL d   1      -5.503  -4.679  -3.692  0.00  0.00     0.395 HD
ENDBRANCH   1   7
TORSDOF 1
ENDMDL
