MODEL 1
REMARK minimizedAffinity -1.26832891
REMARK minimizedRMSD -1
REMARK  1 active torsions:
REMARK  status: ('A' for Active; 'I' for Inactive)
REMARK    1  A    between atoms: N_2  and  C1_3 
ROOT
ATOM      1  C1  UNL d   1      -3.920  -5.005  -4.164  0.00  0.00     0.143 A 
ATOM      2  C2  UNL d   1      -4.510  -5.617  -5.274  0.00  0.00    -0.057 A 
ATOM      3  C3  UNL d   1      -5.530  -4.985  -5.996  0.00  0.00     0.033 A 
ATOM      4  C4  UNL d   1      -6.000  -3.737  -5.599  0.00  0.00    -0.042 A 
ATOM      5  C5  UNL d   1      -5.445  -3.121  -4.483  0.00  0.00     0.033 A 
ATOM      6  C6  UNL d   1      -4.422  -3.754  -3.771  0.00  0.00    -0.057 A 
ENDROOT
BRANCH   1   7
ATOM      7  N   UNL d   1      -2.970  -5.624  -3.347  0.00  0.00    -0.732 N 
ATOM      8  C   UNL d   1      -2.348  -4.899  -2.260  0.00  0.00     0.284 C 
ATOM      9  H3  UNL d   1      -3.222  -6.583  -3.117  0.00  0.00     0.395 HD
ENDBRANCH   1   7
TORSDOF 1
ENDMDL
