MODEL 1
REMARK minimizedAffinity -3.5118041
REMARK minimizedRMSD -1
REMARK  1 active torsions:
REMARK  status: ('A' for Active; 'I' for Inactive)
REMARK    1  A    between atoms: N_2  and  C1_3 
ROOT
ATOM      1  C1  UNL d   1      -3.427  -3.747  -5.570  0.00  0.00     0.143 A 
ATOM      2  C2  UNL d   1      -3.713  -2.379  -5.632  0.00  0.00    -0.057 A 
ATOM      3  C3  UNL d   1      -4.980  -1.885  -5.296  0.00  0.00     0.033 A 
ATOM      4  C4  UNL d   1      -5.995  -2.758  -4.919  0.00  0.00    -0.042 A 
ATOM      5  C5  UNL d   1      -5.741  -4.124  -4.874  0.00  0.00     0.033 A 
ATOM      6  C6  UNL d   1      -4.472  -4.610  -5.204  0.00  0.00    -0.057 A 
ENDROOT
BRANCH   1   7
ATOM      7  N   UNL d   1      -2.218  -4.308  -5.985  0.00  0.00    -0.732 N 
ATOM      8  C   UNL d   1      -1.851  -5.650  -5.585  0.00  0.00     0.284 C 
ATOM      9  H3  UNL d   1      -2.001  -4.091  -6.955  0.00  0.00     0.395 HD
ENDBRANCH   1   7
TORSDOF 1
ENDMDL
