MODEL 1
REMARK minimizedAffinity -2.89615631
REMARK minimizedRMSD -1
REMARK  1 active torsions:
REMARK  status: ('A' for Active; 'I' for Inactive)
REMARK    1  A    between atoms: N_2  and  C1_3 
ROOT
ATOM      1  C1  UNL d   1      -2.946  -4.898  -4.847  0.00  0.00     0.143 A 
ATOM      2  C2  UNL d   1      -3.824  -3.866  -4.500  0.00  0.00    -0.057 A 
ATOM      3  C3  UNL d   1      -5.175  -3.909  -4.865  0.00  0.00     0.033 A 
ATOM      4  C4  UNL d   1      -5.667  -4.975  -5.612  0.00  0.00    -0.042 A 
ATOM      5  C5  UNL d   1      -4.806  -6.000  -5.990  0.00  0.00     0.033 A 
ATOM      6  C6  UNL d   1      -3.460  -5.954  -5.616  0.00  0.00    -0.057 A 
ENDROOT
BRANCH   1   7
ATOM      7  N   UNL d   1      -1.571  -4.867  -4.599  0.00  0.00    -0.732 N 
ATOM      8  C   UNL d   1      -1.006  -5.603  -3.489  0.00  0.00     0.284 C 
ATOM      9  H3  UNL d   1      -1.021  -4.915  -5.453  0.00  0.00     0.395 HD
ENDBRANCH   1   7
TORSDOF 1
ENDMDL
