MODEL 1
REMARK minimizedAffinity -2.94735909
REMARK minimizedRMSD -1
REMARK  1 active torsions:
REMARK  status: ('A' for Active; 'I' for Inactive)
REMARK    1  A    between atoms: N_2  and  C1_3 
ROOT
ATOM      1  C1  UNL d   1      -3.985  -5.159  -4.491  0.00  0.00     0.143 A 
ATOM      2  C2  UNL d   1      -3.607  -5.881  -5.628  0.00  0.00    -0.057 A 
ATOM      3  C3  UNL d   1      -2.262  -6.000  -6.000  0.00  0.00     0.033 A 
ATOM      4  C4  UNL d   1      -1.270  -5.372  -5.254  0.00  0.00    -0.042 A 
ATOM      5  C5  UNL d   1      -1.625  -4.628  -4.134  0.00  0.00     0.033 A 
ATOM      6  C6  UNL d   1      -2.969  -4.518  -3.764  0.00  0.00    -0.057 A 
ENDROOT
BRANCH   1   7
ATOM      7  N   UNL d   1      -5.312  -4.921  -4.126  0.00  0.00    -0.732 N 
ATOM      8  C   UNL d   1      -6.000  -3.732  -4.579  0.00  0.00     0.284 C 
ATOM      9  H3  UNL d   1      -5.879  -5.766  -4.153  0.00  0.00     0.395 HD
ENDBRANCH   1   7
TORSDOF 1
ENDMDL
