MODEL 1
REMARK minimizedAffinity -4.15851879
REMARK minimizedRMSD -1
REMARK  1 active torsions:
REMARK  status: ('A' for Active; 'I' for Inactive)
REMARK    1  A    between atoms: N_2  and  C1_3 
ROOT
ATOM      1  C1  UNL d   1      -2.798  -4.281  -5.203  0.00  0.00     0.143 A 
ATOM      2  C2  UNL d   1      -1.775  -5.032  -5.793  0.00  0.00    -0.057 A 
ATOM      3  C3  UNL d   1      -0.935  -5.846  -5.023  0.00  0.00     0.033 A 
ATOM      4  C4  UNL d   1      -1.086  -5.901  -3.641  0.00  0.00    -0.042 A 
ATOM      5  C5  UNL d   1      -2.079  -5.144  -3.030  0.00  0.00     0.033 A 
ATOM      6  C6  UNL d   1      -2.919  -4.338  -3.805  0.00  0.00    -0.057 A 
ENDROOT
BRANCH   1   7
ATOM      7  N   UNL d   1      -3.602  -3.378  -5.902  0.00  0.00    -0.732 N 
ATOM      8  C   UNL d   1      -4.825  -2.872  -5.315  0.00  0.00     0.284 C 
ATOM      9  H3  UNL d   1      -3.057  -2.676  -6.397  0.00  0.00     0.395 HD
ENDBRANCH   1   7
TORSDOF 1
ENDMDL
