MODEL 1
REMARK minimizedAffinity 0.693553805
REMARK minimizedRMSD -1
REMARK  0 active torsions:
REMARK  status: ('A' for Active; 'I' for Inactive)
ROOT
ATOM      1  N1  IND d   1       0.005   5.166  -5.996  0.00  0.00    -0.196 N 
ATOM      2  C2  IND d   1      -1.152   5.889  -5.906  0.00  0.00     0.054 A 
ATOM      3  C3  IND d   1      -2.202   5.069  -5.678  0.00  0.00    -0.031 A 
ATOM      4  C4  IND d   1      -2.239   2.521  -5.314  0.00  0.00     0.051 A 
ATOM      5  C5  IND d   1      -1.433   1.417  -5.339  0.00  0.00    -0.031 A 
ATOM      6  C6  IND d   1      -0.078   1.509  -5.587  0.00  0.00     0.015 A 
ATOM      7  C7  IND d   1       0.525   2.715  -5.808  0.00  0.00    -0.016 A 
ATOM      8  C8  IND d   1      -0.292   3.837  -5.791  0.00  0.00    -0.047 A 
ATOM      9  C9  IND d   1      -1.674   3.745  -5.582  0.00  0.00    -0.096 A 
ATOM     10  HN1 IND d   1       0.786   5.488  -6.154  0.00  0.00     0.298 HD
ENDROOT
TORSDOF 0
ENDMDL
