MODEL 1
REMARK minimizedAffinity 8.25568295
REMARK minimizedRMSD -1
REMARK  0 active torsions:
REMARK  status: ('A' for Active; 'I' for Inactive)
ROOT
ATOM      1  N1  IND d   1      -1.103   3.810   4.272  0.00  0.00    -0.196 N 
ATOM      2  C2  IND d   1      -2.328   3.302   3.940  0.00  0.00     0.054 A 
ATOM      3  C3  IND d   1      -2.339   2.906   2.647  0.00  0.00    -0.031 A 
ATOM      4  C4  IND d   1      -0.429   2.904   0.921  0.00  0.00     0.051 A 
ATOM      5  C5  IND d   1       0.866   3.306   0.747  0.00  0.00    -0.031 A 
ATOM      6  C6  IND d   1       1.586   3.905   1.760  0.00  0.00     0.015 A 
ATOM      7  C7  IND d   1       1.039   4.116   2.994  0.00  0.00    -0.016 A 
ATOM      8  C8  IND d   1      -0.278   3.717   3.173  0.00  0.00    -0.047 A 
ATOM      9  C9  IND d   1      -1.027   3.146   2.136  0.00  0.00    -0.096 A 
ATOM     10  HN1 IND d   1      -0.885   4.133   5.038  0.00  0.00     0.298 HD
ENDROOT
TORSDOF 0
ENDMDL
