MODEL 1
REMARK minimizedAffinity 8.02440071
REMARK minimizedRMSD -1
REMARK  0 active torsions:
REMARK  status: ('A' for Active; 'I' for Inactive)
ROOT
ATOM      1  N1  IND d   1       1.052   1.870   0.851  0.00  0.00    -0.196 N 
ATOM      2  C2  IND d   1       0.496   3.075   1.179  0.00  0.00     0.054 A 
ATOM      3  C3  IND d   1      -0.848   3.026   1.043  0.00  0.00    -0.031 A 
ATOM      4  C4  IND d   1      -2.355   1.043   0.393  0.00  0.00     0.051 A 
ATOM      5  C5  IND d   1      -2.304  -0.254  -0.032  0.00  0.00    -0.031 A 
ATOM      6  C6  IND d   1      -1.108  -0.925  -0.185  0.00  0.00     0.015 A 
ATOM      7  C7  IND d   1       0.087  -0.323   0.093  0.00  0.00    -0.016 A 
ATOM      8  C8  IND d   1       0.039   0.997   0.519  0.00  0.00    -0.047 A 
ATOM      9  C9  IND d   1      -1.169   1.696   0.635  0.00  0.00    -0.096 A 
ATOM     10  HN1 IND d   1       1.892   1.687   0.853  0.00  0.00     0.298 HD
ENDROOT
TORSDOF 0
ENDMDL
