MODEL 1
REMARK minimizedAffinity -1.36660409
REMARK minimizedRMSD -1
REMARK  0 active torsions:
REMARK  status: ('A' for Active; 'I' for Inactive)
ROOT
ATOM      1  N1  IND d   1      -2.288   2.023  -5.989  0.00  0.00    -0.196 N 
ATOM      2  C2  IND d   1      -0.923   1.950  -6.000  0.00  0.00     0.054 A 
ATOM      3  C3  IND d   1      -0.385   3.175  -5.808  0.00  0.00    -0.031 A 
ATOM      4  C4  IND d   1      -1.555   5.423  -5.352  0.00  0.00     0.051 A 
ATOM      5  C5  IND d   1      -2.793   5.998  -5.285  0.00  0.00    -0.031 A 
ATOM      6  C6  IND d   1      -3.949   5.263  -5.450  0.00  0.00     0.015 A 
ATOM      7  C7  IND d   1      -3.911   3.917  -5.677  0.00  0.00    -0.016 A 
ATOM      8  C8  IND d   1      -2.655   3.330  -5.753  0.00  0.00    -0.047 A 
ATOM      9  C9  IND d   1      -1.478   4.078  -5.629  0.00  0.00    -0.096 A 
ATOM     10  HN1 IND d   1      -2.827   1.364  -6.109  0.00  0.00     0.298 HD
ENDROOT
TORSDOF 0
ENDMDL
