MODEL 1
REMARK minimizedAffinity 2.53856134
REMARK minimizedRMSD -1
REMARK  0 active torsions:
REMARK  status: ('A' for Active; 'I' for Inactive)
ROOT
ATOM      1  N1  IND d   1      -1.641   2.050   3.744  0.00  0.00    -0.196 N 
ATOM      2  C2  IND d   1      -1.129   3.232   3.285  0.00  0.00     0.054 A 
ATOM      3  C3  IND d   1      -1.210   3.288   1.936  0.00  0.00    -0.031 A 
ATOM      4  C4  IND d   1      -2.238   1.597   0.289  0.00  0.00     0.051 A 
ATOM      5  C5  IND d   1      -2.796   0.351   0.232  0.00  0.00    -0.031 A 
ATOM      6  C6  IND d   1      -3.004  -0.407   1.367  0.00  0.00     0.015 A 
ATOM      7  C7  IND d   1      -2.671   0.060   2.606  0.00  0.00    -0.016 A 
ATOM      8  C8  IND d   1      -2.097   1.323   2.667  0.00  0.00    -0.047 A 
ATOM      9  C9  IND d   1      -1.845   2.079   1.515  0.00  0.00    -0.096 A 
ATOM     10  HN1 IND d   1      -1.672   1.803   4.567  0.00  0.00     0.298 HD
ENDROOT
TORSDOF 0
ENDMDL
