MODEL 1
REMARK minimizedAffinity -0.688747406
REMARK minimizedRMSD -1
REMARK  0 active torsions:
REMARK  status: ('A' for Active; 'I' for Inactive)
ROOT
ATOM      1  N1  IND d   1       0.044  -1.222   1.126  0.00  0.00    -0.196 N 
ATOM      2  C2  IND d   1       1.383  -1.092   0.886  0.00  0.00     0.054 A 
ATOM      3  C3  IND d   1       1.707   0.210   0.721  0.00  0.00    -0.031 A 
ATOM      4  C4  IND d   1       0.218   2.302   0.902  0.00  0.00     0.051 A 
ATOM      5  C5  IND d   1      -1.082   2.687   1.069  0.00  0.00    -0.031 A 
ATOM      6  C6  IND d   1      -2.094   1.770   1.270  0.00  0.00     0.015 A 
ATOM      7  C7  IND d   1      -1.840   0.429   1.324  0.00  0.00    -0.016 A 
ATOM      8  C8  IND d   1      -0.522   0.034   1.148  0.00  0.00    -0.047 A 
ATOM      9  C9  IND d   1       0.503   0.957   0.900  0.00  0.00    -0.096 A 
ATOM     10  HN1 IND d   1      -0.375  -1.964   1.244  0.00  0.00     0.298 HD
ENDROOT
TORSDOF 0
ENDMDL
