MODEL 1
REMARK minimizedAffinity 2.36135292
REMARK minimizedRMSD -1
REMARK  0 active torsions:
REMARK  status: ('A' for Active; 'I' for Inactive)
ROOT
ATOM      1  N1  IND d   1       0.460  -0.128   0.519  0.00  0.00    -0.196 N 
ATOM      2  C2  IND d   1      -0.836   0.178   0.827  0.00  0.00     0.054 A 
ATOM      3  C3  IND d   1      -1.369   0.977  -0.125  0.00  0.00    -0.031 A 
ATOM      4  C4  IND d   1      -0.328   1.822  -2.323  0.00  0.00     0.051 A 
ATOM      5  C5  IND d   1       0.845   1.835  -3.024  0.00  0.00    -0.031 A 
ATOM      6  C6  IND d   1       1.972   1.179  -2.572  0.00  0.00     0.015 A 
ATOM      7  C7  IND d   1       1.964   0.473  -1.402  0.00  0.00    -0.016 A 
ATOM      8  C8  IND d   1       0.777   0.463  -0.685  0.00  0.00    -0.047 A 
ATOM      9  C9  IND d   1      -0.358   1.162  -1.117  0.00  0.00    -0.096 A 
ATOM     10  HN1 IND d   1       0.989  -0.609   0.997  0.00  0.00     0.298 HD
ENDROOT
TORSDOF 0
ENDMDL
