MODEL 1
REMARK minimizedAffinity 4.36594152
REMARK minimizedRMSD -1
REMARK  0 active torsions:
REMARK  status: ('A' for Active; 'I' for Inactive)
ROOT
ATOM      1  N1  IND d   1       3.764   4.100  -6.000  0.00  0.00    -0.196 N 
ATOM      2  C2  IND d   1       5.086   4.150  -5.653  0.00  0.00     0.054 A 
ATOM      3  C3  IND d   1       5.301   3.445  -4.520  0.00  0.00    -0.031 A 
ATOM      4  C4  IND d   1       3.651   2.046  -3.124  0.00  0.00     0.051 A 
ATOM      5  C5  IND d   1       2.326   1.726  -3.025  0.00  0.00    -0.031 A 
ATOM      6  C6  IND d   1       1.394   2.189  -3.932  0.00  0.00     0.015 A 
ATOM      7  C7  IND d   1       1.756   2.982  -4.983  0.00  0.00    -0.016 A 
ATOM      8  C8  IND d   1       3.100   3.314  -5.084  0.00  0.00    -0.047 A 
ATOM      9  C9  IND d   1       4.043   2.883  -4.142  0.00  0.00    -0.096 A 
ATOM     10  HN1 IND d   1       3.408   4.493  -6.677  0.00  0.00     0.298 HD
ENDROOT
TORSDOF 0
ENDMDL
