MODEL 1
REMARK minimizedAffinity 0.611999512
REMARK minimizedRMSD -1
REMARK  0 active torsions:
REMARK  status: ('A' for Active; 'I' for Inactive)
ROOT
ATOM      1  N1  IND d   1       2.289   0.679   1.146  0.00  0.00    -0.196 N 
ATOM      2  C2  IND d   1       2.738   1.808   1.774  0.00  0.00     0.054 A 
ATOM      3  C3  IND d   1       1.724   2.686   1.943  0.00  0.00    -0.031 A 
ATOM      4  C4  IND d   1      -0.771   2.437   1.358  0.00  0.00     0.051 A 
ATOM      5  C5  IND d   1      -1.653   1.598   0.738  0.00  0.00    -0.031 A 
ATOM      6  C6  IND d   1      -1.259   0.384   0.214  0.00  0.00     0.015 A 
ATOM      7  C7  IND d   1       0.036  -0.043   0.301  0.00  0.00    -0.016 A 
ATOM      8  C8  IND d   1       0.936   0.810   0.924  0.00  0.00    -0.047 A 
ATOM      9  C9  IND d   1       0.551   2.062   1.420  0.00  0.00    -0.096 A 
ATOM     10  HN1 IND d   1       2.772   0.002   0.927  0.00  0.00     0.298 HD
ENDROOT
TORSDOF 0
ENDMDL
