MODEL 1
REMARK minimizedAffinity 2.16372585
REMARK minimizedRMSD -1
REMARK  0 active torsions:
REMARK  status: ('A' for Active; 'I' for Inactive)
ROOT
ATOM      1  N1  IND d   1       1.443   1.148   0.884  0.00  0.00    -0.196 N 
ATOM      2  C2  IND d   1       1.801  -0.129   0.553  0.00  0.00     0.054 A 
ATOM      3  C3  IND d   1       0.701  -0.884   0.336  0.00  0.00    -0.031 A 
ATOM      4  C4  IND d   1      -1.782  -0.205   0.368  0.00  0.00     0.051 A 
ATOM      5  C5  IND d   1      -2.608   0.846   0.654  0.00  0.00    -0.031 A 
ATOM      6  C6  IND d   1      -2.115   2.077   1.037  0.00  0.00     0.015 A 
ATOM      7  C7  IND d   1      -0.772   2.307   1.137  0.00  0.00    -0.016 A 
ATOM      8  C8  IND d   1       0.069   1.240   0.854  0.00  0.00    -0.047 A 
ATOM      9  C9  IND d   1      -0.426  -0.023   0.506  0.00  0.00    -0.096 A 
ATOM     10  HN1 IND d   1       1.985   1.786   1.079  0.00  0.00     0.298 HD
ENDROOT
TORSDOF 0
ENDMDL
