MODEL 1
REMARK minimizedAffinity 4.64022017
REMARK minimizedRMSD -1
REMARK  0 active torsions:
REMARK  status: ('A' for Active; 'I' for Inactive)
ROOT
ATOM      1  N1  IND d   1       1.978   0.379   0.759  0.00  0.00    -0.196 N 
ATOM      2  C2  IND d   1       2.652   1.479   1.212  0.00  0.00     0.054 A 
ATOM      3  C3  IND d   1       1.798   2.512   1.392  0.00  0.00    -0.031 A 
ATOM      4  C4  IND d   1      -0.759   2.590   1.103  0.00  0.00     0.051 A 
ATOM      5  C5  IND d   1      -1.817   1.841   0.672  0.00  0.00    -0.031 A 
ATOM      6  C6  IND d   1      -1.662   0.539   0.241  0.00  0.00     0.015 A 
ATOM      7  C7  IND d   1      -0.439  -0.069   0.237  0.00  0.00    -0.016 A 
ATOM      8  C8  IND d   1       0.640   0.691   0.668  0.00  0.00    -0.047 A 
ATOM      9  C9  IND d   1       0.495   2.027   1.065  0.00  0.00    -0.096 A 
ATOM     10  HN1 IND d   1       2.332  -0.380   0.564  0.00  0.00     0.298 HD
ENDROOT
TORSDOF 0
ENDMDL
