MODEL 1
REMARK minimizedAffinity 1.12779319
REMARK minimizedRMSD -1
REMARK  0 active torsions:
REMARK  status: ('A' for Active; 'I' for Inactive)
ROOT
ATOM      1  N1  IND d   1      -2.121   3.638  -5.931  0.00  0.00    -0.196 N 
ATOM      2  C2  IND d   1      -2.328   2.288  -5.984  0.00  0.00     0.054 A 
ATOM      3  C3  IND d   1      -3.651   2.014  -5.981  0.00  0.00    -0.031 A 
ATOM      4  C4  IND d   1      -5.656   3.629  -5.996  0.00  0.00     0.051 A 
ATOM      5  C5  IND d   1      -5.970   4.957  -5.916  0.00  0.00    -0.031 A 
ATOM      6  C6  IND d   1      -4.997   5.933  -5.839  0.00  0.00     0.015 A 
ATOM      7  C7  IND d   1      -3.668   5.617  -5.849  0.00  0.00    -0.016 A 
ATOM      8  C8  IND d   1      -3.346   4.269  -5.923  0.00  0.00    -0.047 A 
ATOM      9  C9  IND d   1      -4.329   3.272  -5.959  0.00  0.00    -0.096 A 
ATOM     10  HN1 IND d   1      -1.355   4.028  -5.907  0.00  0.00     0.298 HD
ENDROOT
TORSDOF 0
ENDMDL
