MODEL 1
REMARK minimizedAffinity 4.65950584
REMARK minimizedRMSD -1
REMARK  0 active torsions:
REMARK  status: ('A' for Active; 'I' for Inactive)
ROOT
ATOM      1  N1  IND d   1      -0.747  -3.162  -2.372  0.00  0.00    -0.196 N 
ATOM      2  C2  IND d   1      -1.876  -3.505  -1.682  0.00  0.00     0.054 A 
ATOM      3  C3  IND d   1      -1.962  -2.791  -0.536  0.00  0.00    -0.031 A 
ATOM      4  C4  IND d   1      -0.416  -0.935   0.354  0.00  0.00     0.051 A 
ATOM      5  C5  IND d   1       0.764  -0.298   0.091  0.00  0.00    -0.031 A 
ATOM      6  C6  IND d   1       1.514  -0.586  -1.031  0.00  0.00     0.015 A 
ATOM      7  C7  IND d   1       1.105  -1.519  -1.941  0.00  0.00    -0.016 A 
ATOM      8  C8  IND d   1      -0.089  -2.174  -1.673  0.00  0.00    -0.047 A 
ATOM      9  C9  IND d   1      -0.834  -1.916  -0.515  0.00  0.00    -0.096 A 
ATOM     10  HN1 IND d   1      -0.491  -3.506  -3.117  0.00  0.00     0.298 HD
ENDROOT
TORSDOF 0
ENDMDL
