MODEL 1
REMARK minimizedAffinity 0.0368539393
REMARK minimizedRMSD -1
REMARK  0 active torsions:
REMARK  status: ('A' for Active; 'I' for Inactive)
ROOT
ATOM      1  N1  IND d   1       2.513   1.533   1.974  0.00  0.00    -0.196 N 
ATOM      2  C2  IND d   1       2.559   2.751   2.593  0.00  0.00     0.054 A 
ATOM      3  C3  IND d   1       1.366   3.378   2.487  0.00  0.00    -0.031 A 
ATOM      4  C4  IND d   1      -0.830   2.548   1.431  0.00  0.00     0.051 A 
ATOM      5  C5  IND d   1      -1.354   1.513   0.710  0.00  0.00    -0.031 A 
ATOM      6  C6  IND d   1      -0.602   0.407   0.369  0.00  0.00     0.015 A 
ATOM      7  C7  IND d   1       0.705   0.291   0.748  0.00  0.00    -0.016 A 
ATOM      8  C8  IND d   1       1.243   1.344   1.474  0.00  0.00    -0.047 A 
ATOM      9  C9  IND d   1       0.497   2.487   1.787  0.00  0.00    -0.096 A 
ATOM     10  HN1 IND d   1       3.167   0.978   1.908  0.00  0.00     0.298 HD
ENDROOT
TORSDOF 0
ENDMDL
