MODEL 1
REMARK minimizedAffinity 3.77919292
REMARK minimizedRMSD -1
REMARK  0 active torsions:
REMARK  status: ('A' for Active; 'I' for Inactive)
ROOT
ATOM      1  N1  IND d   1       1.670   1.461   0.802  0.00  0.00    -0.196 N 
ATOM      2  C2  IND d   1       2.195   0.237   0.496  0.00  0.00     0.054 A 
ATOM      3  C3  IND d   1       1.229  -0.709   0.522  0.00  0.00    -0.031 A 
ATOM      4  C4  IND d   1      -1.298  -0.454   0.943  0.00  0.00     0.051 A 
ATOM      5  C5  IND d   1      -2.243   0.466   1.301  0.00  0.00    -0.031 A 
ATOM      6  C6  IND d   1      -1.926   1.792   1.513  0.00  0.00     0.015 A 
ATOM      7  C7  IND d   1      -0.649   2.252   1.363  0.00  0.00    -0.016 A 
ATOM      8  C8  IND d   1       0.315   1.319   1.006  0.00  0.00    -0.047 A 
ATOM      9  C9  IND d   1       0.007  -0.036   0.831  0.00  0.00    -0.096 A 
ATOM     10  HN1 IND d   1       2.112   2.197   0.859  0.00  0.00     0.298 HD
ENDROOT
TORSDOF 0
ENDMDL
