MODEL 1
REMARK minimizedAffinity 4.69266653
REMARK minimizedRMSD -1
REMARK  0 active torsions:
REMARK  status: ('A' for Active; 'I' for Inactive)
ROOT
ATOM      1  C1  BNZ d   1      -5.217   5.984   3.588  0.00  0.00     0.000 A 
ATOM      2  C2  BNZ d   1      -5.921   5.975   4.763  0.00  0.00     0.000 A 
ATOM      3  C3  BNZ d   1      -5.274   5.971   5.967  0.00  0.00     0.000 A 
ATOM      4  C4  BNZ d   1      -3.927   5.936   5.995  0.00  0.00     0.000 A 
ATOM      5  C5  BNZ d   1      -3.202   5.935   4.820  0.00  0.00     0.000 A 
ATOM      6  C6  BNZ d   1      -3.856   5.978   3.610  0.00  0.00     0.000 A 
ENDROOT
TORSDOF 0
ENDMDL
