MODEL 1
REMARK minimizedAffinity 3.91292214
REMARK minimizedRMSD -1
REMARK  0 active torsions:
REMARK  status: ('A' for Active; 'I' for Inactive)
ROOT
ATOM      1  C1  BNZ d   1      -4.452   1.091   2.652  0.00  0.00     0.000 A 
ATOM      2  C2  BNZ d   1      -3.137   0.930   2.998  0.00  0.00     0.000 A 
ATOM      3  C3  BNZ d   1      -2.204   0.588   2.059  0.00  0.00     0.000 A 
ATOM      4  C4  BNZ d   1      -2.593   0.370   0.786  0.00  0.00     0.000 A 
ATOM      5  C5  BNZ d   1      -3.917   0.520   0.424  0.00  0.00     0.000 A 
ATOM      6  C6  BNZ d   1      -4.847   0.902   1.364  0.00  0.00     0.000 A 
ENDROOT
TORSDOF 0
ENDMDL
