MODEL 1
REMARK minimizedAffinity 6.4727087
REMARK minimizedRMSD -1
REMARK  0 active torsions:
REMARK  status: ('A' for Active; 'I' for Inactive)
ROOT
ATOM      1  C1  BNZ d   1       1.917  -1.128  -4.905  0.00  0.00     0.000 A 
ATOM      2  C2  BNZ d   1       2.740  -1.117  -6.000  0.00  0.00     0.000 A 
ATOM      3  C3  BNZ d   1       3.896  -0.388  -5.999  0.00  0.00     0.000 A 
ATOM      4  C4  BNZ d   1       4.208   0.359  -4.920  0.00  0.00     0.000 A 
ATOM      5  C5  BNZ d   1       3.384   0.366  -3.812  0.00  0.00     0.000 A 
ATOM      6  C6  BNZ d   1       2.241  -0.400  -3.802  0.00  0.00     0.000 A 
ENDROOT
TORSDOF 0
ENDMDL
