MODEL 1
REMARK minimizedAffinity -0.94776684
REMARK minimizedRMSD -1
REMARK  0 active torsions:
REMARK  status: ('A' for Active; 'I' for Inactive)
ROOT
ATOM      1  C1  BNZ d   1      -1.699   0.440   0.835  0.00  0.00     0.000 A 
ATOM      2  C2  BNZ d   1      -0.444  -0.103   0.914  0.00  0.00     0.000 A 
ATOM      3  C3  BNZ d   1       0.269  -0.048   2.079  0.00  0.00     0.000 A 
ATOM      4  C4  BNZ d   1      -0.255   0.584   3.149  0.00  0.00     0.000 A 
ATOM      5  C5  BNZ d   1      -1.515   1.144   3.081  0.00  0.00     0.000 A 
ATOM      6  C6  BNZ d   1      -2.247   1.052   1.919  0.00  0.00     0.000 A 
ENDROOT
TORSDOF 0
ENDMDL
