MODEL 1
REMARK minimizedAffinity 0.268186212
REMARK minimizedRMSD -1
REMARK  0 active torsions:
REMARK  status: ('A' for Active; 'I' for Inactive)
ROOT
ATOM      1  C1  BNZ d   1      -1.519  -1.094   1.030  0.00  0.00     0.000 A 
ATOM      2  C2  BNZ d   1      -1.420   0.125   1.645  0.00  0.00     0.000 A 
ATOM      3  C3  BNZ d   1      -2.532   0.887   1.874  0.00  0.00     0.000 A 
ATOM      4  C4  BNZ d   1      -3.735   0.446   1.452  0.00  0.00     0.000 A 
ATOM      5  C5  BNZ d   1      -3.850  -0.777   0.822  0.00  0.00     0.000 A 
ATOM      6  C6  BNZ d   1      -2.734  -1.558   0.628  0.00  0.00     0.000 A 
ENDROOT
TORSDOF 0
ENDMDL
