MODEL 1
REMARK minimizedAffinity -1.44441211
REMARK minimizedRMSD -1
REMARK  0 active torsions:
REMARK  status: ('A' for Active; 'I' for Inactive)
ROOT
ATOM      1  C1  BNZ d   1      -4.330   1.469   2.287  0.00  0.00     0.000 A 
ATOM      2  C2  BNZ d   1      -3.288   1.785   3.117  0.00  0.00     0.000 A 
ATOM      3  C3  BNZ d   1      -2.005   1.448   2.789  0.00  0.00     0.000 A 
ATOM      4  C4  BNZ d   1      -1.769   0.761   1.652  0.00  0.00     0.000 A 
ATOM      5  C5  BNZ d   1      -2.811   0.427   0.809  0.00  0.00     0.000 A 
ATOM      6  C6  BNZ d   1      -4.097   0.802   1.124  0.00  0.00     0.000 A 
ENDROOT
TORSDOF 0
ENDMDL
