MODEL 1
REMARK minimizedAffinity 5.39496708
REMARK minimizedRMSD -1
REMARK  0 active torsions:
REMARK  status: ('A' for Active; 'I' for Inactive)
ROOT
ATOM      1  C1  BNZ d   1      -3.185   0.284   0.891  0.00  0.00     0.000 A 
ATOM      2  C2  BNZ d   1      -1.836   0.180   1.106  0.00  0.00     0.000 A 
ATOM      3  C3  BNZ d   1      -1.243   0.821   2.157  0.00  0.00     0.000 A 
ATOM      4  C4  BNZ d   1      -1.992   1.597   2.968  0.00  0.00     0.000 A 
ATOM      5  C5  BNZ d   1      -3.351   1.719   2.760  0.00  0.00     0.000 A 
ATOM      6  C6  BNZ d   1      -3.951   1.041   1.723  0.00  0.00     0.000 A 
ENDROOT
TORSDOF 0
ENDMDL
