MODEL 1
REMARK minimizedAffinity 7.96388531
REMARK minimizedRMSD -1
REMARK  0 active torsions:
REMARK  status: ('A' for Active; 'I' for Inactive)
ROOT
ATOM      1  C1  BNZ d   1       4.715  -0.787   3.232  0.00  0.00     0.000 A 
ATOM      2  C2  BNZ d   1       5.575  -0.747   2.167  0.00  0.00     0.000 A 
ATOM      3  C3  BNZ d   1       5.346   0.094   1.114  0.00  0.00     0.000 A 
ATOM      4  C4  BNZ d   1       4.238   0.863   1.109  0.00  0.00     0.000 A 
ATOM      5  C5  BNZ d   1       3.357   0.827   2.171  0.00  0.00     0.000 A 
ATOM      6  C6  BNZ d   1       3.611   0.008   3.247  0.00  0.00     0.000 A 
ENDROOT
TORSDOF 0
ENDMDL
