MODEL 1
REMARK minimizedAffinity -1.25988019
REMARK minimizedRMSD -1
REMARK  0 active torsions:
REMARK  status: ('A' for Active; 'I' for Inactive)
ROOT
ATOM      1  C1  BNZ d   1      -4.945   2.057   1.983  0.00  0.00     0.000 A 
ATOM      2  C2  BNZ d   1      -5.788   2.368   3.016  0.00  0.00     0.000 A 
ATOM      3  C3  BNZ d   1      -5.567   1.876   4.272  0.00  0.00     0.000 A 
ATOM      4  C4  BNZ d   1      -4.528   1.043   4.485  0.00  0.00     0.000 A 
ATOM      5  C5  BNZ d   1      -3.674   0.713   3.451  0.00  0.00     0.000 A 
ATOM      6  C6  BNZ d   1      -3.877   1.241   2.197  0.00  0.00     0.000 A 
ENDROOT
TORSDOF 0
ENDMDL
