MODEL 1
REMARK minimizedAffinity 1.22933006
REMARK minimizedRMSD -1
REMARK  0 active torsions:
REMARK  status: ('A' for Active; 'I' for Inactive)
ROOT
ATOM      1  C1  BNZ d   1      -4.386  -2.228  -5.943  0.00  0.00     0.000 A 
ATOM      2  C2  BNZ d   1      -3.489  -1.193  -5.942  0.00  0.00     0.000 A 
ATOM      3  C3  BNZ d   1      -2.144  -1.433  -5.990  0.00  0.00     0.000 A 
ATOM      4  C4  BNZ d   1      -1.698  -2.706  -5.999  0.00  0.00     0.000 A 
ATOM      5  C5  BNZ d   1      -2.590  -3.760  -5.992  0.00  0.00     0.000 A 
ATOM      6  C6  BNZ d   1      -3.943  -3.514  -5.983  0.00  0.00     0.000 A 
ENDROOT
TORSDOF 0
ENDMDL
