MODEL 1
REMARK minimizedAffinity 5.6152215
REMARK minimizedRMSD -1
REMARK  0 active torsions:
REMARK  status: ('A' for Active; 'I' for Inactive)
ROOT
ATOM      1  C1  BNZ d   1       1.070   1.203   3.713  0.00  0.00     0.000 A 
ATOM      2  C2  BNZ d   1       0.444   0.043   3.344  0.00  0.00     0.000 A 
ATOM      3  C3  BNZ d   1      -0.851   0.056   2.905  0.00  0.00     0.000 A 
ATOM      4  C4  BNZ d   1      -1.529   1.221   2.873  0.00  0.00     0.000 A 
ATOM      5  C5  BNZ d   1      -0.914   2.398   3.251  0.00  0.00     0.000 A 
ATOM      6  C6  BNZ d   1       0.401   2.387   3.656  0.00  0.00     0.000 A 
ENDROOT
TORSDOF 0
ENDMDL
