MODEL 1
REMARK minimizedAffinity 2.28575587
REMARK minimizedRMSD -1
REMARK  0 active torsions:
REMARK  status: ('A' for Active; 'I' for Inactive)
ROOT
ATOM      1  C1  BNZ d   1      -3.436  -1.045  -5.997  0.00  0.00     0.000 A 
ATOM      2  C2  BNZ d   1      -4.613  -1.743  -5.957  0.00  0.00     0.000 A 
ATOM      3  C3  BNZ d   1      -4.615  -3.109  -5.908  0.00  0.00     0.000 A 
ATOM      4  C4  BNZ d   1      -3.444  -3.776  -5.939  0.00  0.00     0.000 A 
ATOM      5  C5  BNZ d   1      -2.248  -3.087  -5.989  0.00  0.00     0.000 A 
ATOM      6  C6  BNZ d   1      -2.249  -1.711  -5.999  0.00  0.00     0.000 A 
ENDROOT
TORSDOF 0
ENDMDL
