MODEL 1
REMARK minimizedAffinity 5.00008154
REMARK minimizedRMSD -1
REMARK  0 active torsions:
REMARK  status: ('A' for Active; 'I' for Inactive)
ROOT
ATOM      1  C1  BNZ d   1      -5.399  -2.993  -5.931  0.00  0.00     0.000 A 
ATOM      2  C2  BNZ d   1      -4.876  -1.728  -5.920  0.00  0.00     0.000 A 
ATOM      3  C3  BNZ d   1      -3.525  -1.529  -5.973  0.00  0.00     0.000 A 
ATOM      4  C4  BNZ d   1      -2.698  -2.594  -5.997  0.00  0.00     0.000 A 
ATOM      5  C5  BNZ d   1      -3.210  -3.876  -6.000  0.00  0.00     0.000 A 
ATOM      6  C6  BNZ d   1      -4.572  -4.072  -5.985  0.00  0.00     0.000 A 
ENDROOT
TORSDOF 0
ENDMDL
