MODEL 1
REMARK minimizedAffinity 1.56427085
REMARK minimizedRMSD -1
REMARK  0 active torsions:
REMARK  status: ('A' for Active; 'I' for Inactive)
ROOT
ATOM      1  C1  BNZ d   1      -0.887   2.426   2.554  0.00  0.00     0.000 A 
ATOM      2  C2  BNZ d   1       0.242   2.137   3.273  0.00  0.00     0.000 A 
ATOM      3  C3  BNZ d   1       0.550   0.847   3.605  0.00  0.00     0.000 A 
ATOM      4  C4  BNZ d   1      -0.291  -0.146   3.253  0.00  0.00     0.000 A 
ATOM      5  C5  BNZ d   1      -1.438   0.130   2.536  0.00  0.00     0.000 A 
ATOM      6  C6  BNZ d   1      -1.725   1.425   2.170  0.00  0.00     0.000 A 
ENDROOT
TORSDOF 0
ENDMDL
