MODEL 1
REMARK minimizedAffinity 1.12654042
REMARK minimizedRMSD -1
REMARK  0 active torsions:
REMARK  status: ('A' for Active; 'I' for Inactive)
ROOT
ATOM      1  C1  BNZ d   1      -1.965   0.516   2.302  0.00  0.00     0.000 A 
ATOM      2  C2  BNZ d   1      -2.131  -0.521   1.423  0.00  0.00     0.000 A 
ATOM      3  C3  BNZ d   1      -3.297  -0.668   0.726  0.00  0.00     0.000 A 
ATOM      4  C4  BNZ d   1      -4.310   0.198   0.938  0.00  0.00     0.000 A 
ATOM      5  C5  BNZ d   1      -4.162   1.243   1.829  0.00  0.00     0.000 A 
ATOM      6  C6  BNZ d   1      -2.972   1.410   2.499  0.00  0.00     0.000 A 
ENDROOT
TORSDOF 0
ENDMDL
