MODEL 1
REMARK minimizedAffinity 4.19937372
REMARK minimizedRMSD -1
REMARK  0 active torsions:
REMARK  status: ('A' for Active; 'I' for Inactive)
ROOT
ATOM      1  C1  DEN d   1      -4.957  -5.998  -2.378  0.00  0.00     0.130 A 
ATOM      2  C2  DEN d   1      -5.037  -4.935  -1.379  0.00  0.00    -0.031 A 
ATOM      3  C3  DEN d   1      -5.419  -3.687  -2.070  0.00  0.00     0.027 A 
ATOM      4  C4  DEN d   1      -5.897  -3.301  -4.575  0.00  0.00     0.027 A 
ATOM      5  C5  DEN d   1      -5.945  -3.901  -5.814  0.00  0.00    -0.003 A 
ATOM      6  C6  DEN d   1      -5.637  -5.222  -5.998  0.00  0.00     0.001 A 
ATOM      7  C7  DEN d   1      -5.310  -6.000  -4.919  0.00  0.00     0.017 A 
ATOM      8  C8  DEN d   1      -5.252  -5.401  -3.667  0.00  0.00    -0.094 A 
ATOM      9  C9  DEN d   1      -5.579  -4.066  -3.500  0.00  0.00    -0.072 A 
ENDROOT
TORSDOF 0
ENDMDL
