MODEL 1
REMARK minimizedAffinity 7.62234449
REMARK minimizedRMSD -1
REMARK  0 active torsions:
REMARK  status: ('A' for Active; 'I' for Inactive)
ROOT
ATOM      1  C1  DEN d   1      -5.991  -2.362  -3.880  0.00  0.00     0.130 A 
ATOM      2  C2  DEN d   1      -5.995  -2.274  -5.338  0.00  0.00    -0.031 A 
ATOM      3  C3  DEN d   1      -5.318  -3.474  -5.869  0.00  0.00     0.027 A 
ATOM      4  C4  DEN d   1      -4.273  -5.451  -4.583  0.00  0.00     0.027 A 
ATOM      5  C5  DEN d   1      -4.015  -5.965  -3.331  0.00  0.00    -0.003 A 
ATOM      6  C6  DEN d   1      -4.365  -5.303  -2.184  0.00  0.00     0.001 A 
ATOM      7  C7  DEN d   1      -5.033  -4.110  -2.265  0.00  0.00     0.017 A 
ATOM      8  C8  DEN d   1      -5.290  -3.582  -3.524  0.00  0.00    -0.094 A 
ATOM      9  C9  DEN d   1      -4.939  -4.272  -4.672  0.00  0.00    -0.072 A 
ENDROOT
TORSDOF 0
ENDMDL
