MODEL 1
REMARK minimizedAffinity 5.11595821
REMARK minimizedRMSD -1
REMARK  0 active torsions:
REMARK  status: ('A' for Active; 'I' for Inactive)
ROOT
ATOM      1  C1  DEN d   1      -5.471  -5.876  -3.337  0.00  0.00     0.130 A 
ATOM      2  C2  DEN d   1      -4.471  -5.877  -2.273  0.00  0.00    -0.031 A 
ATOM      3  C3  DEN d   1      -3.576  -4.721  -2.486  0.00  0.00     0.027 A 
ATOM      4  C4  DEN d   1      -3.646  -2.937  -4.348  0.00  0.00     0.027 A 
ATOM      5  C5  DEN d   1      -4.307  -2.526  -5.484  0.00  0.00    -0.003 A 
ATOM      6  C6  DEN d   1      -5.372  -3.215  -5.999  0.00  0.00     0.001 A 
ATOM      7  C7  DEN d   1      -5.837  -4.329  -5.352  0.00  0.00     0.017 A 
ATOM      8  C8  DEN d   1      -5.171  -4.755  -4.210  0.00  0.00    -0.094 A 
ATOM      9  C9  DEN d   1      -4.104  -4.037  -3.698  0.00  0.00    -0.072 A 
ENDROOT
TORSDOF 0
ENDMDL
