MODEL 1
REMARK minimizedAffinity 7.13238859
REMARK minimizedRMSD -1
REMARK  0 active torsions:
REMARK  status: ('A' for Active; 'I' for Inactive)
ROOT
ATOM      1  C1  DEN d   1      -4.905  -2.167   1.504  0.00  0.00     0.130 A 
ATOM      2  C2  DEN d   1      -6.000  -2.588   2.374  0.00  0.00    -0.031 A 
ATOM      3  C3  DEN d   1      -6.000  -1.713   3.563  0.00  0.00     0.027 A 
ATOM      4  C4  DEN d   1      -4.422   0.244   4.138  0.00  0.00     0.027 A 
ATOM      5  C5  DEN d   1      -3.330   0.969   3.712  0.00  0.00    -0.003 A 
ATOM      6  C6  DEN d   1      -2.672   0.680   2.546  0.00  0.00     0.001 A 
ATOM      7  C7  DEN d   1      -3.127  -0.333   1.743  0.00  0.00     0.017 A 
ATOM      8  C8  DEN d   1      -4.222  -1.072   2.170  0.00  0.00    -0.094 A 
ATOM      9  C9  DEN d   1      -4.881  -0.757   3.346  0.00  0.00    -0.072 A 
ENDROOT
TORSDOF 0
ENDMDL
