MODEL 1
REMARK minimizedAffinity 10.4663658
REMARK minimizedRMSD -1
REMARK  0 active torsions:
REMARK  status: ('A' for Active; 'I' for Inactive)
ROOT
ATOM      1  C1  DEN d   1      -2.682  -0.266   3.971  0.00  0.00     0.130 A 
ATOM      2  C2  DEN d   1      -1.895   0.369   2.917  0.00  0.00    -0.031 A 
ATOM      3  C3  DEN d   1      -2.650   0.258   1.653  0.00  0.00     0.027 A 
ATOM      4  C4  DEN d   1      -4.953  -0.824   1.229  0.00  0.00     0.027 A 
ATOM      5  C5  DEN d   1      -6.000  -1.502   1.813  0.00  0.00    -0.003 A 
ATOM      6  C6  DEN d   1      -5.999  -1.842   3.140  0.00  0.00     0.001 A 
ATOM      7  C7  DEN d   1      -4.950  -1.465   3.937  0.00  0.00     0.017 A 
ATOM      8  C8  DEN d   1      -3.887  -0.789   3.353  0.00  0.00    -0.094 A 
ATOM      9  C9  DEN d   1      -3.913  -0.443   2.012  0.00  0.00    -0.072 A 
ENDROOT
TORSDOF 0
ENDMDL
