MODEL 1
REMARK minimizedAffinity 12.7959032
REMARK minimizedRMSD -1
REMARK  0 active torsions:
REMARK  status: ('A' for Active; 'I' for Inactive)
ROOT
ATOM      1  C1  DEN d   1      -5.975  -3.012   5.550  0.00  0.00     0.130 A 
ATOM      2  C2  DEN d   1      -5.998  -4.420   5.163  0.00  0.00    -0.031 A 
ATOM      3  C3  DEN d   1      -6.000  -4.489   3.688  0.00  0.00     0.027 A 
ATOM      4  C4  DEN d   1      -5.964  -2.561   1.974  0.00  0.00     0.027 A 
ATOM      5  C5  DEN d   1      -5.952  -1.192   1.825  0.00  0.00    -0.003 A 
ATOM      6  C6  DEN d   1      -5.981  -0.340   2.897  0.00  0.00     0.001 A 
ATOM      7  C7  DEN d   1      -5.978  -0.850   4.169  0.00  0.00     0.017 A 
ATOM      8  C8  DEN d   1      -5.997  -2.229   4.327  0.00  0.00    -0.094 A 
ATOM      9  C9  DEN d   1      -5.955  -3.073   3.231  0.00  0.00    -0.072 A 
ENDROOT
TORSDOF 0
ENDMDL
