MODEL 1
REMARK minimizedAffinity 3.42666221
REMARK minimizedRMSD -1
REMARK  0 active torsions:
REMARK  status: ('A' for Active; 'I' for Inactive)
ROOT
ATOM      1  C1  DEN d   1      -3.421  -4.166  -2.765  0.00  0.00     0.130 A 
ATOM      2  C2  DEN d   1      -3.821  -5.455  -2.206  0.00  0.00    -0.031 A 
ATOM      3  C3  DEN d   1      -4.906  -6.000  -3.046  0.00  0.00     0.027 A 
ATOM      4  C4  DEN d   1      -5.997  -4.982  -5.150  0.00  0.00     0.027 A 
ATOM      5  C5  DEN d   1      -6.000  -3.898  -6.000  0.00  0.00    -0.003 A 
ATOM      6  C6  DEN d   1      -5.174  -2.821  -5.813  0.00  0.00     0.001 A 
ATOM      7  C7  DEN d   1      -4.278  -2.824  -4.777  0.00  0.00     0.017 A 
ATOM      8  C8  DEN d   1      -4.274  -3.910  -3.912  0.00  0.00    -0.094 A 
ATOM      9  C9  DEN d   1      -5.108  -4.995  -4.124  0.00  0.00    -0.072 A 
ENDROOT
TORSDOF 0
ENDMDL
