MODEL 1
REMARK minimizedAffinity 9.2150526
REMARK minimizedRMSD -1
REMARK  0 active torsions:
REMARK  status: ('A' for Active; 'I' for Inactive)
ROOT
ATOM      1  C1  DEN d   1      -2.145   0.440   3.657  0.00  0.00     0.130 A 
ATOM      2  C2  DEN d   1      -2.118   0.370   2.199  0.00  0.00    -0.031 A 
ATOM      3  C3  DEN d   1      -2.434   1.712   1.671  0.00  0.00     0.027 A 
ATOM      4  C4  DEN d   1      -2.956   3.882   2.964  0.00  0.00     0.027 A 
ATOM      5  C5  DEN d   1      -3.109   4.433   4.217  0.00  0.00    -0.003 A 
ATOM      6  C6  DEN d   1      -2.985   3.690   5.361  0.00  0.00     0.001 A 
ATOM      7  C7  DEN d   1      -2.656   2.363   5.277  0.00  0.00     0.017 A 
ATOM      8  C8  DEN d   1      -2.508   1.799   4.017  0.00  0.00    -0.094 A 
ATOM      9  C9  DEN d   1      -2.625   2.569   2.872  0.00  0.00    -0.072 A 
ENDROOT
TORSDOF 0
ENDMDL
