MODEL 1
REMARK minimizedAffinity 6.38850546
REMARK minimizedRMSD -1
REMARK  0 active torsions:
REMARK  status: ('A' for Active; 'I' for Inactive)
ROOT
ATOM      1  C1  DEN d   1      -5.012  -1.988   2.260  0.00  0.00     0.130 A 
ATOM      2  C2  DEN d   1      -5.998  -2.149   3.325  0.00  0.00    -0.031 A 
ATOM      3  C3  DEN d   1      -5.999  -0.916   4.137  0.00  0.00     0.027 A 
ATOM      4  C4  DEN d   1      -4.582   1.220   3.845  0.00  0.00     0.027 A 
ATOM      5  C5  DEN d   1      -3.600   1.820   3.089  0.00  0.00    -0.003 A 
ATOM      6  C6  DEN d   1      -3.000   1.186   2.034  0.00  0.00     0.001 A 
ATOM      7  C7  DEN d   1      -3.409  -0.071   1.676  0.00  0.00     0.017 A 
ATOM      8  C8  DEN d   1      -4.394  -0.686   2.438  0.00  0.00    -0.094 A 
ATOM      9  C9  DEN d   1      -4.997  -0.024   3.494  0.00  0.00    -0.072 A 
ENDROOT
TORSDOF 0
ENDMDL
