MODEL 1
REMARK minimizedAffinity 6.01748037
REMARK minimizedRMSD -1
REMARK  0 active torsions:
REMARK  status: ('A' for Active; 'I' for Inactive)
ROOT
ATOM      1  C1  DEN d   1      -4.694  -3.274  -5.931  0.00  0.00     0.130 A 
ATOM      2  C2  DEN d   1      -3.604  -2.416  -5.474  0.00  0.00    -0.031 A 
ATOM      3  C3  DEN d   1      -3.209  -2.861  -4.122  0.00  0.00     0.027 A 
ATOM      4  C4  DEN d   1      -4.171  -4.786  -2.701  0.00  0.00     0.027 A 
ATOM      5  C5  DEN d   1      -5.114  -5.789  -2.661  0.00  0.00    -0.003 A 
ATOM      6  C6  DEN d   1      -5.999  -6.000  -3.685  0.00  0.00     0.001 A 
ATOM      7  C7  DEN d   1      -5.929  -5.226  -4.813  0.00  0.00     0.017 A 
ATOM      8  C8  DEN d   1      -4.985  -4.208  -4.858  0.00  0.00    -0.094 A 
ATOM      9  C9  DEN d   1      -4.092  -4.019  -3.818  0.00  0.00    -0.072 A 
ENDROOT
TORSDOF 0
ENDMDL
