MODEL 1
REMARK minimizedAffinity 14.6377821
REMARK minimizedRMSD -1
REMARK  0 active torsions:
REMARK  status: ('A' for Active; 'I' for Inactive)
ROOT
ATOM      1  C1  DEN d   1      -4.696  -1.658   4.036  0.00  0.00     0.130 A 
ATOM      2  C2  DEN d   1      -5.999  -1.166   3.598  0.00  0.00    -0.031 A 
ATOM      3  C3  DEN d   1      -5.773  -0.048   2.660  0.00  0.00     0.027 A 
ATOM      4  C4  DEN d   1      -3.544   0.958   1.842  0.00  0.00     0.027 A 
ATOM      5  C5  DEN d   1      -2.172   0.881   1.945  0.00  0.00    -0.003 A 
ATOM      6  C6  DEN d   1      -1.552  -0.018   2.771  0.00  0.00     0.001 A 
ATOM      7  C7  DEN d   1      -2.303  -0.907   3.493  0.00  0.00     0.017 A 
ATOM      8  C8  DEN d   1      -3.687  -0.830   3.401  0.00  0.00    -0.094 A 
ATOM      9  C9  DEN d   1      -4.295   0.077   2.550  0.00  0.00    -0.072 A 
ENDROOT
TORSDOF 0
ENDMDL
