MODEL 1
REMARK minimizedAffinity 15.2442961
REMARK minimizedRMSD -1
REMARK  0 active torsions:
REMARK  status: ('A' for Active; 'I' for Inactive)
ROOT
ATOM      1  C1  DEN d   1      -3.207  -3.060  -3.723  0.00  0.00     0.130 A 
ATOM      2  C2  DEN d   1      -3.008  -2.182  -4.873  0.00  0.00    -0.031 A 
ATOM      3  C3  DEN d   1      -3.874  -2.662  -5.969  0.00  0.00     0.027 A 
ATOM      4  C4  DEN d   1      -5.499  -4.665  -5.993  0.00  0.00     0.027 A 
ATOM      5  C5  DEN d   1      -6.000  -5.713  -5.253  0.00  0.00    -0.003 A 
ATOM      6  C6  DEN d   1      -5.583  -5.969  -3.974  0.00  0.00     0.001 A 
ATOM      7  C7  DEN d   1      -4.671  -5.138  -3.379  0.00  0.00     0.017 A 
ATOM      8  C8  DEN d   1      -4.156  -4.084  -4.121  0.00  0.00    -0.094 A 
ATOM      9  C9  DEN d   1      -4.599  -3.835  -5.409  0.00  0.00    -0.072 A 
ENDROOT
TORSDOF 0
ENDMDL
