MODEL 1
REMARK minimizedAffinity 0.132380158
REMARK minimizedRMSD -1
REMARK  0 active torsions:
REMARK  status: ('A' for Active; 'I' for Inactive)
ROOT
ATOM      1  C1  DEN d   1       1.918   0.410  -3.287  0.00  0.00     0.130 A 
ATOM      2  C2  DEN d   1       2.558   1.299  -2.321  0.00  0.00    -0.031 A 
ATOM      3  C3  DEN d   1       2.861   0.514  -1.108  0.00  0.00     0.027 A 
ATOM      4  C4  DEN d   1       2.408  -1.981  -0.635  0.00  0.00     0.027 A 
ATOM      5  C5  DEN d   1       1.874  -3.142  -1.149  0.00  0.00    -0.003 A 
ATOM      6  C6  DEN d   1       1.291  -3.192  -2.388  0.00  0.00     0.001 A 
ATOM      7  C7  DEN d   1       1.269  -2.070  -3.173  0.00  0.00     0.017 A 
ATOM      8  C8  DEN d   1       1.799  -0.894  -2.659  0.00  0.00    -0.094 A 
ATOM      9  C9  DEN d   1       2.394  -0.866  -1.409  0.00  0.00    -0.072 A 
ENDROOT
TORSDOF 0
ENDMDL
