MODEL 1
REMARK minimizedAffinity 12.4762535
REMARK minimizedRMSD -1
REMARK  0 active torsions:
REMARK  status: ('A' for Active; 'I' for Inactive)
ROOT
ATOM      1  C1  DEN d   1      -1.295  -1.690   4.567  0.00  0.00     0.130 A 
ATOM      2  C2  DEN d   1       0.003  -1.449   3.942  0.00  0.00    -0.031 A 
ATOM      3  C3  DEN d   1      -0.213  -0.598   2.755  0.00  0.00     0.027 A 
ATOM      4  C4  DEN d   1      -2.419   0.369   1.831  0.00  0.00     0.027 A 
ATOM      5  C5  DEN d   1      -3.783   0.429   2.016  0.00  0.00    -0.003 A 
ATOM      6  C6  DEN d   1      -4.412  -0.236   3.035  0.00  0.00     0.001 A 
ATOM      7  C7  DEN d   1      -3.670  -0.953   3.937  0.00  0.00     0.017 A 
ATOM      8  C8  DEN d   1      -2.296  -1.024   3.753  0.00  0.00    -0.094 A 
ATOM      9  C9  DEN d   1      -1.677  -0.335   2.723  0.00  0.00    -0.072 A 
ENDROOT
TORSDOF 0
ENDMDL
