MODEL 1
REMARK minimizedAffinity 9.80579376
REMARK minimizedRMSD -1
REMARK  0 active torsions:
REMARK  status: ('A' for Active; 'I' for Inactive)
ROOT
ATOM      1  C1  DEN d   1      -5.570  -2.426  -4.671  0.00  0.00     0.130 A 
ATOM      2  C2  DEN d   1      -5.960  -2.920  -5.989  0.00  0.00    -0.031 A 
ATOM      3  C3  DEN d   1      -5.937  -4.396  -5.948  0.00  0.00     0.027 A 
ATOM      4  C4  DEN d   1      -5.344  -5.956  -3.982  0.00  0.00     0.027 A 
ATOM      5  C5  DEN d   1      -4.940  -6.000  -2.666  0.00  0.00    -0.003 A 
ATOM      6  C6  DEN d   1      -4.687  -4.865  -1.942  0.00  0.00     0.001 A 
ATOM      7  C7  DEN d   1      -4.879  -3.636  -2.517  0.00  0.00     0.017 A 
ATOM      8  C8  DEN d   1      -5.279  -3.584  -3.846  0.00  0.00    -0.094 A 
ATOM      9  C9  DEN d   1      -5.542  -4.743  -4.557  0.00  0.00    -0.072 A 
ENDROOT
TORSDOF 0
ENDMDL
