MODEL 1
REMARK minimizedAffinity 3.90213108
REMARK minimizedRMSD -1
REMARK  0 active torsions:
REMARK  status: ('A' for Active; 'I' for Inactive)
ROOT
ATOM      1  C1  DEN d   1      -3.757  -4.750  -2.714  0.00  0.00     0.130 A 
ATOM      2  C2  DEN d   1      -4.529  -5.983  -2.582  0.00  0.00    -0.031 A 
ATOM      3  C3  DEN d   1      -5.548  -6.000  -3.650  0.00  0.00     0.027 A 
ATOM      4  C4  DEN d   1      -6.000  -4.250  -5.490  0.00  0.00     0.027 A 
ATOM      5  C5  DEN d   1      -5.610  -3.031  -6.000  0.00  0.00    -0.003 A 
ATOM      6  C6  DEN d   1      -4.606  -2.290  -5.435  0.00  0.00     0.001 A 
ATOM      7  C7  DEN d   1      -3.927  -2.782  -4.352  0.00  0.00     0.017 A 
ATOM      8  C8  DEN d   1      -4.319  -4.007  -3.827  0.00  0.00    -0.094 A 
ATOM      9  C9  DEN d   1      -5.328  -4.746  -4.421  0.00  0.00    -0.072 A 
ENDROOT
TORSDOF 0
ENDMDL
