MODEL 1
REMARK minimizedAffinity 13.2373886
REMARK minimizedRMSD -1
REMARK  0 active torsions:
REMARK  status: ('A' for Active; 'I' for Inactive)
ROOT
ATOM      1  C   UNL d   1       2.840  -3.767   0.877  0.00  0.00    -0.002 A 
ATOM      2  C1  UNL d   1       4.120  -3.525   0.401  0.00  0.00     0.010 A 
ATOM      3  C2  UNL d   1       4.401  -2.365  -0.324  0.00  0.00     0.041 A 
ATOM      4  C3  UNL d   1       3.364  -1.443  -0.562  0.00  0.00    -0.075 A 
ATOM      5  S   UNL d   1       3.475   0.046  -1.424  0.00  0.00     0.015 SA
ATOM      6  C4  UNL d   1       1.825   0.397  -1.180  0.00  0.00     0.022 A 
ATOM      7  C5  UNL d   1       1.190  -0.587  -0.460  0.00  0.00     0.026 A 
ATOM      8  C6  UNL d   1       2.066  -1.663  -0.092  0.00  0.00    -0.082 A 
ATOM      9  C7  UNL d   1       1.813  -2.849   0.639  0.00  0.00     0.045 A 
ENDROOT
TORSDOF 0
ENDMDL
