MODEL 1
REMARK minimizedAffinity 10.5758162
REMARK minimizedRMSD -1
REMARK  0 active torsions:
REMARK  status: ('A' for Active; 'I' for Inactive)
ROOT
ATOM      1  C   UNL d   1       4.697  -4.128   2.349  0.00  0.00    -0.002 A 
ATOM      2  C1  UNL d   1       4.601  -3.541   3.603  0.00  0.00     0.010 A 
ATOM      3  C2  UNL d   1       3.568  -2.647   3.892  0.00  0.00     0.041 A 
ATOM      4  C3  UNL d   1       2.623  -2.350   2.890  0.00  0.00    -0.075 A 
ATOM      5  S   UNL d   1       1.274  -1.285   3.016  0.00  0.00     0.015 SA
ATOM      6  C4  UNL d   1       0.792  -1.584   1.409  0.00  0.00     0.022 A 
ATOM      7  C5  UNL d   1       1.630  -2.472   0.776  0.00  0.00     0.026 A 
ATOM      8  C6  UNL d   1       2.699  -2.929   1.620  0.00  0.00    -0.082 A 
ATOM      9  C7  UNL d   1       3.758  -3.831   1.358  0.00  0.00     0.045 A 
ENDROOT
TORSDOF 0
ENDMDL
