MODEL 1
REMARK minimizedAffinity 2.08986998
REMARK minimizedRMSD -1
REMARK  0 active torsions:
REMARK  status: ('A' for Active; 'I' for Inactive)
ROOT
ATOM      1  C   UNL d   1       4.707  -3.156   4.992  0.00  0.00    -0.002 A 
ATOM      2  C1  UNL d   1       3.910  -2.049   5.244  0.00  0.00     0.010 A 
ATOM      3  C2  UNL d   1       2.913  -1.671   4.342  0.00  0.00     0.041 A 
ATOM      4  C3  UNL d   1       2.727  -2.434   3.173  0.00  0.00    -0.075 A 
ATOM      5  S   UNL d   1       1.568  -2.161   1.926  0.00  0.00     0.015 SA
ATOM      6  C4  UNL d   1       2.102  -3.509   1.031  0.00  0.00     0.022 A 
ATOM      7  C5  UNL d   1       3.140  -4.163   1.653  0.00  0.00     0.026 A 
ATOM      8  C6  UNL d   1       3.517  -3.555   2.898  0.00  0.00    -0.082 A 
ATOM      9  C7  UNL d   1       4.520  -3.911   3.831  0.00  0.00     0.045 A 
ENDROOT
TORSDOF 0
ENDMDL
