MODEL 1
REMARK minimizedAffinity 1.62972903
REMARK minimizedRMSD -1
REMARK  0 active torsions:
REMARK  status: ('A' for Active; 'I' for Inactive)
ROOT
ATOM      1  C   UNL d   1       4.944  -3.074   0.447  0.00  0.00    -0.002 A 
ATOM      2  C1  UNL d   1       5.997  -2.172   0.382  0.00  0.00     0.010 A 
ATOM      3  C2  UNL d   1       5.792  -0.875  -0.093  0.00  0.00     0.041 A 
ATOM      4  C3  UNL d   1       4.499  -0.496  -0.504  0.00  0.00    -0.075 A 
ATOM      5  S   UNL d   1       4.013   1.039  -1.120  0.00  0.00     0.015 SA
ATOM      6  C4  UNL d   1       2.396   0.533  -1.311  0.00  0.00     0.022 A 
ATOM      7  C5  UNL d   1       2.214  -0.772  -0.920  0.00  0.00     0.026 A 
ATOM      8  C6  UNL d   1       3.423  -1.387  -0.448  0.00  0.00    -0.082 A 
ATOM      9  C7  UNL d   1       3.663  -2.695   0.038  0.00  0.00     0.045 A 
ENDROOT
TORSDOF 0
ENDMDL
