MODEL 1
REMARK minimizedAffinity 15.2406521
REMARK minimizedRMSD -1
REMARK  0 active torsions:
REMARK  status: ('A' for Active; 'I' for Inactive)
ROOT
ATOM      1  C   UNL d   1       2.071   0.776  -0.911  0.00  0.00    -0.002 A 
ATOM      2  C1  UNL d   1       3.237   1.499  -0.702  0.00  0.00     0.010 A 
ATOM      3  C2  UNL d   1       4.450   0.843  -0.484  0.00  0.00     0.041 A 
ATOM      4  C3  UNL d   1       4.472  -0.565  -0.482  0.00  0.00    -0.075 A 
ATOM      5  S   UNL d   1       5.843  -1.583  -0.238  0.00  0.00     0.015 SA
ATOM      6  C4  UNL d   1       4.913  -3.001  -0.407  0.00  0.00     0.022 A 
ATOM      7  C5  UNL d   1       3.587  -2.724  -0.644  0.00  0.00     0.026 A 
ATOM      8  C6  UNL d   1       3.312  -1.315  -0.692  0.00  0.00    -0.082 A 
ATOM      9  C7  UNL d   1       2.097  -0.621  -0.909  0.00  0.00     0.045 A 
ENDROOT
TORSDOF 0
ENDMDL
