MODEL 1
REMARK minimizedAffinity 8.76263618
REMARK minimizedRMSD -1
REMARK  0 active torsions:
REMARK  status: ('A' for Active; 'I' for Inactive)
ROOT
ATOM      1  C   UNL d   1       2.395   0.689  -1.068  0.00  0.00    -0.002 A 
ATOM      2  C1  UNL d   1       3.668   1.231  -0.970  0.00  0.00     0.010 A 
ATOM      3  C2  UNL d   1       4.760   0.425  -0.639  0.00  0.00     0.041 A 
ATOM      4  C3  UNL d   1       4.548  -0.948  -0.408  0.00  0.00    -0.075 A 
ATOM      5  S   UNL d   1       5.734  -2.128   0.009  0.00  0.00     0.015 SA
ATOM      6  C4  UNL d   1       4.578  -3.379   0.066  0.00  0.00     0.022 A 
ATOM      7  C5  UNL d   1       3.313  -2.926  -0.223  0.00  0.00     0.026 A 
ATOM      8  C6  UNL d   1       3.274  -1.518  -0.502  0.00  0.00    -0.082 A 
ATOM      9  C7  UNL d   1       2.188  -0.674  -0.838  0.00  0.00     0.045 A 
ENDROOT
TORSDOF 0
ENDMDL
