MODEL 1
REMARK minimizedAffinity -4.69414663
REMARK minimizedRMSD -1
REMARK  1 active torsions:
REMARK  status: ('A' for Active; 'I' for Inactive)
REMARK    1  A    between atoms: N_2  and  C1_3 
ROOT
ATOM      1  C1  UNL d   1       0.591   0.259   0.713  0.00  0.00     0.143 A 
ATOM      2  C2  UNL d   1       0.440  -0.957   1.388  0.00  0.00    -0.057 A 
ATOM      3  C3  UNL d   1      -0.826  -1.517   1.602  0.00  0.00     0.033 A 
ATOM      4  C4  UNL d   1      -1.969  -0.852   1.169  0.00  0.00    -0.042 A 
ATOM      5  C5  UNL d   1      -1.844   0.370   0.518  0.00  0.00     0.033 A 
ATOM      6  C6  UNL d   1      -0.577   0.920   0.301  0.00  0.00    -0.057 A 
ENDROOT
BRANCH   1   7
ATOM      7  N   UNL d   1       1.815   0.915   0.556  0.00  0.00    -0.732 N 
ATOM      8  C   UNL d   1       2.172   2.024   1.414  0.00  0.00     0.284 C 
ATOM      9  H3  UNL d   1       2.579   0.270   0.370  0.00  0.00     0.395 HD
ENDBRANCH   1   7
TORSDOF 1
ENDMDL
