MODEL 1
REMARK minimizedAffinity -3.55682158
REMARK minimizedRMSD -1
REMARK  1 active torsions:
REMARK  status: ('A' for Active; 'I' for Inactive)
REMARK    1  A    between atoms: N_2  and  C1_3 
ROOT
ATOM      1  C1  UNL d   1      -0.022   0.237  -0.026  0.00  0.00     0.143 A 
ATOM      2  C2  UNL d   1      -0.757  -0.172   1.092  0.00  0.00    -0.057 A 
ATOM      3  C3  UNL d   1      -2.066  -0.654   0.964  0.00  0.00     0.033 A 
ATOM      4  C4  UNL d   1      -2.674  -0.709  -0.286  0.00  0.00    -0.042 A 
ATOM      5  C5  UNL d   1      -1.971  -0.284  -1.408  0.00  0.00     0.033 A 
ATOM      6  C6  UNL d   1      -0.662   0.190  -1.274  0.00  0.00    -0.057 A 
ENDROOT
BRANCH   1   7
ATOM      7  N   UNL d   1       1.246   0.818   0.048  0.00  0.00    -0.732 N 
ATOM      8  C   UNL d   1       1.397   2.221   0.371  0.00  0.00     0.284 C 
ATOM      9  H3  UNL d   1       1.926   0.212   0.502  0.00  0.00     0.395 HD
ENDBRANCH   1   7
TORSDOF 1
ENDMDL
