MODEL 1
REMARK minimizedAffinity -5.07477713
REMARK minimizedRMSD -1
REMARK  1 active torsions:
REMARK  status: ('A' for Active; 'I' for Inactive)
REMARK    1  A    between atoms: N_2  and  C1_3 
ROOT
ATOM      1  C1  UNL d   1      -0.678   0.211  -0.791  0.00  0.00     0.143 A 
ATOM      2  C2  UNL d   1      -1.514   0.143  -1.911  0.00  0.00    -0.057 A 
ATOM      3  C3  UNL d   1      -2.764  -0.485  -1.847  0.00  0.00     0.033 A 
ATOM      4  C4  UNL d   1      -3.188  -1.084  -0.666  0.00  0.00    -0.042 A 
ATOM      5  C5  UNL d   1      -2.363  -1.051   0.453  0.00  0.00     0.033 A 
ATOM      6  C6  UNL d   1      -1.119  -0.416   0.385  0.00  0.00    -0.057 A 
ENDROOT
BRANCH   1   7
ATOM      7  N   UNL d   1       0.617   0.734  -0.817  0.00  0.00    -0.732 N 
ATOM      8  C   UNL d   1       1.578   0.375   0.203  0.00  0.00     0.284 C 
ATOM      9  H3  UNL d   1       1.003   0.769  -1.758  0.00  0.00     0.395 HD
ENDBRANCH   1   7
TORSDOF 1
ENDMDL
