MODEL 1
REMARK minimizedAffinity 3.9083519
REMARK minimizedRMSD -1
REMARK  1 active torsions:
REMARK  status: ('A' for Active; 'I' for Inactive)
REMARK    1  A    between atoms: N_2  and  C1_3 
ROOT
ATOM      1  C1  UNL d   1      -1.611  -1.034  -1.929  0.00  0.00     0.143 A 
ATOM      2  C2  UNL d   1      -0.493  -0.200  -1.815  0.00  0.00    -0.057 A 
ATOM      3  C3  UNL d   1      -0.011   0.200  -0.563  0.00  0.00     0.033 A 
ATOM      4  C4  UNL d   1      -0.658  -0.204   0.600  0.00  0.00    -0.042 A 
ATOM      5  C5  UNL d   1      -1.785  -1.012   0.510  0.00  0.00     0.033 A 
ATOM      6  C6  UNL d   1      -2.258  -1.414  -0.743  0.00  0.00    -0.057 A 
ENDROOT
BRANCH   1   7
ATOM      7  N   UNL d   1      -2.197  -1.386  -3.147  0.00  0.00    -0.732 N 
ATOM      8  C   UNL d   1      -2.345  -2.777  -3.519  0.00  0.00     0.284 C 
ATOM      9  H3  UNL d   1      -3.003  -0.807  -3.372  0.00  0.00     0.395 HD
ENDBRANCH   1   7
TORSDOF 1
ENDMDL
