MODEL 1
REMARK minimizedAffinity -3.77916646
REMARK minimizedRMSD -1
REMARK  1 active torsions:
REMARK  status: ('A' for Active; 'I' for Inactive)
REMARK    1  A    between atoms: N_2  and  C1_3 
ROOT
ATOM      1  C1  UNL d   1       1.600   0.417   0.301  0.00  0.00     0.143 A 
ATOM      2  C2  UNL d   1       1.661  -0.934   0.658  0.00  0.00    -0.057 A 
ATOM      3  C3  UNL d   1       0.516  -1.630   1.067  0.00  0.00     0.033 A 
ATOM      4  C4  UNL d   1      -0.708  -0.975   1.155  0.00  0.00    -0.042 A 
ATOM      5  C5  UNL d   1      -0.787   0.374   0.829  0.00  0.00     0.033 A 
ATOM      6  C6  UNL d   1       0.358   1.061   0.415  0.00  0.00    -0.057 A 
ENDROOT
BRANCH   1   7
ATOM      7  N   UNL d   1       2.720   1.188  -0.019  0.00  0.00    -0.732 N 
ATOM      8  C   UNL d   1       3.003   2.411   0.701  0.00  0.00     0.284 C 
ATOM      9  H3  UNL d   1       3.542   0.619  -0.210  0.00  0.00     0.395 HD
ENDBRANCH   1   7
TORSDOF 1
ENDMDL
