MODEL 1
REMARK minimizedAffinity -2.80973291
REMARK minimizedRMSD -1
REMARK  1 active torsions:
REMARK  status: ('A' for Active; 'I' for Inactive)
REMARK    1  A    between atoms: N_2  and  C1_3 
ROOT
ATOM      1  C1  UNL d   1       1.328   1.377   0.120  0.00  0.00     0.143 A 
ATOM      2  C2  UNL d   1       1.723   2.534  -0.559  0.00  0.00    -0.057 A 
ATOM      3  C3  UNL d   1       2.172   3.665   0.134  0.00  0.00     0.033 A 
ATOM      4  C4  UNL d   1       2.206   3.668   1.525  0.00  0.00    -0.042 A 
ATOM      5  C5  UNL d   1       1.795   2.537   2.221  0.00  0.00     0.033 A 
ATOM      6  C6  UNL d   1       1.354   1.409   1.523  0.00  0.00    -0.057 A 
ENDROOT
BRANCH   1   7
ATOM      7  N   UNL d   1       0.780   0.256  -0.508  0.00  0.00    -0.732 N 
ATOM      8  C   UNL d   1      -0.591   0.267  -0.971  0.00  0.00     0.284 C 
ATOM      9  H3  UNL d   1       1.432  -0.188  -1.151  0.00  0.00     0.395 HD
ENDBRANCH   1   7
TORSDOF 1
ENDMDL
