MODEL 1
REMARK minimizedAffinity -3.55350852
REMARK minimizedRMSD -1
REMARK  1 active torsions:
REMARK  status: ('A' for Active; 'I' for Inactive)
REMARK    1  A    between atoms: N_2  and  C1_3 
ROOT
ATOM      1  C1  UNL d   1      -1.042  -0.585   0.396  0.00  0.00     0.143 A 
ATOM      2  C2  UNL d   1      -1.611  -0.273  -0.844  0.00  0.00    -0.057 A 
ATOM      3  C3  UNL d   1      -2.730  -0.965  -1.324  0.00  0.00     0.033 A 
ATOM      4  C4  UNL d   1      -3.283  -2.005  -0.584  0.00  0.00    -0.042 A 
ATOM      5  C5  UNL d   1      -2.719  -2.349   0.640  0.00  0.00     0.033 A 
ATOM      6  C6  UNL d   1      -1.606  -1.650   1.117  0.00  0.00    -0.057 A 
ENDROOT
BRANCH   1   7
ATOM      7  N   UNL d   1       0.129  -0.001   0.883  0.00  0.00    -0.732 N 
ATOM      8  C   UNL d   1       1.324   0.047   0.068  0.00  0.00     0.284 C 
ATOM      9  H3  UNL d   1      -0.052   0.853   1.406  0.00  0.00     0.395 HD
ENDBRANCH   1   7
TORSDOF 1
ENDMDL
