MODEL 1
REMARK minimizedAffinity 19.8220272
REMARK minimizedRMSD -1
REMARK  0 active torsions:
REMARK  status: ('A' for Active; 'I' for Inactive)
ROOT
ATOM      1  C   UNL d   1       2.299  -4.200  -1.812  0.00  0.00     0.124 A 
ATOM      2  C1  UNL d   1       3.468  -3.820  -1.166  0.00  0.00     0.062 A 
ATOM      3  C2  UNL d   1       3.708  -2.478  -0.884  0.00  0.00     0.162 A 
ATOM      4  C3  UNL d   1       2.776  -1.506  -1.247  0.00  0.00    -0.034 A 
ATOM      5  C4  UNL d   1       1.604  -1.895  -1.897  0.00  0.00     0.162 A 
ATOM      6  C5  UNL d   1       1.369  -3.237  -2.177  0.00  0.00     0.062 A 
ATOM      7  F   UNL d   1       0.239  -3.602  -2.801  0.00  0.00    -0.097 F 
ATOM      8  F1  UNL d   1       0.687  -0.986  -2.260  0.00  0.00    -0.096 F 
ATOM      9  I   UNL d   1       3.131   0.502  -0.827  0.00  0.00    -0.060 I 
ATOM     10  F2  UNL d   1       4.846  -2.140  -0.259  0.00  0.00    -0.096 F 
ATOM     11  F3  UNL d   1       4.369  -4.748  -0.814  0.00  0.00    -0.097 F 
ATOM     12  F4  UNL d   1       2.072  -5.491  -2.083  0.00  0.00    -0.092 F 
ENDROOT
TORSDOF 0
ENDMDL
