MODEL 1
REMARK minimizedAffinity 20.2584648
REMARK minimizedRMSD -1
REMARK  0 active torsions:
REMARK  status: ('A' for Active; 'I' for Inactive)
ROOT
ATOM      1  C   UNL d   1      -3.653  -0.616   3.442  0.00  0.00     0.124 A 
ATOM      2  C1  UNL d   1      -2.655  -1.581   3.450  0.00  0.00     0.062 A 
ATOM      3  C2  UNL d   1      -1.339  -1.229   3.166  0.00  0.00     0.162 A 
ATOM      4  C3  UNL d   1      -1.011   0.095   2.873  0.00  0.00    -0.034 A 
ATOM      5  C4  UNL d   1      -2.020   1.059   2.866  0.00  0.00     0.162 A 
ATOM      6  C5  UNL d   1      -3.335   0.703   3.150  0.00  0.00     0.062 A 
ATOM      7  F   UNL d   1      -4.297   1.636   3.142  0.00  0.00    -0.097 F 
ATOM      8  F1  UNL d   1      -1.741   2.341   2.589  0.00  0.00    -0.096 F 
ATOM      9  I   UNL d   1       0.956   0.625   2.449  0.00  0.00    -0.060 I 
ATOM     10  F2  UNL d   1      -0.395  -2.183   3.181  0.00  0.00    -0.096 F 
ATOM     11  F3  UNL d   1      -2.960  -2.856   3.730  0.00  0.00    -0.097 F 
ATOM     12  F4  UNL d   1      -4.919  -0.958   3.714  0.00  0.00    -0.092 F 
ENDROOT
TORSDOF 0
ENDMDL
