MODEL 1
REMARK minimizedAffinity 25.5143509
REMARK minimizedRMSD -1
REMARK  0 active torsions:
REMARK  status: ('A' for Active; 'I' for Inactive)
ROOT
ATOM      1  C   UNL d   1       2.016  -4.775  -2.202  0.00  0.00     0.124 A 
ATOM      2  C1  UNL d   1       2.896  -4.626  -1.139  0.00  0.00     0.062 A 
ATOM      3  C2  UNL d   1       3.248  -3.355  -0.695  0.00  0.00     0.162 A 
ATOM      4  C3  UNL d   1       2.720  -2.222  -1.314  0.00  0.00    -0.034 A 
ATOM      5  C4  UNL d   1       1.837  -2.380  -2.383  0.00  0.00     0.162 A 
ATOM      6  C5  UNL d   1       1.488  -3.653  -2.823  0.00  0.00     0.062 A 
ATOM      7  F   UNL d   1       0.638  -3.795  -3.851  0.00  0.00    -0.097 F 
ATOM      8  F1  UNL d   1       1.311  -1.312  -3.001  0.00  0.00    -0.096 F 
ATOM      9  I   UNL d   1       3.245  -0.319  -0.653  0.00  0.00    -0.060 I 
ATOM     10  F2  UNL d   1       4.100  -3.241   0.335  0.00  0.00    -0.096 F 
ATOM     11  F3  UNL d   1       3.408  -5.710  -0.538  0.00  0.00    -0.097 F 
ATOM     12  F4  UNL d   1       1.679  -6.000  -2.628  0.00  0.00    -0.092 F 
ENDROOT
TORSDOF 0
ENDMDL
