MODEL 1
REMARK minimizedAffinity 20.2235451
REMARK minimizedRMSD -1
REMARK  0 active torsions:
REMARK  status: ('A' for Active; 'I' for Inactive)
ROOT
ATOM      1  C   UNL d   1      -2.686  -4.705  -2.680  0.00  0.00     0.124 A 
ATOM      2  C1  UNL d   1      -3.032  -3.539  -3.348  0.00  0.00     0.062 A 
ATOM      3  C2  UNL d   1      -2.084  -2.539  -3.547  0.00  0.00     0.162 A 
ATOM      4  C3  UNL d   1      -0.781  -2.701  -3.079  0.00  0.00    -0.034 A 
ATOM      5  C4  UNL d   1      -0.441  -3.877  -2.407  0.00  0.00     0.162 A 
ATOM      6  C5  UNL d   1      -1.391  -4.873  -2.211  0.00  0.00     0.062 A 
ATOM      7  F   UNL d   1      -1.055  -6.000  -1.565  0.00  0.00    -0.097 F 
ATOM      8  F1  UNL d   1       0.804  -4.066  -1.943  0.00  0.00    -0.096 F 
ATOM      9  I   UNL d   1       0.639  -1.209  -3.374  0.00  0.00    -0.060 I 
ATOM     10  F2  UNL d   1      -2.446  -1.422  -4.196  0.00  0.00    -0.096 F 
ATOM     11  F3  UNL d   1      -4.283  -3.373  -3.803  0.00  0.00    -0.097 F 
ATOM     12  F4  UNL d   1      -3.600  -5.665  -2.489  0.00  0.00    -0.092 F 
ENDROOT
TORSDOF 0
ENDMDL
