MODEL 1
REMARK minimizedAffinity 7.1076293
REMARK minimizedRMSD -1
REMARK  0 active torsions:
REMARK  status: ('A' for Active; 'I' for Inactive)
ROOT
ATOM      1  C   UNL d   1      -1.874  -4.878  -2.924  0.00  0.00     0.124 A 
ATOM      2  C1  UNL d   1      -1.575  -4.116  -4.045  0.00  0.00     0.062 A 
ATOM      3  C2  UNL d   1      -2.586  -3.738  -4.925  0.00  0.00     0.162 A 
ATOM      4  C3  UNL d   1      -3.906  -4.121  -4.687  0.00  0.00    -0.034 A 
ATOM      5  C4  UNL d   1      -4.198  -4.889  -3.558  0.00  0.00     0.162 A 
ATOM      6  C5  UNL d   1      -3.185  -5.264  -2.682  0.00  0.00     0.062 A 
ATOM      7  F   UNL d   1      -3.476  -6.000  -1.600  0.00  0.00    -0.097 F 
ATOM      8  F1  UNL d   1      -5.457  -5.274  -3.299  0.00  0.00    -0.096 F 
ATOM      9  I   UNL d   1      -5.419  -3.559  -6.000  0.00  0.00    -0.060 I 
ATOM     10  F2  UNL d   1      -2.268  -3.002  -6.000  0.00  0.00    -0.096 F 
ATOM     11  F3  UNL d   1      -0.309  -3.743  -4.282  0.00  0.00    -0.097 F 
ATOM     12  F4  UNL d   1      -0.900  -5.241  -2.080  0.00  0.00    -0.092 F 
ENDROOT
TORSDOF 0
ENDMDL
