MODEL 1
REMARK minimizedAffinity 24.1528511
REMARK minimizedRMSD -1
REMARK  0 active torsions:
REMARK  status: ('A' for Active; 'I' for Inactive)
ROOT
ATOM      1  C   UNL d   1       2.903  -2.553  -0.450  0.00  0.00     0.124 A 
ATOM      2  C1  UNL d   1       2.157  -1.517  -0.995  0.00  0.00     0.062 A 
ATOM      3  C2  UNL d   1       1.019  -1.795  -1.746  0.00  0.00     0.162 A 
ATOM      4  C3  UNL d   1       0.620  -3.115  -1.958  0.00  0.00    -0.034 A 
ATOM      5  C4  UNL d   1       1.376  -4.151  -1.408  0.00  0.00     0.162 A 
ATOM      6  C5  UNL d   1       2.513  -3.868  -0.657  0.00  0.00     0.062 A 
ATOM      7  F   UNL d   1       3.233  -4.870  -0.132  0.00  0.00    -0.097 F 
ATOM      8  F1  UNL d   1       1.021  -5.431  -1.591  0.00  0.00    -0.096 F 
ATOM      9  I   UNL d   1      -1.081  -3.534  -3.081  0.00  0.00    -0.060 I 
ATOM     10  F2  UNL d   1       0.316  -0.775  -2.261  0.00  0.00    -0.096 F 
ATOM     11  F3  UNL d   1       2.532  -0.245  -0.797  0.00  0.00    -0.097 F 
ATOM     12  F4  UNL d   1       3.998  -2.283   0.272  0.00  0.00    -0.092 F 
ENDROOT
TORSDOF 0
ENDMDL
