MODEL 1
REMARK minimizedAffinity 25.5491447
REMARK minimizedRMSD -1
REMARK  0 active torsions:
REMARK  status: ('A' for Active; 'I' for Inactive)
ROOT
ATOM      1  C   UNL d   1       0.835  -2.888  -1.687  0.00  0.00     0.124 A 
ATOM      2  C1  UNL d   1       0.081  -1.739  -1.882  0.00  0.00     0.062 A 
ATOM      3  C2  UNL d   1      -1.061  -1.777  -2.676  0.00  0.00     0.162 A 
ATOM      4  C3  UNL d   1      -1.458  -2.969  -3.282  0.00  0.00    -0.034 A 
ATOM      5  C4  UNL d   1      -0.694  -4.121  -3.082  0.00  0.00     0.162 A 
ATOM      6  C5  UNL d   1       0.447  -4.078  -2.288  0.00  0.00     0.062 A 
ATOM      7  F   UNL d   1       1.174  -5.189  -2.101  0.00  0.00    -0.097 F 
ATOM      8  F1  UNL d   1      -1.047  -5.284  -3.650  0.00  0.00    -0.096 F 
ATOM      9  I   UNL d   1      -3.165  -3.030  -4.470  0.00  0.00    -0.060 I 
ATOM     10  F2  UNL d   1      -1.770  -0.651  -2.846  0.00  0.00    -0.096 F 
ATOM     11  F3  UNL d   1       0.455  -0.589  -1.304  0.00  0.00    -0.097 F 
ATOM     12  F4  UNL d   1       1.934  -2.849  -0.923  0.00  0.00    -0.092 F 
ENDROOT
TORSDOF 0
ENDMDL
