MODEL 1
REMARK minimizedAffinity 28.7062969
REMARK minimizedRMSD -1
REMARK  0 active torsions:
REMARK  status: ('A' for Active; 'I' for Inactive)
ROOT
ATOM      1  C   UNL d   1       3.792   0.864  -0.458  0.00  0.00     0.124 A 
ATOM      2  C1  UNL d   1       2.952   1.249  -1.493  0.00  0.00     0.062 A 
ATOM      3  C2  UNL d   1       2.089   0.325  -2.075  0.00  0.00     0.162 A 
ATOM      4  C3  UNL d   1       2.061  -0.994  -1.622  0.00  0.00    -0.034 A 
ATOM      5  C4  UNL d   1       2.910  -1.375  -0.582  0.00  0.00     0.162 A 
ATOM      6  C5  UNL d   1       3.771  -0.447  -0.003  0.00  0.00     0.062 A 
ATOM      7  F   UNL d   1       4.583  -0.822   0.996  0.00  0.00    -0.097 F 
ATOM      8  F1  UNL d   1       2.910  -2.635  -0.122  0.00  0.00    -0.096 F 
ATOM      9  I   UNL d   1       0.772  -2.379  -2.490  0.00  0.00    -0.060 I 
ATOM     10  F2  UNL d   1       1.287   0.725  -3.073  0.00  0.00    -0.096 F 
ATOM     11  F3  UNL d   1       2.971   2.515  -1.934  0.00  0.00    -0.097 F 
ATOM     12  F4  UNL d   1       4.622   1.755   0.099  0.00  0.00    -0.092 F 
ENDROOT
TORSDOF 0
ENDMDL
