MODEL 1
REMARK minimizedAffinity 29.1188793
REMARK minimizedRMSD -1
REMARK  0 active torsions:
REMARK  status: ('A' for Active; 'I' for Inactive)
ROOT
ATOM      1  C   UNL d   1       0.250   2.187   3.952  0.00  0.00     0.124 A 
ATOM      2  C1  UNL d   1       0.575   1.088   4.736  0.00  0.00     0.062 A 
ATOM      3  C2  UNL d   1       0.474  -0.198   4.215  0.00  0.00     0.162 A 
ATOM      4  C3  UNL d   1       0.046  -0.394   2.901  0.00  0.00    -0.034 A 
ATOM      5  C4  UNL d   1      -0.281   0.716   2.120  0.00  0.00     0.162 A 
ATOM      6  C5  UNL d   1      -0.178   2.000   2.645  0.00  0.00     0.062 A 
ATOM      7  F   UNL d   1      -0.493   3.060   1.887  0.00  0.00    -0.097 F 
ATOM      8  F1  UNL d   1      -0.695   0.564   0.853  0.00  0.00    -0.096 F 
ATOM      9  I   UNL d   1      -0.107  -2.316   2.118  0.00  0.00    -0.060 I 
ATOM     10  F2  UNL d   1       0.795  -1.241   4.994  0.00  0.00    -0.096 F 
ATOM     11  F3  UNL d   1       0.987   1.266   5.999  0.00  0.00    -0.097 F 
ATOM     12  F4  UNL d   1       0.347   3.423   4.457  0.00  0.00    -0.092 F 
ENDROOT
TORSDOF 0
ENDMDL
