MODEL 1
REMARK minimizedAffinity 20.8052826
REMARK minimizedRMSD -1
REMARK  0 active torsions:
REMARK  status: ('A' for Active; 'I' for Inactive)
ROOT
ATOM      1  C   UNL d   1      -1.635  -4.769  -3.235  0.00  0.00     0.124 A 
ATOM      2  C1  UNL d   1      -2.936  -5.134  -2.917  0.00  0.00     0.062 A 
ATOM      3  C2  UNL d   1      -4.007  -4.604  -3.630  0.00  0.00     0.162 A 
ATOM      4  C3  UNL d   1      -3.782  -3.703  -4.671  0.00  0.00    -0.034 A 
ATOM      5  C4  UNL d   1      -2.471  -3.340  -4.985  0.00  0.00     0.162 A 
ATOM      6  C5  UNL d   1      -1.404  -3.872  -4.269  0.00  0.00     0.062 A 
ATOM      7  F   UNL d   1      -0.149  -3.518  -4.578  0.00  0.00    -0.097 F 
ATOM      8  F1  UNL d   1      -2.219  -2.476  -5.980  0.00  0.00    -0.096 F 
ATOM      9  I   UNL d   1      -5.381  -2.908  -5.740  0.00  0.00    -0.060 I 
ATOM     10  F2  UNL d   1      -5.253  -4.975  -3.300  0.00  0.00    -0.096 F 
ATOM     11  F3  UNL d   1      -3.162  -6.000  -1.918  0.00  0.00    -0.097 F 
ATOM     12  F4  UNL d   1      -0.607  -5.280  -2.547  0.00  0.00    -0.092 F 
ENDROOT
TORSDOF 0
ENDMDL
