MODEL 1
REMARK minimizedAffinity 12.7058659
REMARK minimizedRMSD -1
REMARK  0 active torsions:
REMARK  status: ('A' for Active; 'I' for Inactive)
ROOT
ATOM      1  C   UNL d   1      -2.232   1.163   2.968  0.00  0.00     0.124 A 
ATOM      2  C1  UNL d   1      -2.470   0.593   1.725  0.00  0.00     0.062 A 
ATOM      3  C2  UNL d   1      -1.405   0.238   0.902  0.00  0.00     0.162 A 
ATOM      4  C3  UNL d   1      -0.091   0.451   1.320  0.00  0.00    -0.034 A 
ATOM      5  C4  UNL d   1       0.140   1.026   2.571  0.00  0.00     0.162 A 
ATOM      6  C5  UNL d   1      -0.928   1.380   3.389  0.00  0.00     0.062 A 
ATOM      7  F   UNL d   1      -0.696   1.931   4.590  0.00  0.00    -0.097 F 
ATOM      8  F1  UNL d   1       1.391   1.246   3.004  0.00  0.00    -0.096 F 
ATOM      9  I   UNL d   1       1.504  -0.078   0.093  0.00  0.00    -0.060 I 
ATOM     10  F2  UNL d   1      -1.664  -0.312  -0.293  0.00  0.00    -0.096 F 
ATOM     11  F3  UNL d   1      -3.729   0.383   1.315  0.00  0.00    -0.097 F 
ATOM     12  F4  UNL d   1      -3.259   1.505   3.757  0.00  0.00    -0.092 F 
ENDROOT
TORSDOF 0
ENDMDL
