MODEL 1
REMARK minimizedAffinity 11.5526094
REMARK minimizedRMSD -1
REMARK  0 active torsions:
REMARK  status: ('A' for Active; 'I' for Inactive)
ROOT
ATOM      1  C   UNL d   1      -0.869  -4.849  -3.000  0.00  0.00     0.124 A 
ATOM      2  C1  UNL d   1      -2.115  -5.173  -2.481  0.00  0.00     0.062 A 
ATOM      3  C2  UNL d   1      -3.274  -4.783  -3.146  0.00  0.00     0.162 A 
ATOM      4  C3  UNL d   1      -3.192  -4.065  -4.339  0.00  0.00    -0.034 A 
ATOM      5  C4  UNL d   1      -1.936  -3.742  -4.855  0.00  0.00     0.162 A 
ATOM      6  C5  UNL d   1      -0.781  -4.134  -4.186  0.00  0.00     0.062 A 
ATOM      7  F   UNL d   1       0.422  -3.821  -4.690  0.00  0.00    -0.097 F 
ATOM      8  F1  UNL d   1      -1.821  -3.052  -6.000  0.00  0.00    -0.096 F 
ATOM      9  I   UNL d   1      -4.923  -3.479  -5.336  0.00  0.00    -0.060 I 
ATOM     10  F2  UNL d   1      -4.464  -5.109  -2.621  0.00  0.00    -0.096 F 
ATOM     11  F3  UNL d   1      -2.203  -5.863  -1.335  0.00  0.00    -0.097 F 
ATOM     12  F4  UNL d   1       0.244  -5.226  -2.358  0.00  0.00    -0.092 F 
ENDROOT
TORSDOF 0
ENDMDL
