MODEL 1
REMARK minimizedAffinity 9.9992733
REMARK minimizedRMSD -1
REMARK  0 active torsions:
REMARK  status: ('A' for Active; 'I' for Inactive)
ROOT
ATOM      1  C   UNL d   1      -1.368  -4.871  -3.224  0.00  0.00     0.124 A 
ATOM      2  C1  UNL d   1      -2.540  -5.122  -2.524  0.00  0.00     0.062 A 
ATOM      3  C2  UNL d   1      -3.754  -4.628  -2.992  0.00  0.00     0.162 A 
ATOM      4  C3  UNL d   1      -3.803  -3.879  -4.168  0.00  0.00    -0.034 A 
ATOM      5  C4  UNL d   1      -2.619  -3.630  -4.866  0.00  0.00     0.162 A 
ATOM      6  C5  UNL d   1      -1.408  -4.126  -4.394  0.00  0.00     0.062 A 
ATOM      7  F   UNL d   1      -0.277  -3.882  -5.072  0.00  0.00    -0.097 F 
ATOM      8  F1  UNL d   1      -2.630  -2.913  -6.000  0.00  0.00    -0.096 F 
ATOM      9  I   UNL d   1      -5.616  -3.139  -4.871  0.00  0.00    -0.060 I 
ATOM     10  F2  UNL d   1      -4.871  -4.886  -2.296  0.00  0.00    -0.096 F 
ATOM     11  F3  UNL d   1      -2.502  -5.841  -1.393  0.00  0.00    -0.097 F 
ATOM     12  F4  UNL d   1      -0.200  -5.346  -2.771  0.00  0.00    -0.092 F 
ENDROOT
TORSDOF 0
ENDMDL
