MODEL 1
REMARK minimizedAffinity 22.2947426
REMARK minimizedRMSD -1
REMARK  0 active torsions:
REMARK  status: ('A' for Active; 'I' for Inactive)
ROOT
ATOM      1  C   UNL d   1      -0.554   1.861   2.557  0.00  0.00     0.124 A 
ATOM      2  C1  UNL d   1      -1.940   1.893   2.609  0.00  0.00     0.062 A 
ATOM      3  C2  UNL d   1      -2.652   0.764   3.006  0.00  0.00     0.162 A 
ATOM      4  C3  UNL d   1      -1.977  -0.406   3.355  0.00  0.00    -0.034 A 
ATOM      5  C4  UNL d   1      -0.583  -0.430   3.299  0.00  0.00     0.162 A 
ATOM      6  C5  UNL d   1       0.124   0.700   2.902  0.00  0.00     0.062 A 
ATOM      7  F   UNL d   1       1.463   0.668   2.852  0.00  0.00    -0.097 F 
ATOM      8  F1  UNL d   1       0.097  -1.539   3.628  0.00  0.00    -0.096 F 
ATOM      9  I   UNL d   1      -3.037  -2.095   3.950  0.00  0.00    -0.060 I 
ATOM     10  F2  UNL d   1      -3.991   0.823   3.047  0.00  0.00    -0.096 F 
ATOM     11  F3  UNL d   1      -2.597   3.013   2.275  0.00  0.00    -0.097 F 
ATOM     12  F4  UNL d   1       0.128   2.948   2.173  0.00  0.00    -0.092 F 
ENDROOT
TORSDOF 0
ENDMDL
