MODEL 1
REMARK minimizedAffinity 16.0478191
REMARK minimizedRMSD -1
REMARK  0 active torsions:
REMARK  status: ('A' for Active; 'I' for Inactive)
ROOT
ATOM      1  C   UNL d   1      -1.909  -3.922  -2.902  0.00  0.00     0.124 A 
ATOM      2  C1  UNL d   1      -1.985  -2.780  -3.687  0.00  0.00     0.062 A 
ATOM      3  C2  UNL d   1      -3.047  -2.607  -4.570  0.00  0.00     0.162 A 
ATOM      4  C3  UNL d   1      -4.042  -3.579  -4.673  0.00  0.00    -0.034 A 
ATOM      5  C4  UNL d   1      -3.957  -4.726  -3.882  0.00  0.00     0.162 A 
ATOM      6  C5  UNL d   1      -2.894  -4.894  -3.001  0.00  0.00     0.062 A 
ATOM      7  F   UNL d   1      -2.821  -5.999  -2.244  0.00  0.00    -0.097 F 
ATOM      8  F1  UNL d   1      -4.896  -5.681  -3.956  0.00  0.00    -0.096 F 
ATOM      9  I   UNL d   1      -5.631  -3.325  -5.993  0.00  0.00    -0.060 I 
ATOM     10  F2  UNL d   1      -3.096  -1.493  -5.315  0.00  0.00    -0.096 F 
ATOM     11  F3  UNL d   1      -1.034  -1.840  -3.594  0.00  0.00    -0.097 F 
ATOM     12  F4  UNL d   1      -0.885  -4.086  -2.054  0.00  0.00    -0.092 F 
ENDROOT
TORSDOF 0
ENDMDL
