MODEL 1
REMARK minimizedAffinity 32.2257385
REMARK minimizedRMSD -1
REMARK  0 active torsions:
REMARK  status: ('A' for Active; 'I' for Inactive)
ROOT
ATOM      1  C   UNL d   1      -2.673   0.699   3.880  0.00  0.00     0.124 A 
ATOM      2  C1  UNL d   1      -2.866   0.719   2.506  0.00  0.00     0.062 A 
ATOM      3  C2  UNL d   1      -3.815  -0.114   1.920  0.00  0.00     0.162 A 
ATOM      4  C3  UNL d   1      -4.580  -0.973   2.708  0.00  0.00    -0.034 A 
ATOM      5  C4  UNL d   1      -4.379  -0.988   4.090  0.00  0.00     0.162 A 
ATOM      6  C5  UNL d   1      -3.430  -0.154   4.671  0.00  0.00     0.062 A 
ATOM      7  F   UNL d   1      -3.245  -0.175   5.999  0.00  0.00    -0.097 F 
ATOM      8  F1  UNL d   1      -5.097  -1.803   4.878  0.00  0.00    -0.096 F 
ATOM      9  I   UNL d   1      -6.000  -2.220   1.836  0.00  0.00    -0.060 I 
ATOM     10  F2  UNL d   1      -3.980  -0.074   0.589  0.00  0.00    -0.096 F 
ATOM     11  F3  UNL d   1      -2.135   1.542   1.740  0.00  0.00    -0.097 F 
ATOM     12  F4  UNL d   1      -1.758   1.501   4.441  0.00  0.00    -0.092 F 
ENDROOT
TORSDOF 0
ENDMDL
