MODEL 1
REMARK minimizedAffinity 7.43703079
REMARK minimizedRMSD -1
REMARK  0 active torsions:
REMARK  status: ('A' for Active; 'I' for Inactive)
ROOT
ATOM      1  C   UNL d   1      -0.967  -5.052  -2.907  0.00  0.00     0.124 A 
ATOM      2  C1  UNL d   1      -2.204  -5.374  -2.366  0.00  0.00     0.062 A 
ATOM      3  C2  UNL d   1      -3.373  -5.048  -3.049  0.00  0.00     0.162 A 
ATOM      4  C3  UNL d   1      -3.310  -4.396  -4.281  0.00  0.00    -0.034 A 
ATOM      5  C4  UNL d   1      -2.062  -4.075  -4.818  0.00  0.00     0.162 A 
ATOM      6  C5  UNL d   1      -0.897  -4.403  -4.132  0.00  0.00     0.062 A 
ATOM      7  F   UNL d   1       0.297  -4.091  -4.655  0.00  0.00    -0.097 F 
ATOM      8  F1  UNL d   1      -1.965  -3.449  -6.000  0.00  0.00    -0.096 F 
ATOM      9  I   UNL d   1      -5.054  -3.907  -5.305  0.00  0.00    -0.060 I 
ATOM     10  F2  UNL d   1      -4.554  -5.371  -2.503  0.00  0.00    -0.096 F 
ATOM     11  F3  UNL d   1      -2.275  -6.000  -1.183  0.00  0.00    -0.097 F 
ATOM     12  F4  UNL d   1       0.155  -5.366  -2.248  0.00  0.00    -0.092 F 
ENDROOT
TORSDOF 0
ENDMDL
