MODEL 1
REMARK minimizedAffinity 20.289238
REMARK minimizedRMSD -1
REMARK  0 active torsions:
REMARK  status: ('A' for Active; 'I' for Inactive)
ROOT
ATOM      1  C   UNL d   1      -0.589   0.441   2.731  0.00  0.00     0.124 A 
ATOM      2  C1  UNL d   1      -0.711  -0.941   2.741  0.00  0.00     0.062 A 
ATOM      3  C2  UNL d   1      -1.962  -1.534   2.591  0.00  0.00     0.162 A 
ATOM      4  C3  UNL d   1      -3.100  -0.745   2.429  0.00  0.00    -0.034 A 
ATOM      5  C4  UNL d   1      -2.969   0.645   2.421  0.00  0.00     0.162 A 
ATOM      6  C5  UNL d   1      -1.717   1.233   2.571  0.00  0.00     0.062 A 
ATOM      7  F   UNL d   1      -1.600   2.569   2.561  0.00  0.00    -0.097 F 
ATOM      8  F1  UNL d   1      -4.043   1.434   2.267  0.00  0.00    -0.096 F 
ATOM      9  I   UNL d   1      -4.971  -1.628   2.205  0.00  0.00    -0.060 I 
ATOM     10  F2  UNL d   1      -2.050  -2.873   2.605  0.00  0.00    -0.096 F 
ATOM     11  F3  UNL d   1       0.377  -1.709   2.896  0.00  0.00    -0.097 F 
ATOM     12  F4  UNL d   1       0.616   1.009   2.876  0.00  0.00    -0.092 F 
ENDROOT
TORSDOF 0
ENDMDL
