MODEL 1
REMARK minimizedAffinity 22.2602386
REMARK minimizedRMSD -1
REMARK  0 active torsions:
REMARK  status: ('A' for Active; 'I' for Inactive)
ROOT
ATOM      1  C   UNL d   1      -1.925  -4.773  -2.226  0.00  0.00     0.124 A 
ATOM      2  C1  UNL d   1      -1.792  -3.993  -3.366  0.00  0.00     0.062 A 
ATOM      3  C2  UNL d   1      -2.909  -3.685  -4.138  0.00  0.00     0.162 A 
ATOM      4  C3  UNL d   1      -4.169  -4.156  -3.771  0.00  0.00    -0.034 A 
ATOM      5  C4  UNL d   1      -4.295  -4.940  -2.623  0.00  0.00     0.162 A 
ATOM      6  C5  UNL d   1      -3.176  -5.246  -1.855  0.00  0.00     0.062 A 
ATOM      7  F   UNL d   1      -3.307  -5.999  -0.754  0.00  0.00    -0.097 F 
ATOM      8  F1  UNL d   1      -5.493  -5.410  -2.242  0.00  0.00    -0.096 F 
ATOM      9  I   UNL d   1      -5.842  -3.697  -4.922  0.00  0.00    -0.060 I 
ATOM     10  F2  UNL d   1      -2.751  -2.929  -5.235  0.00  0.00    -0.096 F 
ATOM     11  F3  UNL d   1      -0.584  -3.536  -3.727  0.00  0.00    -0.097 F 
ATOM     12  F4  UNL d   1      -0.849  -5.069  -1.486  0.00  0.00    -0.092 F 
ENDROOT
TORSDOF 0
ENDMDL
