MODEL 1
REMARK minimizedAffinity -5.09985065
REMARK minimizedRMSD -1
REMARK  3 active torsions:
REMARK  status: ('A' for Active; 'I' for Inactive)
REMARK    1  A    between atoms: C3'_2  and  C2'_3 
REMARK    2  A    between atoms: C2'_3  and  C1'_4 
REMARK    3  A    between atoms: C1'_4  and  C1_5 
ROOT
ATOM      1  C1  N4B d   1      -1.129  -0.400  -0.986  0.00  0.00    -0.075 A 
ATOM      2  C2  N4B d   1      -1.901   0.712  -1.388  0.00  0.00     0.002 A 
ATOM      3  C3  N4B d   1      -2.631   0.657  -2.550  0.00  0.00     0.002 A 
ATOM      4  C4  N4B d   1      -2.590  -0.488  -3.332  0.00  0.00    -0.004 A 
ATOM      5  C5  N4B d   1      -1.862  -1.567  -2.923  0.00  0.00     0.002 A 
ATOM      6  C6  N4B d   1      -1.127  -1.527  -1.756  0.00  0.00     0.002 A 
ENDROOT
BRANCH   1   7
ATOM      7  C1' N4B d   1      -0.247  -0.355   0.232  0.00  0.00     0.057 C 
BRANCH   7   8
ATOM      8  C2' N4B d   1       0.712   0.826   0.112  0.00  0.00     0.009 C 
BRANCH   8   9
ATOM      9  C3' N4B d   1       1.980   0.612   0.921  0.00  0.00     0.004 C 
ATOM     10  C4' N4B d   1       2.959  -0.296   0.237  0.00  0.00     0.003 C 
ENDBRANCH   8   9
ENDBRANCH   7   8
ENDBRANCH   1   7
TORSDOF 3
ENDMDL
