MODEL 1
REMARK minimizedAffinity -6.34359407
REMARK minimizedRMSD -1
REMARK  3 active torsions:
REMARK  status: ('A' for Active; 'I' for Inactive)
REMARK    1  A    between atoms: C3'_2  and  C2'_3 
REMARK    2  A    between atoms: C2'_3  and  C1'_4 
REMARK    3  A    between atoms: C1'_4  and  C1_5 
ROOT
ATOM      1  C1  N4B d   1      -0.055  -0.026   0.099  0.00  0.00    -0.075 A 
ATOM      2  C2  N4B d   1       0.552   1.248   0.151  0.00  0.00     0.002 A 
ATOM      3  C3  N4B d   1       1.916   1.354   0.271  0.00  0.00     0.002 A 
ATOM      4  C4  N4B d   1       2.688   0.205   0.359  0.00  0.00    -0.004 A 
ATOM      5  C5  N4B d   1       2.096  -1.022   0.282  0.00  0.00     0.002 A 
ATOM      6  C6  N4B d   1       0.727  -1.143   0.158  0.00  0.00     0.002 A 
ENDROOT
BRANCH   1   7
ATOM      7  C1' N4B d   1      -1.550  -0.192   0.055  0.00  0.00     0.057 C 
BRANCH   7   8
ATOM      8  C2' N4B d   1      -2.044   0.096  -1.360  0.00  0.00     0.009 C 
BRANCH   8   9
ATOM      9  C3' N4B d   1      -1.965  -1.132  -2.250  0.00  0.00     0.004 C 
ATOM     10  C4' N4B d   1      -2.946  -2.197  -1.859  0.00  0.00     0.003 C 
ENDBRANCH   8   9
ENDBRANCH   7   8
ENDBRANCH   1   7
TORSDOF 3
ENDMDL
