MODEL 1
REMARK minimizedAffinity -4.17323351
REMARK minimizedRMSD -1
REMARK  3 active torsions:
REMARK  status: ('A' for Active; 'I' for Inactive)
REMARK    1  A    between atoms: C3'_2  and  C2'_3 
REMARK    2  A    between atoms: C2'_3  and  C1'_4 
REMARK    3  A    between atoms: C1'_4  and  C1_5 
ROOT
ATOM      1  C1  N4B d   1       0.168  -0.136   0.575  0.00  0.00    -0.075 A 
ATOM      2  C2  N4B d   1       0.843  -1.349   0.317  0.00  0.00     0.002 A 
ATOM      3  C3  N4B d   1       2.215  -1.380   0.293  0.00  0.00     0.002 A 
ATOM      4  C4  N4B d   1       2.932  -0.212   0.505  0.00  0.00    -0.004 A 
ATOM      5  C5  N4B d   1       2.273   0.951   0.780  0.00  0.00     0.002 A 
ATOM      6  C6  N4B d   1       0.894   0.996   0.811  0.00  0.00     0.002 A 
ENDROOT
BRANCH   1   7
ATOM      7  C1' N4B d   1      -1.332  -0.035   0.527  0.00  0.00     0.057 C 
BRANCH   7   8
ATOM      8  C2' N4B d   1      -1.743   0.710  -0.740  0.00  0.00     0.009 C 
BRANCH   8   9
ATOM      9  C3' N4B d   1      -1.887  -0.226  -1.928  0.00  0.00     0.004 C 
ATOM     10  C4' N4B d   1      -2.679   0.377  -3.050  0.00  0.00     0.003 C 
ENDBRANCH   8   9
ENDBRANCH   7   8
ENDBRANCH   1   7
TORSDOF 3
ENDMDL
