MODEL 1
REMARK minimizedAffinity -1.49566591
REMARK minimizedRMSD -1
REMARK  0 active torsions:
REMARK  status: ('A' for Active; 'I' for Inactive)
ROOT
ATOM      1  C1  BNZ d   1       0.360   1.350  -0.082  0.00  0.00     0.000 A 
ATOM      2  C2  BNZ d   1       1.412   1.914   0.589  0.00  0.00     0.000 A 
ATOM      3  C3  BNZ d   1       2.132   1.190   1.498  0.00  0.00     0.000 A 
ATOM      4  C4  BNZ d   1       1.774  -0.083   1.765  0.00  0.00     0.000 A 
ATOM      5  C5  BNZ d   1       0.710  -0.663   1.103  0.00  0.00     0.000 A 
ATOM      6  C6  BNZ d   1       0.012   0.057   0.160  0.00  0.00     0.000 A 
ENDROOT
TORSDOF 0
ENDMDL
