MODEL 1
REMARK minimizedAffinity -3.64596438
REMARK minimizedRMSD -1
REMARK  0 active torsions:
REMARK  status: ('A' for Active; 'I' for Inactive)
ROOT
ATOM      1  C1  BNZ d   1       0.425   0.017   0.353  0.00  0.00     0.000 A 
ATOM      2  C2  BNZ d   1       1.680  -0.465   0.613  0.00  0.00     0.000 A 
ATOM      3  C3  BNZ d   1       2.763   0.370   0.620  0.00  0.00     0.000 A 
ATOM      4  C4  BNZ d   1       2.595   1.676   0.328  0.00  0.00     0.000 A 
ATOM      5  C5  BNZ d   1       1.337   2.175   0.054  0.00  0.00     0.000 A 
ATOM      6  C6  BNZ d   1       0.244   1.339   0.087  0.00  0.00     0.000 A 
ENDROOT
TORSDOF 0
ENDMDL
