MODEL 1
REMARK minimizedAffinity -4.1298418
REMARK minimizedRMSD -1
REMARK  0 active torsions:
REMARK  status: ('A' for Active; 'I' for Inactive)
ROOT
ATOM      1  C1  BNZ d   1       2.228  -0.759   1.846  0.00  0.00     0.000 A 
ATOM      2  C2  BNZ d   1       2.225   0.365   1.064  0.00  0.00     0.000 A 
ATOM      3  C3  BNZ d   1       1.148   0.668   0.279  0.00  0.00     0.000 A 
ATOM      4  C4  BNZ d   1       0.093  -0.172   0.246  0.00  0.00     0.000 A 
ATOM      5  C5  BNZ d   1       0.086  -1.314   1.022  0.00  0.00     0.000 A 
ATOM      6  C6  BNZ d   1       1.155  -1.596   1.840  0.00  0.00     0.000 A 
ENDROOT
TORSDOF 0
ENDMDL
