MODEL 1
REMARK minimizedAffinity -4.51431131
REMARK minimizedRMSD -1
REMARK  0 active torsions:
REMARK  status: ('A' for Active; 'I' for Inactive)
ROOT
ATOM      1  C1  BNZ d   1       2.616   1.092   4.244  0.00  0.00     0.000 A 
ATOM      2  C2  BNZ d   1       2.881  -0.152   3.736  0.00  0.00     0.000 A 
ATOM      3  C3  BNZ d   1       2.763  -0.400   2.397  0.00  0.00     0.000 A 
ATOM      4  C4  BNZ d   1       2.342   0.582   1.574  0.00  0.00     0.000 A 
ATOM      5  C5  BNZ d   1       2.061   1.839   2.073  0.00  0.00     0.000 A 
ATOM      6  C6  BNZ d   1       2.219   2.096   3.415  0.00  0.00     0.000 A 
ENDROOT
TORSDOF 0
ENDMDL
