MODEL 1
REMARK minimizedAffinity -4.27734709
REMARK minimizedRMSD -1
REMARK  0 active torsions:
REMARK  status: ('A' for Active; 'I' for Inactive)
ROOT
ATOM      1  C1  BNZ d   1       2.195  -0.733  -0.055  0.00  0.00     0.000 A 
ATOM      2  C2  BNZ d   1       2.804   0.306   0.597  0.00  0.00     0.000 A 
ATOM      3  C3  BNZ d   1       2.086   1.397   0.999  0.00  0.00     0.000 A 
ATOM      4  C4  BNZ d   1       0.770   1.468   0.712  0.00  0.00     0.000 A 
ATOM      5  C5  BNZ d   1       0.144   0.433   0.047  0.00  0.00     0.000 A 
ATOM      6  C6  BNZ d   1       0.861  -0.682  -0.321  0.00  0.00     0.000 A 
ENDROOT
TORSDOF 0
ENDMDL
