MODEL 1
REMARK minimizedAffinity -3.92242718
REMARK minimizedRMSD -1
REMARK  0 active torsions:
REMARK  status: ('A' for Active; 'I' for Inactive)
ROOT
ATOM      1  C1  BNZ d   1       2.850  -1.481   2.192  0.00  0.00     0.000 A 
ATOM      2  C2  BNZ d   1       3.447  -0.249   2.144  0.00  0.00     0.000 A 
ATOM      3  C3  BNZ d   1       2.905   0.763   1.403  0.00  0.00     0.000 A 
ATOM      4  C4  BNZ d   1       1.791   0.531   0.679  0.00  0.00     0.000 A 
ATOM      5  C5  BNZ d   1       1.182  -0.708   0.710  0.00  0.00     0.000 A 
ATOM      6  C6  BNZ d   1       1.709  -1.713   1.488  0.00  0.00     0.000 A 
ENDROOT
TORSDOF 0
ENDMDL
