MODEL 1
REMARK minimizedAffinity -3.11408043
REMARK minimizedRMSD -1
REMARK  0 active torsions:
REMARK  status: ('A' for Active; 'I' for Inactive)
ROOT
ATOM      1  C1  BNZ d   1       0.261   1.658   0.212  0.00  0.00     0.000 A 
ATOM      2  C2  BNZ d   1       1.441   2.348   0.118  0.00  0.00     0.000 A 
ATOM      3  C3  BNZ d   1       2.621   1.770   0.492  0.00  0.00     0.000 A 
ATOM      4  C4  BNZ d   1       2.617   0.519   0.996  0.00  0.00     0.000 A 
ATOM      5  C5  BNZ d   1       1.435  -0.186   1.105  0.00  0.00     0.000 A 
ATOM      6  C6  BNZ d   1       0.253   0.385   0.692  0.00  0.00     0.000 A 
ENDROOT
TORSDOF 0
ENDMDL
