MODEL 1
REMARK minimizedAffinity -0.603394091
REMARK minimizedRMSD -1
REMARK  0 active torsions:
REMARK  status: ('A' for Active; 'I' for Inactive)
ROOT
ATOM      1  C1  BNZ d   1      -1.627   0.045  -0.264  0.00  0.00     0.000 A 
ATOM      2  C2  BNZ d   1      -0.866   1.181  -0.348  0.00  0.00     0.000 A 
ATOM      3  C3  BNZ d   1       0.460   1.161  -0.016  0.00  0.00     0.000 A 
ATOM      4  C4  BNZ d   1       1.013   0.017   0.437  0.00  0.00     0.000 A 
ATOM      5  C5  BNZ d   1       0.257  -1.134   0.535  0.00  0.00     0.000 A 
ATOM      6  C6  BNZ d   1      -1.068  -1.120   0.163  0.00  0.00     0.000 A 
ENDROOT
TORSDOF 0
ENDMDL
