MODEL 1
REMARK minimizedAffinity -1.47683871
REMARK minimizedRMSD -1
REMARK  0 active torsions:
REMARK  status: ('A' for Active; 'I' for Inactive)
ROOT
ATOM      1  C1  BNZ d   1       2.205   0.206   4.059  0.00  0.00     0.000 A 
ATOM      2  C2  BNZ d   1       2.424   1.533   4.318  0.00  0.00     0.000 A 
ATOM      3  C3  BNZ d   1       2.626   2.421   3.299  0.00  0.00     0.000 A 
ATOM      4  C4  BNZ d   1       2.648   1.976   2.026  0.00  0.00     0.000 A 
ATOM      5  C5  BNZ d   1       2.438   0.639   1.749  0.00  0.00     0.000 A 
ATOM      6  C6  BNZ d   1       2.197  -0.245   2.775  0.00  0.00     0.000 A 
ENDROOT
TORSDOF 0
ENDMDL
