MODEL 1
REMARK minimizedAffinity -4.83354664
REMARK minimizedRMSD -1
REMARK  0 active torsions:
REMARK  status: ('A' for Active; 'I' for Inactive)
ROOT
ATOM      1  C1  DEN d   1      -0.418  -0.508  -0.003  0.00  0.00     0.130 A 
ATOM      2  C2  DEN d   1      -0.930   0.844  -0.210  0.00  0.00    -0.031 A 
ATOM      3  C3  DEN d   1       0.170   1.794   0.051  0.00  0.00     0.027 A 
ATOM      4  C4  DEN d   1       2.605   1.305   0.746  0.00  0.00     0.027 A 
ATOM      5  C5  DEN d   1       3.506   0.310   1.055  0.00  0.00    -0.003 A 
ATOM      6  C6  DEN d   1       3.157  -1.014   1.066  0.00  0.00     0.001 A 
ATOM      7  C7  DEN d   1       1.884  -1.383   0.718  0.00  0.00     0.017 A 
ATOM      8  C8  DEN d   1       0.968  -0.385   0.412  0.00  0.00    -0.094 A 
ATOM      9  C9  DEN d   1       1.344   0.948   0.395  0.00  0.00    -0.072 A 
ENDROOT
TORSDOF 0
ENDMDL
