MODEL 1
REMARK minimizedAffinity -2.90814543
REMARK minimizedRMSD -1
REMARK  0 active torsions:
REMARK  status: ('A' for Active; 'I' for Inactive)
ROOT
ATOM      1  C1  DEN d   1       3.947   0.566  -0.184  0.00  0.00     0.130 A 
ATOM      2  C2  DEN d   1       3.552   1.967  -0.062  0.00  0.00    -0.031 A 
ATOM      3  C3  DEN d   1       2.077   2.022  -0.006  0.00  0.00     0.027 A 
ATOM      4  C4  DEN d   1       0.377   0.085  -0.091  0.00  0.00     0.027 A 
ATOM      5  C5  DEN d   1       0.236  -1.281  -0.203  0.00  0.00    -0.003 A 
ATOM      6  C6  DEN d   1       1.311  -2.117  -0.349  0.00  0.00     0.001 A 
ATOM      7  C7  DEN d   1       2.579  -1.599  -0.342  0.00  0.00     0.017 A 
ATOM      8  C8  DEN d   1       2.729  -0.222  -0.238  0.00  0.00    -0.094 A 
ATOM      9  C9  DEN d   1       1.630   0.605  -0.078  0.00  0.00    -0.072 A 
ENDROOT
TORSDOF 0
ENDMDL
