MODEL 1
REMARK minimizedAffinity -5.78336668
REMARK minimizedRMSD -1
REMARK  0 active torsions:
REMARK  status: ('A' for Active; 'I' for Inactive)
ROOT
ATOM      1  C1  DEN d   1       2.538   1.710  -0.332  0.00  0.00     0.130 A 
ATOM      2  C2  DEN d   1       3.894   1.415   0.125  0.00  0.00    -0.031 A 
ATOM      3  C3  DEN d   1       3.924   0.014   0.590  0.00  0.00     0.027 A 
ATOM      4  C4  DEN d   1       2.016  -1.721   0.639  0.00  0.00     0.027 A 
ATOM      5  C5  DEN d   1       0.683  -1.932   0.363  0.00  0.00    -0.003 A 
ATOM      6  C6  DEN d   1      -0.126  -0.942  -0.128  0.00  0.00     0.001 A 
ATOM      7  C7  DEN d   1       0.401   0.293  -0.401  0.00  0.00     0.017 A 
ATOM      8  C8  DEN d   1       1.742   0.515  -0.119  0.00  0.00    -0.094 A 
ATOM      9  C9  DEN d   1       2.547  -0.502   0.366  0.00  0.00    -0.072 A 
ENDROOT
TORSDOF 0
ENDMDL
