MODEL 1
REMARK minimizedAffinity 0.431219935
REMARK minimizedRMSD -1
REMARK  0 active torsions:
REMARK  status: ('A' for Active; 'I' for Inactive)
ROOT
ATOM      1  C1  DEN d   1       2.917  -0.745  -0.462  0.00  0.00     0.130 A 
ATOM      2  C2  DEN d   1       2.185  -1.991  -0.670  0.00  0.00    -0.031 A 
ATOM      3  C3  DEN d   1       0.762  -1.655  -0.876  0.00  0.00     0.027 A 
ATOM      4  C4  DEN d   1      -0.373   0.661  -0.896  0.00  0.00     0.027 A 
ATOM      5  C5  DEN d   1      -0.163   2.015  -0.753  0.00  0.00    -0.003 A 
ATOM      6  C6  DEN d   1       1.072   2.537  -0.471  0.00  0.00     0.001 A 
ATOM      7  C7  DEN d   1       2.154   1.703  -0.368  0.00  0.00     0.017 A 
ATOM      8  C8  DEN d   1       1.949   0.336  -0.504  0.00  0.00    -0.094 A 
ATOM      9  C9  DEN d   1       0.695  -0.171  -0.801  0.00  0.00    -0.072 A 
ENDROOT
TORSDOF 0
ENDMDL
