MODEL 1
REMARK minimizedAffinity -2.20938492
REMARK minimizedRMSD -1
REMARK  0 active torsions:
REMARK  status: ('A' for Active; 'I' for Inactive)
ROOT
ATOM      1  C1  DEN d   1       0.802  -1.791  -0.687  0.00  0.00     0.130 A 
ATOM      2  C2  DEN d   1       2.204  -2.141  -0.481  0.00  0.00    -0.031 A 
ATOM      3  C3  DEN d   1       2.929  -0.914  -0.095  0.00  0.00     0.027 A 
ATOM      4  C4  DEN d   1       2.020   1.481   0.206  0.00  0.00     0.027 A 
ATOM      5  C5  DEN d   1       0.896   2.272   0.131  0.00  0.00    -0.003 A 
ATOM      6  C6  DEN d   1      -0.322   1.776  -0.253  0.00  0.00     0.001 A 
ATOM      7  C7  DEN d   1      -0.454   0.441  -0.531  0.00  0.00     0.017 A 
ATOM      8  C8  DEN d   1       0.677  -0.362  -0.465  0.00  0.00    -0.094 A 
ATOM      9  C9  DEN d   1       1.897   0.156  -0.063  0.00  0.00    -0.072 A 
ENDROOT
TORSDOF 0
ENDMDL
