MODEL 1
REMARK minimizedAffinity -6.42489004
REMARK minimizedRMSD -1
REMARK  0 active torsions:
REMARK  status: ('A' for Active; 'I' for Inactive)
ROOT
ATOM      1  C1  DEN d   1       3.193  -0.904   0.944  0.00  0.00     0.130 A 
ATOM      2  C2  DEN d   1       2.610  -2.227   1.152  0.00  0.00    -0.031 A 
ATOM      3  C3  DEN d   1       1.155  -2.126   0.922  0.00  0.00     0.027 A 
ATOM      4  C4  DEN d   1      -0.244  -0.062   0.262  0.00  0.00     0.027 A 
ATOM      5  C5  DEN d   1      -0.194   1.286  -0.016  0.00  0.00    -0.003 A 
ATOM      6  C6  DEN d   1       0.974   2.000   0.039  0.00  0.00     0.001 A 
ATOM      7  C7  DEN d   1       2.148   1.359   0.336  0.00  0.00     0.017 A 
ATOM      8  C8  DEN d   1       2.104   0.001   0.625  0.00  0.00    -0.094 A 
ATOM      9  C9  DEN d   1       0.915  -0.705   0.552  0.00  0.00    -0.072 A 
ENDROOT
TORSDOF 0
ENDMDL
