MODEL 1
REMARK minimizedAffinity -2.56261849
REMARK minimizedRMSD -1
REMARK  0 active torsions:
REMARK  status: ('A' for Active; 'I' for Inactive)
ROOT
ATOM      1  C   UNL d   1       0.862   2.859   0.626  0.00  0.00     0.124 A 
ATOM      2  C1  UNL d   1      -0.348   2.279   0.982  0.00  0.00     0.062 A 
ATOM      3  C2  UNL d   1      -0.516   0.900   0.893  0.00  0.00     0.162 A 
ATOM      4  C3  UNL d   1       0.529   0.091   0.448  0.00  0.00    -0.034 A 
ATOM      5  C4  UNL d   1       1.743   0.681   0.092  0.00  0.00     0.162 A 
ATOM      6  C5  UNL d   1       1.906   2.059   0.182  0.00  0.00     0.062 A 
ATOM      7  F   UNL d   1       3.076   2.618  -0.162  0.00  0.00    -0.097 F 
ATOM      8  F1  UNL d   1       2.769  -0.068  -0.340  0.00  0.00    -0.096 F 
ATOM      9  I   UNL d   1       0.282  -1.972   0.315  0.00  0.00    -0.060 I 
ATOM     10  F2  UNL d   1      -1.696   0.367   1.244  0.00  0.00    -0.096 F 
ATOM     11  F3  UNL d   1      -1.358   3.049   1.411  0.00  0.00    -0.097 F 
ATOM     12  F4  UNL d   1       1.021   4.186   0.711  0.00  0.00    -0.092 F 
ENDROOT
TORSDOF 0
ENDMDL
