MODEL 1
REMARK minimizedAffinity 13.5378656
REMARK minimizedRMSD -1
REMARK  0 active torsions:
REMARK  status: ('A' for Active; 'I' for Inactive)
ROOT
ATOM      1  C   UNL d   1      -1.022  -3.984  -0.997  0.00  0.00     0.124 A 
ATOM      2  C1  UNL d   1       0.081  -3.411  -0.379  0.00  0.00     0.062 A 
ATOM      3  C2  UNL d   1       0.371  -3.707   0.950  0.00  0.00     0.162 A 
ATOM      4  C3  UNL d   1      -0.442  -4.582   1.670  0.00  0.00    -0.034 A 
ATOM      5  C4  UNL d   1      -1.550  -5.154   1.042  0.00  0.00     0.162 A 
ATOM      6  C5  UNL d   1      -1.836  -4.855  -0.286  0.00  0.00     0.062 A 
ATOM      7  F   UNL d   1      -2.902  -5.409  -0.882  0.00  0.00    -0.097 F 
ATOM      8  F1  UNL d   1      -2.353  -5.999   1.704  0.00  0.00    -0.096 F 
ATOM      9  I   UNL d   1      -0.011  -5.028   3.656  0.00  0.00    -0.060 I 
ATOM     10  F2  UNL d   1       1.444  -3.139   1.521  0.00  0.00    -0.096 F 
ATOM     11  F3  UNL d   1       0.869  -2.569  -1.063  0.00  0.00    -0.097 F 
ATOM     12  F4  UNL d   1      -1.300  -3.696  -2.275  0.00  0.00    -0.092 F 
ENDROOT
TORSDOF 0
ENDMDL
