MODEL 1
REMARK minimizedAffinity 4.97611475
REMARK minimizedRMSD -1
REMARK  0 active torsions:
REMARK  status: ('A' for Active; 'I' for Inactive)
ROOT
ATOM      1  C   UNL d   1      -2.230  -0.982   1.410  0.00  0.00     0.124 A 
ATOM      2  C1  UNL d   1      -1.603  -1.955   0.643  0.00  0.00     0.062 A 
ATOM      3  C2  UNL d   1      -1.003  -3.051   1.256  0.00  0.00     0.162 A 
ATOM      4  C3  UNL d   1      -1.028  -3.181   2.645  0.00  0.00    -0.034 A 
ATOM      5  C4  UNL d   1      -1.659  -2.198   3.409  0.00  0.00     0.162 A 
ATOM      6  C5  UNL d   1      -2.257  -1.105   2.792  0.00  0.00     0.062 A 
ATOM      7  F   UNL d   1      -2.863  -0.166   3.534  0.00  0.00    -0.097 F 
ATOM      8  F1  UNL d   1      -1.702  -2.292   4.747  0.00  0.00    -0.096 F 
ATOM      9  I   UNL d   1      -0.132  -4.818   3.566  0.00  0.00    -0.060 I 
ATOM     10  F2  UNL d   1      -0.404  -3.975   0.491  0.00  0.00    -0.096 F 
ATOM     11  F3  UNL d   1      -1.574  -1.838  -0.693  0.00  0.00    -0.097 F 
ATOM     12  F4  UNL d   1      -2.805   0.072   0.817  0.00  0.00    -0.092 F 
ENDROOT
TORSDOF 0
ENDMDL
