MODEL 1
REMARK minimizedAffinity 18.2699776
REMARK minimizedRMSD -1
REMARK  0 active torsions:
REMARK  status: ('A' for Active; 'I' for Inactive)
ROOT
ATOM      1  C   UNL d   1      -1.107  -4.146  -2.244  0.00  0.00     0.124 A 
ATOM      2  C1  UNL d   1      -1.754  -3.292  -1.361  0.00  0.00     0.062 A 
ATOM      3  C2  UNL d   1      -1.366  -3.241  -0.026  0.00  0.00     0.162 A 
ATOM      4  C3  UNL d   1      -0.324  -4.047   0.436  0.00  0.00    -0.034 A 
ATOM      5  C4  UNL d   1       0.321  -4.904  -0.458  0.00  0.00     0.162 A 
ATOM      6  C5  UNL d   1      -0.071  -4.951  -1.792  0.00  0.00     0.062 A 
ATOM      7  F   UNL d   1       0.555  -5.776  -2.643  0.00  0.00    -0.097 F 
ATOM      8  F1  UNL d   1       1.326  -5.691  -0.048  0.00  0.00    -0.096 F 
ATOM      9  I   UNL d   1       0.259  -3.974   2.432  0.00  0.00    -0.060 I 
ATOM     10  F2  UNL d   1      -2.008  -2.407   0.805  0.00  0.00    -0.096 F 
ATOM     11  F3  UNL d   1      -2.756  -2.514  -1.796  0.00  0.00    -0.097 F 
ATOM     12  F4  UNL d   1      -1.483  -4.193  -3.529  0.00  0.00    -0.092 F 
ENDROOT
TORSDOF 0
ENDMDL
