MODEL 1
REMARK minimizedAffinity 14.0822744
REMARK minimizedRMSD -1
REMARK  0 active torsions:
REMARK  status: ('A' for Active; 'I' for Inactive)
ROOT
ATOM      1  C   UNL d   1       1.497   2.405   1.881  0.00  0.00     0.124 A 
ATOM      2  C1  UNL d   1       1.727   2.610   3.235  0.00  0.00     0.062 A 
ATOM      3  C2  UNL d   1       2.570   3.635   3.655  0.00  0.00     0.162 A 
ATOM      4  C3  UNL d   1       3.190   4.464   2.720  0.00  0.00    -0.034 A 
ATOM      5  C4  UNL d   1       2.954   4.251   1.360  0.00  0.00     0.162 A 
ATOM      6  C5  UNL d   1       2.111   3.226   0.946  0.00  0.00     0.062 A 
ATOM      7  F   UNL d   1       1.890   3.030  -0.363  0.00  0.00    -0.097 F 
ATOM      8  F1  UNL d   1       3.534   5.030   0.434  0.00  0.00    -0.096 F 
ATOM      9  I   UNL d   1       4.451   5.997   3.343  0.00  0.00    -0.060 I 
ATOM     10  F2  UNL d   1       2.774   3.809   4.969  0.00  0.00    -0.096 F 
ATOM     11  F3  UNL d   1       1.135   1.818   4.141  0.00  0.00    -0.097 F 
ATOM     12  F4  UNL d   1       0.686   1.418   1.480  0.00  0.00    -0.092 F 
ENDROOT
TORSDOF 0
ENDMDL
