MODEL 1
REMARK minimizedAffinity 16.7151318
REMARK minimizedRMSD -1
REMARK  0 active torsions:
REMARK  status: ('A' for Active; 'I' for Inactive)
ROOT
ATOM      1  C   UNL d   1       2.937  -3.180  -0.468  0.00  0.00     0.124 A 
ATOM      2  C1  UNL d   1       2.033  -2.435   0.277  0.00  0.00     0.062 A 
ATOM      3  C2  UNL d   1       0.664  -2.614   0.098  0.00  0.00     0.162 A 
ATOM      4  C3  UNL d   1       0.190  -3.543  -0.828  0.00  0.00    -0.034 A 
ATOM      5  C4  UNL d   1       1.106  -4.288  -1.574  0.00  0.00     0.162 A 
ATOM      6  C5  UNL d   1       2.473  -4.105  -1.392  0.00  0.00     0.062 A 
ATOM      7  F   UNL d   1       3.345  -4.825  -2.113  0.00  0.00    -0.097 F 
ATOM      8  F1  UNL d   1       0.685  -5.189  -2.474  0.00  0.00    -0.096 F 
ATOM      9  I   UNL d   1      -1.855  -3.814  -1.098  0.00  0.00    -0.060 I 
ATOM     10  F2  UNL d   1      -0.187  -1.881   0.832  0.00  0.00    -0.096 F 
ATOM     11  F3  UNL d   1       2.478  -1.540   1.170  0.00  0.00    -0.097 F 
ATOM     12  F4  UNL d   1       4.253  -3.005  -0.295  0.00  0.00    -0.092 F 
ENDROOT
TORSDOF 0
ENDMDL
