MODEL 1
REMARK minimizedAffinity 10.4558172
REMARK minimizedRMSD -1
REMARK  0 active torsions:
REMARK  status: ('A' for Active; 'I' for Inactive)
ROOT
ATOM      1  C   UNL d   1      -3.588   2.001  -2.414  0.00  0.00     0.124 A 
ATOM      2  C1  UNL d   1      -2.336   2.211  -1.853  0.00  0.00     0.062 A 
ATOM      3  C2  UNL d   1      -1.229   2.418  -2.670  0.00  0.00     0.162 A 
ATOM      4  C3  UNL d   1      -1.368   2.417  -4.058  0.00  0.00    -0.034 A 
ATOM      5  C4  UNL d   1      -2.630   2.205  -4.615  0.00  0.00     0.162 A 
ATOM      6  C5  UNL d   1      -3.734   1.998  -3.794  0.00  0.00     0.062 A 
ATOM      7  F   UNL d   1      -4.943   1.795  -4.339  0.00  0.00    -0.097 F 
ATOM      8  F1  UNL d   1      -2.800   2.198  -5.946  0.00  0.00    -0.096 F 
ATOM      9  I   UNL d   1       0.286   2.727  -5.283  0.00  0.00    -0.060 I 
ATOM     10  F2  UNL d   1      -0.031   2.618  -2.101  0.00  0.00    -0.096 F 
ATOM     11  F3  UNL d   1      -2.193   2.213  -0.520  0.00  0.00    -0.097 F 
ATOM     12  F4  UNL d   1      -4.652   1.801  -1.626  0.00  0.00    -0.092 F 
ENDROOT
TORSDOF 0
ENDMDL
