MODEL 1
REMARK minimizedAffinity -0.0642553866
REMARK minimizedRMSD -1
REMARK  0 active torsions:
REMARK  status: ('A' for Active; 'I' for Inactive)
ROOT
ATOM      1  C   UNL d   1      -1.882  -2.963   0.415  0.00  0.00     0.124 A 
ATOM      2  C1  UNL d   1      -1.036  -2.791   1.502  0.00  0.00     0.062 A 
ATOM      3  C2  UNL d   1       0.334  -2.993   1.363  0.00  0.00     0.162 A 
ATOM      4  C3  UNL d   1       0.868  -3.368   0.130  0.00  0.00    -0.034 A 
ATOM      5  C4  UNL d   1       0.011  -3.540  -0.959  0.00  0.00     0.162 A 
ATOM      6  C5  UNL d   1      -1.357  -3.337  -0.814  0.00  0.00     0.062 A 
ATOM      7  F   UNL d   1      -2.172  -3.504  -1.866  0.00  0.00    -0.097 F 
ATOM      8  F1  UNL d   1       0.491  -3.900  -2.159  0.00  0.00    -0.096 F 
ATOM      9  I   UNL d   1       2.916  -3.671  -0.083  0.00  0.00    -0.060 I 
ATOM     10  F2  UNL d   1       1.127  -2.820   2.430  0.00  0.00    -0.096 F 
ATOM     11  F3  UNL d   1      -1.541  -2.431   2.691  0.00  0.00    -0.097 F 
ATOM     12  F4  UNL d   1      -3.200  -2.769   0.552  0.00  0.00    -0.092 F 
ENDROOT
TORSDOF 0
ENDMDL
