MODEL 1
REMARK minimizedAffinity 20.564106
REMARK minimizedRMSD -1
REMARK  0 active torsions:
REMARK  status: ('A' for Active; 'I' for Inactive)
ROOT
ATOM      1  C   UNL d   1       1.621  -1.712   0.924  0.00  0.00     0.124 A 
ATOM      2  C1  UNL d   1       1.750  -3.005   1.411  0.00  0.00     0.062 A 
ATOM      3  C2  UNL d   1       2.725  -3.854   0.895  0.00  0.00     0.162 A 
ATOM      4  C3  UNL d   1       3.580  -3.412  -0.115  0.00  0.00    -0.034 A 
ATOM      5  C4  UNL d   1       3.443  -2.110  -0.601  0.00  0.00     0.162 A 
ATOM      6  C5  UNL d   1       2.467  -1.266  -0.081  0.00  0.00     0.062 A 
ATOM      7  F   UNL d   1       2.344  -0.017  -0.553  0.00  0.00    -0.097 F 
ATOM      8  F1  UNL d   1       4.249  -1.653  -1.571  0.00  0.00    -0.096 F 
ATOM      9  I   UNL d   1       5.039  -4.678  -0.889  0.00  0.00    -0.060 I 
ATOM     10  F2  UNL d   1       2.827  -5.098   1.385  0.00  0.00    -0.096 F 
ATOM     11  F3  UNL d   1       0.932  -3.439   2.381  0.00  0.00    -0.097 F 
ATOM     12  F4  UNL d   1       0.681  -0.898   1.422  0.00  0.00    -0.092 F 
ENDROOT
TORSDOF 0
ENDMDL
