MODEL 1
REMARK minimizedAffinity 15.7534723
REMARK minimizedRMSD -1
REMARK  0 active torsions:
REMARK  status: ('A' for Active; 'I' for Inactive)
ROOT
ATOM      1  C   UNL d   1      -0.789   2.014  -4.936  0.00  0.00     0.124 A 
ATOM      2  C1  UNL d   1      -2.096   1.554  -4.851  0.00  0.00     0.062 A 
ATOM      3  C2  UNL d   1      -3.158   2.402  -5.154  0.00  0.00     0.162 A 
ATOM      4  C3  UNL d   1      -2.917   3.719  -5.545  0.00  0.00    -0.034 A 
ATOM      5  C4  UNL d   1      -1.600   4.175  -5.627  0.00  0.00     0.162 A 
ATOM      6  C5  UNL d   1      -0.543   3.323  -5.323  0.00  0.00     0.062 A 
ATOM      7  F   UNL d   1       0.719   3.770  -5.405  0.00  0.00    -0.097 F 
ATOM      8  F1  UNL d   1      -1.333   5.435  -6.000  0.00  0.00    -0.096 F 
ATOM      9  I   UNL d   1      -4.502   4.990  -5.998  0.00  0.00    -0.060 I 
ATOM     10  F2  UNL d   1      -4.410   1.930  -5.064  0.00  0.00    -0.096 F 
ATOM     11  F3  UNL d   1      -2.337   0.289  -4.476  0.00  0.00    -0.097 F 
ATOM     12  F4  UNL d   1       0.230   1.196  -4.643  0.00  0.00    -0.092 F 
ENDROOT
TORSDOF 0
ENDMDL
