MODEL 1
REMARK minimizedAffinity 19.1343632
REMARK minimizedRMSD -1
REMARK  0 active torsions:
REMARK  status: ('A' for Active; 'I' for Inactive)
ROOT
ATOM      1  C   UNL d   1      -1.296   1.891  -4.844  0.00  0.00     0.124 A 
ATOM      2  C1  UNL d   1      -1.105   3.200  -5.265  0.00  0.00     0.062 A 
ATOM      3  C2  UNL d   1      -2.198   3.995  -5.596  0.00  0.00     0.162 A 
ATOM      4  C3  UNL d   1      -3.493   3.484  -5.506  0.00  0.00    -0.034 A 
ATOM      5  C4  UNL d   1      -3.677   2.167  -5.082  0.00  0.00     0.162 A 
ATOM      6  C5  UNL d   1      -2.581   1.376  -4.753  0.00  0.00     0.062 A 
ATOM      7  F   UNL d   1      -2.767   0.112  -4.346  0.00  0.00    -0.097 F 
ATOM      8  F1  UNL d   1      -4.908   1.644  -4.984  0.00  0.00    -0.096 F 
ATOM      9  I   UNL d   1      -5.131   4.670  -5.999  0.00  0.00    -0.060 I 
ATOM     10  F2  UNL d   1      -1.984   5.256  -6.000  0.00  0.00    -0.096 F 
ATOM     11  F3  UNL d   1       0.136   3.700  -5.355  0.00  0.00    -0.097 F 
ATOM     12  F4  UNL d   1      -0.242   1.128  -4.527  0.00  0.00    -0.092 F 
ENDROOT
TORSDOF 0
ENDMDL
