MODEL 1
REMARK minimizedAffinity 11.1458073
REMARK minimizedRMSD -1
REMARK  0 active torsions:
REMARK  status: ('A' for Active; 'I' for Inactive)
ROOT
ATOM      1  C   UNL d   1      -2.381  -4.209  -1.334  0.00  0.00     0.124 A 
ATOM      2  C1  UNL d   1      -2.509  -3.932   0.020  0.00  0.00     0.062 A 
ATOM      3  C2  UNL d   1      -1.492  -3.265   0.698  0.00  0.00     0.162 A 
ATOM      4  C3  UNL d   1      -0.338  -2.869   0.022  0.00  0.00    -0.034 A 
ATOM      5  C4  UNL d   1      -0.216  -3.151  -1.340  0.00  0.00     0.162 A 
ATOM      6  C5  UNL d   1      -1.235  -3.818  -2.013  0.00  0.00     0.062 A 
ATOM      7  F   UNL d   1      -1.109  -4.085  -3.321  0.00  0.00    -0.097 F 
ATOM      8  F1  UNL d   1       0.880  -2.784  -2.021  0.00  0.00    -0.096 F 
ATOM      9  I   UNL d   1       1.184  -1.871   1.031  0.00  0.00    -0.060 I 
ATOM     10  F2  UNL d   1      -1.643  -3.011   2.006  0.00  0.00    -0.096 F 
ATOM     11  F3  UNL d   1      -3.614  -4.309   0.679  0.00  0.00    -0.097 F 
ATOM     12  F4  UNL d   1      -3.360  -4.852  -1.983  0.00  0.00    -0.092 F 
ENDROOT
TORSDOF 0
ENDMDL
