MODEL 1
REMARK minimizedAffinity 14.1438265
REMARK minimizedRMSD -1
REMARK  0 active torsions:
REMARK  status: ('A' for Active; 'I' for Inactive)
ROOT
ATOM      1  C   UNL d   1      -0.857   1.874  -4.880  0.00  0.00     0.124 A 
ATOM      2  C1  UNL d   1      -2.127   1.315  -4.879  0.00  0.00     0.062 A 
ATOM      3  C2  UNL d   1      -2.893   1.321  -3.717  0.00  0.00     0.162 A 
ATOM      4  C3  UNL d   1      -2.391   1.889  -2.546  0.00  0.00    -0.034 A 
ATOM      5  C4  UNL d   1      -1.112   2.448  -2.555  0.00  0.00     0.162 A 
ATOM      6  C5  UNL d   1      -0.350   2.439  -3.719  0.00  0.00     0.062 A 
ATOM      7  F   UNL d   1       0.877   2.979  -3.719  0.00  0.00    -0.097 F 
ATOM      8  F1  UNL d   1      -0.598   3.002  -1.447  0.00  0.00    -0.096 F 
ATOM      9  I   UNL d   1      -3.533   1.900  -0.806  0.00  0.00    -0.060 I 
ATOM     10  F2  UNL d   1      -4.118   0.775  -3.744  0.00  0.00    -0.096 F 
ATOM     11  F3  UNL d   1      -2.619   0.767  -6.000  0.00  0.00    -0.097 F 
ATOM     12  F4  UNL d   1      -0.122   1.865  -6.000  0.00  0.00    -0.092 F 
ENDROOT
TORSDOF 0
ENDMDL
