MODEL 1
REMARK minimizedAffinity 17.7723064
REMARK minimizedRMSD -1
REMARK  0 active torsions:
REMARK  status: ('A' for Active; 'I' for Inactive)
ROOT
ATOM      1  C   UNL d   1      -4.718   0.436   0.896  0.00  0.00     0.124 A 
ATOM      2  C1  UNL d   1      -4.141  -0.096   2.041  0.00  0.00     0.062 A 
ATOM      3  C2  UNL d   1      -2.809   0.172   2.342  0.00  0.00     0.162 A 
ATOM      4  C3  UNL d   1      -2.045   0.978   1.498  0.00  0.00    -0.034 A 
ATOM      5  C4  UNL d   1      -2.632   1.509   0.348  0.00  0.00     0.162 A 
ATOM      6  C5  UNL d   1      -3.963   1.238   0.051  0.00  0.00     0.062 A 
ATOM      7  F   UNL d   1      -4.519   1.753  -1.055  0.00  0.00    -0.097 F 
ATOM      8  F1  UNL d   1      -1.926   2.287  -0.485  0.00  0.00    -0.096 F 
ATOM      9  I   UNL d   1      -0.052   1.381   1.946  0.00  0.00    -0.060 I 
ATOM     10  F2  UNL d   1      -2.277  -0.355   3.455  0.00  0.00    -0.096 F 
ATOM     11  F3  UNL d   1      -4.868  -0.871   2.858  0.00  0.00    -0.097 F 
ATOM     12  F4  UNL d   1      -6.000   0.176   0.608  0.00  0.00    -0.092 F 
ENDROOT
TORSDOF 0
ENDMDL
