MODEL 1
REMARK minimizedAffinity 22.6637859
REMARK minimizedRMSD -1
REMARK  0 active torsions:
REMARK  status: ('A' for Active; 'I' for Inactive)
ROOT
ATOM      1  C   UNL d   1      -1.801   3.398  -5.361  0.00  0.00     0.124 A 
ATOM      2  C1  UNL d   1      -1.051   4.532  -5.640  0.00  0.00     0.062 A 
ATOM      3  C2  UNL d   1       0.336   4.449  -5.730  0.00  0.00     0.162 A 
ATOM      4  C3  UNL d   1       0.981   3.227  -5.542  0.00  0.00    -0.034 A 
ATOM      5  C4  UNL d   1       0.220   2.091  -5.261  0.00  0.00     0.162 A 
ATOM      6  C5  UNL d   1      -1.165   2.179  -5.173  0.00  0.00     0.062 A 
ATOM      7  F   UNL d   1      -1.889   1.083  -4.904  0.00  0.00    -0.097 F 
ATOM      8  F1  UNL d   1       0.809   0.901  -5.075  0.00  0.00    -0.096 F 
ATOM      9  I   UNL d   1       3.054   3.100  -5.676  0.00  0.00    -0.060 I 
ATOM     10  F2  UNL d   1       1.035   5.561  -6.000  0.00  0.00    -0.096 F 
ATOM     11  F3  UNL d   1      -1.663   5.711  -5.822  0.00  0.00    -0.097 F 
ATOM     12  F4  UNL d   1      -3.135   3.481  -5.274  0.00  0.00    -0.092 F 
ENDROOT
TORSDOF 0
ENDMDL
