MODEL 1
REMARK minimizedAffinity 13.8886814
REMARK minimizedRMSD -1
REMARK  0 active torsions:
REMARK  status: ('A' for Active; 'I' for Inactive)
ROOT
ATOM      1  C   UNL d   1      -3.455   1.794  -2.485  0.00  0.00     0.124 A 
ATOM      2  C1  UNL d   1      -2.297   2.330  -1.939  0.00  0.00     0.062 A 
ATOM      3  C2  UNL d   1      -1.153   2.465  -2.720  0.00  0.00     0.162 A 
ATOM      4  C3  UNL d   1      -1.161   2.064  -4.056  0.00  0.00    -0.034 A 
ATOM      5  C4  UNL d   1      -2.329   1.525  -4.597  0.00  0.00     0.162 A 
ATOM      6  C5  UNL d   1      -3.470   1.392  -3.813  0.00  0.00     0.062 A 
ATOM      7  F   UNL d   1      -4.588   0.874  -4.342  0.00  0.00    -0.097 F 
ATOM      8  F1  UNL d   1      -2.372   1.129  -5.878  0.00  0.00    -0.096 F 
ATOM      9  I   UNL d   1       0.548   2.264  -5.226  0.00  0.00    -0.060 I 
ATOM     10  F2  UNL d   1      -0.048   2.986  -2.166  0.00  0.00    -0.096 F 
ATOM     11  F3  UNL d   1      -2.280   2.719  -0.656  0.00  0.00    -0.097 F 
ATOM     12  F4  UNL d   1      -4.554   1.665  -1.731  0.00  0.00    -0.092 F 
ENDROOT
TORSDOF 0
ENDMDL
