MODEL 1
REMARK minimizedAffinity 7.04775953
REMARK minimizedRMSD -1
REMARK  0 active torsions:
REMARK  status: ('A' for Active; 'I' for Inactive)
ROOT
ATOM      1  C   UNL d   1      -0.012   2.723   5.984  0.00  0.00     0.172 C 
ATOM      2  N   UNL d   1       0.049   2.122   4.672  0.00  0.00    -0.070 N 
ATOM      3  C1  UNL d   1       0.808   1.036   4.326  0.00  0.00    -0.004 A 
ATOM      4  C2  UNL d   1       0.587   0.775   2.991  0.00  0.00    -0.047 A 
ATOM      5  C3  UNL d   1      -0.335   1.738   2.518  0.00  0.00    -0.047 A 
ATOM      6  C4  UNL d   1      -0.652   2.559   3.580  0.00  0.00    -0.004 A 
ENDROOT
TORSDOF 0
ENDMDL
