MODEL 1
REMARK minimizedAffinity -0.768302143
REMARK minimizedRMSD -1
REMARK  0 active torsions:
REMARK  status: ('A' for Active; 'I' for Inactive)
ROOT
ATOM      1  C   UNL d   1       5.788   4.319   3.931  0.00  0.00     0.172 C 
ATOM      2  N   UNL d   1       4.757   4.706   2.997  0.00  0.00    -0.070 N 
ATOM      3  C1  UNL d   1       3.994   3.848   2.250  0.00  0.00    -0.004 A 
ATOM      4  C2  UNL d   1       3.130   4.606   1.489  0.00  0.00    -0.047 A 
ATOM      5  C3  UNL d   1       3.384   5.966   1.789  0.00  0.00    -0.047 A 
ATOM      6  C4  UNL d   1       4.396   5.999   2.725  0.00  0.00    -0.004 A 
ENDROOT
TORSDOF 0
ENDMDL
