MODEL 1
REMARK minimizedAffinity 7.1244936
REMARK minimizedRMSD -1
REMARK  0 active torsions:
REMARK  status: ('A' for Active; 'I' for Inactive)
ROOT
ATOM      1  C   UNL d   1      -1.298  -2.059  -2.435  0.00  0.00     0.172 C 
ATOM      2  N   UNL d   1      -0.671  -1.503  -3.610  0.00  0.00    -0.070 N 
ATOM      3  C1  UNL d   1       0.397  -0.646  -3.616  0.00  0.00    -0.004 A 
ATOM      4  C2  UNL d   1       0.694  -0.350  -4.929  0.00  0.00    -0.047 A 
ATOM      5  C3  UNL d   1      -0.228  -1.052  -5.740  0.00  0.00    -0.047 A 
ATOM      6  C4  UNL d   1      -1.062  -1.758  -4.898  0.00  0.00    -0.004 A 
ENDROOT
TORSDOF 0
ENDMDL
