MODEL 1
REMARK minimizedAffinity 1.8018539
REMARK minimizedRMSD -1
REMARK  0 active torsions:
REMARK  status: ('A' for Active; 'I' for Inactive)
ROOT
ATOM      1  C   UNL d   1      -0.789  -1.978  -2.300  0.00  0.00     0.172 C 
ATOM      2  N   UNL d   1       0.032  -1.344  -3.304  0.00  0.00    -0.070 N 
ATOM      3  C1  UNL d   1       0.207   0.006  -3.458  0.00  0.00    -0.004 A 
ATOM      4  C2  UNL d   1       1.059   0.202  -4.523  0.00  0.00    -0.047 A 
ATOM      5  C3  UNL d   1       1.408  -1.073  -5.028  0.00  0.00    -0.047 A 
ATOM      6  C4  UNL d   1       0.758  -2.012  -4.255  0.00  0.00    -0.004 A 
ENDROOT
TORSDOF 0
ENDMDL
