MODEL 1
REMARK minimizedAffinity 3.02623701
REMARK minimizedRMSD -1
REMARK  0 active torsions:
REMARK  status: ('A' for Active; 'I' for Inactive)
ROOT
ATOM      1  C   UNL d   1       1.055  -2.783   4.376  0.00  0.00     0.172 C 
ATOM      2  N   UNL d   1       0.737  -1.590   3.628  0.00  0.00    -0.070 N 
ATOM      3  C1  UNL d   1      -0.458  -1.327   3.014  0.00  0.00    -0.004 A 
ATOM      4  C2  UNL d   1      -0.360  -0.092   2.410  0.00  0.00    -0.047 A 
ATOM      5  C3  UNL d   1       0.940   0.404   2.669  0.00  0.00    -0.047 A 
ATOM      6  C4  UNL d   1       1.598  -0.543   3.424  0.00  0.00    -0.004 A 
ENDROOT
TORSDOF 0
ENDMDL
