MODEL 1
REMARK minimizedAffinity 3.8421464
REMARK minimizedRMSD -1
REMARK  0 active torsions:
REMARK  status: ('A' for Active; 'I' for Inactive)
ROOT
ATOM      1  C   UNL d   1       4.639  -3.537   5.856  0.00  0.00     0.172 C 
ATOM      2  N   UNL d   1       3.866  -2.723   4.948  0.00  0.00    -0.070 N 
ATOM      3  C1  UNL d   1       4.125  -1.416   4.630  0.00  0.00    -0.004 A 
ATOM      4  C2  UNL d   1       3.164  -1.002   3.734  0.00  0.00    -0.047 A 
ATOM      5  C3  UNL d   1       2.297  -2.097   3.505  0.00  0.00    -0.047 A 
ATOM      6  C4  UNL d   1       2.755  -3.149   4.269  0.00  0.00    -0.004 A 
ENDROOT
TORSDOF 0
ENDMDL
