MODEL 1
REMARK minimizedAffinity 7.51577282
REMARK minimizedRMSD -1
REMARK  0 active torsions:
REMARK  status: ('A' for Active; 'I' for Inactive)
ROOT
ATOM      1  N1  IND d   1       0.109   2.260  -1.073  0.00  0.00    -0.196 N 
ATOM      2  C2  IND d   1      -0.919   2.989  -1.605  0.00  0.00     0.054 A 
ATOM      3  C3  IND d   1      -1.720   3.457  -0.622  0.00  0.00    -0.031 A 
ATOM      4  C4  IND d   1      -1.479   3.236   1.931  0.00  0.00     0.051 A 
ATOM      5  C5  IND d   1      -0.720   2.631   2.893  0.00  0.00    -0.031 A 
ATOM      6  C6  IND d   1       0.378   1.857   2.575  0.00  0.00     0.015 A 
ATOM      7  C7  IND d   1       0.766   1.669   1.279  0.00  0.00    -0.016 A 
ATOM      8  C8  IND d   1      -0.006   2.277   0.300  0.00  0.00    -0.047 A 
ATOM      9  C9  IND d   1      -1.146   3.028   0.613  0.00  0.00    -0.096 A 
ATOM     10  HN1 IND d   1       0.724   1.859  -1.521  0.00  0.00     0.298 HD
ENDROOT
TORSDOF 0
ENDMDL
