MODEL 1
REMARK minimizedAffinity 6.96114397
REMARK minimizedRMSD -1
REMARK  0 active torsions:
REMARK  status: ('A' for Active; 'I' for Inactive)
ROOT
ATOM      1  N1  IND d   1      -4.767   5.924  -5.456  0.00  0.00    -0.196 N 
ATOM      2  C2  IND d   1      -5.996   5.995  -4.862  0.00  0.00     0.054 A 
ATOM      3  C3  IND d   1      -6.000   5.297  -3.704  0.00  0.00    -0.031 A 
ATOM      4  C4  IND d   1      -4.073   4.047  -2.541  0.00  0.00     0.051 A 
ATOM      5  C5  IND d   1      -2.771   3.672  -2.717  0.00  0.00    -0.031 A 
ATOM      6  C6  IND d   1      -2.052   4.038  -3.837  0.00  0.00     0.015 A 
ATOM      7  C7  IND d   1      -2.607   4.806  -4.821  0.00  0.00    -0.016 A 
ATOM      8  C8  IND d   1      -3.932   5.183  -4.648  0.00  0.00    -0.047 A 
ATOM      9  C9  IND d   1      -4.679   4.779  -3.535  0.00  0.00    -0.096 A 
ATOM     10  HN1 IND d   1      -4.551   6.282  -6.207  0.00  0.00     0.298 HD
ENDROOT
TORSDOF 0
ENDMDL
