MODEL 1
REMARK minimizedAffinity 4.38127422
REMARK minimizedRMSD -1
REMARK  0 active torsions:
REMARK  status: ('A' for Active; 'I' for Inactive)
ROOT
ATOM      1  N1  IND d   1       0.238  -1.099   2.462  0.00  0.00    -0.196 N 
ATOM      2  C2  IND d   1      -0.034  -1.203   3.797  0.00  0.00     0.054 A 
ATOM      3  C3  IND d   1      -0.265   0.019   4.327  0.00  0.00    -0.031 A 
ATOM      4  C4  IND d   1      -0.350   2.315   3.165  0.00  0.00     0.051 A 
ATOM      5  C5  IND d   1      -0.132   2.921   1.960  0.00  0.00    -0.031 A 
ATOM      6  C6  IND d   1       0.225   2.203   0.837  0.00  0.00     0.015 A 
ATOM      7  C7  IND d   1       0.367   0.845   0.875  0.00  0.00    -0.016 A 
ATOM      8  C8  IND d   1       0.153   0.227   2.099  0.00  0.00    -0.047 A 
ATOM      9  C9  IND d   1      -0.168   0.955   3.252  0.00  0.00    -0.096 A 
ATOM     10  HN1 IND d   1       0.430  -1.752   1.936  0.00  0.00     0.298 HD
ENDROOT
TORSDOF 0
ENDMDL
