MODEL 1
REMARK minimizedAffinity 4.28586769
REMARK minimizedRMSD -1
REMARK  0 active torsions:
REMARK  status: ('A' for Active; 'I' for Inactive)
ROOT
ATOM      1  N1  IND d   1      -0.778   1.046  -0.419  0.00  0.00    -0.196 N 
ATOM      2  C2  IND d   1      -0.921   1.816  -1.539  0.00  0.00     0.054 A 
ATOM      3  C3  IND d   1      -1.388   3.042  -1.212  0.00  0.00    -0.031 A 
ATOM      4  C4  IND d   1      -1.889   4.034   1.110  0.00  0.00     0.051 A 
ATOM      5  C5  IND d   1      -1.946   3.701   2.434  0.00  0.00    -0.031 A 
ATOM      6  C6  IND d   1      -1.607   2.442   2.885  0.00  0.00     0.015 A 
ATOM      7  C7  IND d   1      -1.186   1.467   2.025  0.00  0.00    -0.016 A 
ATOM      8  C8  IND d   1      -1.134   1.799   0.679  0.00  0.00    -0.047 A 
ATOM      9  C9  IND d   1      -1.517   3.063   0.211  0.00  0.00    -0.096 A 
ATOM     10  HN1 IND d   1      -0.511   0.229  -0.402  0.00  0.00     0.298 HD
ENDROOT
TORSDOF 0
ENDMDL
