MODEL 1
REMARK minimizedAffinity 10.4656429
REMARK minimizedRMSD -1
REMARK  0 active torsions:
REMARK  status: ('A' for Active; 'I' for Inactive)
ROOT
ATOM      1  N1  IND d   1       0.069   0.579  -0.632  0.00  0.00    -0.196 N 
ATOM      2  C2  IND d   1      -0.993   0.157  -1.383  0.00  0.00     0.054 A 
ATOM      3  C3  IND d   1      -2.119   0.806  -1.011  0.00  0.00    -0.031 A 
ATOM      4  C4  IND d   1      -2.431   2.672   0.734  0.00  0.00     0.051 A 
ATOM      5  C5  IND d   1      -1.758   3.369   1.698  0.00  0.00    -0.031 A 
ATOM      6  C6  IND d   1      -0.414   3.169   1.938  0.00  0.00     0.015 A 
ATOM      7  C7  IND d   1       0.313   2.269   1.211  0.00  0.00    -0.016 A 
ATOM      8  C8  IND d   1      -0.369   1.555   0.236  0.00  0.00    -0.047 A 
ATOM      9  C9  IND d   1      -1.742   1.723   0.017  0.00  0.00    -0.096 A 
ATOM     10  HN1 IND d   1       0.874   0.285  -0.693  0.00  0.00     0.298 HD
ENDROOT
TORSDOF 0
ENDMDL
