MODEL 1
REMARK minimizedAffinity 6.04762697
REMARK minimizedRMSD -1
REMARK  0 active torsions:
REMARK  status: ('A' for Active; 'I' for Inactive)
ROOT
ATOM      1  N1  IND d   1       2.387  -1.105  -0.761  0.00  0.00    -0.196 N 
ATOM      2  C2  IND d   1       2.548  -2.459  -0.662  0.00  0.00     0.054 A 
ATOM      3  C3  IND d   1       1.385  -3.093  -0.934  0.00  0.00    -0.031 A 
ATOM      4  C4  IND d   1      -0.880  -2.111  -1.663  0.00  0.00     0.051 A 
ATOM      5  C5  IND d   1      -1.527  -0.923  -1.856  0.00  0.00    -0.031 A 
ATOM      6  C6  IND d   1      -0.889   0.290  -1.694  0.00  0.00     0.015 A 
ATOM      7  C7  IND d   1       0.429   0.359  -1.342  0.00  0.00    -0.016 A 
ATOM      8  C8  IND d   1       1.087  -0.845  -1.138  0.00  0.00    -0.047 A 
ATOM      9  C9  IND d   1       0.433  -2.078  -1.259  0.00  0.00    -0.096 A 
ATOM     10  HN1 IND d   1       2.995  -0.515  -0.613  0.00  0.00     0.298 HD
ENDROOT
TORSDOF 0
ENDMDL
