MODEL 1
REMARK minimizedAffinity 3.16087055
REMARK minimizedRMSD -1
REMARK  0 active torsions:
REMARK  status: ('A' for Active; 'I' for Inactive)
ROOT
ATOM      1  N1  IND d   1       3.412  -3.029  -0.256  0.00  0.00    -0.196 N 
ATOM      2  C2  IND d   1       4.647  -2.469  -0.081  0.00  0.00     0.054 A 
ATOM      3  C3  IND d   1       5.573  -3.140  -0.802  0.00  0.00    -0.031 A 
ATOM      4  C4  IND d   1       5.269  -5.120  -2.418  0.00  0.00     0.051 A 
ATOM      5  C5  IND d   1       4.330  -6.000  -2.879  0.00  0.00    -0.031 A 
ATOM      6  C6  IND d   1       3.010  -5.931  -2.482  0.00  0.00     0.015 A 
ATOM      7  C7  IND d   1       2.575  -4.969  -1.616  0.00  0.00    -0.016 A 
ATOM      8  C8  IND d   1       3.527  -4.078  -1.141  0.00  0.00    -0.047 A 
ATOM      9  C9  IND d   1       4.877  -4.169  -1.506  0.00  0.00    -0.096 A 
ATOM     10  HN1 IND d   1       2.685  -2.769   0.123  0.00  0.00     0.298 HD
ENDROOT
TORSDOF 0
ENDMDL
