MODEL 1
REMARK minimizedAffinity 3.04009223
REMARK minimizedRMSD -1
REMARK  1 active torsions:
REMARK  status: ('A' for Active; 'I' for Inactive)
REMARK    1  A    between atoms: C1_2  and  C2_3 
ROOT
ATOM      1  C2  UNL d   1       2.260  -2.172   3.033  0.00  0.00    -0.073 A 
ATOM      2  C3  UNL d   1       1.834  -3.486   2.810  0.00  0.00    -0.002 A 
ATOM      3  C4  UNL d   1       2.413  -4.544   3.513  0.00  0.00     0.004 A 
ATOM      4  C5  UNL d   1       3.417  -4.298   4.450  0.00  0.00    -0.004 A 
ATOM      5  C6  UNL d   1       3.847  -2.990   4.696  0.00  0.00    -0.075 A 
ATOM      6  C7  UNL d   1       4.928  -2.710   5.698  0.00  0.00     0.076 C 
ATOM      7  C8  UNL d   1       3.263  -1.934   3.984  0.00  0.00     0.001 A 
ENDROOT
BRANCH   1   8
ATOM      8  C1  UNL d   1       1.633  -1.026   2.282  0.00  0.00     0.053 C 
ATOM      9  C   UNL d   1       2.653   0.042   1.917  0.00  0.00     0.018 C 
ENDBRANCH   1   8
TORSDOF 1
ENDMDL
