MODEL 1
REMARK minimizedAffinity 13.173625
REMARK minimizedRMSD -1
REMARK  1 active torsions:
REMARK  status: ('A' for Active; 'I' for Inactive)
REMARK    1  A    between atoms: C1_2  and  C2_3 
ROOT
ATOM      1  C2  UNL d   1      -2.616   1.915  -1.408  0.00  0.00    -0.073 A 
ATOM      2  C3  UNL d   1      -2.199   0.606  -1.145  0.00  0.00    -0.002 A 
ATOM      3  C4  UNL d   1      -2.439  -0.410  -2.071  0.00  0.00     0.004 A 
ATOM      4  C5  UNL d   1      -3.092  -0.126  -3.270  0.00  0.00    -0.004 A 
ATOM      5  C6  UNL d   1      -3.507   1.178  -3.556  0.00  0.00    -0.075 A 
ATOM      6  C7  UNL d   1      -4.213   1.500  -4.841  0.00  0.00     0.076 C 
ATOM      7  C8  UNL d   1      -3.264   2.193  -2.620  0.00  0.00     0.001 A 
ENDROOT
BRANCH   1   8
ATOM      8  C1  UNL d   1      -2.353   3.017  -0.414  0.00  0.00     0.053 C 
ATOM      9  C   UNL d   1      -1.981   2.472   0.956  0.00  0.00     0.018 C 
ENDBRANCH   1   8
TORSDOF 1
ENDMDL
