MODEL 1
REMARK minimizedAffinity -2.22580624
REMARK minimizedRMSD -1
REMARK  1 active torsions:
REMARK  status: ('A' for Active; 'I' for Inactive)
REMARK    1  A    between atoms: C1_2  and  C2_3 
ROOT
ATOM      1  C2  UNL d   1      -0.017   0.541  -0.055  0.00  0.00    -0.081 A 
ATOM      2  C3  UNL d   1       0.189   0.174  -1.391  0.00  0.00     0.006 A 
ATOM      3  C4  UNL d   1      -0.078  -1.130  -1.816  0.00  0.00     0.002 A 
ATOM      4  C5  UNL d   1      -0.563  -2.085  -0.915  0.00  0.00    -0.080 A 
ATOM      5  C6  UNL d   1      -0.882  -3.479  -1.365  0.00  0.00     0.076 C 
ATOM      6  C7  UNL d   1      -0.752  -1.722   0.423  0.00  0.00     0.002 A 
ATOM      7  C8  UNL d   1      -0.484  -0.419   0.848  0.00  0.00     0.006 A 
ENDROOT
BRANCH   1   8
ATOM      8  C1  UNL d   1       0.209   1.963   0.392  0.00  0.00     0.054 C 
ATOM      9  C   UNL d   1       1.691   2.307   0.416  0.00  0.00     0.018 C 
ENDBRANCH   1   8
TORSDOF 1
ENDMDL
