MODEL 1
REMARK minimizedAffinity -1.22836292
REMARK minimizedRMSD -1
REMARK  1 active torsions:
REMARK  status: ('A' for Active; 'I' for Inactive)
REMARK    1  A    between atoms: C1_2  and  C2_3 
ROOT
ATOM      1  C2  UNL d   1      -0.567  -1.085   0.038  0.00  0.00    -0.081 A 
ATOM      2  C3  UNL d   1      -0.674  -0.459   1.285  0.00  0.00     0.006 A 
ATOM      3  C4  UNL d   1      -0.375   0.898   1.425  0.00  0.00     0.002 A 
ATOM      4  C5  UNL d   1       0.029   1.653   0.319  0.00  0.00    -0.080 A 
ATOM      5  C6  UNL d   1       0.324   3.118   0.449  0.00  0.00     0.076 C 
ATOM      6  C7  UNL d   1       0.153   1.024  -0.925  0.00  0.00     0.002 A 
ATOM      7  C8  UNL d   1      -0.145  -0.333  -1.065  0.00  0.00     0.006 A 
ENDROOT
BRANCH   1   8
ATOM      8  C1  UNL d   1      -0.951  -2.533  -0.129  0.00  0.00     0.054 C 
ATOM      9  C   UNL d   1      -0.880  -2.960  -1.588  0.00  0.00     0.018 C 
ENDBRANCH   1   8
TORSDOF 1
ENDMDL
