MODEL 1
REMARK minimizedAffinity -4.45117474
REMARK minimizedRMSD -1
REMARK  1 active torsions:
REMARK  status: ('A' for Active; 'I' for Inactive)
REMARK    1  A    between atoms: C1_2  and  C2_3 
ROOT
ATOM      1  C2  UNL d   1      -0.191  -1.601   0.229  0.00  0.00    -0.081 A 
ATOM      2  C3  UNL d   1       0.899  -0.977  -0.389  0.00  0.00     0.006 A 
ATOM      3  C4  UNL d   1       1.045   0.411  -0.335  0.00  0.00     0.002 A 
ATOM      4  C5  UNL d   1       0.108   1.197   0.345  0.00  0.00    -0.080 A 
ATOM      5  C6  UNL d   1       0.269   2.685   0.437  0.00  0.00     0.076 C 
ATOM      6  C7  UNL d   1      -0.990   0.575   0.948  0.00  0.00     0.002 A 
ATOM      7  C8  UNL d   1      -1.137  -0.813   0.894  0.00  0.00     0.006 A 
ENDROOT
BRANCH   1   8
ATOM      8  C1  UNL d   1      -0.316  -3.104   0.228  0.00  0.00     0.054 C 
ATOM      9  C   UNL d   1      -0.296  -3.659  -1.189  0.00  0.00     0.018 C 
ENDBRANCH   1   8
TORSDOF 1
ENDMDL
