MODEL 1
REMARK minimizedAffinity -1.71191752
REMARK minimizedRMSD -1
REMARK  1 active torsions:
REMARK  status: ('A' for Active; 'I' for Inactive)
REMARK    1  A    between atoms: C1_2  and  C2_3 
ROOT
ATOM      1  C2  UNL d   1       0.745   1.891   0.399  0.00  0.00    -0.081 A 
ATOM      2  C3  UNL d   1       1.218   0.984   1.356  0.00  0.00     0.006 A 
ATOM      3  C4  UNL d   1       0.620  -0.270   1.500  0.00  0.00     0.002 A 
ATOM      4  C5  UNL d   1      -0.456  -0.641   0.687  0.00  0.00    -0.080 A 
ATOM      5  C6  UNL d   1      -1.089  -1.995   0.811  0.00  0.00     0.076 C 
ATOM      6  C7  UNL d   1      -0.940   0.272  -0.257  0.00  0.00     0.002 A 
ATOM      7  C8  UNL d   1      -0.342   1.525  -0.402  0.00  0.00     0.006 A 
ENDROOT
BRANCH   1   8
ATOM      8  C1  UNL d   1       1.430   3.218   0.196  0.00  0.00     0.054 C 
ATOM      9  C   UNL d   1       2.226   3.624   1.428  0.00  0.00     0.018 C 
ENDBRANCH   1   8
TORSDOF 1
ENDMDL
