MODEL 1
REMARK minimizedAffinity -2.79141665
REMARK minimizedRMSD -1
REMARK  1 active torsions:
REMARK  status: ('A' for Active; 'I' for Inactive)
REMARK    1  A    between atoms: C1_2  and  C2_3 
ROOT
ATOM      1  C2  UNL d   1      -0.325  -0.277   0.040  0.00  0.00    -0.081 A 
ATOM      2  C3  UNL d   1       0.112  -0.374  -1.287  0.00  0.00     0.006 A 
ATOM      3  C4  UNL d   1      -0.004  -1.579  -1.984  0.00  0.00     0.002 A 
ATOM      4  C5  UNL d   1      -0.565  -2.704  -1.370  0.00  0.00    -0.080 A 
ATOM      5  C6  UNL d   1      -0.722  -3.995  -2.117  0.00  0.00     0.076 C 
ATOM      6  C7  UNL d   1      -0.985  -2.612  -0.039  0.00  0.00     0.002 A 
ATOM      7  C8  UNL d   1      -0.869  -1.408   0.659  0.00  0.00     0.006 A 
ENDROOT
BRANCH   1   8
ATOM      8  C1  UNL d   1      -0.261   1.038   0.774  0.00  0.00     0.054 C 
ATOM      9  C   UNL d   1       0.040   2.188  -0.176  0.00  0.00     0.018 C 
ENDBRANCH   1   8
TORSDOF 1
ENDMDL
