MODEL 1
REMARK minimizedAffinity -1.35990739
REMARK minimizedRMSD -1
REMARK  1 active torsions:
REMARK  status: ('A' for Active; 'I' for Inactive)
REMARK    1  A    between atoms: C1_2  and  C2_3 
ROOT
ATOM      1  C2  UNL d   1      -0.126   1.729   0.293  0.00  0.00    -0.081 A 
ATOM      2  C3  UNL d   1      -0.929   1.395   1.391  0.00  0.00     0.006 A 
ATOM      3  C4  UNL d   1      -1.332   0.074   1.598  0.00  0.00     0.002 A 
ATOM      4  C5  UNL d   1      -0.934  -0.936   0.716  0.00  0.00    -0.080 A 
ATOM      5  C6  UNL d   1      -1.335  -2.363   0.943  0.00  0.00     0.076 C 
ATOM      6  C7  UNL d   1      -0.146  -0.600  -0.391  0.00  0.00     0.002 A 
ATOM      7  C8  UNL d   1       0.257   0.721  -0.599  0.00  0.00     0.006 A 
ENDROOT
BRANCH   1   8
ATOM      8  C1  UNL d   1       0.364   3.142   0.103  0.00  0.00     0.054 C 
ATOM      9  C   UNL d   1       1.867   3.179  -0.132  0.00  0.00     0.018 C 
ENDBRANCH   1   8
TORSDOF 1
ENDMDL
