MODEL 1
REMARK minimizedAffinity -2.27079701
REMARK minimizedRMSD -1
REMARK  1 active torsions:
REMARK  status: ('A' for Active; 'I' for Inactive)
REMARK    1  A    between atoms: C1_2  and  C2_3 
ROOT
ATOM      1  C2  UNL d   1      -0.045  -0.042   0.008  0.00  0.00    -0.081 A 
ATOM      2  C3  UNL d   1       1.136   0.105   0.745  0.00  0.00     0.006 A 
ATOM      3  C4  UNL d   1       1.831   1.317   0.735  0.00  0.00     0.002 A 
ATOM      4  C5  UNL d   1       1.351   2.404  -0.005  0.00  0.00    -0.080 A 
ATOM      5  C6  UNL d   1       2.071   3.720  -0.001  0.00  0.00     0.076 C 
ATOM      6  C7  UNL d   1       0.180   2.251  -0.755  0.00  0.00     0.002 A 
ATOM      7  C8  UNL d   1      -0.514   1.039  -0.746  0.00  0.00     0.006 A 
ENDROOT
BRANCH   1   8
ATOM      8  C1  UNL d   1      -0.831  -1.327   0.069  0.00  0.00     0.054 C 
ATOM      9  C   UNL d   1      -0.797  -1.931   1.466  0.00  0.00     0.018 C 
ENDBRANCH   1   8
TORSDOF 1
ENDMDL
