MODEL 1
REMARK minimizedAffinity -3.40977144
REMARK minimizedRMSD -1
REMARK  1 active torsions:
REMARK  status: ('A' for Active; 'I' for Inactive)
REMARK    1  A    between atoms: C1_2  and  C2_3 
ROOT
ATOM      1  C2  UNL d   1      -0.058   1.858  -0.013  0.00  0.00    -0.081 A 
ATOM      2  C3  UNL d   1      -0.616   1.351   1.167  0.00  0.00     0.006 A 
ATOM      3  C4  UNL d   1      -0.986   0.007   1.254  0.00  0.00     0.002 A 
ATOM      4  C5  UNL d   1      -0.799  -0.853   0.166  0.00  0.00    -0.080 A 
ATOM      5  C6  UNL d   1      -1.165  -2.305   0.257  0.00  0.00     0.076 C 
ATOM      6  C7  UNL d   1      -0.259  -0.342  -1.018  0.00  0.00     0.002 A 
ATOM      7  C8  UNL d   1       0.112   1.002  -1.106  0.00  0.00     0.006 A 
ENDROOT
BRANCH   1   8
ATOM      8  C1  UNL d   1       0.402   3.292  -0.088  0.00  0.00     0.054 C 
ATOM      9  C   UNL d   1       1.844   3.435   0.378  0.00  0.00     0.018 C 
ENDBRANCH   1   8
TORSDOF 1
ENDMDL
