MODEL 1
REMARK minimizedAffinity -2.71556854
REMARK minimizedRMSD -1
REMARK  1 active torsions:
REMARK  status: ('A' for Active; 'I' for Inactive)
REMARK    1  A    between atoms: C1_2  and  C2_3 
ROOT
ATOM      1  C2  UNL d   1       0.383   1.300   0.120  0.00  0.00    -0.081 A 
ATOM      2  C3  UNL d   1       0.349   0.524   1.285  0.00  0.00     0.006 A 
ATOM      3  C4  UNL d   1      -0.189  -0.765   1.262  0.00  0.00     0.002 A 
ATOM      4  C5  UNL d   1      -0.694  -1.303   0.074  0.00  0.00    -0.080 A 
ATOM      5  C6  UNL d   1      -1.246  -2.696   0.029  0.00  0.00     0.076 C 
ATOM      6  C7  UNL d   1      -0.677  -0.521  -1.087  0.00  0.00     0.002 A 
ATOM      7  C8  UNL d   1      -0.140   0.768  -1.065  0.00  0.00     0.006 A 
ENDROOT
BRANCH   1   8
ATOM      8  C1  UNL d   1       1.021   2.665   0.126  0.00  0.00     0.054 C 
ATOM      9  C   UNL d   1       2.479   2.592   0.554  0.00  0.00     0.018 C 
ENDBRANCH   1   8
TORSDOF 1
ENDMDL
