MODEL 1
REMARK minimizedAffinity -2.54510403
REMARK minimizedRMSD -1
REMARK  1 active torsions:
REMARK  status: ('A' for Active; 'I' for Inactive)
REMARK    1  A    between atoms: C1_2  and  C2_3 
ROOT
ATOM      1  C2  UNL d   1      -0.002   0.597  -0.269  0.00  0.00    -0.081 A 
ATOM      2  C3  UNL d   1      -0.542  -0.218   0.734  0.00  0.00     0.006 A 
ATOM      3  C4  UNL d   1      -0.802  -1.567   0.486  0.00  0.00     0.002 A 
ATOM      4  C5  UNL d   1      -0.519  -2.127  -0.765  0.00  0.00    -0.080 A 
ATOM      5  C6  UNL d   1      -0.765  -3.582  -1.034  0.00  0.00     0.076 C 
ATOM      6  C7  UNL d   1       0.004  -1.309  -1.772  0.00  0.00     0.002 A 
ATOM      7  C8  UNL d   1       0.264   0.041  -1.525  0.00  0.00     0.006 A 
ENDROOT
BRANCH   1   8
ATOM      8  C1  UNL d   1       0.340   2.037   0.015  0.00  0.00     0.054 C 
ATOM      9  C   UNL d   1       1.754   2.173   0.561  0.00  0.00     0.018 C 
ENDBRANCH   1   8
TORSDOF 1
ENDMDL
