MODEL 1
REMARK minimizedAffinity 0.0464542024
REMARK minimizedRMSD -1
REMARK  1 active torsions:
REMARK  status: ('A' for Active; 'I' for Inactive)
REMARK    1  A    between atoms: C3_4  and  O_7 
ROOT
ATOM      1  C   UNL d   1       0.205   0.256   0.903  0.00  0.00    -0.033 A 
ATOM      2  C1  UNL d   1      -0.881  -0.324   1.561  0.00  0.00     0.039 A 
ATOM      3  C2  UNL d   1      -1.704   0.457   2.375  0.00  0.00    -0.080 A 
ATOM      4  C3  UNL d   1      -1.431   1.815   2.520  0.00  0.00     0.150 A 
ATOM      5  C4  UNL d   1      -0.353   2.399   1.864  0.00  0.00    -0.007 A 
ATOM      6  C5  UNL d   1       0.468   1.618   1.053  0.00  0.00     0.039 A 
ENDROOT
BRANCH   4   7
ATOM      7  O   UNL d   1      -2.204   2.616   3.307  0.00  0.00    -0.526 OA
ATOM      8  H5  UNL d   1      -2.893   2.070   3.720  0.00  0.00     0.418 HD
ENDBRANCH   4   7
TORSDOF 1
ENDMDL
