MODEL 1
REMARK minimizedAffinity -3.58812261
REMARK minimizedRMSD -1
REMARK  1 active torsions:
REMARK  status: ('A' for Active; 'I' for Inactive)
REMARK    1  A    between atoms: C3_4  and  O_7 
ROOT
ATOM      1  C   UNL d   1       0.031   0.440   1.205  0.00  0.00    -0.033 A 
ATOM      2  C1  UNL d   1      -0.129   1.745   1.674  0.00  0.00     0.039 A 
ATOM      3  C2  UNL d   1      -1.295   2.107   2.353  0.00  0.00    -0.080 A 
ATOM      4  C3  UNL d   1      -2.290   1.155   2.556  0.00  0.00     0.150 A 
ATOM      5  C4  UNL d   1      -2.135  -0.148   2.095  0.00  0.00    -0.007 A 
ATOM      6  C5  UNL d   1      -0.971  -0.507   1.417  0.00  0.00     0.039 A 
ENDROOT
BRANCH   4   7
ATOM      7  O   UNL d   1      -3.447   1.463   3.209  0.00  0.00    -0.526 OA
ATOM      8  H5  UNL d   1      -3.426   2.405   3.444  0.00  0.00     0.418 HD
ENDBRANCH   4   7
TORSDOF 1
ENDMDL
