MODEL 1
REMARK minimizedAffinity -3.80878162
REMARK minimizedRMSD -1
REMARK  1 active torsions:
REMARK  status: ('A' for Active; 'I' for Inactive)
REMARK    1  A    between atoms: C3_4  and  O_7 
ROOT
ATOM      1  C   UNL d   1       0.173  -0.018   1.364  0.00  0.00    -0.033 A 
ATOM      2  C1  UNL d   1      -0.832  -0.851   1.859  0.00  0.00     0.039 A 
ATOM      3  C2  UNL d   1      -1.895  -0.310   2.585  0.00  0.00    -0.080 A 
ATOM      4  C3  UNL d   1      -1.942   1.063   2.807  0.00  0.00     0.150 A 
ATOM      5  C4  UNL d   1      -0.947   1.900   2.313  0.00  0.00    -0.007 A 
ATOM      6  C5  UNL d   1       0.115   1.358   1.590  0.00  0.00     0.039 A 
ENDROOT
BRANCH   4   7
ATOM      7  O   UNL d   1      -2.958   1.636   3.513  0.00  0.00    -0.526 OA
ATOM      8  H5  UNL d   1      -3.556   0.934   3.816  0.00  0.00     0.418 HD
ENDBRANCH   4   7
TORSDOF 1
ENDMDL
