MODEL 1
REMARK minimizedAffinity -4.50125647
REMARK minimizedRMSD -1
REMARK  1 active torsions:
REMARK  status: ('A' for Active; 'I' for Inactive)
REMARK    1  A    between atoms: C3_4  and  O_7 
ROOT
ATOM      1  C   UNL d   1       0.230   0.437   1.179  0.00  0.00    -0.033 A 
ATOM      2  C1  UNL d   1      -0.805  -0.446   1.494  0.00  0.00     0.039 A 
ATOM      3  C2  UNL d   1      -1.934   0.013   2.174  0.00  0.00    -0.080 A 
ATOM      4  C3  UNL d   1      -2.017   1.356   2.533  0.00  0.00     0.150 A 
ATOM      5  C4  UNL d   1      -0.992   2.242   2.219  0.00  0.00    -0.007 A 
ATOM      6  C5  UNL d   1       0.136   1.782   1.541  0.00  0.00     0.039 A 
ENDROOT
BRANCH   4   7
ATOM      7  O   UNL d   1      -3.097   1.849   3.202  0.00  0.00    -0.526 OA
ATOM      8  H5  UNL d   1      -3.712   1.117   3.376  0.00  0.00     0.418 HD
ENDBRANCH   4   7
TORSDOF 1
ENDMDL
