MODEL 1
REMARK minimizedAffinity -0.22013633
REMARK minimizedRMSD -1
REMARK  1 active torsions:
REMARK  status: ('A' for Active; 'I' for Inactive)
REMARK    1  A    between atoms: C3_4  and  O_7 
ROOT
ATOM      1  C   UNL d   1      -0.409   1.016   1.917  0.00  0.00    -0.033 A 
ATOM      2  C1  UNL d   1      -1.312  -0.009   2.207  0.00  0.00     0.039 A 
ATOM      3  C2  UNL d   1      -2.484   0.271   2.913  0.00  0.00    -0.080 A 
ATOM      4  C3  UNL d   1      -2.740   1.576   3.322  0.00  0.00     0.150 A 
ATOM      5  C4  UNL d   1      -1.846   2.602   3.034  0.00  0.00    -0.007 A 
ATOM      6  C5  UNL d   1      -0.676   2.321   2.329  0.00  0.00     0.039 A 
ENDROOT
BRANCH   4   7
ATOM      7  O   UNL d   1      -3.868   1.896   4.019  0.00  0.00    -0.526 OA
ATOM      8  H5  UNL d   1      -4.377   1.083   4.170  0.00  0.00     0.418 HD
ENDBRANCH   4   7
TORSDOF 1
ENDMDL
