MODEL 1
REMARK minimizedAffinity -5.26659584
REMARK minimizedRMSD -1
REMARK  1 active torsions:
REMARK  status: ('A' for Active; 'I' for Inactive)
REMARK    1  A    between atoms: C3_4  and  O_7 
ROOT
ATOM      1  C   UNL d   1      -0.343   0.659   0.912  0.00  0.00    -0.033 A 
ATOM      2  C1  UNL d   1      -1.539  -0.035   1.109  0.00  0.00     0.039 A 
ATOM      3  C2  UNL d   1      -2.541   0.510   1.913  0.00  0.00    -0.080 A 
ATOM      4  C3  UNL d   1      -2.336   1.749   2.514  0.00  0.00     0.150 A 
ATOM      5  C4  UNL d   1      -1.149   2.448   2.320  0.00  0.00    -0.007 A 
ATOM      6  C5  UNL d   1      -0.149   1.902   1.517  0.00  0.00     0.039 A 
ENDROOT
BRANCH   4   7
ATOM      7  O   UNL d   1      -3.283   2.320   3.312  0.00  0.00    -0.526 OA
ATOM      8  H5  UNL d   1      -4.037   1.710   3.378  0.00  0.00     0.418 HD
ENDBRANCH   4   7
TORSDOF 1
ENDMDL
