MODEL 1
REMARK minimizedAffinity -4.73342657
REMARK minimizedRMSD -1
REMARK  1 active torsions:
REMARK  status: ('A' for Active; 'I' for Inactive)
REMARK    1  A    between atoms: C3_4  and  O_7 
ROOT
ATOM      1  C   UNL d   1      -1.683   0.792   2.136  0.00  0.00    -0.033 A 
ATOM      2  C1  UNL d   1      -1.404  -0.372   1.417  0.00  0.00     0.039 A 
ATOM      3  C2  UNL d   1      -0.204  -0.488   0.712  0.00  0.00    -0.080 A 
ATOM      4  C3  UNL d   1       0.706   0.564   0.735  0.00  0.00     0.150 A 
ATOM      5  C4  UNL d   1       0.436   1.725   1.452  0.00  0.00    -0.007 A 
ATOM      6  C5  UNL d   1      -0.762   1.840   2.155  0.00  0.00     0.039 A 
ENDROOT
BRANCH   4   7
ATOM      7  O   UNL d   1       1.888   0.499   0.058  0.00  0.00    -0.526 OA
ATOM      8  H5  UNL d   1       1.925  -0.349  -0.415  0.00  0.00     0.418 HD
ENDBRANCH   4   7
TORSDOF 1
ENDMDL
