MODEL 1
REMARK minimizedAffinity -4.87711096
REMARK minimizedRMSD -1
REMARK  1 active torsions:
REMARK  status: ('A' for Active; 'I' for Inactive)
REMARK    1  A    between atoms: C3_4  and  O_7 
ROOT
ATOM      1  C   UNL d   1      -0.077   0.535   0.987  0.00  0.00    -0.033 A 
ATOM      2  C1  UNL d   1      -1.020  -0.375   1.468  0.00  0.00     0.039 A 
ATOM      3  C2  UNL d   1      -2.068   0.066   2.279  0.00  0.00    -0.080 A 
ATOM      4  C3  UNL d   1      -2.162   1.417   2.600  0.00  0.00     0.150 A 
ATOM      5  C4  UNL d   1      -1.228   2.330   2.120  0.00  0.00    -0.007 A 
ATOM      6  C5  UNL d   1      -0.182   1.888   1.312  0.00  0.00     0.039 A 
ENDROOT
BRANCH   4   7
ATOM      7  O   UNL d   1      -3.164   1.894   3.391  0.00  0.00    -0.526 OA
ATOM      8  H5  UNL d   1      -3.717   1.145   3.672  0.00  0.00     0.418 HD
ENDBRANCH   4   7
TORSDOF 1
ENDMDL
