MODEL 1
REMARK minimizedAffinity -1.53860116
REMARK minimizedRMSD -1
REMARK  1 active torsions:
REMARK  status: ('A' for Active; 'I' for Inactive)
REMARK    1  A    between atoms: C3_4  and  O_7 
ROOT
ATOM      1  C   UNL d   1       0.009  -0.592   0.858  0.00  0.00    -0.033 A 
ATOM      2  C1  UNL d   1      -1.163  -0.754   1.600  0.00  0.00     0.039 A 
ATOM      3  C2  UNL d   1      -1.764   0.350   2.207  0.00  0.00    -0.080 A 
ATOM      4  C3  UNL d   1      -1.186   1.608   2.066  0.00  0.00     0.150 A 
ATOM      5  C4  UNL d   1      -0.021   1.777   1.325  0.00  0.00    -0.007 A 
ATOM      6  C5  UNL d   1       0.580   0.674   0.720  0.00  0.00     0.039 A 
ENDROOT
BRANCH   4   7
ATOM      7  O   UNL d   1      -1.734   2.714   2.644  0.00  0.00    -0.526 OA
ATOM      8  H5  UNL d   1      -2.519   2.441   3.148  0.00  0.00     0.418 HD
ENDBRANCH   4   7
TORSDOF 1
ENDMDL
