MODEL 1
REMARK minimizedAffinity 1.17101383
REMARK minimizedRMSD -1
REMARK  1 active torsions:
REMARK  status: ('A' for Active; 'I' for Inactive)
REMARK    1  A    between atoms: C3_4  and  O_7 
ROOT
ATOM      1  C   UNL d   1      -0.710   1.216   1.285  0.00  0.00    -0.033 A 
ATOM      2  C1  UNL d   1      -1.491   0.228   1.888  0.00  0.00     0.039 A 
ATOM      3  C2  UNL d   1      -2.583   0.586   2.681  0.00  0.00    -0.080 A 
ATOM      4  C3  UNL d   1      -2.883   1.933   2.863  0.00  0.00     0.150 A 
ATOM      5  C4  UNL d   1      -2.111   2.923   2.262  0.00  0.00    -0.007 A 
ATOM      6  C5  UNL d   1      -1.021   2.563   1.470  0.00  0.00     0.039 A 
ENDROOT
BRANCH   4   7
ATOM      7  O   UNL d   1      -3.935   2.332   3.632  0.00  0.00    -0.526 OA
ATOM      8  H5  UNL d   1      -4.359   1.541   4.006  0.00  0.00     0.418 HD
ENDBRANCH   4   7
TORSDOF 1
ENDMDL
