MODEL 1
REMARK minimizedAffinity -1.69244766
REMARK minimizedRMSD -1
REMARK  1 active torsions:
REMARK  status: ('A' for Active; 'I' for Inactive)
REMARK    1  A    between atoms: C3_4  and  O_7 
ROOT
ATOM      1  C   UNL d   1       0.244  -0.096   1.061  0.00  0.00    -0.033 A 
ATOM      2  C1  UNL d   1      -0.914  -0.572   1.678  0.00  0.00     0.039 A 
ATOM      3  C2  UNL d   1      -1.672   0.272   2.492  0.00  0.00    -0.080 A 
ATOM      4  C3  UNL d   1      -1.262   1.589   2.680  0.00  0.00     0.150 A 
ATOM      5  C4  UNL d   1      -0.111   2.071   2.065  0.00  0.00    -0.007 A 
ATOM      6  C5  UNL d   1       0.645   1.227   1.254  0.00  0.00     0.039 A 
ENDROOT
BRANCH   4   7
ATOM      7  O   UNL d   1      -1.966   2.449   3.470  0.00  0.00    -0.526 OA
ATOM      8  H5  UNL d   1      -2.720   1.969   3.851  0.00  0.00     0.418 HD
ENDBRANCH   4   7
TORSDOF 1
ENDMDL
