MODEL 1
REMARK minimizedAffinity -3.83886719
REMARK minimizedRMSD -1
REMARK  1 active torsions:
REMARK  status: ('A' for Active; 'I' for Inactive)
REMARK    1  A    between atoms: C3_4  and  O_7 
ROOT
ATOM      1  C   UNL d   1      -2.096   0.738   2.210  0.00  0.00    -0.033 A 
ATOM      2  C1  UNL d   1      -1.312   1.874   2.423  0.00  0.00     0.039 A 
ATOM      3  C2  UNL d   1      -0.002   1.921   1.942  0.00  0.00    -0.080 A 
ATOM      4  C3  UNL d   1       0.511   0.828   1.250  0.00  0.00     0.150 A 
ATOM      5  C4  UNL d   1      -0.265  -0.306   1.032  0.00  0.00    -0.007 A 
ATOM      6  C5  UNL d   1      -1.572  -0.351   1.513  0.00  0.00     0.039 A 
ENDROOT
BRANCH   4   7
ATOM      7  O   UNL d   1       1.786   0.826   0.766  0.00  0.00    -0.526 OA
ATOM      8  H5  UNL d   1       2.212   1.662   1.017  0.00  0.00     0.418 HD
ENDBRANCH   4   7
TORSDOF 1
ENDMDL
