MODEL 1
REMARK minimizedAffinity -1.9923358
REMARK minimizedRMSD -1
REMARK  1 active torsions:
REMARK  status: ('A' for Active; 'I' for Inactive)
REMARK    1  A    between atoms: C3_4  and  O_7 
ROOT
ATOM      1  C   UNL d   1      -0.609   0.974   1.538  0.00  0.00    -0.033 A 
ATOM      2  C1  UNL d   1      -0.094  -0.270   1.908  0.00  0.00     0.039 A 
ATOM      3  C2  UNL d   1       1.123  -0.708   1.382  0.00  0.00    -0.080 A 
ATOM      4  C3  UNL d   1       1.814   0.108   0.489  0.00  0.00     0.150 A 
ATOM      5  C4  UNL d   1       1.309   1.350   0.120  0.00  0.00    -0.007 A 
ATOM      6  C5  UNL d   1       0.093   1.784   0.646  0.00  0.00     0.039 A 
ENDROOT
BRANCH   4   7
ATOM      7  O   UNL d   1       3.004  -0.279  -0.054  0.00  0.00    -0.526 OA
ATOM      8  H5  UNL d   1       3.215  -1.170   0.270  0.00  0.00     0.418 HD
ENDBRANCH   4   7
TORSDOF 1
ENDMDL
