MODEL 1
REMARK minimizedAffinity 0.341329277
REMARK minimizedRMSD -1
REMARK  1 active torsions:
REMARK  status: ('A' for Active; 'I' for Inactive)
REMARK    1  A    between atoms: C3_4  and  O_7 
ROOT
ATOM      1  C   UNL d   1       0.642   2.449   0.955  0.00  0.00    -0.033 A 
ATOM      2  C1  UNL d   1      -0.621   2.587   0.375  0.00  0.00     0.039 A 
ATOM      3  C2  UNL d   1      -1.714   1.899   0.904  0.00  0.00    -0.080 A 
ATOM      4  C3  UNL d   1      -1.532   1.077   2.013  0.00  0.00     0.150 A 
ATOM      5  C4  UNL d   1      -0.278   0.937   2.598  0.00  0.00    -0.007 A 
ATOM      6  C5  UNL d   1       0.813   1.625   2.068  0.00  0.00     0.039 A 
ENDROOT
BRANCH   4   7
ATOM      7  O   UNL d   1      -2.568   0.381   2.561  0.00  0.00    -0.526 OA
ATOM      8  H5  UNL d   1      -3.367   0.552   2.035  0.00  0.00     0.418 HD
ENDBRANCH   4   7
TORSDOF 1
ENDMDL
