MODEL 1
REMARK minimizedAffinity -2.23190308
REMARK minimizedRMSD -1
REMARK  1 active torsions:
REMARK  status: ('A' for Active; 'I' for Inactive)
REMARK    1  A    between atoms: C1_2  and  C2_3 
ROOT
ATOM      1  C2  UNL d   1      -0.359  -0.145   0.207  0.00  0.00    -0.076 A 
ATOM      2  C3  UNL d   1       0.183   1.119  -0.085  0.00  0.00     0.004 A 
ATOM      3  C4  UNL d   1       1.474   1.456   0.316  0.00  0.00    -0.003 A 
ATOM      4  C5  UNL d   1       2.245   0.534   1.016  0.00  0.00     0.000 A 
ATOM      5  C6  UNL d   1       1.730  -0.731   1.299  0.00  0.00     0.000 A 
ATOM      6  C7  UNL d   1       0.436  -1.092   0.887  0.00  0.00    -0.073 A 
ATOM      7  C8  UNL d   1      -0.071  -2.467   1.225  0.00  0.00     0.078 C 
ENDROOT
BRANCH   1   8
ATOM      8  C1  UNL d   1      -1.775  -0.444  -0.230  0.00  0.00     0.053 C 
ATOM      9  C   UNL d   1      -2.189   0.358  -1.454  0.00  0.00     0.018 C 
ENDBRANCH   1   8
TORSDOF 1
ENDMDL
