MODEL 1
REMARK minimizedAffinity -2.4718349
REMARK minimizedRMSD -1
REMARK  1 active torsions:
REMARK  status: ('A' for Active; 'I' for Inactive)
REMARK    1  A    between atoms: C1_2  and  C2_3 
ROOT
ATOM      1  C2  UNL d   1      -0.167  -0.246   0.170  0.00  0.00    -0.076 A 
ATOM      2  C3  UNL d   1       0.089   1.128   0.015  0.00  0.00     0.004 A 
ATOM      3  C4  UNL d   1       1.369   1.645   0.202  0.00  0.00    -0.003 A 
ATOM      4  C5  UNL d   1       2.415   0.797   0.548  0.00  0.00     0.000 A 
ATOM      5  C6  UNL d   1       2.183  -0.571   0.689  0.00  0.00     0.000 A 
ATOM      6  C7  UNL d   1       0.901  -1.111   0.488  0.00  0.00    -0.073 A 
ATOM      7  C8  UNL d   1       0.707  -2.593   0.659  0.00  0.00     0.078 C 
ENDROOT
BRANCH   1   8
ATOM      8  C1  UNL d   1      -1.582  -0.745  -0.020  0.00  0.00     0.053 C 
ATOM      9  C   UNL d   1      -2.207  -0.246  -1.314  0.00  0.00     0.018 C 
ENDBRANCH   1   8
TORSDOF 1
ENDMDL
