MODEL 1
REMARK minimizedAffinity 9.54579926
REMARK minimizedRMSD -1
REMARK  1 active torsions:
REMARK  status: ('A' for Active; 'I' for Inactive)
REMARK    1  A    between atoms: C1_2  and  C2_3 
ROOT
ATOM      1  C2  UNL d   1       1.464   0.801   1.150  0.00  0.00    -0.076 A 
ATOM      2  C3  UNL d   1       2.073   0.692  -0.112  0.00  0.00     0.004 A 
ATOM      3  C4  UNL d   1       1.905   1.682  -1.078  0.00  0.00    -0.003 A 
ATOM      4  C5  UNL d   1       1.126   2.799  -0.797  0.00  0.00     0.000 A 
ATOM      5  C6  UNL d   1       0.529   2.933   0.456  0.00  0.00     0.000 A 
ATOM      6  C7  UNL d   1       0.701   1.952   1.447  0.00  0.00    -0.073 A 
ATOM      7  C8  UNL d   1       0.029   2.144   2.778  0.00  0.00     0.078 C 
ENDROOT
BRANCH   1   8
ATOM      8  C1  UNL d   1       1.659  -0.317   2.149  0.00  0.00     0.053 C 
ATOM      9  C   UNL d   1       0.866  -1.564   1.789  0.00  0.00     0.018 C 
ENDBRANCH   1   8
TORSDOF 1
ENDMDL
