MODEL 1
REMARK minimizedAffinity -0.960794628
REMARK minimizedRMSD -1
REMARK  1 active torsions:
REMARK  status: ('A' for Active; 'I' for Inactive)
REMARK    1  A    between atoms: C1_2  and  C2_3 
ROOT
ATOM      1  C2  UNL d   1      -1.592   0.409  -0.298  0.00  0.00    -0.076 A 
ATOM      2  C3  UNL d   1      -1.635  -0.956   0.034  0.00  0.00     0.004 A 
ATOM      3  C4  UNL d   1      -0.697  -1.513   0.902  0.00  0.00    -0.003 A 
ATOM      4  C5  UNL d   1       0.298  -0.713   1.453  0.00  0.00     0.000 A 
ATOM      5  C6  UNL d   1       0.345   0.647   1.148  0.00  0.00     0.000 A 
ATOM      6  C7  UNL d   1      -0.603   1.227   0.287  0.00  0.00    -0.073 A 
ATOM      7  C8  UNL d   1      -0.501   2.698  -0.011  0.00  0.00     0.078 C 
ENDROOT
BRANCH   1   8
ATOM      8  C1  UNL d   1      -2.619   0.951  -1.266  0.00  0.00     0.053 C 
ATOM      9  C   UNL d   1      -2.580   0.246  -2.613  0.00  0.00     0.018 C 
ENDBRANCH   1   8
TORSDOF 1
ENDMDL
