MODEL 1
REMARK minimizedAffinity -4.51090574
REMARK minimizedRMSD -1
REMARK  1 active torsions:
REMARK  status: ('A' for Active; 'I' for Inactive)
REMARK    1  A    between atoms: C1_2  and  C2_3 
ROOT
ATOM      1  C2  UNL d   1      -0.656   0.233  -0.732  0.00  0.00    -0.076 A 
ATOM      2  C3  UNL d   1      -1.875  -0.178  -0.166  0.00  0.00     0.004 A 
ATOM      3  C4  UNL d   1      -3.011  -0.351  -0.955  0.00  0.00    -0.003 A 
ATOM      4  C5  UNL d   1      -2.946  -0.116  -2.324  0.00  0.00     0.000 A 
ATOM      5  C6  UNL d   1      -1.740   0.275  -2.905  0.00  0.00     0.000 A 
ATOM      6  C7  UNL d   1      -0.582   0.438  -2.126  0.00  0.00    -0.073 A 
ATOM      7  C8  UNL d   1       0.690   0.867  -2.805  0.00  0.00     0.078 C 
ENDROOT
BRANCH   1   8
ATOM      8  C1  UNL d   1       0.535   0.429   0.178  0.00  0.00     0.053 C 
ATOM      9  C   UNL d   1       1.159  -0.888   0.614  0.00  0.00     0.018 C 
ENDBRANCH   1   8
TORSDOF 1
ENDMDL
