MODEL 1
REMARK minimizedAffinity -2.70549202
REMARK minimizedRMSD -1
REMARK  1 active torsions:
REMARK  status: ('A' for Active; 'I' for Inactive)
REMARK    1  A    between atoms: N_2  and  C1_3 
ROOT
ATOM      1  C1  UNL d   1      -2.125  -3.306  -1.310  0.00  0.00     0.143 A 
ATOM      2  C2  UNL d   1      -1.540  -2.842  -0.127  0.00  0.00    -0.057 A 
ATOM      3  C3  UNL d   1      -0.223  -2.367  -0.105  0.00  0.00     0.033 A 
ATOM      4  C4  UNL d   1       0.545  -2.376  -1.265  0.00  0.00    -0.042 A 
ATOM      5  C5  UNL d   1      -0.008  -2.856  -2.447  0.00  0.00     0.033 A 
ATOM      6  C6  UNL d   1      -1.326  -3.323  -2.464  0.00  0.00    -0.057 A 
ENDROOT
BRANCH   1   7
ATOM      7  N   UNL d   1      -3.396  -3.882  -1.375  0.00  0.00    -0.732 N 
ATOM      8  C   UNL d   1      -4.001  -4.469  -0.198  0.00  0.00     0.284 C 
ATOM      9  H3  UNL d   1      -4.040  -3.338  -1.946  0.00  0.00     0.395 HD
ENDBRANCH   1   7
TORSDOF 1
ENDMDL
