MODEL 1
REMARK minimizedAffinity -2.9932673
REMARK minimizedRMSD -1
REMARK  1 active torsions:
REMARK  status: ('A' for Active; 'I' for Inactive)
REMARK    1  A    between atoms: N_2  and  C1_3 
ROOT
ATOM      1  C1  UNL d   1      -0.457  -1.369  -0.735  0.00  0.00     0.143 A 
ATOM      2  C2  UNL d   1      -1.565  -1.454  -1.585  0.00  0.00    -0.057 A 
ATOM      3  C3  UNL d   1      -1.685  -2.488  -2.520  0.00  0.00     0.033 A 
ATOM      4  C4  UNL d   1      -0.682  -3.444  -2.642  0.00  0.00    -0.042 A 
ATOM      5  C5  UNL d   1       0.441  -3.365  -1.825  0.00  0.00     0.033 A 
ATOM      6  C6  UNL d   1       0.551  -2.333  -0.888  0.00  0.00    -0.057 A 
ENDROOT
BRANCH   1   7
ATOM      7  N   UNL d   1      -0.233  -0.309   0.148  0.00  0.00    -0.732 N 
ATOM      8  C   UNL d   1      -1.277   0.654   0.423  0.00  0.00     0.284 C 
ATOM      9  H3  UNL d   1       0.298  -0.592   0.968  0.00  0.00     0.395 HD
ENDBRANCH   1   7
TORSDOF 1
ENDMDL
