MODEL 1
REMARK minimizedAffinity -4.10359859
REMARK minimizedRMSD -1
REMARK  1 active torsions:
REMARK  status: ('A' for Active; 'I' for Inactive)
REMARK    1  A    between atoms: N_2  and  C1_3 
ROOT
ATOM      1  C1  UNL d   1      -0.781  -0.881   0.023  0.00  0.00     0.143 A 
ATOM      2  C2  UNL d   1      -2.003  -0.235  -0.191  0.00  0.00    -0.057 A 
ATOM      3  C3  UNL d   1      -2.190   1.105   0.170  0.00  0.00     0.033 A 
ATOM      4  C4  UNL d   1      -1.162   1.817   0.780  0.00  0.00    -0.042 A 
ATOM      5  C5  UNL d   1       0.054   1.188   1.025  0.00  0.00     0.033 A 
ATOM      6  C6  UNL d   1       0.236  -0.148   0.656  0.00  0.00    -0.057 A 
ENDROOT
BRANCH   1   7
ATOM      7  N   UNL d   1      -0.565  -2.239  -0.224  0.00  0.00    -0.732 N 
ATOM      8  C   UNL d   1      -1.254  -2.910  -1.305  0.00  0.00     0.284 C 
ATOM      9  H3  UNL d   1       0.414  -2.500  -0.129  0.00  0.00     0.395 HD
ENDBRANCH   1   7
TORSDOF 1
ENDMDL
