MODEL 1
REMARK minimizedAffinity -0.665297151
REMARK minimizedRMSD -1
REMARK  1 active torsions:
REMARK  status: ('A' for Active; 'I' for Inactive)
REMARK    1  A    between atoms: N_2  and  C1_3 
ROOT
ATOM      1  C1  UNL d   1      -0.395  -1.374  -0.500  0.00  0.00     0.143 A 
ATOM      2  C2  UNL d   1       0.483  -1.516  -1.579  0.00  0.00    -0.057 A 
ATOM      3  C3  UNL d   1       0.348  -2.569  -2.492  0.00  0.00     0.033 A 
ATOM      4  C4  UNL d   1      -0.655  -3.519  -2.323  0.00  0.00    -0.042 A 
ATOM      5  C5  UNL d   1      -1.524  -3.411  -1.243  0.00  0.00     0.033 A 
ATOM      6  C6  UNL d   1      -1.387  -2.354  -0.339  0.00  0.00    -0.057 A 
ENDROOT
BRANCH   1   7
ATOM      7  N   UNL d   1      -0.252  -0.405   0.497  0.00  0.00    -0.732 N 
ATOM      8  C   UNL d   1      -1.190   0.692   0.598  0.00  0.00     0.284 C 
ATOM      9  H3  UNL d   1       0.017  -0.806   1.392  0.00  0.00     0.395 HD
ENDBRANCH   1   7
TORSDOF 1
ENDMDL
