MODEL 1
REMARK minimizedAffinity -2.28770614
REMARK minimizedRMSD -1
REMARK  1 active torsions:
REMARK  status: ('A' for Active; 'I' for Inactive)
REMARK    1  A    between atoms: N_2  and  C1_3 
ROOT
ATOM      1  C1  UNL d   1       0.043  -0.648  -0.072  0.00  0.00     0.143 A 
ATOM      2  C2  UNL d   1      -1.139   0.034   0.238  0.00  0.00    -0.057 A 
ATOM      3  C3  UNL d   1      -1.137   1.412   0.489  0.00  0.00     0.033 A 
ATOM      4  C4  UNL d   1       0.055   2.128   0.462  0.00  0.00    -0.042 A 
ATOM      5  C5  UNL d   1       1.245   1.466   0.181  0.00  0.00     0.033 A 
ATOM      6  C6  UNL d   1       1.235   0.091  -0.075  0.00  0.00    -0.057 A 
ENDROOT
BRANCH   1   7
ATOM      7  N   UNL d   1       0.121  -2.034  -0.235  0.00  0.00    -0.732 N 
ATOM      8  C   UNL d   1      -0.465  -2.675  -1.392  0.00  0.00     0.284 C 
ATOM      9  H3  UNL d   1       1.030  -2.405   0.030  0.00  0.00     0.395 HD
ENDBRANCH   1   7
TORSDOF 1
ENDMDL
