MODEL 1
REMARK minimizedAffinity -4.63657761
REMARK minimizedRMSD -1
REMARK  1 active torsions:
REMARK  status: ('A' for Active; 'I' for Inactive)
REMARK    1  A    between atoms: N_2  and  C1_3 
ROOT
ATOM      1  C1  UNL d   1       1.175   0.561   0.371  0.00  0.00     0.143 A 
ATOM      2  C2  UNL d   1       0.055  -0.264   0.513  0.00  0.00    -0.057 A 
ATOM      3  C3  UNL d   1      -1.241   0.266   0.528  0.00  0.00     0.033 A 
ATOM      4  C4  UNL d   1      -1.437   1.640   0.430  0.00  0.00    -0.042 A 
ATOM      5  C5  UNL d   1      -0.337   2.482   0.314  0.00  0.00     0.033 A 
ATOM      6  C6  UNL d   1       0.954   1.945   0.293  0.00  0.00    -0.057 A 
ENDROOT
BRANCH   1   7
ATOM      7  N   UNL d   1       2.493   0.104   0.448  0.00  0.00    -0.732 N 
ATOM      8  C   UNL d   1       3.599   0.986   0.139  0.00  0.00     0.284 C 
ATOM      9  H3  UNL d   1       2.651  -0.493   1.257  0.00  0.00     0.395 HD
ENDBRANCH   1   7
TORSDOF 1
ENDMDL
