MODEL 1
REMARK minimizedAffinity -3.78556609
REMARK minimizedRMSD -1
REMARK  1 active torsions:
REMARK  status: ('A' for Active; 'I' for Inactive)
REMARK    1  A    between atoms: N_2  and  C1_3 
ROOT
ATOM      1  C1  UNL d   1       0.022  -0.099   0.622  0.00  0.00     0.143 A 
ATOM      2  C2  UNL d   1      -1.286  -0.180   1.112  0.00  0.00    -0.057 A 
ATOM      3  C3  UNL d   1      -2.047   0.971   1.346  0.00  0.00     0.033 A 
ATOM      4  C4  UNL d   1      -1.501   2.231   1.121  0.00  0.00    -0.042 A 
ATOM      5  C5  UNL d   1      -0.194   2.336   0.658  0.00  0.00     0.033 A 
ATOM      6  C6  UNL d   1       0.558   1.182   0.420  0.00  0.00    -0.057 A 
ENDROOT
BRANCH   1   7
ATOM      7  N   UNL d   1       0.863  -1.203   0.463  0.00  0.00    -0.732 N 
ATOM      8  C   UNL d   1       2.252  -1.134   0.860  0.00  0.00     0.284 C 
ATOM      9  H3  UNL d   1       0.404  -2.079   0.704  0.00  0.00     0.395 HD
ENDBRANCH   1   7
TORSDOF 1
ENDMDL
