MODEL 1
REMARK minimizedAffinity -1.68519545
REMARK minimizedRMSD -1
REMARK  1 active torsions:
REMARK  status: ('A' for Active; 'I' for Inactive)
REMARK    1  A    between atoms: N_2  and  C1_3 
ROOT
ATOM      1  C1  UNL d   1      -0.143  -0.978  -0.394  0.00  0.00     0.143 A 
ATOM      2  C2  UNL d   1       0.232   0.334  -0.700  0.00  0.00    -0.057 A 
ATOM      3  C3  UNL d   1      -0.288   1.423   0.011  0.00  0.00     0.033 A 
ATOM      4  C4  UNL d   1      -1.218   1.219   1.025  0.00  0.00    -0.042 A 
ATOM      5  C5  UNL d   1      -1.625  -0.075   1.330  0.00  0.00     0.033 A 
ATOM      6  C6  UNL d   1      -1.097  -1.159   0.621  0.00  0.00    -0.057 A 
ENDROOT
BRANCH   1   7
ATOM      7  N   UNL d   1       0.263  -2.095  -1.128  0.00  0.00    -0.732 N 
ATOM      8  C   UNL d   1      -0.706  -3.063  -1.594  0.00  0.00     0.284 C 
ATOM      9  H3  UNL d   1       0.986  -1.871  -1.807  0.00  0.00     0.395 HD
ENDBRANCH   1   7
TORSDOF 1
ENDMDL
