MODEL 1
REMARK minimizedAffinity 0.0974868536
REMARK minimizedRMSD -1
REMARK  1 active torsions:
REMARK  status: ('A' for Active; 'I' for Inactive)
REMARK    1  A    between atoms: N_2  and  C1_3 
ROOT
ATOM      1  C1  UNL d   1       1.320   1.077   0.846  0.00  0.00     0.143 A 
ATOM      2  C2  UNL d   1       0.320   2.055   0.877  0.00  0.00    -0.057 A 
ATOM      3  C3  UNL d   1      -1.001   1.754   0.525  0.00  0.00     0.033 A 
ATOM      4  C4  UNL d   1      -1.341   0.472   0.107  0.00  0.00    -0.042 A 
ATOM      5  C5  UNL d   1      -0.359  -0.510   0.044  0.00  0.00     0.033 A 
ATOM      6  C6  UNL d   1       0.958  -0.205   0.403  0.00  0.00    -0.057 A 
ENDROOT
BRANCH   1   7
ATOM      7  N   UNL d   1       2.671   1.337   1.089  0.00  0.00    -0.732 N 
ATOM      8  C   UNL d   1       3.079   2.556   1.755  0.00  0.00     0.284 C 
ATOM      9  H3  UNL d   1       3.178   0.509   1.391  0.00  0.00     0.395 HD
ENDBRANCH   1   7
TORSDOF 1
ENDMDL
