MODEL 1
REMARK minimizedAffinity -2.10031652
REMARK minimizedRMSD -1
REMARK  1 active torsions:
REMARK  status: ('A' for Active; 'I' for Inactive)
REMARK    1  A    between atoms: N_2  and  C1_3 
ROOT
ATOM      1  C1  UNL d   1       1.217   0.626   0.689  0.00  0.00     0.143 A 
ATOM      2  C2  UNL d   1       0.423  -0.499   0.442  0.00  0.00    -0.057 A 
ATOM      3  C3  UNL d   1      -0.971  -0.398   0.353  0.00  0.00     0.033 A 
ATOM      4  C4  UNL d   1      -1.599   0.829   0.539  0.00  0.00    -0.042 A 
ATOM      5  C5  UNL d   1      -0.831   1.956   0.810  0.00  0.00     0.033 A 
ATOM      6  C6  UNL d   1       0.561   1.850   0.891  0.00  0.00    -0.057 A 
ENDROOT
BRANCH   1   7
ATOM      7  N   UNL d   1       2.599   0.574   0.887  0.00  0.00    -0.732 N 
ATOM      8  C   UNL d   1       3.348   1.777   1.180  0.00  0.00     0.284 C 
ATOM      9  H3  UNL d   1       2.883  -0.236   1.434  0.00  0.00     0.395 HD
ENDBRANCH   1   7
TORSDOF 1
ENDMDL
