MODEL 1
REMARK minimizedAffinity -2.03210139
REMARK minimizedRMSD -1
REMARK  1 active torsions:
REMARK  status: ('A' for Active; 'I' for Inactive)
REMARK    1  A    between atoms: N_2  and  C1_3 
ROOT
ATOM      1  C1  UNL d   1      -0.059   1.187   0.337  0.00  0.00     0.143 A 
ATOM      2  C2  UNL d   1      -0.692   2.389   0.673  0.00  0.00    -0.057 A 
ATOM      3  C3  UNL d   1       0.034   3.474   1.178  0.00  0.00     0.033 A 
ATOM      4  C4  UNL d   1       1.406   3.366   1.384  0.00  0.00    -0.042 A 
ATOM      5  C5  UNL d   1       2.051   2.173   1.080  0.00  0.00     0.033 A 
ATOM      6  C6  UNL d   1       1.322   1.095   0.570  0.00  0.00    -0.057 A 
ENDROOT
BRANCH   1   7
ATOM      7  N   UNL d   1      -0.740   0.039  -0.077  0.00  0.00    -0.732 N 
ATOM      8  C   UNL d   1      -0.053  -1.231  -0.171  0.00  0.00     0.284 C 
ATOM      9  H3  UNL d   1      -1.675  -0.023   0.321  0.00  0.00     0.395 HD
ENDBRANCH   1   7
TORSDOF 1
ENDMDL
