MODEL 1
REMARK minimizedAffinity -4.4244771
REMARK minimizedRMSD -1
REMARK  1 active torsions:
REMARK  status: ('A' for Active; 'I' for Inactive)
REMARK    1  A    between atoms: N_2  and  C1_3 
ROOT
ATOM      1  C1  UNL d   1      -0.302  -1.092  -0.778  0.00  0.00     0.143 A 
ATOM      2  C2  UNL d   1      -0.725  -2.380  -0.432  0.00  0.00    -0.057 A 
ATOM      3  C3  UNL d   1      -0.979  -3.348  -1.410  0.00  0.00     0.033 A 
ATOM      4  C4  UNL d   1      -0.843  -3.036  -2.759  0.00  0.00    -0.042 A 
ATOM      5  C5  UNL d   1      -0.448  -1.754  -3.127  0.00  0.00     0.033 A 
ATOM      6  C6  UNL d   1      -0.190  -0.793  -2.145  0.00  0.00    -0.057 A 
ENDROOT
BRANCH   1   7
ATOM      7  N   UNL d   1      -0.129  -0.056   0.143  0.00  0.00    -0.732 N 
ATOM      8  C   UNL d   1      -1.251   0.758   0.558  0.00  0.00     0.284 C 
ATOM      9  H3  UNL d   1       0.502  -0.311   0.900  0.00  0.00     0.395 HD
ENDBRANCH   1   7
TORSDOF 1
ENDMDL
