MODEL 1
REMARK minimizedAffinity -4.09254789
REMARK minimizedRMSD -1
REMARK  1 active torsions:
REMARK  status: ('A' for Active; 'I' for Inactive)
REMARK    1  A    between atoms: N_2  and  C1_3 
ROOT
ATOM      1  C1  UNL d   1      -0.140  -1.209  -0.933  0.00  0.00     0.143 A 
ATOM      2  C2  UNL d   1       0.695  -1.208  -2.055  0.00  0.00    -0.057 A 
ATOM      3  C3  UNL d   1       0.479  -2.090  -3.121  0.00  0.00     0.033 A 
ATOM      4  C4  UNL d   1      -0.561  -3.012  -3.070  0.00  0.00    -0.042 A 
ATOM      5  C5  UNL d   1      -1.388  -3.048  -1.953  0.00  0.00     0.033 A 
ATOM      6  C6  UNL d   1      -1.172  -2.160  -0.895  0.00  0.00    -0.057 A 
ENDROOT
BRANCH   1   7
ATOM      7  N   UNL d   1       0.082  -0.425   0.202  0.00  0.00    -0.732 N 
ATOM      8  C   UNL d   1      -0.949   0.460   0.699  0.00  0.00     0.284 C 
ATOM      9  H3  UNL d   1       0.584  -0.928   0.930  0.00  0.00     0.395 HD
ENDBRANCH   1   7
TORSDOF 1
ENDMDL
