MODEL 1
REMARK minimizedAffinity -1.57468033
REMARK minimizedRMSD -1
REMARK  1 active torsions:
REMARK  status: ('A' for Active; 'I' for Inactive)
REMARK    1  A    between atoms: N_2  and  C1_3 
ROOT
ATOM      1  C1  UNL d   1      -0.058  -0.091   0.345  0.00  0.00     0.143 A 
ATOM      2  C2  UNL d   1       1.058   0.751   0.412  0.00  0.00    -0.057 A 
ATOM      3  C3  UNL d   1       0.925   2.110   0.718  0.00  0.00     0.033 A 
ATOM      4  C4  UNL d   1      -0.334   2.661   0.935  0.00  0.00    -0.042 A 
ATOM      5  C5  UNL d   1      -1.459   1.848   0.849  0.00  0.00     0.033 A 
ATOM      6  C6  UNL d   1      -1.319   0.490   0.550  0.00  0.00    -0.057 A 
ENDROOT
BRANCH   1   7
ATOM      7  N   UNL d   1      -0.000  -1.429  -0.051  0.00  0.00    -0.732 N 
ATOM      8  C   UNL d   1      -0.304  -1.808  -1.414  0.00  0.00     0.284 C 
ATOM      9  H3  UNL d   1       0.797  -1.919   0.349  0.00  0.00     0.395 HD
ENDBRANCH   1   7
TORSDOF 1
ENDMDL
