MODEL 1
REMARK minimizedAffinity -3.41438794
REMARK minimizedRMSD -1
REMARK  1 active torsions:
REMARK  status: ('A' for Active; 'I' for Inactive)
REMARK    1  A    between atoms: C1_2  and  C2_3 
ROOT
ATOM      1  C2  UNL d   1       0.549  -0.633   0.608  0.00  0.00    -0.081 A 
ATOM      2  C3  UNL d   1       1.732  -1.252   0.186  0.00  0.00     0.006 A 
ATOM      3  C4  UNL d   1       2.682  -1.674   1.119  0.00  0.00     0.002 A 
ATOM      4  C5  UNL d   1       2.461  -1.492   2.488  0.00  0.00    -0.080 A 
ATOM      5  C6  UNL d   1       3.459  -1.968   3.502  0.00  0.00     0.076 C 
ATOM      6  C7  UNL d   1       1.287  -0.858   2.909  0.00  0.00     0.002 A 
ATOM      7  C8  UNL d   1       0.337  -0.436   1.976  0.00  0.00     0.006 A 
ENDROOT
BRANCH   1   8
ATOM      8  C1  UNL d   1      -0.507  -0.236  -0.392  0.00  0.00     0.054 C 
ATOM      9  C   UNL d   1      -1.904  -0.367   0.196  0.00  0.00     0.018 C 
ENDBRANCH   1   8
TORSDOF 1
ENDMDL
