MODEL 1
REMARK minimizedAffinity -3.50105715
REMARK minimizedRMSD -1
REMARK  1 active torsions:
REMARK  status: ('A' for Active; 'I' for Inactive)
REMARK    1  A    between atoms: C1_2  and  C2_3 
ROOT
ATOM      1  C2  UNL d   1       0.031   1.127  -1.055  0.00  0.00    -0.081 A 
ATOM      2  C3  UNL d   1      -1.108   0.392  -0.704  0.00  0.00     0.006 A 
ATOM      3  C4  UNL d   1      -1.121  -0.381   0.460  0.00  0.00     0.002 A 
ATOM      4  C5  UNL d   1       0.000  -0.426   1.295  0.00  0.00    -0.080 A 
ATOM      5  C6  UNL d   1      -0.011  -1.228   2.562  0.00  0.00     0.076 C 
ATOM      6  C7  UNL d   1       1.145   0.294   0.935  0.00  0.00     0.002 A 
ATOM      7  C8  UNL d   1       1.159   1.067  -0.229  0.00  0.00     0.006 A 
ENDROOT
BRANCH   1   8
ATOM      8  C1  UNL d   1       0.026   2.012  -2.275  0.00  0.00     0.054 C 
ATOM      9  C   UNL d   1      -1.021   3.111  -2.156  0.00  0.00     0.018 C 
ENDBRANCH   1   8
TORSDOF 1
ENDMDL
