MODEL 1
REMARK minimizedAffinity -3.4324379
REMARK minimizedRMSD -1
REMARK  1 active torsions:
REMARK  status: ('A' for Active; 'I' for Inactive)
REMARK    1  A    between atoms: C1_2  and  C2_3 
ROOT
ATOM      1  C2  UNL d   1      -0.073   0.299  -0.808  0.00  0.00    -0.081 A 
ATOM      2  C3  UNL d   1       1.270   0.016  -0.529  0.00  0.00     0.006 A 
ATOM      3  C4  UNL d   1       1.673  -0.291   0.773  0.00  0.00     0.002 A 
ATOM      4  C5  UNL d   1       0.740  -0.329   1.814  0.00  0.00    -0.080 A 
ATOM      5  C6  UNL d   1       1.154  -0.688   3.210  0.00  0.00     0.076 C 
ATOM      6  C7  UNL d   1      -0.599  -0.030   1.539  0.00  0.00     0.002 A 
ATOM      7  C8  UNL d   1      -1.002   0.279   0.238  0.00  0.00     0.006 A 
ENDROOT
BRANCH   1   8
ATOM      8  C1  UNL d   1      -0.521   0.568  -2.222  0.00  0.00     0.054 C 
ATOM      9  C   UNL d   1      -1.094   1.971  -2.363  0.00  0.00     0.018 C 
ENDBRANCH   1   8
TORSDOF 1
ENDMDL
