MODEL 1
REMARK minimizedAffinity 0.751819313
REMARK minimizedRMSD -1
REMARK  1 active torsions:
REMARK  status: ('A' for Active; 'I' for Inactive)
REMARK    1  A    between atoms: C3_4  and  O_7 
ROOT
ATOM      1  C   UNL d   1      -1.625   2.874   1.749  0.00  0.00    -0.033 A 
ATOM      2  C1  UNL d   1      -0.255   3.131   1.820  0.00  0.00     0.039 A 
ATOM      3  C2  UNL d   1       0.604   2.193   2.397  0.00  0.00    -0.080 A 
ATOM      4  C3  UNL d   1       0.081   1.004   2.897  0.00  0.00     0.150 A 
ATOM      5  C4  UNL d   1      -1.283   0.740   2.826  0.00  0.00    -0.007 A 
ATOM      6  C5  UNL d   1      -2.139   1.678   2.251  0.00  0.00     0.039 A 
ENDROOT
BRANCH   4   7
ATOM      7  O   UNL d   1       0.879   0.061   3.474  0.00  0.00    -0.526 OA
ATOM      8  H5  UNL d   1       1.792   0.392   3.479  0.00  0.00     0.418 HD
ENDBRANCH   4   7
TORSDOF 1
ENDMDL
