MODEL 1
REMARK minimizedAffinity 4.209095
REMARK minimizedRMSD -1
REMARK  1 active torsions:
REMARK  status: ('A' for Active; 'I' for Inactive)
REMARK    1  A    between atoms: C3_4  and  O_7 
ROOT
ATOM      1  C   UNL d   1       0.074   2.452   1.772  0.00  0.00    -0.033 A 
ATOM      2  C1  UNL d   1       1.124   1.616   1.388  0.00  0.00     0.039 A 
ATOM      3  C2  UNL d   1       1.393   0.452   2.110  0.00  0.00    -0.080 A 
ATOM      4  C3  UNL d   1       0.605   0.134   3.212  0.00  0.00     0.150 A 
ATOM      5  C4  UNL d   1      -0.446   0.960   3.599  0.00  0.00    -0.007 A 
ATOM      6  C5  UNL d   1      -0.712   2.122   2.877  0.00  0.00     0.039 A 
ENDROOT
BRANCH   4   7
ATOM      7  O   UNL d   1       0.832  -0.989   3.950  0.00  0.00    -0.526 OA
ATOM      8  H5  UNL d   1       1.606  -1.447   3.584  0.00  0.00     0.418 HD
ENDBRANCH   4   7
TORSDOF 1
ENDMDL
