MODEL 1
REMARK minimizedAffinity 2.89109778
REMARK minimizedRMSD -1
REMARK  1 active torsions:
REMARK  status: ('A' for Active; 'I' for Inactive)
REMARK    1  A    between atoms: C3_4  and  O_7 
ROOT
ATOM      1  C   UNL d   1       0.283   2.290   2.200  0.00  0.00    -0.033 A 
ATOM      2  C1  UNL d   1      -0.019   3.181   1.169  0.00  0.00     0.039 A 
ATOM      3  C2  UNL d   1      -0.016   2.744  -0.157  0.00  0.00    -0.080 A 
ATOM      4  C3  UNL d   1       0.288   1.414  -0.438  0.00  0.00     0.150 A 
ATOM      5  C4  UNL d   1       0.585   0.520   0.585  0.00  0.00    -0.007 A 
ATOM      6  C5  UNL d   1       0.583   0.959   1.909  0.00  0.00     0.039 A 
ENDROOT
BRANCH   4   7
ATOM      7  O   UNL d   1       0.307   0.942  -1.716  0.00  0.00    -0.526 OA
ATOM      8  H5  UNL d   1       0.110   1.679  -2.319  0.00  0.00     0.418 HD
ENDBRANCH   4   7
TORSDOF 1
ENDMDL
