MODEL 1
REMARK minimizedAffinity 5.71394587
REMARK minimizedRMSD -1
REMARK  1 active torsions:
REMARK  status: ('A' for Active; 'I' for Inactive)
REMARK    1  A    between atoms: C3_4  and  O_7 
ROOT
ATOM      1  C   UNL d   1      -5.989  -2.180   5.989  0.00  0.00    -0.033 A 
ATOM      2  C1  UNL d   1      -5.998  -0.784   5.998  0.00  0.00     0.039 A 
ATOM      3  C2  UNL d   1      -5.971  -0.076   4.795  0.00  0.00    -0.080 A 
ATOM      4  C3  UNL d   1      -5.936  -0.775   3.591  0.00  0.00     0.150 A 
ATOM      5  C4  UNL d   1      -5.931  -2.166   3.575  0.00  0.00    -0.007 A 
ATOM      6  C5  UNL d   1      -5.957  -2.871   4.777  0.00  0.00     0.039 A 
ENDROOT
BRANCH   4   7
ATOM      7  O   UNL d   1      -5.904  -0.128   2.392  0.00  0.00    -0.526 OA
ATOM      8  H5  UNL d   1      -5.883   0.829   2.559  0.00  0.00     0.418 HD
ENDBRANCH   4   7
TORSDOF 1
ENDMDL
