MODEL 1
REMARK minimizedAffinity 0.0658494085
REMARK minimizedRMSD -1
REMARK  1 active torsions:
REMARK  status: ('A' for Active; 'I' for Inactive)
REMARK    1  A    between atoms: C3_4  and  O_7 
ROOT
ATOM      1  C   UNL d   1       5.458  -5.548  -2.096  0.00  0.00    -0.033 A 
ATOM      2  C1  UNL d   1       4.481  -5.038  -2.954  0.00  0.00     0.039 A 
ATOM      3  C2  UNL d   1       3.838  -3.838  -2.647  0.00  0.00    -0.080 A 
ATOM      4  C3  UNL d   1       4.180  -3.158  -1.482  0.00  0.00     0.150 A 
ATOM      5  C4  UNL d   1       5.155  -3.658  -0.625  0.00  0.00    -0.007 A 
ATOM      6  C5  UNL d   1       5.796  -4.857  -0.932  0.00  0.00     0.039 A 
ENDROOT
BRANCH   4   7
ATOM      7  O   UNL d   1       3.576  -1.985  -1.138  0.00  0.00    -0.526 OA
ATOM      8  H5  UNL d   1       2.904  -1.776  -1.808  0.00  0.00     0.418 HD
ENDBRANCH   4   7
TORSDOF 1
ENDMDL
