MODEL 1
REMARK minimizedAffinity -0.128687844
REMARK minimizedRMSD -1
REMARK  1 active torsions:
REMARK  status: ('A' for Active; 'I' for Inactive)
REMARK    1  A    between atoms: C3_4  and  O_7 
ROOT
ATOM      1  C   UNL d   1       0.464   2.273   2.712  0.00  0.00    -0.033 A 
ATOM      2  C1  UNL d   1       0.412   0.885   2.855  0.00  0.00     0.039 A 
ATOM      3  C2  UNL d   1       0.248   0.072   1.732  0.00  0.00    -0.080 A 
ATOM      4  C3  UNL d   1       0.138   0.658   0.474  0.00  0.00     0.150 A 
ATOM      5  C4  UNL d   1       0.193   2.040   0.324  0.00  0.00    -0.007 A 
ATOM      6  C5  UNL d   1       0.356   2.850   1.446  0.00  0.00     0.039 A 
ENDROOT
BRANCH   4   7
ATOM      7  O   UNL d   1      -0.028  -0.094  -0.651  0.00  0.00    -0.526 OA
ATOM      8  H5  UNL d   1      -0.077  -1.029  -0.391  0.00  0.00     0.418 HD
ENDBRANCH   4   7
TORSDOF 1
ENDMDL
