MODEL 1
REMARK minimizedAffinity 0.0990004167
REMARK minimizedRMSD -1
REMARK  1 active torsions:
REMARK  status: ('A' for Active; 'I' for Inactive)
REMARK    1  A    between atoms: C3_4  and  O_7 
ROOT
ATOM      1  C   UNL d   1       1.223   0.770   1.769  0.00  0.00    -0.033 A 
ATOM      2  C1  UNL d   1       1.416   1.312   0.496  0.00  0.00     0.039 A 
ATOM      3  C2  UNL d   1       0.619   0.894  -0.571  0.00  0.00    -0.080 A 
ATOM      4  C3  UNL d   1      -0.368  -0.064  -0.353  0.00  0.00     0.150 A 
ATOM      5  C4  UNL d   1      -0.568  -0.605   0.913  0.00  0.00    -0.007 A 
ATOM      6  C5  UNL d   1       0.230  -0.188   1.977  0.00  0.00     0.039 A 
ENDROOT
BRANCH   4   7
ATOM      7  O   UNL d   1      -1.168  -0.506  -1.364  0.00  0.00    -0.526 OA
ATOM      8  H5  UNL d   1      -0.896  -0.066  -2.186  0.00  0.00     0.418 HD
ENDBRANCH   4   7
TORSDOF 1
ENDMDL
