MODEL 1
REMARK minimizedAffinity 5.8770051
REMARK minimizedRMSD -1
REMARK  1 active torsions:
REMARK  status: ('A' for Active; 'I' for Inactive)
REMARK    1  A    between atoms: C3_4  and  O_7 
ROOT
ATOM      1  C   UNL d   1       0.965   0.017  -0.463  0.00  0.00    -0.033 A 
ATOM      2  C1  UNL d   1       1.872  -0.408   0.510  0.00  0.00     0.039 A 
ATOM      3  C2  UNL d   1       1.656  -0.093   1.853  0.00  0.00    -0.080 A 
ATOM      4  C3  UNL d   1       0.531   0.645   2.209  0.00  0.00     0.150 A 
ATOM      5  C4  UNL d   1      -0.379   1.068   1.245  0.00  0.00    -0.007 A 
ATOM      6  C5  UNL d   1      -0.161   0.753  -0.095  0.00  0.00     0.039 A 
ENDROOT
BRANCH   4   7
ATOM      7  O   UNL d   1       0.280   0.980   3.507  0.00  0.00    -0.526 OA
ATOM      8  H5  UNL d   1       1.007   0.646   4.057  0.00  0.00     0.418 HD
ENDBRANCH   4   7
TORSDOF 1
ENDMDL
