MODEL 1
REMARK minimizedAffinity -3.27446222
REMARK minimizedRMSD -1
REMARK  1 active torsions:
REMARK  status: ('A' for Active; 'I' for Inactive)
REMARK    1  A    between atoms: C3_4  and  O_7 
ROOT
ATOM      1  C   UNL d   1       0.643   1.043   1.973  0.00  0.00    -0.033 A 
ATOM      2  C1  UNL d   1       0.400   2.188   1.212  0.00  0.00     0.039 A 
ATOM      3  C2  UNL d   1       0.482   2.132  -0.181  0.00  0.00    -0.080 A 
ATOM      4  C3  UNL d   1       0.805   0.927  -0.799  0.00  0.00     0.150 A 
ATOM      5  C4  UNL d   1       1.045  -0.218  -0.047  0.00  0.00    -0.007 A 
ATOM      6  C5  UNL d   1       0.964  -0.160   1.344  0.00  0.00     0.039 A 
ENDROOT
BRANCH   4   7
ATOM      7  O   UNL d   1       0.901   0.825  -2.155  0.00  0.00    -0.526 OA
ATOM      8  H5  UNL d   1       0.738   1.702  -2.542  0.00  0.00     0.418 HD
ENDBRANCH   4   7
TORSDOF 1
ENDMDL
