MODEL 1
REMARK minimizedAffinity -3.5576303
REMARK minimizedRMSD -1
REMARK  0 active torsions:
REMARK  status: ('A' for Active; 'I' for Inactive)
ROOT
ATOM      1  C   UNL d   1       1.782  -1.765  -0.810  0.00  0.00     0.020 A 
ATOM      2  C1  UNL d   1       0.679  -1.568   0.019  0.00  0.00     0.020 A 
ATOM      3  C2  UNL d   1      -0.139  -0.450  -0.160  0.00  0.00     0.034 A 
ATOM      4  C3  UNL d   1       0.146   0.475  -1.171  0.00  0.00     0.017 A 
ATOM      5  C4  UNL d   1       1.254   0.277  -2.002  0.00  0.00     0.017 A 
ATOM      6  C5  UNL d   1       2.069  -0.844  -1.819  0.00  0.00     0.034 A 
ATOM      7 Cl   UNL d   1       1.669   1.375  -3.271  0.00  0.00    -0.070 Cl
ATOM      8 Cl1  UNL d   1      -0.908   1.835  -1.336  0.00  0.00    -0.070 Cl
ENDROOT
TORSDOF 0
ENDMDL
