MODEL 1
REMARK minimizedAffinity -2.99599767
REMARK minimizedRMSD -1
REMARK  0 active torsions:
REMARK  status: ('A' for Active; 'I' for Inactive)
ROOT
ATOM      1  C   UNL d   1      -1.356  -0.066   0.300  0.00  0.00     0.020 A 
ATOM      2  C1  UNL d   1      -0.747  -1.315   0.416  0.00  0.00     0.020 A 
ATOM      3  C2  UNL d   1       0.409  -1.599  -0.314  0.00  0.00     0.034 A 
ATOM      4  C3  UNL d   1       0.959  -0.633  -1.164  0.00  0.00     0.017 A 
ATOM      5  C4  UNL d   1       0.347   0.621  -1.280  0.00  0.00     0.017 A 
ATOM      6  C5  UNL d   1      -0.810   0.899  -0.547  0.00  0.00     0.034 A 
ATOM      7 Cl   UNL d   1       0.967   1.864  -2.308  0.00  0.00    -0.070 Cl
ATOM      8 Cl1  UNL d   1       2.390  -1.052  -2.037  0.00  0.00    -0.070 Cl
ENDROOT
TORSDOF 0
ENDMDL
