MODEL 1
REMARK minimizedAffinity -1.45505381
REMARK minimizedRMSD -1
REMARK  0 active torsions:
REMARK  status: ('A' for Active; 'I' for Inactive)
ROOT
ATOM      1  C   UNL d   1      -4.922  -2.053   3.133  0.00  0.00     0.020 A 
ATOM      2  C1  UNL d   1      -4.554  -1.851   4.462  0.00  0.00     0.020 A 
ATOM      3  C2  UNL d   1      -3.522  -0.962   4.773  0.00  0.00     0.034 A 
ATOM      4  C3  UNL d   1      -2.855  -0.273   3.754  0.00  0.00     0.017 A 
ATOM      5  C4  UNL d   1      -3.225  -0.477   2.420  0.00  0.00     0.017 A 
ATOM      6  C5  UNL d   1      -4.259  -1.368   2.114  0.00  0.00     0.034 A 
ATOM      7 Cl   UNL d   1      -2.449   0.336   1.107  0.00  0.00    -0.070 Cl
ATOM      8 Cl1  UNL d   1      -1.589   0.810   4.211  0.00  0.00    -0.070 Cl
ENDROOT
TORSDOF 0
ENDMDL
