MODEL 1
REMARK minimizedAffinity -2.11529899
REMARK minimizedRMSD -1
REMARK  0 active torsions:
REMARK  status: ('A' for Active; 'I' for Inactive)
ROOT
ATOM      1  C   UNL d   1      -0.864  -0.934   0.693  0.00  0.00     0.020 A 
ATOM      2  C1  UNL d   1       0.039  -1.957   0.404  0.00  0.00     0.020 A 
ATOM      3  C2  UNL d   1       1.003  -1.777  -0.590  0.00  0.00     0.034 A 
ATOM      4  C3  UNL d   1       1.067  -0.572  -1.299  0.00  0.00     0.017 A 
ATOM      5  C4  UNL d   1       0.161   0.454  -1.008  0.00  0.00     0.017 A 
ATOM      6  C5  UNL d   1      -0.803   0.269  -0.012  0.00  0.00     0.034 A 
ATOM      7 Cl   UNL d   1       0.177   1.969  -1.840  0.00  0.00    -0.070 Cl
ATOM      8 Cl1  UNL d   1       2.285  -0.418  -2.514  0.00  0.00    -0.070 Cl
ENDROOT
TORSDOF 0
ENDMDL
