MODEL 1
REMARK minimizedAffinity -0.369962364
REMARK minimizedRMSD -1
REMARK  0 active torsions:
REMARK  status: ('A' for Active; 'I' for Inactive)
ROOT
ATOM      1  C   UNL d   1       0.806  -0.172   0.173  0.00  0.00     0.020 A 
ATOM      2  C1  UNL d   1      -0.076  -1.205  -0.142  0.00  0.00     0.020 A 
ATOM      3  C2  UNL d   1      -1.367  -1.208   0.390  0.00  0.00     0.034 A 
ATOM      4  C3  UNL d   1      -1.780  -0.175   1.241  0.00  0.00     0.017 A 
ATOM      5  C4  UNL d   1      -0.894   0.861   1.556  0.00  0.00     0.017 A 
ATOM      6  C5  UNL d   1       0.398   0.859   1.020  0.00  0.00     0.034 A 
ATOM      7 Cl   UNL d   1      -1.331   2.169   2.598  0.00  0.00    -0.070 Cl
ATOM      8 Cl1  UNL d   1      -3.391  -0.242   1.862  0.00  0.00    -0.070 Cl
ENDROOT
TORSDOF 0
ENDMDL
