MODEL 1
REMARK minimizedAffinity -3.59205365
REMARK minimizedRMSD -1
REMARK  0 active torsions:
REMARK  status: ('A' for Active; 'I' for Inactive)
ROOT
ATOM      1  C   UNL d   1      -1.120  -1.471   0.253  0.00  0.00     0.020 A 
ATOM      2  C1  UNL d   1      -1.719  -0.219   0.118  0.00  0.00     0.020 A 
ATOM      3  C2  UNL d   1      -0.961   0.876  -0.303  0.00  0.00     0.034 A 
ATOM      4  C3  UNL d   1       0.400   0.721  -0.591  0.00  0.00     0.017 A 
ATOM      5  C4  UNL d   1       1.000  -0.536  -0.456  0.00  0.00     0.017 A 
ATOM      6  C5  UNL d   1       0.237  -1.629  -0.034  0.00  0.00     0.034 A 
ATOM      7 Cl   UNL d   1       2.674  -0.805  -0.792  0.00  0.00    -0.070 Cl
ATOM      8 Cl1  UNL d   1       1.276   2.118  -1.107  0.00  0.00    -0.070 Cl
ENDROOT
TORSDOF 0
ENDMDL
