MODEL 1
REMARK minimizedAffinity -4.53813839
REMARK minimizedRMSD -1
REMARK  0 active torsions:
REMARK  status: ('A' for Active; 'I' for Inactive)
ROOT
ATOM      1  C   UNL d   1       2.459  -1.275  -1.191  0.00  0.00     0.020 A 
ATOM      2  C1  UNL d   1       2.396   0.071  -0.832  0.00  0.00     0.020 A 
ATOM      3  C2  UNL d   1       1.215   0.599  -0.306  0.00  0.00     0.034 A 
ATOM      4  C3  UNL d   1       0.092  -0.220  -0.137  0.00  0.00     0.017 A 
ATOM      5  C4  UNL d   1       0.157  -1.570  -0.497  0.00  0.00     0.017 A 
ATOM      6  C5  UNL d   1       1.342  -2.094  -1.024  0.00  0.00     0.034 A 
ATOM      7 Cl   UNL d   1      -1.187  -2.642  -0.318  0.00  0.00    -0.070 Cl
ATOM      8 Cl1  UNL d   1      -1.335   0.500   0.519  0.00  0.00    -0.070 Cl
ENDROOT
TORSDOF 0
ENDMDL
