MODEL 1
REMARK minimizedAffinity -5.29762077
REMARK minimizedRMSD -1
REMARK  0 active torsions:
REMARK  status: ('A' for Active; 'I' for Inactive)
ROOT
ATOM      1  C   UNL d   1      -0.683   0.943  -0.002  0.00  0.00     0.020 A 
ATOM      2  C1  UNL d   1       0.107   1.989  -0.476  0.00  0.00     0.020 A 
ATOM      3  C2  UNL d   1       1.413   1.740  -0.903  0.00  0.00     0.034 A 
ATOM      4  C3  UNL d   1       1.933   0.442  -0.855  0.00  0.00     0.017 A 
ATOM      5  C4  UNL d   1       1.139  -0.608  -0.379  0.00  0.00     0.017 A 
ATOM      6  C5  UNL d   1      -0.168  -0.353   0.047  0.00  0.00     0.034 A 
ATOM      7 Cl   UNL d   1       1.712  -2.236  -0.291  0.00  0.00    -0.070 Cl
ATOM      8 Cl1  UNL d   1       3.556   0.206  -1.399  0.00  0.00    -0.070 Cl
ENDROOT
TORSDOF 0
ENDMDL
