MODEL 1
REMARK minimizedAffinity -4.7796874
REMARK minimizedRMSD -1
REMARK  0 active torsions:
REMARK  status: ('A' for Active; 'I' for Inactive)
ROOT
ATOM      1  C   UNL d   1       3.190  -0.026  -2.215  0.00  0.00     0.020 A 
ATOM      2  C1  UNL d   1       2.716   1.252  -2.511  0.00  0.00     0.020 A 
ATOM      3  C2  UNL d   1       1.476   1.667  -2.023  0.00  0.00     0.034 A 
ATOM      4  C3  UNL d   1       0.704   0.804  -1.236  0.00  0.00     0.017 A 
ATOM      5  C4  UNL d   1       1.180  -0.478  -0.939  0.00  0.00     0.017 A 
ATOM      6  C5  UNL d   1       2.424  -0.889  -1.431  0.00  0.00     0.034 A 
ATOM      7 Cl   UNL d   1       0.286  -1.599   0.025  0.00  0.00    -0.070 Cl
ATOM      8 Cl1  UNL d   1      -0.821   1.383  -0.666  0.00  0.00    -0.070 Cl
ENDROOT
TORSDOF 0
ENDMDL
