MODEL 1
REMARK minimizedAffinity -2.60563111
REMARK minimizedRMSD -1
REMARK  0 active torsions:
REMARK  status: ('A' for Active; 'I' for Inactive)
ROOT
ATOM      1  C   UNL d   1      -1.561   0.171  -0.005  0.00  0.00     0.020 A 
ATOM      2  C1  UNL d   1      -1.063  -1.102   0.269  0.00  0.00     0.020 A 
ATOM      3  C2  UNL d   1       0.151  -1.512  -0.288  0.00  0.00     0.034 A 
ATOM      4  C3  UNL d   1       0.871  -0.647  -1.120  0.00  0.00     0.017 A 
ATOM      5  C4  UNL d   1       0.370   0.631  -1.395  0.00  0.00     0.017 A 
ATOM      6  C5  UNL d   1      -0.846   1.036  -0.835  0.00  0.00     0.034 A 
ATOM      7 Cl   UNL d   1       1.201   1.753  -2.413  0.00  0.00    -0.070 Cl
ATOM      8 Cl1  UNL d   1       2.365  -1.219  -1.774  0.00  0.00    -0.070 Cl
ENDROOT
TORSDOF 0
ENDMDL
