MODEL 1
REMARK minimizedAffinity -4.98886776
REMARK minimizedRMSD -1
REMARK  0 active torsions:
REMARK  status: ('A' for Active; 'I' for Inactive)
ROOT
ATOM      1  C   UNL d   1       2.762   0.053  -1.766  0.00  0.00     0.020 A 
ATOM      2  C1  UNL d   1       2.054   1.239  -1.960  0.00  0.00     0.020 A 
ATOM      3  C2  UNL d   1       0.795   1.403  -1.378  0.00  0.00     0.034 A 
ATOM      4  C3  UNL d   1       0.241   0.381  -0.600  0.00  0.00     0.017 A 
ATOM      5  C4  UNL d   1       0.952  -0.809  -0.406  0.00  0.00     0.017 A 
ATOM      6  C5  UNL d   1       2.212  -0.968  -0.991  0.00  0.00     0.034 A 
ATOM      7 Cl   UNL d   1       0.333  -2.116   0.541  0.00  0.00    -0.070 Cl
ATOM      8 Cl1  UNL d   1      -1.320   0.652   0.090  0.00  0.00    -0.070 Cl
ENDROOT
TORSDOF 0
ENDMDL
