MODEL 1
REMARK minimizedAffinity -4.12280798
REMARK minimizedRMSD -1
REMARK  0 active torsions:
REMARK  status: ('A' for Active; 'I' for Inactive)
ROOT
ATOM      1  C   UNL d   1      -1.389   0.446   0.876  0.00  0.00     0.020 A 
ATOM      2  C1  UNL d   1      -1.177  -0.924   0.730  0.00  0.00     0.020 A 
ATOM      3  C2  UNL d   1      -0.105  -1.387  -0.036  0.00  0.00     0.034 A 
ATOM      4  C3  UNL d   1       0.758  -0.479  -0.659  0.00  0.00     0.017 A 
ATOM      5  C4  UNL d   1       0.544   0.897  -0.512  0.00  0.00     0.017 A 
ATOM      6  C5  UNL d   1      -0.530   1.354   0.257  0.00  0.00     0.034 A 
ATOM      7 Cl   UNL d   1       1.567   2.078  -1.250  0.00  0.00    -0.070 Cl
ATOM      8 Cl1  UNL d   1       2.064  -1.121  -1.592  0.00  0.00    -0.070 Cl
ENDROOT
TORSDOF 0
ENDMDL
