MODEL 1
REMARK minimizedAffinity -3.90064478
REMARK minimizedRMSD -1
REMARK  0 active torsions:
REMARK  status: ('A' for Active; 'I' for Inactive)
ROOT
ATOM      1  C   UNL d   1      -0.877  -1.068  -0.126  0.00  0.00     0.020 A 
ATOM      2  C1  UNL d   1      -1.519   0.170  -0.133  0.00  0.00     0.020 A 
ATOM      3  C2  UNL d   1      -0.816   1.319  -0.502  0.00  0.00     0.034 A 
ATOM      4  C3  UNL d   1       0.533   1.233  -0.865  0.00  0.00     0.017 A 
ATOM      5  C4  UNL d   1       1.177  -0.010  -0.857  0.00  0.00     0.017 A 
ATOM      6  C5  UNL d   1       0.468  -1.157  -0.487  0.00  0.00     0.034 A 
ATOM      7 Cl   UNL d   1       2.839  -0.196  -1.293  0.00  0.00    -0.070 Cl
ATOM      8 Cl1  UNL d   1       1.340   2.694  -1.311  0.00  0.00    -0.070 Cl
ENDROOT
TORSDOF 0
ENDMDL
