MODEL 1
REMARK minimizedAffinity -3.91819358
REMARK minimizedRMSD -1
REMARK  0 active torsions:
REMARK  status: ('A' for Active; 'I' for Inactive)
ROOT
ATOM      1  C   UNL d   1      -1.132   0.701   0.062  0.00  0.00     0.020 A 
ATOM      2  C1  UNL d   1      -0.151   1.541  -0.464  0.00  0.00     0.020 A 
ATOM      3  C2  UNL d   1       1.102   1.026  -0.800  0.00  0.00     0.034 A 
ATOM      4  C3  UNL d   1       1.378  -0.334  -0.611  0.00  0.00     0.017 A 
ATOM      5  C4  UNL d   1       0.392  -1.176  -0.084  0.00  0.00     0.017 A 
ATOM      6  C5  UNL d   1      -0.861  -0.654   0.252  0.00  0.00     0.034 A 
ATOM      7 Cl   UNL d   1       0.658  -2.863   0.178  0.00  0.00    -0.070 Cl
ATOM      8 Cl1  UNL d   1       2.949  -0.903  -1.050  0.00  0.00    -0.070 Cl
ENDROOT
TORSDOF 0
ENDMDL
