MODEL 1
REMARK minimizedAffinity -1.78435457
REMARK minimizedRMSD -1
REMARK  0 active torsions:
REMARK  status: ('A' for Active; 'I' for Inactive)
ROOT
ATOM      1  C   UNL d   1      -1.634   0.940  -0.593  0.00  0.00     0.020 A 
ATOM      2  C1  UNL d   1      -1.134  -0.292  -0.174  0.00  0.00     0.020 A 
ATOM      3  C2  UNL d   1       0.238  -0.547  -0.237  0.00  0.00     0.034 A 
ATOM      4  C3  UNL d   1       1.114   0.431  -0.721  0.00  0.00     0.017 A 
ATOM      5  C4  UNL d   1       0.611   1.668  -1.142  0.00  0.00     0.017 A 
ATOM      6  C5  UNL d   1      -0.763   1.917  -1.076  0.00  0.00     0.034 A 
ATOM      7 Cl   UNL d   1       1.630   2.924  -1.751  0.00  0.00    -0.070 Cl
ATOM      8 Cl1  UNL d   1       2.798   0.048  -0.772  0.00  0.00    -0.070 Cl
ENDROOT
TORSDOF 0
ENDMDL
