MODEL 1
REMARK minimizedAffinity -4.00835276
REMARK minimizedRMSD -1
REMARK  0 active torsions:
REMARK  status: ('A' for Active; 'I' for Inactive)
ROOT
ATOM      1  C   UNL d   1       2.805   0.595  -2.121  0.00  0.00     0.020 A 
ATOM      2  C1  UNL d   1       2.881  -0.795  -2.201  0.00  0.00     0.020 A 
ATOM      3  C2  UNL d   1       1.966  -1.586  -1.503  0.00  0.00     0.034 A 
ATOM      4  C3  UNL d   1       0.971  -0.987  -0.722  0.00  0.00     0.017 A 
ATOM      5  C4  UNL d   1       0.895   0.408  -0.642  0.00  0.00     0.017 A 
ATOM      6  C5  UNL d   1       1.814   1.195  -1.343  0.00  0.00     0.034 A 
ATOM      7 Cl   UNL d   1      -0.305   1.219   0.301  0.00  0.00    -0.070 Cl
ATOM      8 Cl1  UNL d   1      -0.128  -2.026   0.114  0.00  0.00    -0.070 Cl
ENDROOT
TORSDOF 0
ENDMDL
