MODEL 1
REMARK minimizedAffinity -3.29629445
REMARK minimizedRMSD -1
REMARK  0 active torsions:
REMARK  status: ('A' for Active; 'I' for Inactive)
ROOT
ATOM      1  C   UNL d   1       1.851  -1.370  -1.378  0.00  0.00     0.020 A 
ATOM      2  C1  UNL d   1       1.529  -1.887  -0.123  0.00  0.00     0.020 A 
ATOM      3  C2  UNL d   1       0.687  -1.172   0.731  0.00  0.00     0.034 A 
ATOM      4  C3  UNL d   1       0.164   0.063   0.332  0.00  0.00     0.017 A 
ATOM      5  C4  UNL d   1       0.487   0.581  -0.927  0.00  0.00     0.017 A 
ATOM      6  C5  UNL d   1       1.331  -0.139  -1.779  0.00  0.00     0.034 A 
ATOM      7 Cl   UNL d   1      -0.120   2.098  -1.489  0.00  0.00    -0.070 Cl
ATOM      8 Cl1  UNL d   1      -0.871   0.892   1.440  0.00  0.00    -0.070 Cl
ENDROOT
TORSDOF 0
ENDMDL
