MODEL 1
REMARK minimizedAffinity -5.57670498
REMARK minimizedRMSD -1
REMARK  0 active torsions:
REMARK  status: ('A' for Active; 'I' for Inactive)
ROOT
ATOM      1  C   UNL d   1       2.564   0.187  -1.967  0.00  0.00     0.020 A 
ATOM      2  C1  UNL d   1       1.883   1.402  -2.035  0.00  0.00     0.020 A 
ATOM      3  C2  UNL d   1       0.647   1.547  -1.401  0.00  0.00     0.034 A 
ATOM      4  C3  UNL d   1       0.089   0.475  -0.696  0.00  0.00     0.017 A 
ATOM      5  C4  UNL d   1       0.773  -0.744  -0.628  0.00  0.00     0.017 A 
ATOM      6  C5  UNL d   1       2.010  -0.883  -1.265  0.00  0.00     0.034 A 
ATOM      7 Cl   UNL d   1       0.147  -2.112   0.223  0.00  0.00    -0.070 Cl
ATOM      8 Cl1  UNL d   1      -1.443   0.724   0.064  0.00  0.00    -0.070 Cl
ENDROOT
TORSDOF 0
ENDMDL
