MODEL 1
REMARK minimizedAffinity -0.568348169
REMARK minimizedRMSD -1
REMARK  0 active torsions:
REMARK  status: ('A' for Active; 'I' for Inactive)
ROOT
ATOM      1  C   UNL d   1      -1.438   1.510   0.535  0.00  0.00     0.124 A 
ATOM      2  C1  UNL d   1      -0.556   1.209  -0.494  0.00  0.00     0.062 A 
ATOM      3  C2  UNL d   1       0.119  -0.009  -0.504  0.00  0.00     0.162 A 
ATOM      4  C3  UNL d   1      -0.087  -0.936   0.518  0.00  0.00    -0.034 A 
ATOM      5  C4  UNL d   1      -0.975  -0.625   1.550  0.00  0.00     0.162 A 
ATOM      6  C5  UNL d   1      -1.646   0.593   1.555  0.00  0.00     0.062 A 
ATOM      7  F   UNL d   1      -2.498   0.882   2.550  0.00  0.00    -0.097 F 
ATOM      8  F1  UNL d   1      -1.196  -1.493   2.548  0.00  0.00    -0.096 F 
ATOM      9  I   UNL d   1       0.919  -2.757   0.508  0.00  0.00    -0.060 I 
ATOM     10  F2  UNL d   1       0.965  -0.273  -1.510  0.00  0.00    -0.096 F 
ATOM     11  F3  UNL d   1      -0.351   2.093  -1.481  0.00  0.00    -0.097 F 
ATOM     12  F4  UNL d   1      -2.084   2.683   0.542  0.00  0.00    -0.092 F 
ENDROOT
TORSDOF 0
ENDMDL
