MODEL 1
REMARK minimizedAffinity -3.19106436
REMARK minimizedRMSD -1
REMARK  0 active torsions:
REMARK  status: ('A' for Active; 'I' for Inactive)
ROOT
ATOM      1  C   UNL d   1       0.642  -0.749   1.077  0.00  0.00     0.124 A 
ATOM      2  C1  UNL d   1       1.169  -0.695  -0.206  0.00  0.00     0.062 A 
ATOM      3  C2  UNL d   1       0.473  -0.048  -1.223  0.00  0.00     0.162 A 
ATOM      4  C3  UNL d   1      -0.759   0.552  -0.960  0.00  0.00    -0.034 A 
ATOM      5  C4  UNL d   1      -1.283   0.494   0.332  0.00  0.00     0.162 A 
ATOM      6  C5  UNL d   1      -0.583  -0.154   1.345  0.00  0.00     0.062 A 
ATOM      7  F   UNL d   1      -1.093  -0.205   2.584  0.00  0.00    -0.097 F 
ATOM      8  F1  UNL d   1      -2.464   1.061   0.620  0.00  0.00    -0.096 F 
ATOM      9  I   UNL d   1      -1.803   1.521  -2.477  0.00  0.00    -0.060 I 
ATOM     10  F2  UNL d   1       1.006  -0.012  -2.453  0.00  0.00    -0.096 F 
ATOM     11  F3  UNL d   1       2.352  -1.270  -0.468  0.00  0.00    -0.097 F 
ATOM     12  F4  UNL d   1       1.314  -1.373   2.052  0.00  0.00    -0.092 F 
ENDROOT
TORSDOF 0
ENDMDL
