MODEL 1
REMARK minimizedAffinity 1.57508719
REMARK minimizedRMSD -1
REMARK  0 active torsions:
REMARK  status: ('A' for Active; 'I' for Inactive)
ROOT
ATOM      1  C   UNL d   1       0.751  -2.028   1.005  0.00  0.00     0.124 A 
ATOM      2  C1  UNL d   1      -0.409  -1.312   1.270  0.00  0.00     0.062 A 
ATOM      3  C2  UNL d   1      -0.731  -0.193   0.508  0.00  0.00     0.162 A 
ATOM      4  C3  UNL d   1       0.108   0.218  -0.528  0.00  0.00    -0.034 A 
ATOM      5  C4  UNL d   1       1.274  -0.506  -0.788  0.00  0.00     0.162 A 
ATOM      6  C5  UNL d   1       1.591  -1.624  -0.023  0.00  0.00     0.062 A 
ATOM      7  F   UNL d   1       2.712  -2.314  -0.281  0.00  0.00    -0.097 F 
ATOM      8  F1  UNL d   1       2.102  -0.139  -1.776  0.00  0.00    -0.096 F 
ATOM      9  I   UNL d   1      -0.369   1.891  -1.670  0.00  0.00    -0.060 I 
ATOM     10  F2  UNL d   1      -1.857   0.479   0.786  0.00  0.00    -0.096 F 
ATOM     11  F3  UNL d   1      -1.221  -1.700   2.264  0.00  0.00    -0.097 F 
ATOM     12  F4  UNL d   1       1.059  -3.104   1.741  0.00  0.00    -0.092 F 
ENDROOT
TORSDOF 0
ENDMDL
