MODEL 1
REMARK minimizedAffinity -2.88111424
REMARK minimizedRMSD -1
REMARK  0 active torsions:
REMARK  status: ('A' for Active; 'I' for Inactive)
ROOT
ATOM      1  C   UNL d   1      -0.061  -1.623   1.201  0.00  0.00     0.124 A 
ATOM      2  C1  UNL d   1      -0.856  -0.571   1.635  0.00  0.00     0.062 A 
ATOM      3  C2  UNL d   1      -1.136   0.493   0.782  0.00  0.00     0.162 A 
ATOM      4  C3  UNL d   1      -0.621   0.510  -0.514  0.00  0.00    -0.034 A 
ATOM      5  C4  UNL d   1       0.179  -0.551  -0.943  0.00  0.00     0.162 A 
ATOM      6  C5  UNL d   1       0.455  -1.612  -0.087  0.00  0.00     0.062 A 
ATOM      7  F   UNL d   1       1.224  -2.627  -0.507  0.00  0.00    -0.097 F 
ATOM      8  F1  UNL d   1       0.691  -0.566  -2.182  0.00  0.00    -0.096 F 
ATOM      9  I   UNL d   1      -1.036   2.100  -1.792  0.00  0.00    -0.060 I 
ATOM     10  F2  UNL d   1      -1.907   1.496   1.228  0.00  0.00    -0.096 F 
ATOM     11  F3  UNL d   1      -1.356  -0.579   2.879  0.00  0.00    -0.097 F 
ATOM     12  F4  UNL d   1       0.207  -2.645   2.024  0.00  0.00    -0.092 F 
ENDROOT
TORSDOF 0
ENDMDL
