MODEL 1
REMARK minimizedAffinity -3.55585742
REMARK minimizedRMSD -1
REMARK  0 active torsions:
REMARK  status: ('A' for Active; 'I' for Inactive)
ROOT
ATOM      1  C   UNL d   1       1.529  -2.032   0.864  0.00  0.00     0.124 A 
ATOM      2  C1  UNL d   1       2.294  -1.085   0.197  0.00  0.00     0.062 A 
ATOM      3  C2  UNL d   1       1.691   0.044  -0.350  0.00  0.00     0.162 A 
ATOM      4  C3  UNL d   1       0.314   0.233  -0.231  0.00  0.00    -0.034 A 
ATOM      5  C4  UNL d   1      -0.449  -0.724   0.441  0.00  0.00     0.162 A 
ATOM      6  C5  UNL d   1       0.159  -1.850   0.986  0.00  0.00     0.062 A 
ATOM      7  F   UNL d   1      -0.582  -2.763   1.631  0.00  0.00    -0.097 F 
ATOM      8  F1  UNL d   1      -1.775  -0.573   0.574  0.00  0.00    -0.096 F 
ATOM      9  I   UNL d   1      -0.593   1.919  -1.047  0.00  0.00    -0.060 I 
ATOM     10  F2  UNL d   1       2.454   0.942  -0.990  0.00  0.00    -0.096 F 
ATOM     11  F3  UNL d   1       3.618  -1.259   0.077  0.00  0.00    -0.097 F 
ATOM     12  F4  UNL d   1       2.112  -3.117   1.389  0.00  0.00    -0.092 F 
ENDROOT
TORSDOF 0
ENDMDL
