MODEL 1
REMARK minimizedAffinity -0.0760082453
REMARK minimizedRMSD -1
REMARK  0 active torsions:
REMARK  status: ('A' for Active; 'I' for Inactive)
ROOT
ATOM      1  C   UNL d   1       2.037  -0.749   0.163  0.00  0.00     0.124 A 
ATOM      2  C1  UNL d   1       0.957  -1.490   0.623  0.00  0.00     0.062 A 
ATOM      3  C2  UNL d   1      -0.332  -0.970   0.544  0.00  0.00     0.162 A 
ATOM      4  C3  UNL d   1      -0.548   0.297   0.002  0.00  0.00    -0.034 A 
ATOM      5  C4  UNL d   1       0.543   1.036  -0.457  0.00  0.00     0.162 A 
ATOM      6  C5  UNL d   1       1.829   0.513  -0.376  0.00  0.00     0.062 A 
ATOM      7  F   UNL d   1       2.872   1.230  -0.820  0.00  0.00    -0.097 F 
ATOM      8  F1  UNL d   1       0.371   2.258  -0.984  0.00  0.00    -0.096 F 
ATOM      9  I   UNL d   1      -2.474   1.076  -0.118  0.00  0.00    -0.060 I 
ATOM     10  F2  UNL d   1      -1.357  -1.708   0.995  0.00  0.00    -0.096 F 
ATOM     11  F3  UNL d   1       1.155  -2.708   1.145  0.00  0.00    -0.097 F 
ATOM     12  F4  UNL d   1       3.277  -1.250   0.242  0.00  0.00    -0.092 F 
ENDROOT
TORSDOF 0
ENDMDL
