MODEL 1
REMARK minimizedAffinity -2.31970739
REMARK minimizedRMSD -1
REMARK  0 active torsions:
REMARK  status: ('A' for Active; 'I' for Inactive)
ROOT
ATOM      1  C   UNL d   1       0.982  -2.265   0.784  0.00  0.00     0.124 A 
ATOM      2  C1  UNL d   1       1.724  -1.092   0.805  0.00  0.00     0.062 A 
ATOM      3  C2  UNL d   1       1.177   0.090   0.316  0.00  0.00     0.162 A 
ATOM      4  C3  UNL d   1      -0.120   0.106  -0.199  0.00  0.00    -0.034 A 
ATOM      5  C4  UNL d   1      -0.859  -1.078  -0.218  0.00  0.00     0.162 A 
ATOM      6  C5  UNL d   1      -0.308  -2.258   0.273  0.00  0.00     0.062 A 
ATOM      7  F   UNL d   1      -1.025  -3.390   0.252  0.00  0.00    -0.097 F 
ATOM      8  F1  UNL d   1      -2.108  -1.099  -0.706  0.00  0.00    -0.096 F 
ATOM      9  I   UNL d   1      -0.941   1.872  -0.932  0.00  0.00    -0.060 I 
ATOM     10  F2  UNL d   1       1.916   1.209   0.349  0.00  0.00    -0.096 F 
ATOM     11  F3  UNL d   1       2.971  -1.097   1.298  0.00  0.00    -0.097 F 
ATOM     12  F4  UNL d   1       1.511  -3.402   1.255  0.00  0.00    -0.092 F 
ENDROOT
TORSDOF 0
ENDMDL
