MODEL 1
REMARK minimizedAffinity 0.328109115
REMARK minimizedRMSD -1
REMARK  0 active torsions:
REMARK  status: ('A' for Active; 'I' for Inactive)
ROOT
ATOM      1  C   UNL d   1      -0.737   1.612   0.144  0.00  0.00     0.124 A 
ATOM      2  C1  UNL d   1       0.414   1.288  -0.562  0.00  0.00     0.062 A 
ATOM      3  C2  UNL d   1       1.008   0.040  -0.398  0.00  0.00     0.162 A 
ATOM      4  C3  UNL d   1       0.452  -0.895   0.476  0.00  0.00    -0.034 A 
ATOM      5  C4  UNL d   1      -0.704  -0.562   1.183  0.00  0.00     0.162 A 
ATOM      6  C5  UNL d   1      -1.294   0.687   1.016  0.00  0.00     0.062 A 
ATOM      7  F   UNL d   1      -2.406   0.997   1.699  0.00  0.00    -0.097 F 
ATOM      8  F1  UNL d   1      -1.265  -1.437   2.031  0.00  0.00    -0.096 F 
ATOM      9  I   UNL d   1       1.338  -2.762   0.723  0.00  0.00    -0.060 I 
ATOM     10  F2  UNL d   1       2.119  -0.245  -1.093  0.00  0.00    -0.096 F 
ATOM     11  F3  UNL d   1       0.955   2.180  -1.403  0.00  0.00    -0.097 F 
ATOM     12  F4  UNL d   1      -1.306   2.813  -0.014  0.00  0.00    -0.092 F 
ENDROOT
TORSDOF 0
ENDMDL
