MODEL 1
REMARK minimizedAffinity -1.25472558
REMARK minimizedRMSD -1
REMARK  0 active torsions:
REMARK  status: ('A' for Active; 'I' for Inactive)
ROOT
ATOM      1  C   UNL d   1       0.857  -1.757   0.850  0.00  0.00     0.124 A 
ATOM      2  C1  UNL d   1       1.755  -1.190  -0.044  0.00  0.00     0.062 A 
ATOM      3  C2  UNL d   1       1.401  -0.055  -0.767  0.00  0.00     0.162 A 
ATOM      4  C3  UNL d   1       0.142   0.522  -0.599  0.00  0.00    -0.034 A 
ATOM      5  C4  UNL d   1      -0.756  -0.054   0.301  0.00  0.00     0.162 A 
ATOM      6  C5  UNL d   1      -0.397  -1.188   1.022  0.00  0.00     0.062 A 
ATOM      7  F   UNL d   1      -1.266  -1.734   1.885  0.00  0.00    -0.097 F 
ATOM      8  F1  UNL d   1      -1.974   0.475   0.487  0.00  0.00    -0.096 F 
ATOM      9  I   UNL d   1      -0.391   2.219  -1.679  0.00  0.00    -0.060 I 
ATOM     10  F2  UNL d   1       2.289   0.471  -1.624  0.00  0.00    -0.096 F 
ATOM     11  F3  UNL d   1       2.968  -1.738  -0.212  0.00  0.00    -0.097 F 
ATOM     12  F4  UNL d   1       1.201  -2.849   1.544  0.00  0.00    -0.092 F 
ENDROOT
TORSDOF 0
ENDMDL
