MODEL 1
REMARK minimizedAffinity -3.65067506
REMARK minimizedRMSD -1
REMARK  0 active torsions:
REMARK  status: ('A' for Active; 'I' for Inactive)
ROOT
ATOM      1  C   UNL d   1       0.909  -2.106   1.014  0.00  0.00     0.124 A 
ATOM      2  C1  UNL d   1      -0.359  -1.630   1.318  0.00  0.00     0.062 A 
ATOM      3  C2  UNL d   1      -0.875  -0.530   0.638  0.00  0.00     0.162 A 
ATOM      4  C3  UNL d   1      -0.123   0.100  -0.354  0.00  0.00    -0.034 A 
ATOM      5  C4  UNL d   1       1.151  -0.385  -0.653  0.00  0.00     0.162 A 
ATOM      6  C5  UNL d   1       1.663  -1.484   0.030  0.00  0.00     0.062 A 
ATOM      7  F   UNL d   1       2.888  -1.943  -0.265  0.00  0.00    -0.097 F 
ATOM      8  F1  UNL d   1       1.901   0.197  -1.601  0.00  0.00    -0.096 F 
ATOM      9  I   UNL d   1      -0.891   1.744  -1.374  0.00  0.00    -0.060 I 
ATOM     10  F2  UNL d   1      -2.103  -0.091   0.952  0.00  0.00    -0.096 F 
ATOM     11  F3  UNL d   1      -1.089  -2.229   2.270  0.00  0.00    -0.097 F 
ATOM     12  F4  UNL d   1       1.403  -3.164   1.671  0.00  0.00    -0.092 F 
ENDROOT
TORSDOF 0
ENDMDL
