MODEL 1
REMARK minimizedAffinity 5.06132984
REMARK minimizedRMSD -1
REMARK  0 active torsions:
REMARK  status: ('A' for Active; 'I' for Inactive)
ROOT
ATOM      1  C   UNL d   1      -0.834   1.278   0.490  0.00  0.00     0.124 A 
ATOM      2  C1  UNL d   1       0.372   1.091  -0.171  0.00  0.00     0.062 A 
ATOM      3  C2  UNL d   1       1.180   0.002   0.142  0.00  0.00     0.162 A 
ATOM      4  C3  UNL d   1       0.784  -0.910   1.121  0.00  0.00    -0.034 A 
ATOM      5  C4  UNL d   1      -0.430  -0.715   1.782  0.00  0.00     0.162 A 
ATOM      6  C5  UNL d   1      -1.233   0.376   1.465  0.00  0.00     0.062 A 
ATOM      7  F   UNL d   1      -2.398   0.555   2.105  0.00  0.00    -0.097 F 
ATOM      8  F1  UNL d   1      -0.841  -1.572   2.727  0.00  0.00    -0.096 F 
ATOM      9  I   UNL d   1       1.990  -2.540   1.591  0.00  0.00    -0.060 I 
ATOM     10  F2  UNL d   1       2.341  -0.154  -0.512  0.00  0.00    -0.096 F 
ATOM     11  F3  UNL d   1       0.761   1.963  -1.112  0.00  0.00    -0.097 F 
ATOM     12  F4  UNL d   1      -1.609   2.328   0.188  0.00  0.00    -0.092 F 
ENDROOT
TORSDOF 0
ENDMDL
