MODEL 1
REMARK minimizedAffinity -0.925267756
REMARK minimizedRMSD -1
REMARK  0 active torsions:
REMARK  status: ('A' for Active; 'I' for Inactive)
ROOT
ATOM      1  C   UNL d   1      -0.953   1.489  -0.254  0.00  0.00     0.124 A 
ATOM      2  C1  UNL d   1       0.104   0.932  -0.961  0.00  0.00     0.062 A 
ATOM      3  C2  UNL d   1       0.734  -0.216  -0.489  0.00  0.00     0.162 A 
ATOM      4  C3  UNL d   1       0.308  -0.816   0.696  0.00  0.00    -0.034 A 
ATOM      5  C4  UNL d   1      -0.755  -0.250   1.402  0.00  0.00     0.162 A 
ATOM      6  C5  UNL d   1      -1.381   0.898   0.926  0.00  0.00     0.062 A 
ATOM      7  F   UNL d   1      -2.402   1.434   1.610  0.00  0.00    -0.097 F 
ATOM      8  F1  UNL d   1      -1.190  -0.801   2.544  0.00  0.00    -0.096 F 
ATOM      9  I   UNL d   1       1.248  -2.532   1.405  0.00  0.00    -0.060 I 
ATOM     10  F2  UNL d   1       1.753  -0.732  -1.193  0.00  0.00    -0.096 F 
ATOM     11  F3  UNL d   1       0.520   1.502  -2.101  0.00  0.00    -0.097 F 
ATOM     12  F4  UNL d   1      -1.557   2.594  -0.710  0.00  0.00    -0.092 F 
ENDROOT
TORSDOF 0
ENDMDL
