MODEL 1
REMARK minimizedAffinity -0.101207465
REMARK minimizedRMSD -1
REMARK  0 active torsions:
REMARK  status: ('A' for Active; 'I' for Inactive)
ROOT
ATOM      1  C   UNL d   1      -1.469   1.632  -0.550  0.00  0.00     0.124 A 
ATOM      2  C1  UNL d   1      -0.635   1.100  -1.524  0.00  0.00     0.062 A 
ATOM      3  C2  UNL d   1       0.236   0.062  -1.208  0.00  0.00     0.162 A 
ATOM      4  C3  UNL d   1       0.278  -0.453   0.087  0.00  0.00    -0.034 A 
ATOM      5  C4  UNL d   1      -0.563   0.087   1.062  0.00  0.00     0.162 A 
ATOM      6  C5  UNL d   1      -1.432   1.125   0.741  0.00  0.00     0.062 A 
ATOM      7  F   UNL d   1      -2.237   1.637   1.683  0.00  0.00    -0.097 F 
ATOM      8  F1  UNL d   1      -0.549  -0.384   2.317  0.00  0.00    -0.096 F 
ATOM      9  I   UNL d   1       1.579  -2.006   0.563  0.00  0.00    -0.060 I 
ATOM     10  F2  UNL d   1       1.031  -0.433  -2.169  0.00  0.00    -0.096 F 
ATOM     11  F3  UNL d   1      -0.668   1.588  -2.772  0.00  0.00    -0.097 F 
ATOM     12  F4  UNL d   1      -2.306   2.631  -0.856  0.00  0.00    -0.092 F 
ENDROOT
TORSDOF 0
ENDMDL
