MODEL 1
REMARK minimizedAffinity 2.84503102
REMARK minimizedRMSD -1
REMARK  0 active torsions:
REMARK  status: ('A' for Active; 'I' for Inactive)
ROOT
ATOM      1  C   UNL d   1       1.428  -0.883   0.488  0.00  0.00     0.124 A 
ATOM      2  C1  UNL d   1       1.369   0.445   0.088  0.00  0.00     0.062 A 
ATOM      3  C2  UNL d   1       0.224   0.940  -0.530  0.00  0.00     0.162 A 
ATOM      4  C3  UNL d   1      -0.872   0.107  -0.751  0.00  0.00    -0.034 A 
ATOM      5  C4  UNL d   1      -0.806  -1.228  -0.347  0.00  0.00     0.162 A 
ATOM      6  C5  UNL d   1       0.341  -1.718   0.270  0.00  0.00     0.062 A 
ATOM      7  F   UNL d   1       0.396  -3.001   0.656  0.00  0.00    -0.097 F 
ATOM      8  F1  UNL d   1      -1.842  -2.057  -0.544  0.00  0.00    -0.096 F 
ATOM      9  I   UNL d   1      -2.586   0.843  -1.674  0.00  0.00    -0.060 I 
ATOM     10  F2  UNL d   1       0.195   2.227  -0.906  0.00  0.00    -0.096 F 
ATOM     11  F3  UNL d   1       2.418   1.253   0.296  0.00  0.00    -0.097 F 
ATOM     12  F4  UNL d   1       2.531  -1.357   1.081  0.00  0.00    -0.092 F 
ENDROOT
TORSDOF 0
ENDMDL
