MODEL 1
REMARK minimizedAffinity -0.197104737
REMARK minimizedRMSD -1
REMARK  0 active torsions:
REMARK  status: ('A' for Active; 'I' for Inactive)
ROOT
ATOM      1  C   UNL d   1       0.484  -1.332   1.262  0.00  0.00     0.124 A 
ATOM      2  C1  UNL d   1       1.168  -1.096   0.078  0.00  0.00     0.062 A 
ATOM      3  C2  UNL d   1       0.719  -0.120  -0.807  0.00  0.00     0.162 A 
ATOM      4  C3  UNL d   1      -0.420   0.629  -0.511  0.00  0.00    -0.034 A 
ATOM      5  C4  UNL d   1      -1.104   0.385   0.682  0.00  0.00     0.162 A 
ATOM      6  C5  UNL d   1      -0.651  -0.591   1.563  0.00  0.00     0.062 A 
ATOM      7  F   UNL d   1      -1.313  -0.818   2.707  0.00  0.00    -0.097 F 
ATOM      8  F1  UNL d   1      -2.202   1.086   0.998  0.00  0.00    -0.096 F 
ATOM      9  I   UNL d   1      -1.095   2.089  -1.831  0.00  0.00    -0.060 I 
ATOM     10  F2  UNL d   1       1.399   0.087  -1.944  0.00  0.00    -0.096 F 
ATOM     11  F3  UNL d   1       2.263  -1.810  -0.216  0.00  0.00    -0.097 F 
ATOM     12  F4  UNL d   1       0.917  -2.272   2.112  0.00  0.00    -0.092 F 
ENDROOT
TORSDOF 0
ENDMDL
