MODEL 1
REMARK minimizedAffinity 0.561363757
REMARK minimizedRMSD -1
REMARK  2 active torsions:
REMARK  status: ('A' for Active; 'I' for Inactive)
REMARK    1  A    between atoms: C2'_3  and  C1'_4 
REMARK    2  A    between atoms: C1'_4  and  C1_5 
ROOT
ATOM      1  C1  I4B d   1       1.678   3.815  -5.993  0.00  0.00    -0.075 A 
ATOM      2  C2  I4B d   1       1.739   5.186  -6.000  0.00  0.00     0.003 A 
ATOM      3  C3  I4B d   1       2.993   5.844  -5.998  0.00  0.00     0.002 A 
ATOM      4  C4  I4B d   1       4.152   5.098  -5.939  0.00  0.00    -0.004 A 
ATOM      5  C5  I4B d   1       4.089   3.707  -5.956  0.00  0.00     0.002 A 
ATOM      6  C6  I4B d   1       2.845   3.061  -5.995  0.00  0.00     0.003 A 
ENDROOT
BRANCH   1   7
ATOM      7  C1' I4B d   1       0.337   3.153  -5.962  0.00  0.00     0.060 C 
BRANCH   7   8
ATOM      8  C2' I4B d   1      -0.712   4.232  -5.789  0.00  0.00    -0.013 C 
ATOM      9  C4' I4B d   1      -2.099   3.683  -6.000  0.00  0.00     0.013 C 
ATOM     10  C3' I4B d   1      -0.561   4.809  -4.413  0.00  0.00     0.013 C 
ENDBRANCH   7   8
ENDBRANCH   1   7
TORSDOF 2
ENDMDL
