MODEL 1
REMARK minimizedAffinity 5.08250809
REMARK minimizedRMSD -1
REMARK  2 active torsions:
REMARK  status: ('A' for Active; 'I' for Inactive)
REMARK    1  A    between atoms: C2'_3  and  C1'_4 
REMARK    2  A    between atoms: C1'_4  and  C1_5 
ROOT
ATOM      1  C1  I4B d   1      -0.678  -1.130  -1.995  0.00  0.00    -0.075 A 
ATOM      2  C2  I4B d   1      -1.451  -2.263  -1.942  0.00  0.00     0.003 A 
ATOM      3  C3  I4B d   1      -1.031  -3.443  -2.603  0.00  0.00     0.002 A 
ATOM      4  C4  I4B d   1       0.134  -3.431  -3.342  0.00  0.00    -0.004 A 
ATOM      5  C5  I4B d   1       0.927  -2.287  -3.376  0.00  0.00     0.002 A 
ATOM      6  C6  I4B d   1       0.525  -1.133  -2.688  0.00  0.00     0.003 A 
ENDROOT
BRANCH   1   7
ATOM      7  C1' I4B d   1      -1.168   0.108  -1.313  0.00  0.00     0.060 C 
BRANCH   7   8
ATOM      8  C2' I4B d   1      -0.028   0.666  -0.484  0.00  0.00    -0.013 C 
ATOM      9  C4' I4B d   1       0.439   1.992  -1.022  0.00  0.00     0.013 C 
ATOM     10  C3' I4B d   1      -0.505   0.793   0.932  0.00  0.00     0.013 C 
ENDBRANCH   7   8
ENDBRANCH   1   7
TORSDOF 2
ENDMDL
