MODEL 1
REMARK minimizedAffinity 5.48201895
REMARK minimizedRMSD -1
REMARK  2 active torsions:
REMARK  status: ('A' for Active; 'I' for Inactive)
REMARK    1  A    between atoms: C2'_3  and  C1'_4 
REMARK    2  A    between atoms: C1'_4  and  C1_5 
ROOT
ATOM      1  C1  I4B d   1      -1.914   4.516  -5.806  0.00  0.00    -0.075 A 
ATOM      2  C2  I4B d   1      -2.460   5.737  -5.497  0.00  0.00     0.003 A 
ATOM      3  C3  I4B d   1      -3.860   5.872  -5.337  0.00  0.00     0.002 A 
ATOM      4  C4  I4B d   1      -4.676   4.778  -5.544  0.00  0.00    -0.004 A 
ATOM      5  C5  I4B d   1      -4.119   3.536  -5.835  0.00  0.00     0.002 A 
ATOM      6  C6  I4B d   1      -2.728   3.401  -5.955  0.00  0.00     0.003 A 
ENDROOT
BRANCH   1   7
ATOM      7  C1' I4B d   1      -0.434   4.417  -6.000  0.00  0.00     0.060 C 
BRANCH   7   8
ATOM      8  C2' I4B d   1       0.045   3.159  -5.304  0.00  0.00    -0.013 C 
ATOM      9  C4' I4B d   1       1.295   2.621  -5.948  0.00  0.00     0.013 C 
ATOM     10  C3' I4B d   1       0.279   3.489  -3.860  0.00  0.00     0.013 C 
ENDBRANCH   7   8
ENDBRANCH   1   7
TORSDOF 2
ENDMDL
