MODEL 1
REMARK minimizedAffinity 11.6538038
REMARK minimizedRMSD -1
REMARK  2 active torsions:
REMARK  status: ('A' for Active; 'I' for Inactive)
REMARK    1  A    between atoms: C2'_3  and  C1'_4 
REMARK    2  A    between atoms: C1'_4  and  C1_5 
ROOT
ATOM      1  C1  I4B d   1      -1.996  -0.607  -0.326  0.00  0.00    -0.075 A 
ATOM      2  C2  I4B d   1      -0.654  -0.721  -0.058  0.00  0.00     0.003 A 
ATOM      3  C3  I4B d   1      -0.028   0.177   0.840  0.00  0.00     0.002 A 
ATOM      4  C4  I4B d   1      -0.765   1.199   1.404  0.00  0.00    -0.004 A 
ATOM      5  C5  I4B d   1      -2.130   1.299   1.148  0.00  0.00     0.002 A 
ATOM      6  C6  I4B d   1      -2.752   0.383   0.288  0.00  0.00     0.003 A 
ENDROOT
BRANCH   1   7
ATOM      7  C1' I4B d   1      -2.618  -1.552  -1.305  0.00  0.00     0.060 C 
BRANCH   7   8
ATOM      8  C2' I4B d   1      -2.083  -2.940  -1.017  0.00  0.00    -0.013 C 
ATOM      9  C4' I4B d   1      -3.205  -3.922  -0.801  0.00  0.00     0.013 C 
ATOM     10  C3' I4B d   1      -1.219  -3.351  -2.171  0.00  0.00     0.013 C 
ENDBRANCH   7   8
ENDBRANCH   1   7
TORSDOF 2
ENDMDL
