MODEL 1
REMARK minimizedAffinity -0.431106359
REMARK minimizedRMSD -1
REMARK  2 active torsions:
REMARK  status: ('A' for Active; 'I' for Inactive)
REMARK    1  A    between atoms: C2'_3  and  C1'_4 
REMARK    2  A    between atoms: C1'_4  and  C1_5 
ROOT
ATOM      1  C1  I4B d   1       0.539   3.165  -5.960  0.00  0.00    -0.075 A 
ATOM      2  C2  I4B d   1       1.519   2.204  -5.936  0.00  0.00     0.003 A 
ATOM      3  C3  I4B d   1       2.885   2.578  -5.929  0.00  0.00     0.002 A 
ATOM      4  C4  I4B d   1       3.224   3.914  -5.998  0.00  0.00    -0.004 A 
ATOM      5  C5  I4B d   1       2.229   4.888  -5.999  0.00  0.00     0.002 A 
ATOM      6  C6  I4B d   1       0.878   4.512  -5.968  0.00  0.00     0.003 A 
ENDROOT
BRANCH   1   7
ATOM      7  C1' I4B d   1      -0.892   2.734  -6.000  0.00  0.00     0.060 C 
BRANCH   7   8
ATOM      8  C2' I4B d   1      -1.757   3.971  -5.870  0.00  0.00    -0.013 C 
ATOM      9  C4' I4B d   1      -3.218   3.632  -5.999  0.00  0.00     0.013 C 
ATOM     10  C3' I4B d   1      -1.463   4.604  -4.542  0.00  0.00     0.013 C 
ENDBRANCH   7   8
ENDBRANCH   1   7
TORSDOF 2
ENDMDL
