MODEL 1
REMARK minimizedAffinity -1.16184938
REMARK minimizedRMSD -1
REMARK  2 active torsions:
REMARK  status: ('A' for Active; 'I' for Inactive)
REMARK    1  A    between atoms: C2'_3  and  C1'_4 
REMARK    2  A    between atoms: C1'_4  and  C1_5 
ROOT
ATOM      1  C1  I4B d   1       2.736   3.435  -5.920  0.00  0.00    -0.075 A 
ATOM      2  C2  I4B d   1       2.225   2.172  -5.750  0.00  0.00     0.003 A 
ATOM      3  C3  I4B d   1       0.826   1.979  -5.640  0.00  0.00     0.002 A 
ATOM      4  C4  I4B d   1      -0.015   3.072  -5.655  0.00  0.00    -0.004 A 
ATOM      5  C5  I4B d   1       0.504   4.349  -5.850  0.00  0.00     0.002 A 
ATOM      6  C6  I4B d   1       1.887   4.531  -5.996  0.00  0.00     0.003 A 
ENDROOT
BRANCH   1   7
ATOM      7  C1' I4B d   1       4.220   3.607  -5.999  0.00  0.00     0.060 C 
BRANCH   7   8
ATOM      8  C2' I4B d   1       4.601   4.784  -5.124  0.00  0.00    -0.013 C 
ATOM      9  C4' I4B d   1       5.898   4.530  -4.403  0.00  0.00     0.013 C 
ATOM     10  C3' I4B d   1       4.695   5.999  -5.997  0.00  0.00     0.013 C 
ENDBRANCH   7   8
ENDBRANCH   1   7
TORSDOF 2
ENDMDL
