MODEL 1
REMARK minimizedAffinity -2.45210981
REMARK minimizedRMSD -1
REMARK  2 active torsions:
REMARK  status: ('A' for Active; 'I' for Inactive)
REMARK    1  A    between atoms: C2'_3  and  C1'_4 
REMARK    2  A    between atoms: C1'_4  and  C1_5 
ROOT
ATOM      1  C1  I4B d   1      -0.867   4.094  -5.920  0.00  0.00    -0.075 A 
ATOM      2  C2  I4B d   1      -1.647   5.218  -5.808  0.00  0.00     0.003 A 
ATOM      3  C3  I4B d   1      -3.058   5.105  -5.775  0.00  0.00     0.002 A 
ATOM      4  C4  I4B d   1      -3.644   3.862  -5.907  0.00  0.00    -0.004 A 
ATOM      5  C5  I4B d   1      -2.851   2.722  -5.998  0.00  0.00     0.002 A 
ATOM      6  C6  I4B d   1      -1.453   2.837  -5.992  0.00  0.00     0.003 A 
ENDROOT
BRANCH   1   7
ATOM      7  C1' I4B d   1       0.619   4.253  -5.985  0.00  0.00     0.060 C 
BRANCH   7   8
ATOM      8  C2' I4B d   1       1.243   2.884  -5.806  0.00  0.00    -0.013 C 
ATOM      9  C4' I4B d   1       2.736   2.935  -6.000  0.00  0.00     0.013 C 
ATOM     10  C3' I4B d   1       0.892   2.390  -4.435  0.00  0.00     0.013 C 
ENDBRANCH   7   8
ENDBRANCH   1   7
TORSDOF 2
ENDMDL
