MODEL 1
REMARK minimizedAffinity 9.79357815
REMARK minimizedRMSD -1
REMARK  2 active torsions:
REMARK  status: ('A' for Active; 'I' for Inactive)
REMARK    1  A    between atoms: C2'_3  and  C1'_4 
REMARK    2  A    between atoms: C1'_4  and  C1_5 
ROOT
ATOM      1  C1  I4B d   1      -0.480  -3.420  -2.839  0.00  0.00    -0.075 A 
ATOM      2  C2  I4B d   1       0.370  -3.079  -1.817  0.00  0.00     0.003 A 
ATOM      3  C3  I4B d   1       1.753  -2.906  -2.068  0.00  0.00     0.002 A 
ATOM      4  C4  I4B d   1       2.247  -3.131  -3.336  0.00  0.00    -0.004 A 
ATOM      5  C5  I4B d   1       1.380  -3.455  -4.376  0.00  0.00     0.002 A 
ATOM      6  C6  I4B d   1       0.006  -3.588  -4.129  0.00  0.00     0.003 A 
ENDROOT
BRANCH   1   7
ATOM      7  C1' I4B d   1      -1.930  -3.626  -2.533  0.00  0.00     0.060 C 
BRANCH   7   8
ATOM      8  C2' I4B d   1      -2.239  -2.910  -1.234  0.00  0.00    -0.013 C 
ATOM      9  C4' I4B d   1      -2.603  -1.470  -1.479  0.00  0.00     0.013 C 
ATOM     10  C3' I4B d   1      -3.357  -3.644  -0.555  0.00  0.00     0.013 C 
ENDBRANCH   7   8
ENDBRANCH   1   7
TORSDOF 2
ENDMDL
