MODEL 1
REMARK minimizedAffinity 0.962040067
REMARK minimizedRMSD -1
REMARK  2 active torsions:
REMARK  status: ('A' for Active; 'I' for Inactive)
REMARK    1  A    between atoms: C2'_3  and  C1'_4 
REMARK    2  A    between atoms: C1'_4  and  C1_5 
ROOT
ATOM      1  C1  I4B d   1       0.583   4.060  -5.993  0.00  0.00    -0.075 A 
ATOM      2  C2  I4B d   1       1.289   5.236  -5.999  0.00  0.00     0.003 A 
ATOM      3  C3  I4B d   1       2.705   5.218  -6.000  0.00  0.00     0.002 A 
ATOM      4  C4  I4B d   1       3.369   4.009  -5.945  0.00  0.00    -0.004 A 
ATOM      5  C5  I4B d   1       2.651   2.817  -5.962  0.00  0.00     0.002 A 
ATOM      6  C6  I4B d   1       1.250   2.841  -5.999  0.00  0.00     0.003 A 
ENDROOT
BRANCH   1   7
ATOM      7  C1' I4B d   1      -0.912   4.116  -5.959  0.00  0.00     0.060 C 
BRANCH   7   8
ATOM      8  C2' I4B d   1      -1.316   5.519  -5.554  0.00  0.00    -0.013 C 
ATOM      9  C4' I4B d   1      -2.721   5.831  -6.000  0.00  0.00     0.013 C 
ATOM     10  C3' I4B d   1      -1.184   5.628  -4.065  0.00  0.00     0.013 C 
ENDBRANCH   7   8
ENDBRANCH   1   7
TORSDOF 2
ENDMDL
