MODEL 1
REMARK minimizedAffinity -0.242708281
REMARK minimizedRMSD -1
REMARK  2 active torsions:
REMARK  status: ('A' for Active; 'I' for Inactive)
REMARK    1  A    between atoms: C2'_3  and  C1'_4 
REMARK    2  A    between atoms: C1'_4  and  C1_5 
ROOT
ATOM      1  C1  I4B d   1       1.814   5.286  -5.960  0.00  0.00    -0.075 A 
ATOM      2  C2  I4B d   1       1.829   3.914  -5.998  0.00  0.00     0.003 A 
ATOM      3  C3  I4B d   1       3.060   3.214  -5.993  0.00  0.00     0.002 A 
ATOM      4  C4  I4B d   1       4.244   3.922  -6.000  0.00  0.00    -0.004 A 
ATOM      5  C5  I4B d   1       4.227   5.312  -5.938  0.00  0.00     0.002 A 
ATOM      6  C6  I4B d   1       3.005   5.999  -5.905  0.00  0.00     0.003 A 
ENDROOT
BRANCH   1   7
ATOM      7  C1' I4B d   1       0.497   5.993  -6.000  0.00  0.00     0.060 C 
BRANCH   7   8
ATOM      8  C2' I4B d   1      -0.593   4.965  -5.774  0.00  0.00    -0.013 C 
ATOM      9  C4' I4B d   1      -0.407   4.254  -4.460  0.00  0.00     0.013 C 
ATOM     10  C3' I4B d   1      -1.914   5.672  -5.825  0.00  0.00     0.013 C 
ENDBRANCH   7   8
ENDBRANCH   1   7
TORSDOF 2
ENDMDL
