MODEL 1
REMARK minimizedAffinity -1.53970373
REMARK minimizedRMSD -1
REMARK  2 active torsions:
REMARK  status: ('A' for Active; 'I' for Inactive)
REMARK    1  A    between atoms: C2'_3  and  C1'_4 
REMARK    2  A    between atoms: C1'_4  and  C1_5 
ROOT
ATOM      1  C1  I4B d   1       2.190   4.160  -5.996  0.00  0.00    -0.075 A 
ATOM      2  C2  I4B d   1       1.190   3.221  -5.995  0.00  0.00     0.003 A 
ATOM      3  C3  I4B d   1      -0.167   3.625  -5.984  0.00  0.00     0.002 A 
ATOM      4  C4  I4B d   1      -0.476   4.969  -5.922  0.00  0.00    -0.004 A 
ATOM      5  C5  I4B d   1       0.540   5.920  -5.946  0.00  0.00     0.002 A 
ATOM      6  C6  I4B d   1       1.881   5.514  -5.995  0.00  0.00     0.003 A 
ENDROOT
BRANCH   1   7
ATOM      7  C1' I4B d   1       3.613   3.698  -5.975  0.00  0.00     0.060 C 
BRANCH   7   8
ATOM      8  C2' I4B d   1       4.422   4.713  -5.193  0.00  0.00    -0.013 C 
ATOM      9  C4' I4B d   1       5.826   4.223  -4.953  0.00  0.00     0.013 C 
ATOM     10  C3' I4B d   1       4.422   5.999  -5.966  0.00  0.00     0.013 C 
ENDBRANCH   7   8
ENDBRANCH   1   7
TORSDOF 2
ENDMDL
