MODEL 1
REMARK minimizedAffinity 1.60964036
REMARK minimizedRMSD -1
REMARK  2 active torsions:
REMARK  status: ('A' for Active; 'I' for Inactive)
REMARK    1  A    between atoms: C2'_3  and  C1'_4 
REMARK    2  A    between atoms: C1'_4  and  C1_5 
ROOT
ATOM      1  C1  I4B d   1       1.801   4.712  -5.956  0.00  0.00    -0.075 A 
ATOM      2  C2  I4B d   1       2.641   5.798  -5.970  0.00  0.00     0.003 A 
ATOM      3  C3  I4B d   1       4.044   5.613  -5.985  0.00  0.00     0.002 A 
ATOM      4  C4  I4B d   1       4.562   4.335  -5.934  0.00  0.00    -0.004 A 
ATOM      5  C5  I4B d   1       3.709   3.235  -5.943  0.00  0.00     0.002 A 
ATOM      6  C6  I4B d   1       2.320   3.424  -5.966  0.00  0.00     0.003 A 
ENDROOT
BRANCH   1   7
ATOM      7  C1' I4B d   1       0.324   4.944  -5.907  0.00  0.00     0.060 C 
BRANCH   7   8
ATOM      8  C2' I4B d   1      -0.362   3.593  -5.924  0.00  0.00    -0.013 C 
ATOM      9  C4' I4B d   1       0.045   2.760  -4.737  0.00  0.00     0.013 C 
ATOM     10  C3' I4B d   1      -1.843   3.825  -5.940  0.00  0.00     0.013 C 
ENDBRANCH   7   8
ENDBRANCH   1   7
TORSDOF 2
ENDMDL
