MODEL 1
REMARK minimizedAffinity -1.47497106
REMARK minimizedRMSD -1
REMARK  2 active torsions:
REMARK  status: ('A' for Active; 'I' for Inactive)
REMARK    1  A    between atoms: C2'_3  and  C1'_4 
REMARK    2  A    between atoms: C1'_4  and  C1_5 
ROOT
ATOM      1  C1  I4B d   1      -0.420   3.845  -5.996  0.00  0.00    -0.075 A 
ATOM      2  C2  I4B d   1      -0.575   2.481  -6.000  0.00  0.00     0.003 A 
ATOM      3  C3  I4B d   1      -1.870   1.910  -5.997  0.00  0.00     0.002 A 
ATOM      4  C4  I4B d   1      -2.976   2.735  -5.939  0.00  0.00    -0.004 A 
ATOM      5  C5  I4B d   1      -2.818   4.117  -5.958  0.00  0.00     0.002 A 
ATOM      6  C6  I4B d   1      -1.532   4.676  -5.999  0.00  0.00     0.003 A 
ENDROOT
BRANCH   1   7
ATOM      7  C1' I4B d   1       0.963   4.413  -5.966  0.00  0.00     0.060 C 
BRANCH   7   8
ATOM      8  C2' I4B d   1       1.937   3.264  -5.800  0.00  0.00    -0.013 C 
ATOM      9  C4' I4B d   1       3.360   3.727  -5.965  0.00  0.00     0.013 C 
ATOM     10  C3' I4B d   1       1.717   2.663  -4.444  0.00  0.00     0.013 C 
ENDBRANCH   7   8
ENDBRANCH   1   7
TORSDOF 2
ENDMDL
