MODEL 1
REMARK minimizedAffinity -3.69291067
REMARK minimizedRMSD -1
REMARK  0 active torsions:
REMARK  status: ('A' for Active; 'I' for Inactive)
ROOT
ATOM      1  C   UNL d   1      -0.314  -0.681  -0.508  0.00  0.00     0.172 C 
ATOM      2  N   UNL d   1      -0.324   0.280   0.569  0.00  0.00    -0.070 N 
ATOM      3  C1  UNL d   1       0.453   0.225   1.696  0.00  0.00    -0.004 A 
ATOM      4  C2  UNL d   1       0.149   1.322   2.473  0.00  0.00    -0.047 A 
ATOM      5  C3  UNL d   1      -0.846   2.061   1.790  0.00  0.00    -0.047 A 
ATOM      6  C4  UNL d   1      -1.120   1.394   0.615  0.00  0.00    -0.004 A 
ENDROOT
TORSDOF 0
ENDMDL
