MODEL 1
REMARK minimizedAffinity -3.67870188
REMARK minimizedRMSD -1
REMARK  0 active torsions:
REMARK  status: ('A' for Active; 'I' for Inactive)
ROOT
ATOM      1  C   UNL d   1      -1.083   1.903   1.094  0.00  0.00     0.172 C 
ATOM      2  N   UNL d   1      -0.995   1.219  -0.175  0.00  0.00    -0.070 N 
ATOM      3  C1  UNL d   1      -0.744   1.810  -1.384  0.00  0.00    -0.004 A 
ATOM      4  C2  UNL d   1      -0.739   0.821  -2.344  0.00  0.00    -0.047 A 
ATOM      5  C3  UNL d   1      -0.998  -0.406  -1.689  0.00  0.00    -0.047 A 
ATOM      6  C4  UNL d   1      -1.152  -0.131  -0.347  0.00  0.00    -0.004 A 
ENDROOT
TORSDOF 0
ENDMDL
