MODEL 1
REMARK minimizedAffinity -3.27462029
REMARK minimizedRMSD -1
REMARK  0 active torsions:
REMARK  status: ('A' for Active; 'I' for Inactive)
ROOT
ATOM      1  C   UNL d   1      -0.045   0.022  -0.024  0.00  0.00     0.172 C 
ATOM      2  N   UNL d   1      -0.372   1.427   0.044  0.00  0.00    -0.070 N 
ATOM      3  C1  UNL d   1      -0.609   2.245  -1.029  0.00  0.00    -0.004 A 
ATOM      4  C2  UNL d   1      -0.885   3.506  -0.546  0.00  0.00    -0.047 A 
ATOM      5  C3  UNL d   1      -0.810   3.444   0.866  0.00  0.00    -0.047 A 
ATOM      6  C4  UNL d   1      -0.491   2.146   1.204  0.00  0.00    -0.004 A 
ENDROOT
TORSDOF 0
ENDMDL
