MODEL 1
REMARK minimizedAffinity -3.64776325
REMARK minimizedRMSD -1
REMARK  0 active torsions:
REMARK  status: ('A' for Active; 'I' for Inactive)
ROOT
ATOM      1  C   UNL d   1      -0.726   2.975  -1.652  0.00  0.00     0.172 C 
ATOM      2  N   UNL d   1      -0.805   2.586  -0.263  0.00  0.00    -0.070 N 
ATOM      3  C1  UNL d   1      -0.638   1.316   0.221  0.00  0.00    -0.004 A 
ATOM      4  C2  UNL d   1      -0.789   1.363   1.590  0.00  0.00    -0.047 A 
ATOM      5  C3  UNL d   1      -1.056   2.708   1.941  0.00  0.00    -0.047 A 
ATOM      6  C4  UNL d   1      -1.060   3.443   0.774  0.00  0.00    -0.004 A 
ENDROOT
TORSDOF 0
ENDMDL
