MODEL 1
REMARK minimizedAffinity -3.78234768
REMARK minimizedRMSD -1
REMARK  0 active torsions:
REMARK  status: ('A' for Active; 'I' for Inactive)
ROOT
ATOM      1  C   UNL d   1       0.351  -0.600  -0.545  0.00  0.00     0.172 C 
ATOM      2  N   UNL d   1       0.065   0.297   0.549  0.00  0.00    -0.070 N 
ATOM      3  C1  UNL d   1       0.828   0.451   1.676  0.00  0.00    -0.004 A 
ATOM      4  C2  UNL d   1       0.219   1.397   2.472  0.00  0.00    -0.047 A 
ATOM      5  C3  UNL d   1      -0.951   1.826   1.801  0.00  0.00    -0.047 A 
ATOM      6  C4  UNL d   1      -1.022   1.129   0.613  0.00  0.00    -0.004 A 
ENDROOT
TORSDOF 0
ENDMDL
