MODEL 1
REMARK minimizedAffinity -3.6924057
REMARK minimizedRMSD -1
REMARK  0 active torsions:
REMARK  status: ('A' for Active; 'I' for Inactive)
ROOT
ATOM      1  C   UNL d   1       0.547  -0.326  -0.571  0.00  0.00     0.172 C 
ATOM      2  N   UNL d   1       0.138   0.538   0.511  0.00  0.00    -0.070 N 
ATOM      3  C1  UNL d   1       0.107   0.198   1.836  0.00  0.00    -0.004 A 
ATOM      4  C2  UNL d   1      -0.339   1.294   2.543  0.00  0.00    -0.047 A 
ATOM      5  C3  UNL d   1      -0.584   2.329   1.610  0.00  0.00    -0.047 A 
ATOM      6  C4  UNL d   1      -0.281   1.834   0.359  0.00  0.00    -0.004 A 
ENDROOT
TORSDOF 0
ENDMDL
