MODEL 1
REMARK minimizedAffinity 1.15616262
REMARK minimizedRMSD -1
REMARK  0 active torsions:
REMARK  status: ('A' for Active; 'I' for Inactive)
ROOT
ATOM      1  C   UNL d   1       1.137  -0.447   0.254  0.00  0.00     0.172 C 
ATOM      2  N   UNL d   1       1.046  -0.224   1.678  0.00  0.00    -0.070 N 
ATOM      3  C1  UNL d   1       1.401  -1.120   2.650  0.00  0.00    -0.004 A 
ATOM      4  C2  UNL d   1       1.164  -0.531   3.873  0.00  0.00    -0.047 A 
ATOM      5  C3  UNL d   1       0.647   0.763   3.627  0.00  0.00    -0.047 A 
ATOM      6  C4  UNL d   1       0.584   0.927   2.260  0.00  0.00    -0.004 A 
ENDROOT
TORSDOF 0
ENDMDL
