MODEL 1
REMARK minimizedAffinity -3.16991234
REMARK minimizedRMSD -1
REMARK  0 active torsions:
REMARK  status: ('A' for Active; 'I' for Inactive)
ROOT
ATOM      1  C   UNL d   1      -0.019   1.426   0.075  0.00  0.00     0.172 C 
ATOM      2  N   UNL d   1       0.651   0.754   1.163  0.00  0.00    -0.070 N 
ATOM      3  C1  UNL d   1       0.382   0.927   2.495  0.00  0.00    -0.004 A 
ATOM      4  C2  UNL d   1       1.233   0.110   3.207  0.00  0.00    -0.047 A 
ATOM      5  C3  UNL d   1       2.042  -0.577   2.271  0.00  0.00    -0.047 A 
ATOM      6  C4  UNL d   1       1.661  -0.159   1.014  0.00  0.00    -0.004 A 
ENDROOT
TORSDOF 0
ENDMDL
