MODEL 1
REMARK minimizedAffinity 24.4900475
REMARK minimizedRMSD -1
REMARK  0 active torsions:
REMARK  status: ('A' for Active; 'I' for Inactive)
ROOT
ATOM      1  C   UNL d   1       2.597   1.814  -0.055  0.00  0.00     0.124 A 
ATOM      2  C1  UNL d   1       3.801   2.501  -0.004  0.00  0.00     0.062 A 
ATOM      3  C2  UNL d   1       4.745   2.337  -1.014  0.00  0.00     0.162 A 
ATOM      4  C3  UNL d   1       4.487   1.481  -2.085  0.00  0.00    -0.034 A 
ATOM      5  C4  UNL d   1       3.274   0.792  -2.129  0.00  0.00     0.162 A 
ATOM      6  C5  UNL d   1       2.334   0.960  -1.117  0.00  0.00     0.062 A 
ATOM      7  F   UNL d   1       1.171   0.294  -1.168  0.00  0.00    -0.097 F 
ATOM      8  F1  UNL d   1       2.994  -0.039  -3.144  0.00  0.00    -0.096 F 
ATOM      9  I   UNL d   1       5.895   1.232  -3.597  0.00  0.00    -0.060 I 
ATOM     10  F2  UNL d   1       5.900   3.014  -0.939  0.00  0.00    -0.096 F 
ATOM     11  F3  UNL d   1       4.057   3.326   1.022  0.00  0.00    -0.097 F 
ATOM     12  F4  UNL d   1       1.691   1.973   0.919  0.00  0.00    -0.092 F 
ENDROOT
TORSDOF 0
ENDMDL
