MODEL 1
REMARK minimizedAffinity 19.3294487
REMARK minimizedRMSD -1
REMARK  0 active torsions:
REMARK  status: ('A' for Active; 'I' for Inactive)
ROOT
ATOM      1  C   UNL d   1      -0.574  -3.092  -2.170  0.00  0.00     0.124 A 
ATOM      2  C1  UNL d   1      -0.223  -4.128  -1.314  0.00  0.00     0.062 A 
ATOM      3  C2  UNL d   1      -0.517  -4.044   0.044  0.00  0.00     0.162 A 
ATOM      4  C3  UNL d   1      -1.167  -2.921   0.555  0.00  0.00    -0.034 A 
ATOM      5  C4  UNL d   1      -1.516  -1.883  -0.311  0.00  0.00     0.162 A 
ATOM      6  C5  UNL d   1      -1.220  -1.971  -1.667  0.00  0.00     0.062 A 
ATOM      7  F   UNL d   1      -1.560  -0.970  -2.492  0.00  0.00    -0.097 F 
ATOM      8  F1  UNL d   1      -2.142  -0.789   0.147  0.00  0.00    -0.096 F 
ATOM      9  I   UNL d   1      -1.609  -2.792   2.585  0.00  0.00    -0.060 I 
ATOM     10  F2  UNL d   1      -0.166  -5.059   0.847  0.00  0.00    -0.096 F 
ATOM     11  F3  UNL d   1       0.403  -5.211  -1.797  0.00  0.00    -0.097 F 
ATOM     12  F4  UNL d   1      -0.288  -3.175  -3.475  0.00  0.00    -0.092 F 
ENDROOT
TORSDOF 0
ENDMDL
