MODEL 1
REMARK minimizedAffinity 34.9414444
REMARK minimizedRMSD -1
REMARK  0 active torsions:
REMARK  status: ('A' for Active; 'I' for Inactive)
ROOT
ATOM      1  C   UNL d   1       1.412  -0.126  -2.317  0.00  0.00     0.124 A 
ATOM      2  C1  UNL d   1       1.863  -0.873  -3.397  0.00  0.00     0.062 A 
ATOM      3  C2  UNL d   1       3.172  -0.731  -3.847  0.00  0.00     0.162 A 
ATOM      4  C3  UNL d   1       4.041   0.160  -3.217  0.00  0.00    -0.034 A 
ATOM      5  C4  UNL d   1       3.580   0.908  -2.132  0.00  0.00     0.162 A 
ATOM      6  C5  UNL d   1       2.270   0.763  -1.686  0.00  0.00     0.062 A 
ATOM      7  F   UNL d   1       1.836   1.485  -0.643  0.00  0.00    -0.097 F 
ATOM      8  F1  UNL d   1       4.388   1.773  -1.503  0.00  0.00    -0.096 F 
ATOM      9  I   UNL d   1       6.000   0.373  -3.886  0.00  0.00    -0.060 I 
ATOM     10  F2  UNL d   1       3.582  -1.466  -4.892  0.00  0.00    -0.096 F 
ATOM     11  F3  UNL d   1       1.035  -1.732  -4.009  0.00  0.00    -0.097 F 
ATOM     12  F4  UNL d   1       0.151  -0.263  -1.887  0.00  0.00    -0.092 F 
ENDROOT
TORSDOF 0
ENDMDL
