MODEL 1
REMARK minimizedAffinity 23.6699505
REMARK minimizedRMSD -1
REMARK  0 active torsions:
REMARK  status: ('A' for Active; 'I' for Inactive)
ROOT
ATOM      1  C   UNL d   1      -4.443   2.334  -1.406  0.00  0.00     0.124 A 
ATOM      2  C1  UNL d   1      -5.036   2.063  -0.180  0.00  0.00     0.062 A 
ATOM      3  C2  UNL d   1      -5.430   3.107   0.652  0.00  0.00     0.162 A 
ATOM      4  C3  UNL d   1      -5.233   4.431   0.262  0.00  0.00    -0.034 A 
ATOM      5  C4  UNL d   1      -4.635   4.696  -0.972  0.00  0.00     0.162 A 
ATOM      6  C5  UNL d   1      -4.244   3.649  -1.800  0.00  0.00     0.062 A 
ATOM      7  F   UNL d   1      -3.671   3.913  -2.984  0.00  0.00    -0.097 F 
ATOM      8  F1  UNL d   1      -4.431   5.958  -1.378  0.00  0.00    -0.096 F 
ATOM      9  I   UNL d   1      -5.820   5.994   1.504  0.00  0.00    -0.060 I 
ATOM     10  F2  UNL d   1      -6.000   2.816   1.831  0.00  0.00    -0.096 F 
ATOM     11  F3  UNL d   1      -5.229   0.793   0.203  0.00  0.00    -0.097 F 
ATOM     12  F4  UNL d   1      -4.064   1.328  -2.205  0.00  0.00    -0.092 F 
ENDROOT
TORSDOF 0
ENDMDL
