MODEL 1
REMARK minimizedAffinity 29.0180321
REMARK minimizedRMSD -1
REMARK  0 active torsions:
REMARK  status: ('A' for Active; 'I' for Inactive)
ROOT
ATOM      1  C   UNL d   1       2.244   0.568  -2.397  0.00  0.00     0.124 A 
ATOM      2  C1  UNL d   1       1.667   1.239  -1.328  0.00  0.00     0.062 A 
ATOM      3  C2  UNL d   1       0.455   0.803  -0.799  0.00  0.00     0.162 A 
ATOM      4  C3  UNL d   1      -0.189  -0.310  -1.340  0.00  0.00    -0.034 A 
ATOM      5  C4  UNL d   1       0.397  -0.980  -2.416  0.00  0.00     0.162 A 
ATOM      6  C5  UNL d   1       1.609  -0.540  -2.940  0.00  0.00     0.062 A 
ATOM      7  F   UNL d   1       2.164  -1.190  -3.973  0.00  0.00    -0.097 F 
ATOM      8  F1  UNL d   1      -0.194  -2.054  -2.959  0.00  0.00    -0.096 F 
ATOM      9  I   UNL d   1      -2.001  -0.965  -0.553  0.00  0.00    -0.060 I 
ATOM     10  F2  UNL d   1      -0.079   1.471   0.234  0.00  0.00    -0.096 F 
ATOM     11  F3  UNL d   1       2.278   2.310  -0.802  0.00  0.00    -0.097 F 
ATOM     12  F4  UNL d   1       3.409   0.989  -2.904  0.00  0.00    -0.092 F 
ENDROOT
TORSDOF 0
ENDMDL
