MODEL 1
REMARK minimizedAffinity 31.2308178
REMARK minimizedRMSD -1
REMARK  0 active torsions:
REMARK  status: ('A' for Active; 'I' for Inactive)
ROOT
ATOM      1  C   UNL d   1      -0.986  -3.200  -2.201  0.00  0.00     0.124 A 
ATOM      2  C1  UNL d   1      -1.662  -2.100  -1.692  0.00  0.00     0.062 A 
ATOM      3  C2  UNL d   1      -1.820  -1.952  -0.317  0.00  0.00     0.162 A 
ATOM      4  C3  UNL d   1      -1.301  -2.905   0.559  0.00  0.00    -0.034 A 
ATOM      5  C4  UNL d   1      -0.623  -4.010   0.038  0.00  0.00     0.162 A 
ATOM      6  C5  UNL d   1      -0.468  -4.154  -1.336  0.00  0.00     0.062 A 
ATOM      7  F   UNL d   1       0.186  -5.217  -1.827  0.00  0.00    -0.097 F 
ATOM      8  F1  UNL d   1      -0.111  -4.945   0.852  0.00  0.00    -0.096 F 
ATOM      9  I   UNL d   1      -1.536  -2.687   2.615  0.00  0.00    -0.060 I 
ATOM     10  F2  UNL d   1      -2.478  -0.879   0.148  0.00  0.00    -0.096 F 
ATOM     11  F3  UNL d   1      -2.164  -1.179  -2.525  0.00  0.00    -0.097 F 
ATOM     12  F4  UNL d   1      -0.836  -3.342  -3.525  0.00  0.00    -0.092 F 
ENDROOT
TORSDOF 0
ENDMDL
