MODEL 1
REMARK minimizedAffinity 22.1007538
REMARK minimizedRMSD -1
REMARK  0 active torsions:
REMARK  status: ('A' for Active; 'I' for Inactive)
ROOT
ATOM      1  C   UNL d   1      -0.866  -2.676  -2.198  0.00  0.00     0.124 A 
ATOM      2  C1  UNL d   1      -1.680  -1.652  -1.734  0.00  0.00     0.062 A 
ATOM      3  C2  UNL d   1      -1.958  -1.540  -0.375  0.00  0.00     0.162 A 
ATOM      4  C3  UNL d   1      -1.420  -2.454   0.531  0.00  0.00    -0.034 A 
ATOM      5  C4  UNL d   1      -0.603  -3.481   0.057  0.00  0.00     0.162 A 
ATOM      6  C5  UNL d   1      -0.328  -3.589  -1.303  0.00  0.00     0.062 A 
ATOM      7  F   UNL d   1       0.458  -4.579  -1.749  0.00  0.00    -0.097 F 
ATOM      8  F1  UNL d   1      -0.069  -4.377   0.900  0.00  0.00    -0.096 F 
ATOM      9  I   UNL d   1      -1.833  -2.290   2.564  0.00  0.00    -0.060 I 
ATOM     10  F2  UNL d   1      -2.748  -0.540   0.045  0.00  0.00    -0.096 F 
ATOM     11  F3  UNL d   1      -2.202  -0.768  -2.597  0.00  0.00    -0.097 F 
ATOM     12  F4  UNL d   1      -0.601  -2.782  -3.507  0.00  0.00    -0.092 F 
ENDROOT
TORSDOF 0
ENDMDL
