MODEL 1
REMARK minimizedAffinity 20.2990093
REMARK minimizedRMSD -1
REMARK  0 active torsions:
REMARK  status: ('A' for Active; 'I' for Inactive)
ROOT
ATOM      1  C   UNL d   1      -0.811  -1.576  -1.508  0.00  0.00     0.124 A 
ATOM      2  C1  UNL d   1      -0.198  -1.141  -2.675  0.00  0.00     0.062 A 
ATOM      3  C2  UNL d   1      -0.905  -0.364  -3.588  0.00  0.00     0.162 A 
ATOM      4  C3  UNL d   1      -2.233  -0.016  -3.338  0.00  0.00    -0.034 A 
ATOM      5  C4  UNL d   1      -2.842  -0.459  -2.162  0.00  0.00     0.162 A 
ATOM      6  C5  UNL d   1      -2.131  -1.235  -1.252  0.00  0.00     0.062 A 
ATOM      7  F   UNL d   1      -2.724  -1.655  -0.125  0.00  0.00    -0.097 F 
ATOM      8  F1  UNL d   1      -4.117  -0.142  -1.890  0.00  0.00    -0.096 F 
ATOM      9  I   UNL d   1      -3.293   1.146  -4.701  0.00  0.00    -0.060 I 
ATOM     10  F2  UNL d   1      -0.289   0.043  -4.708  0.00  0.00    -0.096 F 
ATOM     11  F3  UNL d   1       1.077  -1.470  -2.924  0.00  0.00    -0.097 F 
ATOM     12  F4  UNL d   1      -0.128  -2.325  -0.631  0.00  0.00    -0.092 F 
ENDROOT
TORSDOF 0
ENDMDL
