MODEL 1
REMARK minimizedAffinity 25.7689934
REMARK minimizedRMSD -1
REMARK  0 active torsions:
REMARK  status: ('A' for Active; 'I' for Inactive)
ROOT
ATOM      1  C   UNL d   1       0.400  -1.327  -2.596  0.00  0.00     0.124 A 
ATOM      2  C1  UNL d   1      -0.093  -0.748  -1.435  0.00  0.00     0.062 A 
ATOM      3  C2  UNL d   1       0.647   0.224  -0.768  0.00  0.00     0.162 A 
ATOM      4  C3  UNL d   1       1.889   0.625  -1.261  0.00  0.00    -0.034 A 
ATOM      5  C4  UNL d   1       2.379   0.038  -2.429  0.00  0.00     0.162 A 
ATOM      6  C5  UNL d   1       1.635  -0.933  -3.092  0.00  0.00     0.062 A 
ATOM      7  F   UNL d   1       2.113  -1.491  -4.214  0.00  0.00    -0.097 F 
ATOM      8  F1  UNL d   1       3.569   0.400  -2.931  0.00  0.00    -0.096 F 
ATOM      9  I   UNL d   1       2.998   2.078  -0.267  0.00  0.00    -0.060 I 
ATOM     10  F2  UNL d   1       0.146   0.766   0.352  0.00  0.00    -0.096 F 
ATOM     11  F3  UNL d   1      -1.285  -1.127  -0.953  0.00  0.00    -0.097 F 
ATOM     12  F4  UNL d   1      -0.313  -2.263  -3.235  0.00  0.00    -0.092 F 
ENDROOT
TORSDOF 0
ENDMDL
