MODEL 1
REMARK minimizedAffinity 26.0443382
REMARK minimizedRMSD -1
REMARK  0 active torsions:
REMARK  status: ('A' for Active; 'I' for Inactive)
ROOT
ATOM      1  C   UNL d   1      -2.018  -1.134  -1.045  0.00  0.00     0.124 A 
ATOM      2  C1  UNL d   1      -1.234  -1.419  -2.155  0.00  0.00     0.062 A 
ATOM      3  C2  UNL d   1      -0.076  -0.688  -2.400  0.00  0.00     0.162 A 
ATOM      4  C3  UNL d   1       0.308   0.335  -1.532  0.00  0.00    -0.034 A 
ATOM      5  C4  UNL d   1      -0.486   0.616  -0.419  0.00  0.00     0.162 A 
ATOM      6  C5  UNL d   1      -1.644  -0.117  -0.179  0.00  0.00     0.062 A 
ATOM      7  F   UNL d   1      -2.400   0.160   0.894  0.00  0.00    -0.097 F 
ATOM      8  F1  UNL d   1      -0.147   1.593   0.435  0.00  0.00    -0.096 F 
ATOM      9  I   UNL d   1       2.040   1.430  -1.894  0.00  0.00    -0.060 I 
ATOM     10  F2  UNL d   1       0.663  -0.985  -3.479  0.00  0.00    -0.096 F 
ATOM     11  F3  UNL d   1      -1.595  -2.401  -2.994  0.00  0.00    -0.097 F 
ATOM     12  F4  UNL d   1      -3.133  -1.838  -0.813  0.00  0.00    -0.092 F 
ENDROOT
TORSDOF 0
ENDMDL
