MODEL 1
REMARK minimizedAffinity 29.2385883
REMARK minimizedRMSD -1
REMARK  0 active torsions:
REMARK  status: ('A' for Active; 'I' for Inactive)
ROOT
ATOM      1  C   UNL d   1      -1.148   2.264  -4.487  0.00  0.00     0.124 A 
ATOM      2  C1  UNL d   1       0.058   1.598  -4.319  0.00  0.00     0.062 A 
ATOM      3  C2  UNL d   1       0.073   0.274  -3.890  0.00  0.00     0.162 A 
ATOM      4  C3  UNL d   1      -1.122  -0.394  -3.627  0.00  0.00    -0.034 A 
ATOM      5  C4  UNL d   1      -2.332   0.282  -3.797  0.00  0.00     0.162 A 
ATOM      6  C5  UNL d   1      -2.341   1.606  -4.226  0.00  0.00     0.062 A 
ATOM      7  F   UNL d   1      -3.508   2.247  -4.387  0.00  0.00    -0.097 F 
ATOM      8  F1  UNL d   1      -3.500  -0.330  -3.553  0.00  0.00    -0.096 F 
ATOM      9  I   UNL d   1      -1.104  -2.374  -2.986  0.00  0.00    -0.060 I 
ATOM     10  F2  UNL d   1       1.254  -0.345  -3.737  0.00  0.00    -0.096 F 
ATOM     11  F3  UNL d   1       1.213   2.232  -4.570  0.00  0.00    -0.097 F 
ATOM     12  F4  UNL d   1      -1.159   3.538  -4.898  0.00  0.00    -0.092 F 
ENDROOT
TORSDOF 0
ENDMDL
