MODEL 1
REMARK minimizedAffinity 25.376421
REMARK minimizedRMSD -1
REMARK  0 active torsions:
REMARK  status: ('A' for Active; 'I' for Inactive)
ROOT
ATOM      1  C   UNL d   1      -0.704  -3.346   0.391  0.00  0.00     0.124 A 
ATOM      2  C1  UNL d   1      -0.970  -2.764  -0.841  0.00  0.00     0.062 A 
ATOM      3  C2  UNL d   1      -1.790  -1.643  -0.922  0.00  0.00     0.162 A 
ATOM      4  C3  UNL d   1      -2.349  -1.094   0.232  0.00  0.00    -0.034 A 
ATOM      5  C4  UNL d   1      -2.077  -1.685   1.467  0.00  0.00     0.162 A 
ATOM      6  C5  UNL d   1      -1.257  -2.807   1.543  0.00  0.00     0.062 A 
ATOM      7  F   UNL d   1      -1.002  -3.368   2.734  0.00  0.00    -0.097 F 
ATOM      8  F1  UNL d   1      -2.599  -1.184   2.596  0.00  0.00    -0.096 F 
ATOM      9  I   UNL d   1      -3.575   0.583   0.114  0.00  0.00    -0.060 I 
ATOM     10  F2  UNL d   1      -2.030  -1.101  -2.126  0.00  0.00    -0.096 F 
ATOM     11  F3  UNL d   1      -0.437  -3.285  -1.956  0.00  0.00    -0.097 F 
ATOM     12  F4  UNL d   1       0.085  -4.426   0.466  0.00  0.00    -0.092 F 
ENDROOT
TORSDOF 0
ENDMDL
