MODEL 1
REMARK minimizedAffinity 26.8988171
REMARK minimizedRMSD -1
REMARK  0 active torsions:
REMARK  status: ('A' for Active; 'I' for Inactive)
ROOT
ATOM      1  C   UNL d   1      -0.670  -3.189  -1.785  0.00  0.00     0.124 A 
ATOM      2  C1  UNL d   1      -1.411  -2.598  -2.798  0.00  0.00     0.062 A 
ATOM      3  C2  UNL d   1      -2.337  -1.603  -2.499  0.00  0.00     0.162 A 
ATOM      4  C3  UNL d   1      -2.527  -1.192  -1.180  0.00  0.00    -0.034 A 
ATOM      5  C4  UNL d   1      -1.778  -1.791  -0.166  0.00  0.00     0.162 A 
ATOM      6  C5  UNL d   1      -0.854  -2.785  -0.470  0.00  0.00     0.062 A 
ATOM      7  F   UNL d   1      -0.138  -3.355   0.511  0.00  0.00    -0.097 F 
ATOM      8  F1  UNL d   1      -1.935  -1.420   1.114  0.00  0.00    -0.096 F 
ATOM      9  I   UNL d   1      -3.911   0.296  -0.728  0.00  0.00    -0.060 I 
ATOM     10  F2  UNL d   1      -3.040  -1.049  -3.499  0.00  0.00    -0.096 F 
ATOM     11  F3  UNL d   1      -1.236  -2.987  -4.069  0.00  0.00    -0.097 F 
ATOM     12  F4  UNL d   1       0.220  -4.147  -2.075  0.00  0.00    -0.092 F 
ENDROOT
TORSDOF 0
ENDMDL
