MODEL 1
REMARK minimizedAffinity 26.6367512
REMARK minimizedRMSD -1
REMARK  0 active torsions:
REMARK  status: ('A' for Active; 'I' for Inactive)
ROOT
ATOM      1  C   UNL d   1      -0.666  -3.256  -0.614  0.00  0.00     0.124 A 
ATOM      2  C1  UNL d   1      -1.220  -1.996  -0.435  0.00  0.00     0.062 A 
ATOM      3  C2  UNL d   1      -1.785  -1.647   0.788  0.00  0.00     0.162 A 
ATOM      4  C3  UNL d   1      -1.798  -2.559   1.843  0.00  0.00    -0.034 A 
ATOM      5  C4  UNL d   1      -1.240  -3.825   1.655  0.00  0.00     0.162 A 
ATOM      6  C5  UNL d   1      -0.677  -4.169   0.431  0.00  0.00     0.062 A 
ATOM      7  F   UNL d   1      -0.142  -5.387   0.260  0.00  0.00    -0.097 F 
ATOM      8  F1  UNL d   1      -1.236  -4.726   2.649  0.00  0.00    -0.096 F 
ATOM      9  I   UNL d   1      -2.642  -2.041   3.674  0.00  0.00    -0.060 I 
ATOM     10  F2  UNL d   1      -2.313  -0.422   0.933  0.00  0.00    -0.096 F 
ATOM     11  F3  UNL d   1      -1.212  -1.112  -1.443  0.00  0.00    -0.097 F 
ATOM     12  F4  UNL d   1      -0.124  -3.589  -1.792  0.00  0.00    -0.092 F 
ENDROOT
TORSDOF 0
ENDMDL
