MODEL 1
REMARK minimizedAffinity 22.614296
REMARK minimizedRMSD -1
REMARK  0 active torsions:
REMARK  status: ('A' for Active; 'I' for Inactive)
ROOT
ATOM      1  C   UNL d   1      -0.531  -3.863   0.122  0.00  0.00     0.124 A 
ATOM      2  C1  UNL d   1      -0.501  -4.082  -1.248  0.00  0.00     0.062 A 
ATOM      3  C2  UNL d   1      -0.950  -3.098  -2.124  0.00  0.00     0.162 A 
ATOM      4  C3  UNL d   1      -1.433  -1.885  -1.632  0.00  0.00    -0.034 A 
ATOM      5  C4  UNL d   1      -1.461  -1.673  -0.253  0.00  0.00     0.162 A 
ATOM      6  C5  UNL d   1      -1.011  -2.660   0.618  0.00  0.00     0.062 A 
ATOM      7  F   UNL d   1      -1.042  -2.447   1.942  0.00  0.00    -0.097 F 
ATOM      8  F1  UNL d   1      -1.919  -0.518   0.254  0.00  0.00    -0.096 F 
ATOM      9  I   UNL d   1      -2.105  -0.411  -2.939  0.00  0.00    -0.060 I 
ATOM     10  F2  UNL d   1      -0.909  -3.336  -3.443  0.00  0.00    -0.096 F 
ATOM     11  F3  UNL d   1      -0.038  -5.244  -1.730  0.00  0.00    -0.097 F 
ATOM     12  F4  UNL d   1      -0.100  -4.812   0.963  0.00  0.00    -0.092 F 
ENDROOT
TORSDOF 0
ENDMDL
