MODEL 1
REMARK minimizedAffinity 32.871418
REMARK minimizedRMSD -1
REMARK  0 active torsions:
REMARK  status: ('A' for Active; 'I' for Inactive)
ROOT
ATOM      1  C   UNL d   1       2.647   2.763  -0.018  0.00  0.00     0.124 A 
ATOM      2  C1  UNL d   1       3.869   3.419   0.040  0.00  0.00     0.062 A 
ATOM      3  C2  UNL d   1       4.828   3.201  -0.945  0.00  0.00     0.162 A 
ATOM      4  C3  UNL d   1       4.568   2.323  -1.998  0.00  0.00    -0.034 A 
ATOM      5  C4  UNL d   1       3.337   1.667  -2.049  0.00  0.00     0.162 A 
ATOM      6  C5  UNL d   1       2.382   1.888  -1.062  0.00  0.00     0.062 A 
ATOM      7  F   UNL d   1       1.202   1.254  -1.120  0.00  0.00    -0.097 F 
ATOM      8  F1  UNL d   1       3.055   0.817  -3.047  0.00  0.00    -0.096 F 
ATOM      9  I   UNL d   1       5.999   1.994  -3.473  0.00  0.00    -0.060 I 
ATOM     10  F2  UNL d   1       6.000   3.847  -0.863  0.00  0.00    -0.096 F 
ATOM     11  F3  UNL d   1       4.127   4.264   1.049  0.00  0.00    -0.097 F 
ATOM     12  F4  UNL d   1       1.726   2.974   0.932  0.00  0.00    -0.092 F 
ENDROOT
TORSDOF 0
ENDMDL
