MODEL 1
REMARK minimizedAffinity 8.99147034
REMARK minimizedRMSD -1
REMARK  0 active torsions:
REMARK  status: ('A' for Active; 'I' for Inactive)
ROOT
ATOM      1  C1  DEN d   1       0.419   1.841  -2.656  0.00  0.00     0.130 A 
ATOM      2  C2  DEN d   1       0.375   0.384  -2.571  0.00  0.00    -0.031 A 
ATOM      3  C3  DEN d   1       0.089   0.016  -1.170  0.00  0.00     0.027 A 
ATOM      4  C4  DEN d   1      -0.293   1.554   0.865  0.00  0.00     0.027 A 
ATOM      5  C5  DEN d   1      -0.341   2.863   1.289  0.00  0.00    -0.003 A 
ATOM      6  C6  DEN d   1      -0.108   3.914   0.442  0.00  0.00     0.001 A 
ATOM      7  C7  DEN d   1       0.140   3.675  -0.884  0.00  0.00     0.017 A 
ATOM      8  C8  DEN d   1       0.198   2.357  -1.317  0.00  0.00    -0.094 A 
ATOM      9  C9  DEN d   1      -0.053   1.309  -0.448  0.00  0.00    -0.072 A 
ENDROOT
TORSDOF 0
ENDMDL
