MODEL 1
REMARK minimizedAffinity 4.4883852
REMARK minimizedRMSD -1
REMARK  0 active torsions:
REMARK  status: ('A' for Active; 'I' for Inactive)
ROOT
ATOM      1  C1  DEN d   1      -0.197   1.069   0.361  0.00  0.00     0.130 A 
ATOM      2  C2  DEN d   1      -1.193   0.950   1.422  0.00  0.00    -0.031 A 
ATOM      3  C3  DEN d   1      -1.805   2.279   1.624  0.00  0.00     0.027 A 
ATOM      4  C4  DEN d   1      -1.312   4.495   0.401  0.00  0.00     0.027 A 
ATOM      5  C5  DEN d   1      -0.539   5.095  -0.569  0.00  0.00    -0.003 A 
ATOM      6  C6  DEN d   1       0.418   4.408  -1.267  0.00  0.00     0.001 A 
ATOM      7  C7  DEN d   1       0.596   3.069  -1.038  0.00  0.00     0.017 A 
ATOM      8  C8  DEN d   1      -0.174   2.459  -0.056  0.00  0.00    -0.094 A 
ATOM      9  C9  DEN d   1      -1.145   3.168   0.630  0.00  0.00    -0.072 A 
ENDROOT
TORSDOF 0
ENDMDL
