MODEL 1
REMARK minimizedAffinity 6.01981163
REMARK minimizedRMSD -1
REMARK  0 active torsions:
REMARK  status: ('A' for Active; 'I' for Inactive)
ROOT
ATOM      1  C1  DEN d   1      -3.230   2.152   1.537  0.00  0.00     0.130 A 
ATOM      2  C2  DEN d   1      -3.234   1.145   2.595  0.00  0.00    -0.031 A 
ATOM      3  C3  DEN d   1      -1.932   1.208   3.290  0.00  0.00     0.027 A 
ATOM      4  C4  DEN d   1       0.076   2.762   2.835  0.00  0.00     0.027 A 
ATOM      5  C5  DEN d   1       0.553   3.774   2.032  0.00  0.00    -0.003 A 
ATOM      6  C6  DEN d   1      -0.178   4.289   0.994  0.00  0.00     0.001 A 
ATOM      7  C7  DEN d   1      -1.446   3.823   0.760  0.00  0.00     0.017 A 
ATOM      8  C8  DEN d   1      -1.930   2.798   1.562  0.00  0.00    -0.094 A 
ATOM      9  C9  DEN d   1      -1.181   2.300   2.614  0.00  0.00    -0.072 A 
ENDROOT
TORSDOF 0
ENDMDL
