MODEL 1
REMARK minimizedAffinity 8.79763889
REMARK minimizedRMSD -1
REMARK  0 active torsions:
REMARK  status: ('A' for Active; 'I' for Inactive)
ROOT
ATOM      1  C1  DEN d   1      -1.561   1.712   0.960  0.00  0.00     0.130 A 
ATOM      2  C2  DEN d   1      -2.244   2.948   1.332  0.00  0.00    -0.031 A 
ATOM      3  C3  DEN d   1      -1.647   4.052   0.554  0.00  0.00     0.027 A 
ATOM      4  C4  DEN d   1       0.256   3.967  -1.185  0.00  0.00     0.027 A 
ATOM      5  C5  DEN d   1       1.155   3.144  -1.825  0.00  0.00    -0.003 A 
ATOM      6  C6  DEN d   1       1.235   1.802  -1.560  0.00  0.00     0.001 A 
ATOM      7  C7  DEN d   1       0.369   1.236  -0.662  0.00  0.00     0.017 A 
ATOM      8  C8  DEN d   1      -0.535   2.061  -0.007  0.00  0.00    -0.094 A 
ATOM      9  C9  DEN d   1      -0.608   3.412  -0.298  0.00  0.00    -0.072 A 
ENDROOT
TORSDOF 0
ENDMDL
