MODEL 1
REMARK minimizedAffinity 2.0638814
REMARK minimizedRMSD -1
REMARK  0 active torsions:
REMARK  status: ('A' for Active; 'I' for Inactive)
ROOT
ATOM      1  C1  DEN d   1       0.436   2.277   0.222  0.00  0.00     0.130 A 
ATOM      2  C2  DEN d   1      -0.001   3.262  -0.764  0.00  0.00    -0.031 A 
ATOM      3  C3  DEN d   1      -1.407   3.605  -0.474  0.00  0.00     0.027 A 
ATOM      4  C4  DEN d   1      -2.942   2.715   1.399  0.00  0.00     0.027 A 
ATOM      5  C5  DEN d   1      -3.020   1.856   2.473  0.00  0.00    -0.003 A 
ATOM      6  C6  DEN d   1      -1.972   1.058   2.848  0.00  0.00     0.001 A 
ATOM      7  C7  DEN d   1      -0.783   1.137   2.171  0.00  0.00     0.017 A 
ATOM      8  C8  DEN d   1      -0.699   1.995   1.082  0.00  0.00    -0.094 A 
ATOM      9  C9  DEN d   1      -1.766   2.802   0.727  0.00  0.00    -0.072 A 
ENDROOT
TORSDOF 0
ENDMDL
