MODEL 1
REMARK minimizedAffinity 6.91943026
REMARK minimizedRMSD -1
REMARK  0 active torsions:
REMARK  status: ('A' for Active; 'I' for Inactive)
ROOT
ATOM      1  C1  DEN d   1      -2.456   2.270   1.547  0.00  0.00     0.130 A 
ATOM      2  C2  DEN d   1      -1.595   3.154   0.766  0.00  0.00    -0.031 A 
ATOM      3  C3  DEN d   1      -0.265   2.520   0.661  0.00  0.00     0.027 A 
ATOM      4  C4  DEN d   1       0.538   0.266   1.623  0.00  0.00     0.027 A 
ATOM      5  C5  DEN d   1       0.168  -0.833   2.367  0.00  0.00    -0.003 A 
ATOM      6  C6  DEN d   1      -1.081  -0.957   2.915  0.00  0.00     0.001 A 
ATOM      7  C7  DEN d   1      -2.021   0.013   2.688  0.00  0.00     0.017 A 
ATOM      8  C8  DEN d   1      -1.654   1.127   1.944  0.00  0.00    -0.094 A 
ATOM      9  C9  DEN d   1      -0.389   1.229   1.389  0.00  0.00    -0.072 A 
ENDROOT
TORSDOF 0
ENDMDL
