MODEL 1
REMARK minimizedAffinity 11.3336239
REMARK minimizedRMSD -1
REMARK  0 active torsions:
REMARK  status: ('A' for Active; 'I' for Inactive)
ROOT
ATOM      1  C1  DEN d   1      -1.298   1.826  -0.188  0.00  0.00     0.130 A 
ATOM      2  C2  DEN d   1       0.150   2.021  -0.183  0.00  0.00    -0.031 A 
ATOM      3  C3  DEN d   1       0.746   1.033  -1.105  0.00  0.00     0.027 A 
ATOM      4  C4  DEN d   1      -0.425  -0.768  -2.533  0.00  0.00     0.027 A 
ATOM      5  C5  DEN d   1      -1.641  -1.324  -2.862  0.00  0.00    -0.003 A 
ATOM      6  C6  DEN d   1      -2.815  -0.896  -2.301  0.00  0.00     0.001 A 
ATOM      7  C7  DEN d   1      -2.803   0.149  -1.415  0.00  0.00     0.017 A 
ATOM      8  C8  DEN d   1      -1.580   0.710  -1.073  0.00  0.00    -0.094 A 
ATOM      9  C9  DEN d   1      -0.405   0.271  -1.660  0.00  0.00    -0.072 A 
ENDROOT
TORSDOF 0
ENDMDL
