MODEL 1
REMARK minimizedAffinity 7.58396053
REMARK minimizedRMSD -1
REMARK  0 active torsions:
REMARK  status: ('A' for Active; 'I' for Inactive)
ROOT
ATOM      1  C1  DEN d   1       0.906   1.302  -1.875  0.00  0.00     0.130 A 
ATOM      2  C2  DEN d   1       0.856  -0.122  -1.555  0.00  0.00    -0.031 A 
ATOM      3  C3  DEN d   1      -0.000  -0.292  -0.363  0.00  0.00     0.027 A 
ATOM      4  C4  DEN d   1      -1.250   1.501   1.007  0.00  0.00     0.027 A 
ATOM      5  C5  DEN d   1      -1.500   2.850   1.126  0.00  0.00    -0.003 A 
ATOM      6  C6  DEN d   1      -0.944   3.774   0.281  0.00  0.00     0.001 A 
ATOM      7  C7  DEN d   1      -0.144   3.355  -0.750  0.00  0.00     0.017 A 
ATOM      8  C8  DEN d   1       0.119   1.997  -0.872  0.00  0.00    -0.094 A 
ATOM      9  C9  DEN d   1      -0.463   1.078  -0.015  0.00  0.00    -0.072 A 
ENDROOT
TORSDOF 0
ENDMDL
