MODEL 1
REMARK minimizedAffinity 13.8895664
REMARK minimizedRMSD -1
REMARK  0 active torsions:
REMARK  status: ('A' for Active; 'I' for Inactive)
ROOT
ATOM      1  C1  DEN d   1       0.647   1.661  -1.593  0.00  0.00     0.130 A 
ATOM      2  C2  DEN d   1       0.104   2.949  -2.012  0.00  0.00    -0.031 A 
ATOM      3  C3  DEN d   1      -1.132   2.696  -2.779  0.00  0.00     0.027 A 
ATOM      4  C4  DEN d   1      -2.255   0.445  -3.350  0.00  0.00     0.027 A 
ATOM      5  C5  DEN d   1      -2.157  -0.923  -3.221  0.00  0.00    -0.003 A 
ATOM      6  C6  DEN d   1      -1.108  -1.522  -2.574  0.00  0.00     0.001 A 
ATOM      7  C7  DEN d   1      -0.138  -0.749  -1.993  0.00  0.00     0.017 A 
ATOM      8  C8  DEN d   1      -0.226   0.631  -2.126  0.00  0.00    -0.094 A 
ATOM      9  C9  DEN d   1      -1.300   1.218  -2.773  0.00  0.00    -0.072 A 
ENDROOT
TORSDOF 0
ENDMDL
