MODEL 1
REMARK minimizedAffinity 4.73577023
REMARK minimizedRMSD -1
REMARK  0 active torsions:
REMARK  status: ('A' for Active; 'I' for Inactive)
ROOT
ATOM      1  C1  DEN d   1      -2.867   2.176  -3.954  0.00  0.00     0.130 A 
ATOM      2  C2  DEN d   1      -2.528   3.583  -3.759  0.00  0.00    -0.031 A 
ATOM      3  C3  DEN d   1      -1.283   3.647  -2.968  0.00  0.00     0.027 A 
ATOM      4  C4  DEN d   1       0.149   1.715  -2.036  0.00  0.00     0.027 A 
ATOM      5  C5  DEN d   1       0.256   0.345  -1.934  0.00  0.00    -0.003 A 
ATOM      6  C6  DEN d   1      -0.679  -0.502  -2.466  0.00  0.00     0.001 A 
ATOM      7  C7  DEN d   1      -1.742   0.011  -3.162  0.00  0.00     0.017 A 
ATOM      8  C8  DEN d   1      -1.861   1.391  -3.262  0.00  0.00    -0.094 A 
ATOM      9  C9  DEN d   1      -0.898   2.230  -2.729  0.00  0.00    -0.072 A 
ENDROOT
TORSDOF 0
ENDMDL
