MODEL 1
REMARK minimizedAffinity 7.70253849
REMARK minimizedRMSD -1
REMARK  0 active torsions:
REMARK  status: ('A' for Active; 'I' for Inactive)
ROOT
ATOM      1  C1  DEN d   1       0.721   2.488  -2.217  0.00  0.00     0.130 A 
ATOM      2  C2  DEN d   1       0.033   2.837  -0.977  0.00  0.00    -0.031 A 
ATOM      3  C3  DEN d   1      -1.040   1.848  -0.756  0.00  0.00     0.027 A 
ATOM      4  C4  DEN d   1      -1.697  -0.184  -2.202  0.00  0.00     0.027 A 
ATOM      5  C5  DEN d   1      -1.410  -0.881  -3.355  0.00  0.00    -0.003 A 
ATOM      6  C6  DEN d   1      -0.424  -0.488  -4.220  0.00  0.00     0.001 A 
ATOM      7  C7  DEN d   1       0.343   0.608  -3.922  0.00  0.00     0.017 A 
ATOM      8  C8  DEN d   1       0.055   1.320  -2.765  0.00  0.00    -0.094 A 
ATOM      9  C9  DEN d   1      -0.939   0.899  -1.898  0.00  0.00    -0.072 A 
ENDROOT
TORSDOF 0
ENDMDL
