MODEL 1
REMARK minimizedAffinity 6.37507296
REMARK minimizedRMSD -1
REMARK  0 active torsions:
REMARK  status: ('A' for Active; 'I' for Inactive)
ROOT
ATOM      1  C1  DEN d   1       0.121   0.553  -1.267  0.00  0.00     0.130 A 
ATOM      2  C2  DEN d   1       0.467   0.292  -2.661  0.00  0.00    -0.031 A 
ATOM      3  C3  DEN d   1       0.614   1.592  -3.346  0.00  0.00     0.027 A 
ATOM      4  C4  DEN d   1       0.347   3.971  -2.387  0.00  0.00     0.027 A 
ATOM      5  C5  DEN d   1       0.048   4.698  -1.256  0.00  0.00    -0.003 A 
ATOM      6  C6  DEN d   1      -0.279   4.100  -0.068  0.00  0.00     0.001 A 
ATOM      7  C7  DEN d   1      -0.270   2.733   0.029  0.00  0.00     0.017 A 
ATOM      8  C8  DEN d   1       0.024   1.993  -1.109  0.00  0.00    -0.094 A 
ATOM      9  C9  DEN d   1       0.364   2.617  -2.298  0.00  0.00    -0.072 A 
ENDROOT
TORSDOF 0
ENDMDL
