MODEL 1
REMARK minimizedAffinity 8.35207176
REMARK minimizedRMSD -1
REMARK  0 active torsions:
REMARK  status: ('A' for Active; 'I' for Inactive)
ROOT
ATOM      1  C1  DEN d   1       0.441   1.490  -1.412  0.00  0.00     0.130 A 
ATOM      2  C2  DEN d   1       0.623   2.639  -2.295  0.00  0.00    -0.031 A 
ATOM      3  C3  DEN d   1       0.024   3.819  -1.639  0.00  0.00     0.027 A 
ATOM      4  C4  DEN d   1      -1.156   3.978   0.649  0.00  0.00     0.027 A 
ATOM      5  C5  DEN d   1      -1.562   3.263   1.755  0.00  0.00    -0.003 A 
ATOM      6  C6  DEN d   1      -1.361   1.913   1.866  0.00  0.00     0.001 A 
ATOM      7  C7  DEN d   1      -0.696   1.242   0.874  0.00  0.00     0.017 A 
ATOM      8  C8  DEN d   1      -0.290   1.954  -0.247  0.00  0.00    -0.094 A 
ATOM      9  C9  DEN d   1      -0.493   3.321  -0.336  0.00  0.00    -0.072 A 
ENDROOT
TORSDOF 0
ENDMDL
