MODEL 1
REMARK minimizedAffinity 6.24229479
REMARK minimizedRMSD -1
REMARK  0 active torsions:
REMARK  status: ('A' for Active; 'I' for Inactive)
ROOT
ATOM      1  C1  DEN d   1       0.831   2.173  -2.586  0.00  0.00     0.130 A 
ATOM      2  C2  DEN d   1       0.726   0.729  -2.395  0.00  0.00    -0.031 A 
ATOM      3  C3  DEN d   1       0.238   0.484  -1.022  0.00  0.00     0.027 A 
ATOM      4  C4  DEN d   1      -0.366   2.192   0.814  0.00  0.00     0.027 A 
ATOM      5  C5  DEN d   1      -0.427   3.533   1.123  0.00  0.00    -0.003 A 
ATOM      6  C6  DEN d   1      -0.045   4.505   0.238  0.00  0.00     0.001 A 
ATOM      7  C7  DEN d   1       0.374   4.152  -1.018  0.00  0.00     0.017 A 
ATOM      8  C8  DEN d   1       0.446   2.802  -1.335  0.00  0.00    -0.094 A 
ATOM      9  C9  DEN d   1       0.043   1.835  -0.430  0.00  0.00    -0.072 A 
ENDROOT
TORSDOF 0
ENDMDL
