MODEL 1
REMARK minimizedAffinity 3.65823317
REMARK minimizedRMSD -1
REMARK  0 active torsions:
REMARK  status: ('A' for Active; 'I' for Inactive)
ROOT
ATOM      1  C   UNL d   1       2.321  -1.231   1.949  0.00  0.00     0.023 A 
ATOM      2  C1  UNL d   1       2.609  -2.494   2.467  0.00  0.00     0.003 A 
ATOM      3  C2  UNL d   1       1.973  -2.934   3.629  0.00  0.00     0.048 A 
ATOM      4  C3  UNL d   1       1.050  -2.108   4.268  0.00  0.00     0.023 A 
ATOM      5  C4  UNL d   1       0.758  -0.844   3.753  0.00  0.00     0.048 A 
ATOM      6  C5  UNL d   1       1.396  -0.407   2.591  0.00  0.00     0.003 A 
ATOM      7  I   UNL d   1       0.102  -2.762   5.999  0.00  0.00    -0.146 I 
ENDROOT
TORSDOF 0
ENDMDL
