MODEL 1
REMARK minimizedAffinity 4.54714203
REMARK minimizedRMSD -1
REMARK  0 active torsions:
REMARK  status: ('A' for Active; 'I' for Inactive)
ROOT
ATOM      1  C   UNL d   1      -3.068  -3.618  -0.556  0.00  0.00     0.023 A 
ATOM      2  C1  UNL d   1      -3.922  -2.520  -0.663  0.00  0.00     0.003 A 
ATOM      3  C2  UNL d   1      -3.440  -1.232  -0.419  0.00  0.00     0.048 A 
ATOM      4  C3  UNL d   1      -2.102  -1.049  -0.070  0.00  0.00     0.023 A 
ATOM      5  C4  UNL d   1      -1.244  -2.145   0.037  0.00  0.00     0.048 A 
ATOM      6  C5  UNL d   1      -1.731  -3.430  -0.207  0.00  0.00     0.003 A 
ATOM      7  I   UNL d   1      -1.382   0.866   0.294  0.00  0.00    -0.146 I 
ENDROOT
TORSDOF 0
ENDMDL
