MODEL 1
REMARK minimizedAffinity 7.28478098
REMARK minimizedRMSD -1
REMARK  0 active torsions:
REMARK  status: ('A' for Active; 'I' for Inactive)
ROOT
ATOM      1  C   UNL d   1       1.668  -1.301   1.545  0.00  0.00     0.023 A 
ATOM      2  C1  UNL d   1       1.126  -0.617   2.634  0.00  0.00     0.003 A 
ATOM      3  C2  UNL d   1       1.192  -1.173   3.913  0.00  0.00     0.048 A 
ATOM      4  C3  UNL d   1       1.801  -2.414   4.096  0.00  0.00     0.023 A 
ATOM      5  C4  UNL d   1       2.345  -3.102   3.010  0.00  0.00     0.048 A 
ATOM      6  C5  UNL d   1       2.276  -2.542   1.733  0.00  0.00     0.003 A 
ATOM      7  I   UNL d   1       1.900  -3.244   5.999  0.00  0.00    -0.146 I 
ENDROOT
TORSDOF 0
ENDMDL
