MODEL 1
REMARK minimizedAffinity 8.61872959
REMARK minimizedRMSD -1
REMARK  0 active torsions:
REMARK  status: ('A' for Active; 'I' for Inactive)
ROOT
ATOM      1  C   UNL d   1       1.407  -0.086   4.113  0.00  0.00     0.023 A 
ATOM      2  C1  UNL d   1       1.711  -0.509   2.819  0.00  0.00     0.003 A 
ATOM      3  C2  UNL d   1       2.234  -1.786   2.604  0.00  0.00     0.048 A 
ATOM      4  C3  UNL d   1       2.449  -2.636   3.689  0.00  0.00     0.023 A 
ATOM      5  C4  UNL d   1       2.145  -2.218   4.985  0.00  0.00     0.048 A 
ATOM      6  C5  UNL d   1       1.624  -0.940   5.195  0.00  0.00     0.003 A 
ATOM      7  I   UNL d   1       3.226  -4.537   3.372  0.00  0.00    -0.146 I 
ENDROOT
TORSDOF 0
ENDMDL
