MODEL 1
REMARK minimizedAffinity 13.9022579
REMARK minimizedRMSD -1
REMARK  0 active torsions:
REMARK  status: ('A' for Active; 'I' for Inactive)
ROOT
ATOM      1  C   UNL d   1       5.950  -4.537  -5.998  0.00  0.00     0.023 A 
ATOM      2  C1  UNL d   1       5.972  -5.784  -5.372  0.00  0.00     0.003 A 
ATOM      3  C2  UNL d   1       5.952  -5.868  -3.979  0.00  0.00     0.048 A 
ATOM      4  C3  UNL d   1       5.910  -4.701  -3.216  0.00  0.00     0.023 A 
ATOM      5  C4  UNL d   1       5.887  -3.451  -3.838  0.00  0.00     0.048 A 
ATOM      6  C5  UNL d   1       5.908  -3.373  -5.232  0.00  0.00     0.003 A 
ATOM      7  I   UNL d   1       5.880  -4.823  -1.142  0.00  0.00    -0.146 I 
ENDROOT
TORSDOF 0
ENDMDL
