MODEL 1
REMARK minimizedAffinity 14.9972992
REMARK minimizedRMSD -1
REMARK  0 active torsions:
REMARK  status: ('A' for Active; 'I' for Inactive)
ROOT
ATOM      1  C   UNL d   1       1.394  -0.469   1.486  0.00  0.00     0.023 A 
ATOM      2  C1  UNL d   1       1.885  -1.746   1.757  0.00  0.00     0.003 A 
ATOM      3  C2  UNL d   1       1.811  -2.264   3.052  0.00  0.00     0.048 A 
ATOM      4  C3  UNL d   1       1.244  -1.499   4.071  0.00  0.00     0.023 A 
ATOM      5  C4  UNL d   1       0.751  -0.221   3.804  0.00  0.00     0.048 A 
ATOM      6  C5  UNL d   1       0.828   0.293   2.508  0.00  0.00     0.003 A 
ATOM      7  I   UNL d   1       1.133  -2.267   5.999  0.00  0.00    -0.146 I 
ENDROOT
TORSDOF 0
ENDMDL
