MODEL 1
REMARK minimizedAffinity 4.99249363
REMARK minimizedRMSD -1
REMARK  0 active torsions:
REMARK  status: ('A' for Active; 'I' for Inactive)
ROOT
ATOM      1  C   UNL d   1       2.256  -1.918   1.195  0.00  0.00     0.023 A 
ATOM      2  C1  UNL d   1       2.792  -2.969   1.939  0.00  0.00     0.003 A 
ATOM      3  C2  UNL d   1       2.581  -3.028   3.319  0.00  0.00     0.048 A 
ATOM      4  C3  UNL d   1       1.832  -2.033   3.946  0.00  0.00     0.023 A 
ATOM      5  C4  UNL d   1       1.293  -0.981   3.205  0.00  0.00     0.048 A 
ATOM      6  C5  UNL d   1       1.507  -0.926   1.827  0.00  0.00     0.003 A 
ATOM      7  I   UNL d   1       1.517  -2.119   5.999  0.00  0.00    -0.146 I 
ENDROOT
TORSDOF 0
ENDMDL
