MODEL 1
REMARK minimizedAffinity 9.80948067
REMARK minimizedRMSD -1
REMARK  0 active torsions:
REMARK  status: ('A' for Active; 'I' for Inactive)
ROOT
ATOM      1  C   UNL d   1      -3.130  -0.701  -0.687  0.00  0.00     0.023 A 
ATOM      2  C1  UNL d   1      -2.507  -1.849  -0.198  0.00  0.00     0.003 A 
ATOM      3  C2  UNL d   1      -1.411  -1.739   0.661  0.00  0.00     0.048 A 
ATOM      4  C3  UNL d   1      -0.944  -0.477   1.027  0.00  0.00     0.023 A 
ATOM      5  C4  UNL d   1      -1.565   0.675   0.541  0.00  0.00     0.048 A 
ATOM      6  C5  UNL d   1      -2.660   0.559  -0.318  0.00  0.00     0.003 A 
ATOM      7  I   UNL d   1       0.686  -0.310   2.305  0.00  0.00    -0.146 I 
ENDROOT
TORSDOF 0
ENDMDL
