MODEL 1
REMARK minimizedAffinity -0.799611866
REMARK minimizedRMSD -1
REMARK  0 active torsions:
REMARK  status: ('A' for Active; 'I' for Inactive)
ROOT
ATOM      1  C   UNL d   1      -0.185   2.133  -1.103  0.00  0.00     0.172 C 
ATOM      2  N   UNL d   1      -1.489   2.441  -0.564  0.00  0.00    -0.070 N 
ATOM      3  C1  UNL d   1      -2.274   3.501  -0.930  0.00  0.00    -0.004 A 
ATOM      4  C2  UNL d   1      -3.435   3.442  -0.189  0.00  0.00    -0.047 A 
ATOM      5  C3  UNL d   1      -3.344   2.308   0.651  0.00  0.00    -0.047 A 
ATOM      6  C4  UNL d   1      -2.129   1.706   0.399  0.00  0.00    -0.004 A 
ENDROOT
TORSDOF 0
ENDMDL
