MODEL 1
REMARK minimizedAffinity 2.90486741
REMARK minimizedRMSD -1
REMARK  0 active torsions:
REMARK  status: ('A' for Active; 'I' for Inactive)
ROOT
ATOM      1  C   UNL d   1      -2.627  -1.416   0.651  0.00  0.00     0.172 C 
ATOM      2  N   UNL d   1      -2.851  -1.105   2.043  0.00  0.00    -0.070 N 
ATOM      3  C1  UNL d   1      -3.894  -1.559   2.805  0.00  0.00    -0.004 A 
ATOM      4  C2  UNL d   1      -3.748  -1.039   4.073  0.00  0.00    -0.047 A 
ATOM      5  C3  UNL d   1      -2.577  -0.244   4.073  0.00  0.00    -0.047 A 
ATOM      6  C4  UNL d   1      -2.042  -0.303   2.804  0.00  0.00    -0.004 A 
ENDROOT
TORSDOF 0
ENDMDL
