MODEL 1
REMARK minimizedAffinity -3.55527663
REMARK minimizedRMSD -1
REMARK  0 active torsions:
REMARK  status: ('A' for Active; 'I' for Inactive)
ROOT
ATOM      1  C   UNL d   1      -2.609   1.993  -0.265  0.00  0.00     0.172 C 
ATOM      2  N   UNL d   1      -2.793   1.135   0.883  0.00  0.00    -0.070 N 
ATOM      3  C1  UNL d   1      -3.237  -0.160   0.848  0.00  0.00    -0.004 A 
ATOM      4  C2  UNL d   1      -3.275  -0.627   2.144  0.00  0.00    -0.047 A 
ATOM      5  C3  UNL d   1      -2.839   0.424   2.986  0.00  0.00    -0.047 A 
ATOM      6  C4  UNL d   1      -2.548   1.503   2.179  0.00  0.00    -0.004 A 
ENDROOT
TORSDOF 0
ENDMDL
