MODEL 1
REMARK minimizedAffinity -2.70282912
REMARK minimizedRMSD -1
REMARK  0 active torsions:
REMARK  status: ('A' for Active; 'I' for Inactive)
ROOT
ATOM      1  C   UNL d   1      -2.360   1.913   0.715  0.00  0.00     0.172 C 
ATOM      2  N   UNL d   1      -2.440   0.756   1.575  0.00  0.00    -0.070 N 
ATOM      3  C1  UNL d   1      -2.592   0.782   2.936  0.00  0.00    -0.004 A 
ATOM      4  C2  UNL d   1      -2.624  -0.522   3.382  0.00  0.00    -0.047 A 
ATOM      5  C3  UNL d   1      -2.485  -1.360   2.250  0.00  0.00    -0.047 A 
ATOM      6  C4  UNL d   1      -2.373  -0.543   1.145  0.00  0.00    -0.004 A 
ENDROOT
TORSDOF 0
ENDMDL
