MODEL 1
REMARK minimizedAffinity -0.918113232
REMARK minimizedRMSD -1
REMARK  0 active torsions:
REMARK  status: ('A' for Active; 'I' for Inactive)
ROOT
ATOM      1  C   UNL d   1      -3.277   4.428   0.210  0.00  0.00     0.172 C 
ATOM      2  N   UNL d   1      -3.246   2.986   0.131  0.00  0.00    -0.070 N 
ATOM      3  C1  UNL d   1      -4.159   2.203  -0.524  0.00  0.00    -0.004 A 
ATOM      4  C2  UNL d   1      -3.778   0.888  -0.365  0.00  0.00    -0.047 A 
ATOM      5  C3  UNL d   1      -2.596   0.881   0.414  0.00  0.00    -0.047 A 
ATOM      6  C4  UNL d   1      -2.290   2.193   0.707  0.00  0.00    -0.004 A 
ENDROOT
TORSDOF 0
ENDMDL
