MODEL 1
REMARK minimizedAffinity 1.62429583
REMARK minimizedRMSD -1
REMARK  0 active torsions:
REMARK  status: ('A' for Active; 'I' for Inactive)
ROOT
ATOM      1  C   UNL d   1       4.135   2.997   3.010  0.00  0.00     0.172 C 
ATOM      2  N   UNL d   1       4.852   1.942   3.686  0.00  0.00    -0.070 N 
ATOM      3  C1  UNL d   1       5.086   0.689   3.186  0.00  0.00    -0.004 A 
ATOM      4  C2  UNL d   1       5.799  -0.017   4.131  0.00  0.00    -0.047 A 
ATOM      5  C3  UNL d   1       6.000   0.842   5.238  0.00  0.00    -0.047 A 
ATOM      6  C4  UNL d   1       5.403   2.048   4.935  0.00  0.00    -0.004 A 
ENDROOT
TORSDOF 0
ENDMDL
