MODEL 1
REMARK minimizedAffinity -1.54559577
REMARK minimizedRMSD -1
REMARK  0 active torsions:
REMARK  status: ('A' for Active; 'I' for Inactive)
ROOT
ATOM      1  C   UNL d   1       5.999   3.403   3.391  0.00  0.00     0.172 C 
ATOM      2  N   UNL d   1       5.639   2.007   3.479  0.00  0.00    -0.070 N 
ATOM      3  C1  UNL d   1       5.998   1.152   4.486  0.00  0.00    -0.004 A 
ATOM      4  C2  UNL d   1       5.460  -0.084   4.203  0.00  0.00    -0.047 A 
ATOM      5  C3  UNL d   1       4.754   0.031   2.982  0.00  0.00    -0.047 A 
ATOM      6  C4  UNL d   1       4.881   1.336   2.555  0.00  0.00    -0.004 A 
ENDROOT
TORSDOF 0
ENDMDL
