MODEL 1
REMARK minimizedAffinity 0.179114476
REMARK minimizedRMSD -1
REMARK  0 active torsions:
REMARK  status: ('A' for Active; 'I' for Inactive)
ROOT
ATOM      1  C   UNL d   1       4.646   2.369   3.000  0.00  0.00     0.172 C 
ATOM      2  N   UNL d   1       5.196   1.340   3.850  0.00  0.00    -0.070 N 
ATOM      3  C1  UNL d   1       5.497   0.061   3.464  0.00  0.00    -0.004 A 
ATOM      4  C2  UNL d   1       5.999  -0.604   4.561  0.00  0.00    -0.047 A 
ATOM      5  C3  UNL d   1       6.000   0.305   5.645  0.00  0.00    -0.047 A 
ATOM      6  C4  UNL d   1       5.498   1.501   5.177  0.00  0.00    -0.004 A 
ENDROOT
TORSDOF 0
ENDMDL
