MODEL 1
REMARK minimizedAffinity -3.1043396
REMARK minimizedRMSD -1
REMARK  0 active torsions:
REMARK  status: ('A' for Active; 'I' for Inactive)
ROOT
ATOM      1  C   UNL d   1       5.991   0.756   5.270  0.00  0.00     0.172 C 
ATOM      2  N   UNL d   1       4.902   0.513   4.353  0.00  0.00    -0.070 N 
ATOM      3  C1  UNL d   1       4.094  -0.593   4.349  0.00  0.00    -0.004 A 
ATOM      4  C2  UNL d   1       3.183  -0.446   3.326  0.00  0.00    -0.047 A 
ATOM      5  C3  UNL d   1       3.453   0.790   2.692  0.00  0.00    -0.047 A 
ATOM      6  C4  UNL d   1       4.523   1.363   3.348  0.00  0.00    -0.004 A 
ENDROOT
TORSDOF 0
ENDMDL
