MODEL 1
REMARK minimizedAffinity -1.20688474
REMARK minimizedRMSD -1
REMARK  0 active torsions:
REMARK  status: ('A' for Active; 'I' for Inactive)
ROOT
ATOM      1  C   UNL d   1      -3.665   4.745   0.298  0.00  0.00     0.172 C 
ATOM      2  N   UNL d   1      -3.412   3.323   0.331  0.00  0.00    -0.070 N 
ATOM      3  C1  UNL d   1      -2.484   2.696   1.118  0.00  0.00    -0.004 A 
ATOM      4  C2  UNL d   1      -2.554   1.344   0.857  0.00  0.00    -0.047 A 
ATOM      5  C3  UNL d   1      -3.558   1.153  -0.121  0.00  0.00    -0.047 A 
ATOM      6  C4  UNL d   1      -4.073   2.395  -0.429  0.00  0.00    -0.004 A 
ENDROOT
TORSDOF 0
ENDMDL
