MODEL 1
REMARK minimizedAffinity 4.84515476
REMARK minimizedRMSD -1
REMARK  0 active torsions:
REMARK  status: ('A' for Active; 'I' for Inactive)
ROOT
ATOM      1  C   UNL d   1      -4.370   5.004   2.457  0.00  0.00     0.172 C 
ATOM      2  N   UNL d   1      -4.735   5.295   3.823  0.00  0.00    -0.070 N 
ATOM      3  C1  UNL d   1      -3.933   5.905   4.751  0.00  0.00    -0.004 A 
ATOM      4  C2  UNL d   1      -4.645   5.999   5.927  0.00  0.00    -0.047 A 
ATOM      5  C3  UNL d   1      -5.918   5.425   5.699  0.00  0.00    -0.047 A 
ATOM      6  C4  UNL d   1      -5.947   4.997   4.388  0.00  0.00    -0.004 A 
ENDROOT
TORSDOF 0
ENDMDL
