MODEL 1
REMARK minimizedAffinity -2.5710485
REMARK minimizedRMSD -1
REMARK  0 active torsions:
REMARK  status: ('A' for Active; 'I' for Inactive)
ROOT
ATOM      1  C   UNL d   1       5.999   0.349   5.272  0.00  0.00     0.172 C 
ATOM      2  N   UNL d   1       4.922   0.014   4.370  0.00  0.00    -0.070 N 
ATOM      3  C1  UNL d   1       3.863  -0.803   4.660  0.00  0.00    -0.004 A 
ATOM      4  C2  UNL d   1       3.060  -0.867   3.541  0.00  0.00    -0.047 A 
ATOM      5  C3  UNL d   1       3.659  -0.061   2.544  0.00  0.00    -0.047 A 
ATOM      6  C4  UNL d   1       4.810   0.473   3.084  0.00  0.00    -0.004 A 
ENDROOT
TORSDOF 0
ENDMDL
