MODEL 1
REMARK minimizedAffinity -0.081048198
REMARK minimizedRMSD -1
REMARK  0 active torsions:
REMARK  status: ('A' for Active; 'I' for Inactive)
ROOT
ATOM      1  C   UNL d   1      -2.984   1.570  -0.086  0.00  0.00     0.172 C 
ATOM      2  N   UNL d   1      -2.924   2.990   0.168  0.00  0.00    -0.070 N 
ATOM      3  C1  UNL d   1      -3.990   3.791   0.482  0.00  0.00    -0.004 A 
ATOM      4  C2  UNL d   1      -3.519   5.075   0.647  0.00  0.00    -0.047 A 
ATOM      5  C3  UNL d   1      -2.122   5.046   0.424  0.00  0.00    -0.047 A 
ATOM      6  C4  UNL d   1      -1.780   3.743   0.129  0.00  0.00    -0.004 A 
ENDROOT
TORSDOF 0
ENDMDL
