MODEL 1
REMARK minimizedAffinity -1.04169667
REMARK minimizedRMSD -1
REMARK  0 active torsions:
REMARK  status: ('A' for Active; 'I' for Inactive)
ROOT
ATOM      1  C   UNL d   1       6.000   1.123   5.402  0.00  0.00     0.172 C 
ATOM      2  N   UNL d   1       5.031   1.054   4.333  0.00  0.00    -0.070 N 
ATOM      3  C1  UNL d   1       4.739   2.062   3.454  0.00  0.00    -0.004 A 
ATOM      4  C2  UNL d   1       3.767   1.602   2.592  0.00  0.00    -0.047 A 
ATOM      5  C3  UNL d   1       3.464   0.272   2.967  0.00  0.00    -0.047 A 
ATOM      6  C4  UNL d   1       4.260  -0.042   4.048  0.00  0.00    -0.004 A 
ENDROOT
TORSDOF 0
ENDMDL
