MODEL 1
REMARK minimizedAffinity -2.32824779
REMARK minimizedRMSD -1
REMARK  0 active torsions:
REMARK  status: ('A' for Active; 'I' for Inactive)
ROOT
ATOM      1  C   UNL d   1       6.000   0.578   5.383  0.00  0.00     0.172 C 
ATOM      2  N   UNL d   1       5.031   0.259   4.362  0.00  0.00    -0.070 N 
ATOM      3  C1  UNL d   1       4.229  -0.851   4.340  0.00  0.00    -0.004 A 
ATOM      4  C2  UNL d   1       3.449  -0.787   3.206  0.00  0.00    -0.047 A 
ATOM      5  C3  UNL d   1       3.795   0.403   2.521  0.00  0.00    -0.047 A 
ATOM      6  C4  UNL d   1       4.776   1.031   3.259  0.00  0.00    -0.004 A 
ENDROOT
TORSDOF 0
ENDMDL
