MODEL 1
REMARK minimizedAffinity -0.204054773
REMARK minimizedRMSD -1
REMARK  0 active torsions:
REMARK  status: ('A' for Active; 'I' for Inactive)
ROOT
ATOM      1  C   UNL d   1       4.126   2.406   2.249  0.00  0.00     0.172 C 
ATOM      2  N   UNL d   1       4.635   1.433   3.188  0.00  0.00    -0.070 N 
ATOM      3  C1  UNL d   1       3.959   0.331   3.640  0.00  0.00    -0.004 A 
ATOM      4  C2  UNL d   1       4.785  -0.339   4.517  0.00  0.00    -0.047 A 
ATOM      5  C3  UNL d   1       5.997   0.386   4.596  0.00  0.00    -0.047 A 
ATOM      6  C4  UNL d   1       5.877   1.479   3.763  0.00  0.00    -0.004 A 
ENDROOT
TORSDOF 0
ENDMDL
