MODEL 1
REMARK minimizedAffinity 0.403685898
REMARK minimizedRMSD -1
REMARK  0 active torsions:
REMARK  status: ('A' for Active; 'I' for Inactive)
ROOT
ATOM      1  C   UNL d   1       0.924  -2.248  -2.161  0.00  0.00     0.172 C 
ATOM      2  N   UNL d   1       0.632  -2.948  -0.932  0.00  0.00    -0.070 N 
ATOM      3  C1  UNL d   1       1.511  -3.728  -0.229  0.00  0.00    -0.004 A 
ATOM      4  C2  UNL d   1       0.851  -4.215   0.879  0.00  0.00    -0.047 A 
ATOM      5  C3  UNL d   1      -0.470  -3.709   0.841  0.00  0.00    -0.047 A 
ATOM      6  C4  UNL d   1      -0.579  -2.928  -0.291  0.00  0.00    -0.004 A 
ENDROOT
TORSDOF 0
ENDMDL
