MODEL 1
REMARK minimizedAffinity -1.22699535
REMARK minimizedRMSD -1
REMARK  0 active torsions:
REMARK  status: ('A' for Active; 'I' for Inactive)
ROOT
ATOM      1  C   UNL d   1      -4.015   0.289  -0.035  0.00  0.00     0.172 C 
ATOM      2  N   UNL d   1      -3.536   1.650   0.022  0.00  0.00    -0.070 N 
ATOM      3  C1  UNL d   1      -2.315   2.086  -0.421  0.00  0.00    -0.004 A 
ATOM      4  C2  UNL d   1      -2.242   3.443  -0.190  0.00  0.00    -0.047 A 
ATOM      5  C3  UNL d   1      -3.460   3.836   0.414  0.00  0.00    -0.047 A 
ATOM      6  C4  UNL d   1      -4.243   2.706   0.533  0.00  0.00    -0.004 A 
ENDROOT
TORSDOF 0
ENDMDL
