MODEL 1
REMARK minimizedAffinity 2.84998751
REMARK minimizedRMSD -1
REMARK  0 active torsions:
REMARK  status: ('A' for Active; 'I' for Inactive)
ROOT
ATOM      1  C   UNL d   1      -4.279   0.127  -0.808  0.00  0.00    -0.002 A 
ATOM      2  C1  UNL d   1      -3.926   1.348  -0.248  0.00  0.00     0.010 A 
ATOM      3  C2  UNL d   1      -2.630   1.564   0.225  0.00  0.00     0.041 A 
ATOM      4  C3  UNL d   1      -1.685   0.524   0.124  0.00  0.00    -0.075 A 
ATOM      5  S   UNL d   1      -0.040   0.562   0.636  0.00  0.00     0.015 SA
ATOM      6  C4  UNL d   1       0.234  -1.041   0.124  0.00  0.00     0.022 A 
ATOM      7  C5  UNL d   1      -0.892  -1.606  -0.426  0.00  0.00     0.026 A 
ATOM      8  C6  UNL d   1      -2.016  -0.713  -0.436  0.00  0.00    -0.082 A 
ATOM      9  C7  UNL d   1      -3.339  -0.902  -0.906  0.00  0.00     0.045 A 
ENDROOT
TORSDOF 0
ENDMDL
