MODEL 1
REMARK minimizedAffinity -4.56758451
REMARK minimizedRMSD -1
REMARK  0 active torsions:
REMARK  status: ('A' for Active; 'I' for Inactive)
ROOT
ATOM      1  C   UNL d   1      -2.089   0.381   0.365  0.00  0.00    -0.002 A 
ATOM      2  C1  UNL d   1      -2.103   0.626   1.730  0.00  0.00     0.010 A 
ATOM      3  C2  UNL d   1      -0.973   0.372   2.509  0.00  0.00     0.041 A 
ATOM      4  C3  UNL d   1       0.184  -0.135   1.886  0.00  0.00    -0.075 A 
ATOM      5  S   UNL d   1       1.687  -0.521   2.639  0.00  0.00     0.015 SA
ATOM      6  C4  UNL d   1       2.383  -1.019   1.165  0.00  0.00     0.022 A 
ATOM      7  C5  UNL d   1       1.504  -0.902   0.114  0.00  0.00     0.026 A 
ATOM      8  C6  UNL d   1       0.223  -0.390   0.512  0.00  0.00    -0.082 A 
ATOM      9  C7  UNL d   1      -0.940  -0.123  -0.250  0.00  0.00     0.045 A 
ENDROOT
TORSDOF 0
ENDMDL
