MODEL 1
REMARK minimizedAffinity -4.58080387
REMARK minimizedRMSD -1
REMARK  0 active torsions:
REMARK  status: ('A' for Active; 'I' for Inactive)
ROOT
ATOM      1  C   UNL d   1      -1.379   0.766   2.454  0.00  0.00    -0.002 A 
ATOM      2  C1  UNL d   1      -2.090   0.421   1.313  0.00  0.00     0.010 A 
ATOM      3  C2  UNL d   1      -1.428  -0.060   0.182  0.00  0.00     0.041 A 
ATOM      4  C3  UNL d   1      -0.025  -0.191   0.218  0.00  0.00    -0.075 A 
ATOM      5  S   UNL d   1       0.998  -0.759  -1.048  0.00  0.00     0.015 SA
ATOM      6  C4  UNL d   1       2.403  -0.557  -0.104  0.00  0.00     0.022 A 
ATOM      7  C5  UNL d   1       2.116  -0.069   1.149  0.00  0.00     0.026 A 
ATOM      8  C6  UNL d   1       0.712   0.150   1.355  0.00  0.00    -0.082 A 
ATOM      9  C7  UNL d   1       0.011   0.635   2.486  0.00  0.00     0.045 A 
ENDROOT
TORSDOF 0
ENDMDL
