MODEL 1
REMARK minimizedAffinity -4.38706017
REMARK minimizedRMSD -1
REMARK  0 active torsions:
REMARK  status: ('A' for Active; 'I' for Inactive)
ROOT
ATOM      1  C   UNL d   1       2.896  -0.414   1.894  0.00  0.00    -0.002 A 
ATOM      2  C1  UNL d   1       2.661  -0.917   0.623  0.00  0.00     0.010 A 
ATOM      3  C2  UNL d   1       1.385  -0.856   0.059  0.00  0.00     0.041 A 
ATOM      4  C3  UNL d   1       0.340  -0.273   0.802  0.00  0.00    -0.075 A 
ATOM      5  S   UNL d   1      -1.304  -0.087   0.314  0.00  0.00     0.015 SA
ATOM      6  C4  UNL d   1      -1.732   0.665   1.782  0.00  0.00     0.022 A 
ATOM      7  C5  UNL d   1      -0.660   0.779   2.635  0.00  0.00     0.026 A 
ATOM      8  C6  UNL d   1       0.552   0.241   2.084  0.00  0.00    -0.082 A 
ATOM      9  C7  UNL d   1       1.856   0.163   2.628  0.00  0.00     0.045 A 
ENDROOT
TORSDOF 0
ENDMDL
