MODEL 1
REMARK minimizedAffinity -3.0708406
REMARK minimizedRMSD -1
REMARK  0 active torsions:
REMARK  status: ('A' for Active; 'I' for Inactive)
ROOT
ATOM      1  C1  BNZ d   1      -6.000   4.848  -3.480  0.00  0.00     0.000 A 
ATOM      2  C2  BNZ d   1      -5.999   5.255  -4.788  0.00  0.00     0.000 A 
ATOM      3  C3  BNZ d   1      -4.984   4.899  -5.631  0.00  0.00     0.000 A 
ATOM      4  C4  BNZ d   1      -3.952   4.172  -5.156  0.00  0.00     0.000 A 
ATOM      5  C5  BNZ d   1      -3.933   3.763  -3.838  0.00  0.00     0.000 A 
ATOM      6  C6  BNZ d   1      -4.976   4.090  -3.002  0.00  0.00     0.000 A 
ENDROOT
TORSDOF 0
ENDMDL
