MODEL 1
REMARK minimizedAffinity 1.10682333
REMARK minimizedRMSD -1
REMARK  0 active torsions:
REMARK  status: ('A' for Active; 'I' for Inactive)
ROOT
ATOM      1  C1  BNZ d   1      -3.481  -5.861  -5.874  0.00  0.00     0.000 A 
ATOM      2  C2  BNZ d   1      -4.034  -4.615  -5.997  0.00  0.00     0.000 A 
ATOM      3  C3  BNZ d   1      -3.248  -3.497  -5.999  0.00  0.00     0.000 A 
ATOM      4  C4  BNZ d   1      -1.915  -3.624  -5.838  0.00  0.00     0.000 A 
ATOM      5  C5  BNZ d   1      -1.343  -4.874  -5.704  0.00  0.00     0.000 A 
ATOM      6  C6  BNZ d   1      -2.134  -5.999  -5.742  0.00  0.00     0.000 A 
ENDROOT
TORSDOF 0
ENDMDL
