MODEL 1
REMARK minimizedAffinity 5.19699335
REMARK minimizedRMSD -1
REMARK  0 active torsions:
REMARK  status: ('A' for Active; 'I' for Inactive)
ROOT
ATOM      1  C1  BNZ d   1      -2.274  -4.518  -6.000  0.00  0.00     0.000 A 
ATOM      2  C2  BNZ d   1      -1.799  -3.234  -6.000  0.00  0.00     0.000 A 
ATOM      3  C3  BNZ d   1      -0.922  -2.812  -5.040  0.00  0.00     0.000 A 
ATOM      4  C4  BNZ d   1      -0.553  -3.662  -4.060  0.00  0.00     0.000 A 
ATOM      5  C5  BNZ d   1      -1.030  -4.957  -4.041  0.00  0.00     0.000 A 
ATOM      6  C6  BNZ d   1      -1.882  -5.390  -5.031  0.00  0.00     0.000 A 
ENDROOT
TORSDOF 0
ENDMDL
