MODEL 1
REMARK minimizedAffinity 8.68176174
REMARK minimizedRMSD -1
REMARK  0 active torsions:
REMARK  status: ('A' for Active; 'I' for Inactive)
ROOT
ATOM      1  C1  BNZ d   1      -4.591  -1.357   3.710  0.00  0.00     0.000 A 
ATOM      2  C2  BNZ d   1      -4.595  -2.630   4.215  0.00  0.00     0.000 A 
ATOM      3  C3  BNZ d   1      -5.317  -2.936   5.335  0.00  0.00     0.000 A 
ATOM      4  C4  BNZ d   1      -6.000  -1.962   5.970  0.00  0.00     0.000 A 
ATOM      5  C5  BNZ d   1      -5.998  -0.672   5.478  0.00  0.00     0.000 A 
ATOM      6  C6  BNZ d   1      -5.302  -0.376   4.329  0.00  0.00     0.000 A 
ENDROOT
TORSDOF 0
ENDMDL
