MODEL 1
REMARK minimizedAffinity 11.2500048
REMARK minimizedRMSD -1
REMARK  0 active torsions:
REMARK  status: ('A' for Active; 'I' for Inactive)
ROOT
ATOM      1  C1  BNZ d   1      -0.803   3.430  -2.193  0.00  0.00     0.000 A 
ATOM      2  C2  BNZ d   1      -0.984   2.120  -1.835  0.00  0.00     0.000 A 
ATOM      3  C3  BNZ d   1      -0.567   1.664  -0.616  0.00  0.00     0.000 A 
ATOM      4  C4  BNZ d   1       0.066   2.506   0.226  0.00  0.00     0.000 A 
ATOM      5  C5  BNZ d   1       0.264   3.827  -0.124  0.00  0.00     0.000 A 
ATOM      6  C6  BNZ d   1      -0.192   4.292  -1.336  0.00  0.00     0.000 A 
ENDROOT
TORSDOF 0
ENDMDL
