MODEL 1
REMARK minimizedAffinity 6.99621725
REMARK minimizedRMSD -1
REMARK  0 active torsions:
REMARK  status: ('A' for Active; 'I' for Inactive)
ROOT
ATOM      1  C1  BNZ d   1       0.370   4.926  -1.449  0.00  0.00     0.000 A 
ATOM      2  C2  BNZ d   1       0.665   4.246  -0.297  0.00  0.00     0.000 A 
ATOM      3  C3  BNZ d   1       0.306   2.936  -0.146  0.00  0.00     0.000 A 
ATOM      4  C4  BNZ d   1      -0.383   2.320  -1.128  0.00  0.00     0.000 A 
ATOM      5  C5  BNZ d   1      -0.697   2.995  -2.291  0.00  0.00     0.000 A 
ATOM      6  C6  BNZ d   1      -0.299   4.302  -2.456  0.00  0.00     0.000 A 
ENDROOT
TORSDOF 0
ENDMDL
