MODEL 1
REMARK minimizedAffinity -1.74253631
REMARK minimizedRMSD -1
REMARK  0 active torsions:
REMARK  status: ('A' for Active; 'I' for Inactive)
ROOT
ATOM      1  C1  BNZ d   1       1.074   5.277  -2.592  0.00  0.00     0.000 A 
ATOM      2  C2  BNZ d   1       1.640   4.273  -1.852  0.00  0.00     0.000 A 
ATOM      3  C3  BNZ d   1       0.862   3.340  -1.227  0.00  0.00     0.000 A 
ATOM      4  C4  BNZ d   1      -0.481   3.435  -1.308  0.00  0.00     0.000 A 
ATOM      5  C5  BNZ d   1      -1.067   4.446  -2.042  0.00  0.00     0.000 A 
ATOM      6  C6  BNZ d   1      -0.280   5.361  -2.702  0.00  0.00     0.000 A 
ENDROOT
TORSDOF 0
ENDMDL
