MODEL 1
REMARK minimizedAffinity 5.11176157
REMARK minimizedRMSD -1
REMARK  0 active torsions:
REMARK  status: ('A' for Active; 'I' for Inactive)
ROOT
ATOM      1  C1  BNZ d   1       3.977  -1.404  -4.833  0.00  0.00     0.000 A 
ATOM      2  C2  BNZ d   1       5.268  -1.858  -4.790  0.00  0.00     0.000 A 
ATOM      3  C3  BNZ d   1       5.831  -2.257  -3.610  0.00  0.00     0.000 A 
ATOM      4  C4  BNZ d   1       5.116  -2.165  -2.470  0.00  0.00     0.000 A 
ATOM      5  C5  BNZ d   1       3.816  -1.701  -2.495  0.00  0.00     0.000 A 
ATOM      6  C6  BNZ d   1       3.240  -1.337  -3.691  0.00  0.00     0.000 A 
ENDROOT
TORSDOF 0
ENDMDL
