MODEL 1
REMARK minimizedAffinity 0.357346863
REMARK minimizedRMSD -1
REMARK  0 active torsions:
REMARK  status: ('A' for Active; 'I' for Inactive)
ROOT
ATOM      1  C1  BNZ d   1      -0.476  -6.000  -0.696  0.00  0.00     0.000 A 
ATOM      2  C2  BNZ d   1      -0.439  -5.642   0.625  0.00  0.00     0.000 A 
ATOM      3  C3  BNZ d   1       0.736  -5.271   1.217  0.00  0.00     0.000 A 
ATOM      4  C4  BNZ d   1       1.878  -5.297   0.499  0.00  0.00     0.000 A 
ATOM      5  C5  BNZ d   1       1.858  -5.665  -0.831  0.00  0.00     0.000 A 
ATOM      6  C6  BNZ d   1       0.668  -6.000  -1.434  0.00  0.00     0.000 A 
ENDROOT
TORSDOF 0
ENDMDL
