MODEL 1
REMARK minimizedAffinity 4.77051592
REMARK minimizedRMSD -1
REMARK  1 active torsions:
REMARK  status: ('A' for Active; 'I' for Inactive)
REMARK    1  A    between atoms: C1_2  and  C2_3 
ROOT
ATOM      1  C2  UNL d   1      -1.149  -0.356   1.473  0.00  0.00    -0.076 A 
ATOM      2  C3  UNL d   1      -1.888  -1.404   0.896  0.00  0.00     0.004 A 
ATOM      3  C4  UNL d   1      -2.765  -1.167  -0.161  0.00  0.00    -0.003 A 
ATOM      4  C5  UNL d   1      -2.917   0.123  -0.659  0.00  0.00     0.000 A 
ATOM      5  C6  UNL d   1      -2.179   1.171  -0.111  0.00  0.00     0.000 A 
ATOM      6  C7  UNL d   1      -1.279   0.946   0.945  0.00  0.00    -0.073 A 
ATOM      7  C8  UNL d   1      -0.513   2.115   1.502  0.00  0.00     0.078 C 
ENDROOT
BRANCH   1   8
ATOM      8  C1  UNL d   1      -0.234  -0.669   2.635  0.00  0.00     0.053 C 
ATOM      9  C   UNL d   1       1.098  -1.250   2.187  0.00  0.00     0.018 C 
ENDBRANCH   1   8
TORSDOF 1
ENDMDL
