MODEL 1
REMARK minimizedAffinity 8.97752762
REMARK minimizedRMSD -1
REMARK  1 active torsions:
REMARK  status: ('A' for Active; 'I' for Inactive)
REMARK    1  A    between atoms: C1_2  and  C2_3 
ROOT
ATOM      1  C2  UNL d   1      -0.374  -0.341   1.681  0.00  0.00    -0.076 A 
ATOM      2  C3  UNL d   1      -0.063   1.011   1.910  0.00  0.00     0.004 A 
ATOM      3  C4  UNL d   1      -0.839   2.029   1.357  0.00  0.00    -0.003 A 
ATOM      4  C5  UNL d   1      -1.938   1.712   0.568  0.00  0.00     0.000 A 
ATOM      5  C6  UNL d   1      -2.272   0.376   0.345  0.00  0.00     0.000 A 
ATOM      6  C7  UNL d   1      -1.510  -0.662   0.908  0.00  0.00    -0.073 A 
ATOM      7  C8  UNL d   1      -1.912  -2.085   0.629  0.00  0.00     0.078 C 
ENDROOT
BRANCH   1   8
ATOM      8  C1  UNL d   1       0.519  -1.402   2.284  0.00  0.00     0.053 C 
ATOM      9  C   UNL d   1       1.063  -1.000   3.646  0.00  0.00     0.018 C 
ENDBRANCH   1   8
TORSDOF 1
ENDMDL
