MODEL 1
REMARK minimizedAffinity 8.24276066
REMARK minimizedRMSD -1
REMARK  1 active torsions:
REMARK  status: ('A' for Active; 'I' for Inactive)
REMARK    1  A    between atoms: C1_2  and  C2_3 
ROOT
ATOM      1  C2  UNL d   1      -1.049  -0.289   1.044  0.00  0.00    -0.076 A 
ATOM      2  C3  UNL d   1       0.307   0.025   0.846  0.00  0.00     0.004 A 
ATOM      3  C4  UNL d   1       1.253  -0.219   1.840  0.00  0.00    -0.003 A 
ATOM      4  C5  UNL d   1       0.858  -0.783   3.049  0.00  0.00     0.000 A 
ATOM      5  C6  UNL d   1      -0.480  -1.118   3.256  0.00  0.00     0.000 A 
ATOM      6  C7  UNL d   1      -1.443  -0.893   2.258  0.00  0.00    -0.073 A 
ATOM      7  C8  UNL d   1      -2.873  -1.267   2.537  0.00  0.00     0.078 C 
ENDROOT
BRANCH   1   8
ATOM      8  C1  UNL d   1      -2.034   0.024  -0.059  0.00  0.00     0.053 C 
ATOM      9  C   UNL d   1      -2.098  -1.072  -1.111  0.00  0.00     0.018 C 
ENDBRANCH   1   8
TORSDOF 1
ENDMDL
