MODEL 1
REMARK minimizedAffinity 1.81553185
REMARK minimizedRMSD -1
REMARK  1 active torsions:
REMARK  status: ('A' for Active; 'I' for Inactive)
REMARK    1  A    between atoms: C1_2  and  C2_3 
ROOT
ATOM      1  C2  UNL d   1       0.904   0.050   1.406  0.00  0.00    -0.076 A 
ATOM      2  C3  UNL d   1       0.035   0.663   0.486  0.00  0.00     0.004 A 
ATOM      3  C4  UNL d   1      -1.348   0.555   0.625  0.00  0.00    -0.003 A 
ATOM      4  C5  UNL d   1      -1.884  -0.166   1.686  0.00  0.00     0.000 A 
ATOM      5  C6  UNL d   1      -1.037  -0.766   2.617  0.00  0.00     0.000 A 
ATOM      6  C7  UNL d   1       0.360  -0.653   2.501  0.00  0.00    -0.073 A 
ATOM      7  C8  UNL d   1       1.226  -1.325   3.531  0.00  0.00     0.078 C 
ENDROOT
BRANCH   1   8
ATOM      8  C1  UNL d   1       2.395   0.178   1.189  0.00  0.00     0.053 C 
ATOM      9  C   UNL d   1       2.841   1.625   1.044  0.00  0.00     0.018 C 
ENDBRANCH   1   8
TORSDOF 1
ENDMDL
