MODEL 1
REMARK minimizedAffinity 1.47309124
REMARK minimizedRMSD -1
REMARK  1 active torsions:
REMARK  status: ('A' for Active; 'I' for Inactive)
REMARK    1  A    between atoms: C1_2  and  C2_3 
ROOT
ATOM      1  C2  UNL d   1       0.385  -1.324   3.131  0.00  0.00    -0.076 A 
ATOM      2  C3  UNL d   1      -0.454  -2.129   3.922  0.00  0.00     0.004 A 
ATOM      3  C4  UNL d   1      -1.840  -2.006   3.850  0.00  0.00    -0.003 A 
ATOM      4  C5  UNL d   1      -2.411  -1.077   2.986  0.00  0.00     0.000 A 
ATOM      5  C6  UNL d   1      -1.594  -0.284   2.182  0.00  0.00     0.000 A 
ATOM      6  C7  UNL d   1      -0.194  -0.406   2.230  0.00  0.00    -0.073 A 
ATOM      7  C8  UNL d   1       0.638   0.480   1.345  0.00  0.00     0.078 C 
ENDROOT
BRANCH   1   8
ATOM      8  C1  UNL d   1       1.882  -1.483   3.271  0.00  0.00     0.053 C 
ATOM      9  C   UNL d   1       2.384  -1.084   4.650  0.00  0.00     0.018 C 
ENDBRANCH   1   8
TORSDOF 1
ENDMDL
