MODEL 1
REMARK minimizedAffinity 1.5421921
REMARK minimizedRMSD -1
REMARK  1 active torsions:
REMARK  status: ('A' for Active; 'I' for Inactive)
REMARK    1  A    between atoms: C1_2  and  C2_3 
ROOT
ATOM      1  C2  UNL d   1       0.006  -0.286   2.323  0.00  0.00    -0.076 A 
ATOM      2  C3  UNL d   1      -0.875  -1.081   3.077  0.00  0.00     0.004 A 
ATOM      3  C4  UNL d   1      -0.394  -2.022   3.986  0.00  0.00    -0.003 A 
ATOM      4  C5  UNL d   1       0.977  -2.183   4.156  0.00  0.00     0.000 A 
ATOM      5  C6  UNL d   1       1.866  -1.391   3.430  0.00  0.00     0.000 A 
ATOM      6  C7  UNL d   1       1.397  -0.426   2.522  0.00  0.00    -0.073 A 
ATOM      7  C8  UNL d   1       2.400   0.396   1.761  0.00  0.00     0.078 C 
ENDROOT
BRANCH   1   8
ATOM      8  C1  UNL d   1      -0.573   0.698   1.333  0.00  0.00     0.053 C 
ATOM      9  C   UNL d   1      -1.559   0.049   0.375  0.00  0.00     0.018 C 
ENDBRANCH   1   8
TORSDOF 1
ENDMDL
