MODEL 1
REMARK minimizedAffinity -0.589521348
REMARK minimizedRMSD -1
REMARK  0 active torsions:
REMARK  status: ('A' for Active; 'I' for Inactive)
ROOT
ATOM      1  N1  IND d   1       1.494   2.351   5.979  0.00  0.00    -0.196 N 
ATOM      2  C2  IND d   1       2.444   1.538   5.426  0.00  0.00     0.054 A 
ATOM      3  C3  IND d   1       3.359   2.274   4.756  0.00  0.00    -0.031 A 
ATOM      4  C4  IND d   1       3.551   4.830   4.523  0.00  0.00     0.051 A 
ATOM      5  C5  IND d   1       2.896   5.991   4.824  0.00  0.00    -0.031 A 
ATOM      6  C6  IND d   1       1.718   5.999   5.542  0.00  0.00     0.015 A 
ATOM      7  C7  IND d   1       1.154   4.841   5.998  0.00  0.00    -0.016 A 
ATOM      8  C8  IND d   1       1.813   3.659   5.688  0.00  0.00    -0.047 A 
ATOM      9  C9  IND d   1       2.986   3.642   4.923  0.00  0.00    -0.096 A 
ATOM     10  HN1 IND d   1       0.812   2.089   6.433  0.00  0.00     0.298 HD
ENDROOT
TORSDOF 0
ENDMDL
