MODEL 1
REMARK minimizedAffinity 18.1698494
REMARK minimizedRMSD -1
REMARK  0 active torsions:
REMARK  status: ('A' for Active; 'I' for Inactive)
ROOT
ATOM      1  N1  IND d   1       2.396  -1.334  -1.451  0.00  0.00    -0.196 N 
ATOM      2  C2  IND d   1       2.641  -0.019  -1.731  0.00  0.00     0.054 A 
ATOM      3  C3  IND d   1       3.489   0.507  -0.818  0.00  0.00    -0.031 A 
ATOM      4  C4  IND d   1       4.675  -0.636   1.160  0.00  0.00     0.051 A 
ATOM      5  C5  IND d   1       4.739  -1.819   1.840  0.00  0.00    -0.031 A 
ATOM      6  C6  IND d   1       4.012  -2.925   1.448  0.00  0.00     0.015 A 
ATOM      7  C7  IND d   1       3.200  -2.891   0.350  0.00  0.00    -0.016 A 
ATOM      8  C8  IND d   1       3.128  -1.689  -0.338  0.00  0.00    -0.047 A 
ATOM      9  C9  IND d   1       3.830  -0.551   0.079  0.00  0.00    -0.096 A 
ATOM     10  HN1 IND d   1       1.873  -1.853  -1.894  0.00  0.00     0.298 HD
ENDROOT
TORSDOF 0
ENDMDL
