MODEL 1
REMARK minimizedAffinity 4.69522333
REMARK minimizedRMSD -1
REMARK  0 active torsions:
REMARK  status: ('A' for Active; 'I' for Inactive)
ROOT
ATOM      1  N1  IND d   1       4.194   0.674  -2.340  0.00  0.00    -0.196 N 
ATOM      2  C2  IND d   1       4.260   1.459  -1.222  0.00  0.00     0.054 A 
ATOM      3  C3  IND d   1       3.651   0.847  -0.181  0.00  0.00    -0.031 A 
ATOM      4  C4  IND d   1       2.570  -1.486  -0.060  0.00  0.00     0.051 A 
ATOM      5  C5  IND d   1       2.235  -2.559  -0.836  0.00  0.00    -0.031 A 
ATOM      6  C6  IND d   1       2.544  -2.613  -2.180  0.00  0.00     0.015 A 
ATOM      7  C7  IND d   1       3.213  -1.594  -2.797  0.00  0.00    -0.016 A 
ATOM      8  C8  IND d   1       3.549  -0.499  -2.014  0.00  0.00    -0.047 A 
ATOM      9  C9  IND d   1       3.200  -0.421  -0.659  0.00  0.00    -0.096 A 
ATOM     10  HN1 IND d   1       4.503   0.878  -3.115  0.00  0.00     0.298 HD
ENDROOT
TORSDOF 0
ENDMDL
