MODEL 1
REMARK minimizedAffinity 3.03818083
REMARK minimizedRMSD -1
REMARK  0 active torsions:
REMARK  status: ('A' for Active; 'I' for Inactive)
ROOT
ATOM      1  N1  IND d   1       3.238   5.066   3.103  0.00  0.00    -0.196 N 
ATOM      2  C2  IND d   1       3.534   5.998   4.059  0.00  0.00     0.054 A 
ATOM      3  C3  IND d   1       3.428   5.456   5.293  0.00  0.00    -0.031 A 
ATOM      4  C4  IND d   1       2.882   3.034   5.975  0.00  0.00     0.051 A 
ATOM      5  C5  IND d   1       2.503   1.828   5.455  0.00  0.00    -0.031 A 
ATOM      6  C6  IND d   1       2.349   1.635   4.097  0.00  0.00     0.015 A 
ATOM      7  C7  IND d   1       2.580   2.643   3.204  0.00  0.00    -0.016 A 
ATOM      8  C8  IND d   1       2.959   3.870   3.728  0.00  0.00    -0.047 A 
ATOM      9  C9  IND d   1       3.076   4.084   5.108  0.00  0.00    -0.096 A 
ATOM     10  HN1 IND d   1       3.228   5.203   2.255  0.00  0.00     0.298 HD
ENDROOT
TORSDOF 0
ENDMDL
