MODEL 1
REMARK minimizedAffinity 10.9030132
REMARK minimizedRMSD -1
REMARK  0 active torsions:
REMARK  status: ('A' for Active; 'I' for Inactive)
ROOT
ATOM      1  N1  IND d   1       2.467   1.491  -0.827  0.00  0.00    -0.196 N 
ATOM      2  C2  IND d   1       2.821   2.033   0.377  0.00  0.00     0.054 A 
ATOM      3  C3  IND d   1       3.137   1.056   1.257  0.00  0.00    -0.031 A 
ATOM      4  C4  IND d   1       3.242  -1.492   0.906  0.00  0.00     0.051 A 
ATOM      5  C5  IND d   1       2.971  -2.464  -0.016  0.00  0.00    -0.031 A 
ATOM      6  C6  IND d   1       2.512  -2.162  -1.281  0.00  0.00     0.015 A 
ATOM      7  C7  IND d   1       2.316  -0.869  -1.678  0.00  0.00    -0.016 A 
ATOM      8  C8  IND d   1       2.583   0.121  -0.742  0.00  0.00    -0.047 A 
ATOM      9  C9  IND d   1       3.009  -0.182   0.557  0.00  0.00    -0.096 A 
ATOM     10  HN1 IND d   1       2.214   1.932  -1.521  0.00  0.00     0.298 HD
ENDROOT
TORSDOF 0
ENDMDL
