MODEL 1
REMARK minimizedAffinity 8.81027889
REMARK minimizedRMSD -1
REMARK  0 active torsions:
REMARK  status: ('A' for Active; 'I' for Inactive)
ROOT
ATOM      1  N1  IND d   1      -4.819   0.577  -0.256  0.00  0.00    -0.196 N 
ATOM      2  C2  IND d   1      -3.877   0.659   0.732  0.00  0.00     0.054 A 
ATOM      3  C3  IND d   1      -3.377   1.913   0.803  0.00  0.00    -0.031 A 
ATOM      4  C4  IND d   1      -4.031   4.013  -0.535  0.00  0.00     0.051 A 
ATOM      5  C5  IND d   1      -4.817   4.427  -1.574  0.00  0.00    -0.031 A 
ATOM      6  C6  IND d   1      -5.662   3.562  -2.238  0.00  0.00     0.015 A 
ATOM      7  C7  IND d   1      -5.763   2.247  -1.879  0.00  0.00    -0.016 A 
ATOM      8  C8  IND d   1      -4.961   1.822  -0.830  0.00  0.00    -0.047 A 
ATOM      9  C9  IND d   1      -4.070   2.685  -0.180  0.00  0.00    -0.096 A 
ATOM     10  HN1 IND d   1      -5.249  -0.132  -0.481  0.00  0.00     0.298 HD
ENDROOT
TORSDOF 0
ENDMDL
