MODEL 1
REMARK minimizedAffinity 7.08159876
REMARK minimizedRMSD -1
REMARK  0 active torsions:
REMARK  status: ('A' for Active; 'I' for Inactive)
ROOT
ATOM      1  N1  IND d   1      -1.600   5.021   4.532  0.00  0.00    -0.196 N 
ATOM      2  C2  IND d   1      -1.315   4.818   5.853  0.00  0.00     0.054 A 
ATOM      3  C3  IND d   1      -0.496   3.752   6.000  0.00  0.00    -0.031 A 
ATOM      4  C4  IND d   1       0.581   2.258   4.201  0.00  0.00     0.051 A 
ATOM      5  C5  IND d   1       0.591   2.031   2.854  0.00  0.00    -0.031 A 
ATOM      6  C6  IND d   1      -0.142   2.807   1.978  0.00  0.00     0.015 A 
ATOM      7  C7  IND d   1      -0.906   3.850   2.420  0.00  0.00    -0.016 A 
ATOM      8  C8  IND d   1      -0.924   4.079   3.788  0.00  0.00    -0.047 A 
ATOM      9  C9  IND d   1      -0.216   3.268   4.685  0.00  0.00    -0.096 A 
ATOM     10  HN1 IND d   1      -2.115   5.634   4.218  0.00  0.00     0.298 HD
ENDROOT
TORSDOF 0
ENDMDL
