MODEL 1
REMARK minimizedAffinity 8.00247002
REMARK minimizedRMSD -1
REMARK  1 active torsions:
REMARK  status: ('A' for Active; 'I' for Inactive)
REMARK    1  A    between atoms: C3_4  and  O_7 
ROOT
ATOM      1  C   UNL d   1      -5.927  -5.492  -3.914  0.00  0.00    -0.033 A 
ATOM      2  C1  UNL d   1      -5.995  -4.281  -3.222  0.00  0.00     0.039 A 
ATOM      3  C2  UNL d   1      -5.850  -3.073  -3.909  0.00  0.00    -0.080 A 
ATOM      4  C3  UNL d   1      -5.639  -3.091  -5.284  0.00  0.00     0.150 A 
ATOM      5  C4  UNL d   1      -5.574  -4.294  -5.980  0.00  0.00    -0.007 A 
ATOM      6  C5  UNL d   1      -5.717  -5.498  -5.293  0.00  0.00     0.039 A 
ENDROOT
BRANCH   4   7
ATOM      7  O   UNL d   1      -5.487  -1.938  -5.997  0.00  0.00    -0.526 OA
ATOM      8  H5  UNL d   1      -5.527  -1.188  -5.380  0.00  0.00     0.418 HD
ENDBRANCH   4   7
TORSDOF 1
ENDMDL
