MODEL 1
REMARK minimizedAffinity 8.16894245
REMARK minimizedRMSD -1
REMARK  1 active torsions:
REMARK  status: ('A' for Active; 'I' for Inactive)
REMARK    1  A    between atoms: C3_4  and  O_7 
ROOT
ATOM      1  C   UNL d   1       1.904  -4.967  -1.115  0.00  0.00    -0.033 A 
ATOM      2  C1  UNL d   1       0.891  -5.129  -2.063  0.00  0.00     0.039 A 
ATOM      3  C2  UNL d   1      -0.444  -5.177  -1.658  0.00  0.00    -0.080 A 
ATOM      4  C3  UNL d   1      -0.753  -5.062  -0.305  0.00  0.00     0.150 A 
ATOM      5  C4  UNL d   1       0.251  -4.896   0.643  0.00  0.00    -0.007 A 
ATOM      6  C5  UNL d   1       1.584  -4.849   0.237  0.00  0.00     0.039 A 
ENDROOT
BRANCH   4   7
ATOM      7  O   UNL d   1      -2.041  -5.108   0.138  0.00  0.00    -0.526 OA
ATOM      8  H5  UNL d   1      -2.624  -5.254  -0.625  0.00  0.00     0.418 HD
ENDBRANCH   4   7
TORSDOF 1
ENDMDL
