MODEL 1
REMARK minimizedAffinity 8.03260231
REMARK minimizedRMSD -1
REMARK  1 active torsions:
REMARK  status: ('A' for Active; 'I' for Inactive)
REMARK    1  A    between atoms: C3_4  and  O_7 
ROOT
ATOM      1  C   UNL d   1       1.868  -1.535   2.096  0.00  0.00    -0.033 A 
ATOM      2  C1  UNL d   1       1.852  -2.882   1.731  0.00  0.00     0.039 A 
ATOM      3  C2  UNL d   1       0.648  -3.501   1.392  0.00  0.00    -0.080 A 
ATOM      4  C3  UNL d   1      -0.532  -2.763   1.422  0.00  0.00     0.150 A 
ATOM      5  C4  UNL d   1      -0.523  -1.419   1.781  0.00  0.00    -0.007 A 
ATOM      6  C5  UNL d   1       0.680  -0.803   2.120  0.00  0.00     0.039 A 
ENDROOT
BRANCH   4   7
ATOM      7  O   UNL d   1      -1.733  -3.326   1.104  0.00  0.00    -0.526 OA
ATOM      8  H5  UNL d   1      -1.589  -4.266   0.904  0.00  0.00     0.418 HD
ENDBRANCH   4   7
TORSDOF 1
ENDMDL
