MODEL 1
REMARK minimizedAffinity 5.67848396
REMARK minimizedRMSD -1
REMARK  1 active torsions:
REMARK  status: ('A' for Active; 'I' for Inactive)
REMARK    1  A    between atoms: C3_4  and  O_7 
ROOT
ATOM      1  C   UNL d   1       1.406  -0.447   2.888  0.00  0.00    -0.033 A 
ATOM      2  C1  UNL d   1       1.935  -1.164   1.812  0.00  0.00     0.039 A 
ATOM      3  C2  UNL d   1       2.427  -2.456   2.007  0.00  0.00    -0.080 A 
ATOM      4  C3  UNL d   1       2.384  -3.019   3.279  0.00  0.00     0.150 A 
ATOM      5  C4  UNL d   1       1.854  -2.313   4.354  0.00  0.00    -0.007 A 
ATOM      6  C5  UNL d   1       1.364  -1.022   4.158  0.00  0.00     0.039 A 
ENDROOT
BRANCH   4   7
ATOM      7  O   UNL d   1       2.857  -4.275   3.519  0.00  0.00    -0.526 OA
ATOM      8  H5  UNL d   1       3.218  -4.631   2.690  0.00  0.00     0.418 HD
ENDBRANCH   4   7
TORSDOF 1
ENDMDL
