MODEL 1
REMARK minimizedAffinity 4.45281076
REMARK minimizedRMSD -1
REMARK  1 active torsions:
REMARK  status: ('A' for Active; 'I' for Inactive)
REMARK    1  A    between atoms: C3_4  and  O_7 
ROOT
ATOM      1  C   UNL d   1       1.512  -1.350   5.833  0.00  0.00    -0.033 A 
ATOM      2  C1  UNL d   1       1.505  -0.733   4.580  0.00  0.00     0.039 A 
ATOM      3  C2  UNL d   1       2.054  -1.387   3.475  0.00  0.00    -0.080 A 
ATOM      4  C3  UNL d   1       2.606  -2.655   3.636  0.00  0.00     0.150 A 
ATOM      5  C4  UNL d   1       2.613  -3.276   4.880  0.00  0.00    -0.007 A 
ATOM      6  C5  UNL d   1       2.065  -2.622   5.983  0.00  0.00     0.039 A 
ENDROOT
BRANCH   4   7
ATOM      7  O   UNL d   1       3.158  -3.330   2.588  0.00  0.00    -0.526 OA
ATOM      8  H5  UNL d   1       3.108  -2.766   1.798  0.00  0.00     0.418 HD
ENDBRANCH   4   7
TORSDOF 1
ENDMDL
