MODEL 1
REMARK minimizedAffinity 9.94380569
REMARK minimizedRMSD -1
REMARK  1 active torsions:
REMARK  status: ('A' for Active; 'I' for Inactive)
REMARK    1  A    between atoms: C3_4  and  O_7 
ROOT
ATOM      1  C   UNL d   1       0.895  -1.197   2.445  0.00  0.00    -0.033 A 
ATOM      2  C1  UNL d   1       1.281  -0.171   1.581  0.00  0.00     0.039 A 
ATOM      3  C2  UNL d   1       2.348  -0.362   0.700  0.00  0.00    -0.080 A 
ATOM      4  C3  UNL d   1       3.018  -1.582   0.693  0.00  0.00     0.150 A 
ATOM      5  C4  UNL d   1       2.636  -2.610   1.548  0.00  0.00    -0.007 A 
ATOM      6  C5  UNL d   1       1.571  -2.417   2.428  0.00  0.00     0.039 A 
ENDROOT
BRANCH   4   7
ATOM      7  O   UNL d   1       4.067  -1.814  -0.146  0.00  0.00    -0.526 OA
ATOM      8  H5  UNL d   1       4.237  -1.005  -0.658  0.00  0.00     0.418 HD
ENDBRANCH   4   7
TORSDOF 1
ENDMDL
