MODEL 1
REMARK minimizedAffinity 9.24695683
REMARK minimizedRMSD -1
REMARK  1 active torsions:
REMARK  status: ('A' for Active; 'I' for Inactive)
REMARK    1  A    between atoms: C3_4  and  O_7 
ROOT
ATOM      1  C   UNL d   1       1.255  -5.215  -0.869  0.00  0.00    -0.033 A 
ATOM      2  C1  UNL d   1       0.244  -5.467  -1.798  0.00  0.00     0.039 A 
ATOM      3  C2  UNL d   1      -1.095  -5.401  -1.410  0.00  0.00    -0.080 A 
ATOM      4  C3  UNL d   1      -1.410  -5.082  -0.092  0.00  0.00     0.150 A 
ATOM      5  C4  UNL d   1      -0.407  -4.825   0.838  0.00  0.00    -0.007 A 
ATOM      6  C5  UNL d   1       0.930  -4.893   0.449  0.00  0.00     0.039 A 
ENDROOT
BRANCH   4   7
ATOM      7  O   UNL d   1      -2.702  -5.010   0.335  0.00  0.00    -0.526 OA
ATOM      8  H5  UNL d   1      -3.285  -5.239  -0.408  0.00  0.00     0.418 HD
ENDBRANCH   4   7
TORSDOF 1
ENDMDL
