MODEL 1
REMARK minimizedAffinity 4.91552877
REMARK minimizedRMSD -1
REMARK  1 active torsions:
REMARK  status: ('A' for Active; 'I' for Inactive)
REMARK    1  A    between atoms: C3_4  and  O_7 
ROOT
ATOM      1  C   UNL d   1       4.149  -3.649  -2.175  0.00  0.00    -0.033 A 
ATOM      2  C1  UNL d   1       4.632  -2.909  -1.094  0.00  0.00     0.039 A 
ATOM      3  C2  UNL d   1       4.698  -1.516  -1.172  0.00  0.00    -0.080 A 
ATOM      4  C3  UNL d   1       4.278  -0.877  -2.335  0.00  0.00     0.150 A 
ATOM      5  C4  UNL d   1       3.792  -1.607  -3.415  0.00  0.00    -0.007 A 
ATOM      6  C5  UNL d   1       3.728  -2.998  -3.335  0.00  0.00     0.039 A 
ENDROOT
BRANCH   4   7
ATOM      7  O   UNL d   1       4.328   0.480  -2.460  0.00  0.00    -0.526 OA
ATOM      8  H5  UNL d   1       4.712   0.850  -1.648  0.00  0.00     0.418 HD
ENDBRANCH   4   7
TORSDOF 1
ENDMDL
