MODEL 1
REMARK minimizedAffinity 3.34088731
REMARK minimizedRMSD -1
REMARK  0 active torsions:
REMARK  status: ('A' for Active; 'I' for Inactive)
ROOT
ATOM      1  C4' PXY d   1       3.375  -4.883   6.000  0.00  0.00     0.077 C 
ATOM      2  C1' PXY d   1       2.250  -0.630   2.250  0.00  0.00     0.077 C 
ATOM      3  C1  PXY d   1       2.558  -1.745   3.230  0.00  0.00    -0.082 A 
ATOM      4  C2  PXY d   1       1.599  -2.583   3.589  0.00  0.00     0.003 A 
ATOM      5  C3  PXY d   1       1.852  -3.577   4.499  0.00  0.00     0.003 A 
ATOM      6  C4  PXY d   1       3.112  -3.748   5.006  0.00  0.00    -0.082 A 
ATOM      7  C5  PXY d   1       4.098  -2.904   4.636  0.00  0.00     0.003 A 
ATOM      8  C6  PXY d   1       3.811  -1.876   3.743  0.00  0.00     0.003 A 
ENDROOT
TORSDOF 0
ENDMDL
