MODEL 1
REMARK minimizedAffinity 4.91988039
REMARK minimizedRMSD -1
REMARK  0 active torsions:
REMARK  status: ('A' for Active; 'I' for Inactive)
ROOT
ATOM      1  C4' PXY d   1       3.007   0.794   1.488  0.00  0.00     0.077 C 
ATOM      2  C1' PXY d   1       1.184  -4.136   3.894  0.00  0.00     0.077 C 
ATOM      3  C1  PXY d   1       1.668  -2.840   3.274  0.00  0.00    -0.082 A 
ATOM      4  C2  PXY d   1       1.001  -2.309   2.262  0.00  0.00     0.003 A 
ATOM      5  C3  PXY d   1       1.443  -1.155   1.669  0.00  0.00     0.003 A 
ATOM      6  C4  PXY d   1       2.550  -0.508   2.151  0.00  0.00    -0.082 A 
ATOM      7  C5  PXY d   1       3.230  -1.037   3.190  0.00  0.00     0.003 A 
ATOM      8  C6  PXY d   1       2.788  -2.232   3.752  0.00  0.00     0.003 A 
ENDROOT
TORSDOF 0
ENDMDL
