MODEL 1
REMARK minimizedAffinity 1.11191869
REMARK minimizedRMSD -1
REMARK  0 active torsions:
REMARK  status: ('A' for Active; 'I' for Inactive)
ROOT
ATOM      1  C4' PXY d   1       1.557  -2.018   3.499  0.00  0.00     0.077 C 
ATOM      2  C1' PXY d   1       1.739   2.009  -0.643  0.00  0.00     0.077 C 
ATOM      3  C1  PXY d   1       1.679   0.950   0.439  0.00  0.00    -0.082 A 
ATOM      4  C2  PXY d   1       2.454   1.060   1.506  0.00  0.00     0.003 A 
ATOM      5  C3  PXY d   1       2.436   0.094   2.479  0.00  0.00     0.003 A 
ATOM      6  C4  PXY d   1       1.577  -0.968   2.386  0.00  0.00    -0.082 A 
ATOM      7  C5  PXY d   1       0.775  -1.082   1.306  0.00  0.00     0.003 A 
ATOM      8  C6  PXY d   1       0.838  -0.112   0.309  0.00  0.00     0.003 A 
ENDROOT
TORSDOF 0
ENDMDL
