MODEL 1
REMARK minimizedAffinity 5.41126394
REMARK minimizedRMSD -1
REMARK  0 active torsions:
REMARK  status: ('A' for Active; 'I' for Inactive)
ROOT
ATOM      1  C4' PXY d   1      -0.746   1.208   0.478  0.00  0.00     0.077 C 
ATOM      2  C1' PXY d   1      -1.093  -4.385  -0.943  0.00  0.00     0.077 C 
ATOM      3  C1  PXY d   1      -1.005  -2.921  -0.558  0.00  0.00    -0.082 A 
ATOM      4  C2  PXY d   1      -1.169  -1.990  -1.483  0.00  0.00     0.003 A 
ATOM      5  C3  PXY d   1      -1.061  -0.662  -1.159  0.00  0.00     0.003 A 
ATOM      6  C4  PXY d   1      -0.835  -0.282   0.137  0.00  0.00    -0.082 A 
ATOM      7  C5  PXY d   1      -0.677  -1.226   1.089  0.00  0.00     0.003 A 
ATOM      8  C6  PXY d   1      -0.749  -2.569   0.732  0.00  0.00     0.003 A 
ENDROOT
TORSDOF 0
ENDMDL
