MODEL 1
REMARK minimizedAffinity -1.65021503
REMARK minimizedRMSD -1
REMARK  0 active torsions:
REMARK  status: ('A' for Active; 'I' for Inactive)
ROOT
ATOM      1  C4' PXY d   1       1.567  -1.978   3.952  0.00  0.00     0.077 C 
ATOM      2  C1' PXY d   1       1.644   1.987  -0.254  0.00  0.00     0.077 C 
ATOM      3  C1  PXY d   1       1.612   0.944   0.846  0.00  0.00    -0.082 A 
ATOM      4  C2  PXY d   1       2.412   1.071   1.892  0.00  0.00     0.003 A 
ATOM      5  C3  PXY d   1       2.418   0.120   2.880  0.00  0.00     0.003 A 
ATOM      6  C4  PXY d   1       1.559  -0.944   2.822  0.00  0.00    -0.082 A 
ATOM      7  C5  PXY d   1       0.732  -1.076   1.763  0.00  0.00     0.003 A 
ATOM      8  C6  PXY d   1       0.770  -0.121   0.751  0.00  0.00     0.003 A 
ENDROOT
TORSDOF 0
ENDMDL
