MODEL 1
REMARK minimizedAffinity -1.77458704
REMARK minimizedRMSD -1
REMARK  0 active torsions:
REMARK  status: ('A' for Active; 'I' for Inactive)
ROOT
ATOM      1  C4' PXY d   1       0.851   1.883  -0.466  0.00  0.00     0.077 C 
ATOM      2  C1' PXY d   1       2.264  -1.635   3.898  0.00  0.00     0.077 C 
ATOM      3  C1  PXY d   1       1.899  -0.702   2.760  0.00  0.00    -0.082 A 
ATOM      4  C2  PXY d   1       0.887  -1.006   1.964  0.00  0.00     0.003 A 
ATOM      5  C3  PXY d   1       0.563  -0.190   0.911  0.00  0.00     0.003 A 
ATOM      6  C4  PXY d   1       1.249   0.976   0.702  0.00  0.00    -0.082 A 
ATOM      7  C5  PXY d   1       2.277   1.298   1.515  0.00  0.00     0.003 A 
ATOM      8  C6  PXY d   1       2.616   0.436   2.554  0.00  0.00     0.003 A 
ENDROOT
TORSDOF 0
ENDMDL
