MODEL 1
REMARK minimizedAffinity 1.29164076
REMARK minimizedRMSD -1
REMARK  0 active torsions:
REMARK  status: ('A' for Active; 'I' for Inactive)
ROOT
ATOM      1  C4' PXY d   1       2.465   1.407   3.012  0.00  0.00     0.077 C 
ATOM      2  C1' PXY d   1       1.127  -3.956   4.706  0.00  0.00     0.077 C 
ATOM      3  C1  PXY d   1       1.477  -2.553   4.249  0.00  0.00    -0.082 A 
ATOM      4  C2  PXY d   1       2.133  -1.745   5.065  0.00  0.00     0.003 A 
ATOM      5  C3  PXY d   1       2.430  -0.463   4.680  0.00  0.00     0.003 A 
ATOM      6  C4  PXY d   1       2.098  -0.021   3.428  0.00  0.00    -0.082 A 
ATOM      7  C5  PXY d   1       1.438  -0.843   2.585  0.00  0.00     0.003 A 
ATOM      8  C6  PXY d   1       1.110  -2.128   3.010  0.00  0.00     0.003 A 
ENDROOT
TORSDOF 0
ENDMDL
