MODEL 1
REMARK minimizedAffinity -1.3827275
REMARK minimizedRMSD -1
REMARK  0 active torsions:
REMARK  status: ('A' for Active; 'I' for Inactive)
ROOT
ATOM      1  C4' PXY d   1       2.001   1.424   0.884  0.00  0.00     0.077 C 
ATOM      2  C1' PXY d   1       2.965  -1.089   6.000  0.00  0.00     0.077 C 
ATOM      3  C1  PXY d   1       2.711  -0.419   4.664  0.00  0.00    -0.082 A 
ATOM      4  C2  PXY d   1       2.229  -1.129   3.657  0.00  0.00     0.003 A 
ATOM      5  C3  PXY d   1       2.024  -0.545   2.433  0.00  0.00     0.003 A 
ATOM      6  C4  PXY d   1       2.264   0.790   2.253  0.00  0.00    -0.082 A 
ATOM      7  C5  PXY d   1       2.746   1.524   3.279  0.00  0.00     0.003 A 
ATOM      8  C6  PXY d   1       2.986   0.904   4.501  0.00  0.00     0.003 A 
ENDROOT
TORSDOF 0
ENDMDL
