MODEL 1
REMARK minimizedAffinity 4.66323042
REMARK minimizedRMSD -1
REMARK  0 active torsions:
REMARK  status: ('A' for Active; 'I' for Inactive)
ROOT
ATOM      1  C4' PXY d   1      -1.217   4.778   0.140  0.00  0.00     0.077 C 
ATOM      2  C1' PXY d   1       2.137   0.154   1.025  0.00  0.00     0.077 C 
ATOM      3  C1  PXY d   1       1.247   1.359   0.794  0.00  0.00    -0.082 A 
ATOM      4  C2  PXY d   1       1.711   2.395   0.114  0.00  0.00     0.003 A 
ATOM      5  C3  PXY d   1       0.930   3.506  -0.076  0.00  0.00     0.003 A 
ATOM      6  C4  PXY d   1      -0.357   3.536   0.389  0.00  0.00    -0.082 A 
ATOM      7  C5  PXY d   1      -0.842   2.479   1.074  0.00  0.00     0.003 A 
ATOM      8  C6  PXY d   1      -0.019   1.377   1.292  0.00  0.00     0.003 A 
ENDROOT
TORSDOF 0
ENDMDL
