MODEL 1
REMARK minimizedAffinity 2.40871549
REMARK minimizedRMSD -1
REMARK  0 active torsions:
REMARK  status: ('A' for Active; 'I' for Inactive)
ROOT
ATOM      1  C4' PXY d   1      -0.943  -5.034  -1.693  0.00  0.00     0.077 C 
ATOM      2  C1' PXY d   1       0.242  -0.140   1.146  0.00  0.00     0.077 C 
ATOM      3  C1  PXY d   1      -0.056  -1.424   0.397  0.00  0.00    -0.082 A 
ATOM      4  C2  PXY d   1      -1.302  -1.705   0.052  0.00  0.00     0.003 A 
ATOM      5  C3  PXY d   1      -1.594  -2.877  -0.598  0.00  0.00     0.003 A 
ATOM      6  C4  PXY d   1      -0.593  -3.745  -0.944  0.00  0.00    -0.082 A 
ATOM      7  C5  PXY d   1       0.682  -3.460  -0.605  0.00  0.00     0.003 A 
ATOM      8  C6  PXY d   1       0.952  -2.285   0.091  0.00  0.00     0.003 A 
ENDROOT
TORSDOF 0
ENDMDL
