MODEL 1
REMARK minimizedAffinity 3.2931838
REMARK minimizedRMSD -1
REMARK  0 active torsions:
REMARK  status: ('A' for Active; 'I' for Inactive)
ROOT
ATOM      1  C4' PXY d   1       0.206  -1.552   1.569  0.00  0.00     0.077 C 
ATOM      2  C1' PXY d   1       1.458   3.662  -0.590  0.00  0.00     0.077 C 
ATOM      3  C1  PXY d   1       1.142   2.291  -0.025  0.00  0.00    -0.082 A 
ATOM      4  C2  PXY d   1      -0.098   1.831  -0.079  0.00  0.00     0.003 A 
ATOM      5  C3  PXY d   1      -0.407   0.607   0.456  0.00  0.00     0.003 A 
ATOM      6  C4  PXY d   1       0.573  -0.178   1.003  0.00  0.00    -0.082 A 
ATOM      7  C5  PXY d   1       1.842   0.280   1.051  0.00  0.00     0.003 A 
ATOM      8  C6  PXY d   1       2.128   1.542   0.540  0.00  0.00     0.003 A 
ENDROOT
TORSDOF 0
ENDMDL
