MODEL 1
REMARK minimizedAffinity 8.43162918
REMARK minimizedRMSD -1
REMARK  0 active torsions:
REMARK  status: ('A' for Active; 'I' for Inactive)
ROOT
ATOM      1  C   UNL d   1      -1.753   2.072   0.200  0.00  0.00     0.077 C 
ATOM      2  C1  UNL d   1      -0.376   2.608  -0.058  0.00  0.00    -0.074 A 
ATOM      3  C2  UNL d   1       0.753   1.969   0.466  0.00  0.00    -0.005 A 
ATOM      4  C3  UNL d   1       2.028   2.473   0.210  0.00  0.00     0.006 A 
ATOM      5  C4  UNL d   1       2.187   3.619  -0.571  0.00  0.00    -0.005 A 
ATOM      6  C5  UNL d   1       1.070   4.270  -1.104  0.00  0.00    -0.074 A 
ATOM      7  C6  UNL d   1       1.224   5.496  -1.954  0.00  0.00     0.077 C 
ATOM      8  C7  UNL d   1      -0.208   3.753  -0.848  0.00  0.00    -0.001 A 
ENDROOT
TORSDOF 0
ENDMDL
