MODEL 1
REMARK minimizedAffinity 2.27174044
REMARK minimizedRMSD -1
REMARK  0 active torsions:
REMARK  status: ('A' for Active; 'I' for Inactive)
ROOT
ATOM      1  C   UNL d   1       3.478  -5.910  -0.453  0.00  0.00     0.077 C 
ATOM      2  C1  UNL d   1       3.558  -5.934  -1.951  0.00  0.00    -0.074 A 
ATOM      3  C2  UNL d   1       4.794  -5.955  -2.604  0.00  0.00    -0.005 A 
ATOM      4  C3  UNL d   1       4.853  -5.987  -3.998  0.00  0.00     0.006 A 
ATOM      5  C4  UNL d   1       3.678  -5.998  -4.750  0.00  0.00    -0.005 A 
ATOM      6  C5  UNL d   1       2.432  -5.978  -4.114  0.00  0.00    -0.074 A 
ATOM      7  C6  UNL d   1       1.160  -5.999  -4.908  0.00  0.00     0.077 C 
ATOM      8  C7  UNL d   1       2.382  -5.953  -2.714  0.00  0.00    -0.001 A 
ENDROOT
TORSDOF 0
ENDMDL
