MODEL 1
REMARK minimizedAffinity 1.62478936
REMARK minimizedRMSD -1
REMARK  0 active torsions:
REMARK  status: ('A' for Active; 'I' for Inactive)
ROOT
ATOM      1  C   UNL d   1       3.798  -5.560   0.526  0.00  0.00     0.077 C 
ATOM      2  C1  UNL d   1       3.788  -5.086  -0.897  0.00  0.00    -0.074 A 
ATOM      3  C2  UNL d   1       3.917  -5.989  -1.956  0.00  0.00    -0.005 A 
ATOM      4  C3  UNL d   1       3.897  -5.534  -3.275  0.00  0.00     0.006 A 
ATOM      5  C4  UNL d   1       3.748  -4.173  -3.546  0.00  0.00    -0.005 A 
ATOM      6  C5  UNL d   1       3.618  -3.255  -2.499  0.00  0.00    -0.074 A 
ATOM      7  C6  UNL d   1       3.447  -1.791  -2.774  0.00  0.00     0.077 C 
ATOM      8  C7  UNL d   1       3.632  -3.721  -1.178  0.00  0.00    -0.001 A 
ENDROOT
TORSDOF 0
ENDMDL
