MODEL 1
REMARK minimizedAffinity 2.56318307
REMARK minimizedRMSD -1
REMARK  0 active torsions:
REMARK  status: ('A' for Active; 'I' for Inactive)
ROOT
ATOM      1  C   UNL d   1       1.110  -5.991  -3.232  0.00  0.00     0.077 C 
ATOM      2  C1  UNL d   1       2.555  -5.985  -2.832  0.00  0.00    -0.074 A 
ATOM      3  C2  UNL d   1       2.928  -5.996  -1.484  0.00  0.00    -0.005 A 
ATOM      4  C3  UNL d   1       4.276  -6.000  -1.126  0.00  0.00     0.006 A 
ATOM      5  C4  UNL d   1       5.264  -5.993  -2.112  0.00  0.00    -0.005 A 
ATOM      6  C5  UNL d   1       4.911  -5.983  -3.465  0.00  0.00    -0.074 A 
ATOM      7  C6  UNL d   1       5.960  -5.986  -4.537  0.00  0.00     0.077 C 
ATOM      8  C7  UNL d   1       3.554  -5.986  -3.816  0.00  0.00    -0.001 A 
ENDROOT
TORSDOF 0
ENDMDL
