MODEL 1
REMARK minimizedAffinity 2.69396257
REMARK minimizedRMSD -1
REMARK  0 active torsions:
REMARK  status: ('A' for Active; 'I' for Inactive)
ROOT
ATOM      1  C   UNL d   1       2.735  -0.168   1.183  0.00  0.00     0.077 C 
ATOM      2  C1  UNL d   1       2.993  -1.135   2.300  0.00  0.00    -0.074 A 
ATOM      3  C2  UNL d   1       1.939  -1.806   2.928  0.00  0.00    -0.005 A 
ATOM      4  C3  UNL d   1       2.196  -2.709   3.959  0.00  0.00     0.006 A 
ATOM      5  C4  UNL d   1       3.507  -2.950   4.373  0.00  0.00    -0.005 A 
ATOM      6  C5  UNL d   1       4.573  -2.289   3.756  0.00  0.00    -0.074 A 
ATOM      7  C6  UNL d   1       5.989  -2.544   4.182  0.00  0.00     0.077 C 
ATOM      8  C7  UNL d   1       4.308  -1.388   2.716  0.00  0.00    -0.001 A 
ENDROOT
TORSDOF 0
ENDMDL
