MODEL 1
REMARK minimizedAffinity 7.84622049
REMARK minimizedRMSD -1
REMARK  0 active torsions:
REMARK  status: ('A' for Active; 'I' for Inactive)
ROOT
ATOM      1  C   UNL d   1       1.797  -1.139   2.353  0.00  0.00     0.077 C 
ATOM      2  C1  UNL d   1       1.896  -2.590   2.719  0.00  0.00    -0.074 A 
ATOM      3  C2  UNL d   1       1.795  -3.004   4.051  0.00  0.00    -0.005 A 
ATOM      4  C3  UNL d   1       1.880  -4.358   4.375  0.00  0.00     0.006 A 
ATOM      5  C4  UNL d   1       2.066  -5.310   3.372  0.00  0.00    -0.005 A 
ATOM      6  C5  UNL d   1       2.168  -4.915   2.035  0.00  0.00    -0.074 A 
ATOM      7  C6  UNL d   1       2.359  -5.927   0.943  0.00  0.00     0.077 C 
ATOM      8  C7  UNL d   1       2.075  -3.553   1.716  0.00  0.00    -0.001 A 
ENDROOT
TORSDOF 0
ENDMDL
