MODEL 1
REMARK minimizedAffinity 5.16861439
REMARK minimizedRMSD -1
REMARK  0 active torsions:
REMARK  status: ('A' for Active; 'I' for Inactive)
ROOT
ATOM      1  C   UNL d   1       4.230  -2.718   3.414  0.00  0.00     0.077 C 
ATOM      2  C1  UNL d   1       3.106  -1.918   2.827  0.00  0.00    -0.074 A 
ATOM      3  C2  UNL d   1       1.870  -2.511   2.550  0.00  0.00    -0.005 A 
ATOM      4  C3  UNL d   1       0.830  -1.752   2.013  0.00  0.00     0.006 A 
ATOM      5  C4  UNL d   1       1.015  -0.395   1.748  0.00  0.00    -0.005 A 
ATOM      6  C5  UNL d   1       2.244   0.216   2.019  0.00  0.00    -0.074 A 
ATOM      7  C6  UNL d   1       2.457   1.676   1.749  0.00  0.00     0.077 C 
ATOM      8  C7  UNL d   1       3.281  -0.552   2.565  0.00  0.00    -0.001 A 
ENDROOT
TORSDOF 0
ENDMDL
