MODEL 1
REMARK minimizedAffinity -1.35965359
REMARK minimizedRMSD -1
REMARK  1 active torsions:
REMARK  status: ('A' for Active; 'I' for Inactive)
REMARK    1  A    between atoms: C3_4  and  O_7 
ROOT
ATOM      1  C   UNL d   1      -3.029  -1.664  -3.197  0.00  0.00    -0.033 A 
ATOM      2  C1  UNL d   1      -2.038  -0.888  -3.800  0.00  0.00     0.039 A 
ATOM      3  C2  UNL d   1      -0.827  -0.665  -3.143  0.00  0.00    -0.080 A 
ATOM      4  C3  UNL d   1      -0.619  -1.223  -1.885  0.00  0.00     0.150 A 
ATOM      5  C4  UNL d   1      -1.601  -2.000  -1.279  0.00  0.00    -0.007 A 
ATOM      6  C5  UNL d   1      -2.810  -2.221  -1.937  0.00  0.00     0.039 A 
ENDROOT
BRANCH   4   7
ATOM      7  O   UNL d   1       0.545  -1.029  -1.202  0.00  0.00    -0.526 OA
ATOM      8  H5  UNL d   1       1.118  -0.448  -1.730  0.00  0.00     0.418 HD
ENDBRANCH   4   7
TORSDOF 1
ENDMDL
