MODEL 1
REMARK minimizedAffinity -1.14693344
REMARK minimizedRMSD -1
REMARK  1 active torsions:
REMARK  status: ('A' for Active; 'I' for Inactive)
REMARK    1  A    between atoms: C3_4  and  O_7 
ROOT
ATOM      1  C   UNL d   1       0.810   0.605   0.995  0.00  0.00    -0.033 A 
ATOM      2  C1  UNL d   1       1.383  -0.188  -0.001  0.00  0.00     0.039 A 
ATOM      3  C2  UNL d   1       0.604  -1.121  -0.688  0.00  0.00    -0.080 A 
ATOM      4  C3  UNL d   1      -0.745  -1.251  -0.370  0.00  0.00     0.150 A 
ATOM      5  C4  UNL d   1      -1.324  -0.461   0.618  0.00  0.00    -0.007 A 
ATOM      6  C5  UNL d   1      -0.544   0.469   1.303  0.00  0.00     0.039 A 
ENDROOT
BRANCH   4   7
ATOM      7  O   UNL d   1      -1.544  -2.151  -1.010  0.00  0.00    -0.526 OA
ATOM      8  H5  UNL d   1      -1.002  -2.646  -1.647  0.00  0.00     0.418 HD
ENDBRANCH   4   7
TORSDOF 1
ENDMDL
