MODEL 1
REMARK minimizedAffinity -2.81115079
REMARK minimizedRMSD -1
REMARK  1 active torsions:
REMARK  status: ('A' for Active; 'I' for Inactive)
REMARK    1  A    between atoms: C3_4  and  O_7 
ROOT
ATOM      1  C   UNL d   1       0.321   1.705   2.060  0.00  0.00    -0.033 A 
ATOM      2  C1  UNL d   1       1.252   2.158   2.997  0.00  0.00     0.039 A 
ATOM      3  C2  UNL d   1       2.617   1.947   2.786  0.00  0.00    -0.080 A 
ATOM      4  C3  UNL d   1       3.036   1.285   1.636  0.00  0.00     0.150 A 
ATOM      5  C4  UNL d   1       2.114   0.834   0.696  0.00  0.00    -0.007 A 
ATOM      6  C5  UNL d   1       0.752   1.045   0.909  0.00  0.00     0.039 A 
ENDROOT
BRANCH   4   7
ATOM      7  O   UNL d   1       4.356   1.052   1.389  0.00  0.00    -0.526 OA
ATOM      8  H5  UNL d   1       4.874   1.393   2.137  0.00  0.00     0.418 HD
ENDBRANCH   4   7
TORSDOF 1
ENDMDL
