MODEL 1
REMARK minimizedAffinity -0.350943059
REMARK minimizedRMSD -1
REMARK  1 active torsions:
REMARK  status: ('A' for Active; 'I' for Inactive)
REMARK    1  A    between atoms: C3_4  and  O_7 
ROOT
ATOM      1  C   UNL d   1      -0.698  -3.648   1.864  0.00  0.00    -0.033 A 
ATOM      2  C1  UNL d   1      -1.583  -2.924   1.062  0.00  0.00     0.039 A 
ATOM      3  C2  UNL d   1      -2.593  -3.584   0.360  0.00  0.00    -0.080 A 
ATOM      4  C3  UNL d   1      -2.708  -4.968   0.468  0.00  0.00     0.150 A 
ATOM      5  C4  UNL d   1      -1.832  -5.695   1.268  0.00  0.00    -0.007 A 
ATOM      6  C5  UNL d   1      -0.824  -5.033   1.968  0.00  0.00     0.039 A 
ENDROOT
BRANCH   4   7
ATOM      7  O   UNL d   1      -3.674  -5.657  -0.202  0.00  0.00    -0.526 OA
ATOM      8  H5  UNL d   1      -4.186  -5.028  -0.737  0.00  0.00     0.418 HD
ENDBRANCH   4   7
TORSDOF 1
ENDMDL
