MODEL 1
REMARK minimizedAffinity 0.0142685259
REMARK minimizedRMSD -1
REMARK  1 active torsions:
REMARK  status: ('A' for Active; 'I' for Inactive)
REMARK    1  A    between atoms: C3_4  and  O_7 
ROOT
ATOM      1  C   UNL d   1       1.203   2.366   1.568  0.00  0.00    -0.033 A 
ATOM      2  C1  UNL d   1       1.122   1.250   2.402  0.00  0.00     0.039 A 
ATOM      3  C2  UNL d   1      -0.124   0.765   2.804  0.00  0.00    -0.080 A 
ATOM      4  C3  UNL d   1      -1.280   1.404   2.365  0.00  0.00     0.150 A 
ATOM      5  C4  UNL d   1      -1.207   2.515   1.530  0.00  0.00    -0.007 A 
ATOM      6  C5  UNL d   1       0.039   2.998   1.131  0.00  0.00     0.039 A 
ENDROOT
BRANCH   4   7
ATOM      7  O   UNL d   1      -2.518   0.971   2.734  0.00  0.00    -0.526 OA
ATOM      8  H5  UNL d   1      -2.413   0.214   3.334  0.00  0.00     0.418 HD
ENDBRANCH   4   7
TORSDOF 1
ENDMDL
