MODEL 1
REMARK minimizedAffinity 3.70711684
REMARK minimizedRMSD -1
REMARK  1 active torsions:
REMARK  status: ('A' for Active; 'I' for Inactive)
REMARK    1  A    between atoms: C3_4  and  O_7 
ROOT
ATOM      1  C   UNL d   1      -1.737  -0.519   0.658  0.00  0.00    -0.033 A 
ATOM      2  C1  UNL d   1      -2.344   0.658   1.100  0.00  0.00     0.039 A 
ATOM      3  C2  UNL d   1      -1.571   1.672   1.671  0.00  0.00    -0.080 A 
ATOM      4  C3  UNL d   1      -0.196   1.496   1.792  0.00  0.00     0.150 A 
ATOM      5  C4  UNL d   1       0.416   0.328   1.350  0.00  0.00    -0.007 A 
ATOM      6  C5  UNL d   1      -0.357  -0.684   0.782  0.00  0.00     0.039 A 
ENDROOT
BRANCH   4   7
ATOM      7  O   UNL d   1       0.599   2.456   2.347  0.00  0.00    -0.526 OA
ATOM      8  H5  UNL d   1       0.036   3.194   2.632  0.00  0.00     0.418 HD
ENDBRANCH   4   7
TORSDOF 1
ENDMDL
