MODEL 1
REMARK minimizedAffinity 0.617692888
REMARK minimizedRMSD -1
REMARK  1 active torsions:
REMARK  status: ('A' for Active; 'I' for Inactive)
REMARK    1  A    between atoms: C3_4  and  O_7 
ROOT
ATOM      1  C   UNL d   1       0.400   0.469  -2.232  0.00  0.00    -0.033 A 
ATOM      2  C1  UNL d   1       0.732   0.253  -0.893  0.00  0.00     0.039 A 
ATOM      3  C2  UNL d   1       1.961  -0.320  -0.561  0.00  0.00    -0.080 A 
ATOM      4  C3  UNL d   1       2.848  -0.671  -1.575  0.00  0.00     0.150 A 
ATOM      5  C4  UNL d   1       2.525  -0.455  -2.910  0.00  0.00    -0.007 A 
ATOM      6  C5  UNL d   1       1.297   0.116  -3.241  0.00  0.00     0.039 A 
ENDROOT
BRANCH   4   7
ATOM      7  O   UNL d   1       4.057  -1.237  -1.299  0.00  0.00    -0.526 OA
ATOM      8  H5  UNL d   1       4.131  -1.353  -0.337  0.00  0.00     0.418 HD
ENDBRANCH   4   7
TORSDOF 1
ENDMDL
