MODEL 1
REMARK minimizedAffinity 0.329695553
REMARK minimizedRMSD -1
REMARK  1 active torsions:
REMARK  status: ('A' for Active; 'I' for Inactive)
REMARK    1  A    between atoms: C3_4  and  O_7 
ROOT
ATOM      1  C   UNL d   1      -2.247  -4.505  -0.724  0.00  0.00    -0.033 A 
ATOM      2  C1  UNL d   1      -2.660  -3.218  -1.073  0.00  0.00     0.039 A 
ATOM      3  C2  UNL d   1      -3.921  -3.018  -1.640  0.00  0.00    -0.080 A 
ATOM      4  C3  UNL d   1      -4.757  -4.111  -1.851  0.00  0.00     0.150 A 
ATOM      5  C4  UNL d   1      -4.352  -5.395  -1.502  0.00  0.00    -0.007 A 
ATOM      6  C5  UNL d   1      -3.093  -5.594  -0.937  0.00  0.00     0.039 A 
ENDROOT
BRANCH   4   7
ATOM      7  O   UNL d   1      -5.994  -3.965  -2.405  0.00  0.00    -0.526 OA
ATOM      8  H5  UNL d   1      -6.125  -3.027  -2.622  0.00  0.00     0.418 HD
ENDBRANCH   4   7
TORSDOF 1
ENDMDL
