MODEL 1
REMARK minimizedAffinity 2.06746769
REMARK minimizedRMSD -1
REMARK  1 active torsions:
REMARK  status: ('A' for Active; 'I' for Inactive)
REMARK    1  A    between atoms: C3_4  and  O_7 
ROOT
ATOM      1  C   UNL d   1       3.188  -0.071  -0.251  0.00  0.00    -0.033 A 
ATOM      2  C1  UNL d   1       1.975  -0.678  -0.580  0.00  0.00     0.039 A 
ATOM      3  C2  UNL d   1       0.830  -0.409   0.172  0.00  0.00    -0.080 A 
ATOM      4  C3  UNL d   1       0.912   0.470   1.249  0.00  0.00     0.150 A 
ATOM      5  C4  UNL d   1       2.116   1.081   1.581  0.00  0.00    -0.007 A 
ATOM      6  C5  UNL d   1       3.259   0.810   0.829  0.00  0.00     0.039 A 
ENDROOT
BRANCH   4   7
ATOM      7  O   UNL d   1      -0.178   0.760   2.016  0.00  0.00    -0.526 OA
ATOM      8  H5  UNL d   1      -0.932   0.243   1.687  0.00  0.00     0.418 HD
ENDBRANCH   4   7
TORSDOF 1
ENDMDL
