MODEL 1
REMARK minimizedAffinity -3.52097297
REMARK minimizedRMSD -1
REMARK  1 active torsions:
REMARK  status: ('A' for Active; 'I' for Inactive)
REMARK    1  A    between atoms: C3_4  and  O_7 
ROOT
ATOM      1  C   UNL d   1       1.237   2.130   1.115  0.00  0.00    -0.033 A 
ATOM      2  C1  UNL d   1       0.862   0.785   1.126  0.00  0.00     0.039 A 
ATOM      3  C2  UNL d   1      -0.439   0.424   1.483  0.00  0.00    -0.080 A 
ATOM      4  C3  UNL d   1      -1.354   1.416   1.825  0.00  0.00     0.150 A 
ATOM      5  C4  UNL d   1      -0.988   2.758   1.812  0.00  0.00    -0.007 A 
ATOM      6  C5  UNL d   1       0.311   3.116   1.457  0.00  0.00     0.039 A 
ENDROOT
BRANCH   4   7
ATOM      7  O   UNL d   1      -2.633   1.112   2.184  0.00  0.00    -0.526 OA
ATOM      8  H5  UNL d   1      -2.734   0.145   2.175  0.00  0.00     0.418 HD
ENDBRANCH   4   7
TORSDOF 1
ENDMDL
