MODEL 1
REMARK minimizedAffinity -1.0752188
REMARK minimizedRMSD -1
REMARK  1 active torsions:
REMARK  status: ('A' for Active; 'I' for Inactive)
REMARK    1  A    between atoms: C3_4  and  O_7 
ROOT
ATOM      1  C   UNL d   1      -4.500   4.794   0.798  0.00  0.00    -0.033 A 
ATOM      2  C1  UNL d   1      -4.266   3.759   1.705  0.00  0.00     0.039 A 
ATOM      3  C2  UNL d   1      -4.765   3.844   3.007  0.00  0.00    -0.080 A 
ATOM      4  C3  UNL d   1      -5.495   4.966   3.387  0.00  0.00     0.150 A 
ATOM      5  C4  UNL d   1      -5.735   5.999   2.487  0.00  0.00    -0.007 A 
ATOM      6  C5  UNL d   1      -5.235   5.914   1.188  0.00  0.00     0.039 A 
ENDROOT
BRANCH   4   7
ATOM      7  O   UNL d   1      -5.998   5.096   4.647  0.00  0.00    -0.526 OA
ATOM      8  H5  UNL d   1      -5.730   4.320   5.167  0.00  0.00     0.418 HD
ENDBRANCH   4   7
TORSDOF 1
ENDMDL
