MODEL 1
REMARK minimizedAffinity 7.39546061
REMARK minimizedRMSD -1
REMARK  1 active torsions:
REMARK  status: ('A' for Active; 'I' for Inactive)
REMARK    1  A    between atoms: C3_4  and  O_7 
ROOT
ATOM      1  C   UNL d   1       2.154   1.475   1.474  0.00  0.00    -0.033 A 
ATOM      2  C1  UNL d   1       3.195   1.472   0.545  0.00  0.00     0.039 A 
ATOM      3  C2  UNL d   1       3.254   0.482  -0.438  0.00  0.00    -0.080 A 
ATOM      4  C3  UNL d   1       2.266  -0.498  -0.481  0.00  0.00     0.150 A 
ATOM      5  C4  UNL d   1       1.223  -0.499   0.440  0.00  0.00    -0.007 A 
ATOM      6  C5  UNL d   1       1.167   0.490   1.421  0.00  0.00     0.039 A 
ENDROOT
BRANCH   4   7
ATOM      7  O   UNL d   1       2.284  -1.487  -1.418  0.00  0.00    -0.526 OA
ATOM      8  H5  UNL d   1       3.077  -1.376  -1.968  0.00  0.00     0.418 HD
ENDBRANCH   4   7
TORSDOF 1
ENDMDL
