MODEL 1
REMARK minimizedAffinity 3.16505146
REMARK minimizedRMSD -1
REMARK  1 active torsions:
REMARK  status: ('A' for Active; 'I' for Inactive)
REMARK    1  A    between atoms: C3_4  and  O_7 
ROOT
ATOM      1  C   UNL d   1       1.175   1.479   1.844  0.00  0.00    -0.033 A 
ATOM      2  C1  UNL d   1       0.524   0.251   1.979  0.00  0.00     0.039 A 
ATOM      3  C2  UNL d   1      -0.857   0.210   2.180  0.00  0.00    -0.080 A 
ATOM      4  C3  UNL d   1      -1.574   1.401   2.242  0.00  0.00     0.150 A 
ATOM      5  C4  UNL d   1      -0.933   2.628   2.105  0.00  0.00    -0.007 A 
ATOM      6  C5  UNL d   1       0.446   2.667   1.906  0.00  0.00     0.039 A 
ENDROOT
BRANCH   4   7
ATOM      7  O   UNL d   1      -2.923   1.411   2.441  0.00  0.00    -0.526 OA
ATOM      8  H5  UNL d   1      -3.225   0.493   2.548  0.00  0.00     0.418 HD
ENDBRANCH   4   7
TORSDOF 1
ENDMDL
