MODEL 1
REMARK minimizedAffinity -1.85377693
REMARK minimizedRMSD -1
REMARK  1 active torsions:
REMARK  status: ('A' for Active; 'I' for Inactive)
REMARK    1  A    between atoms: C3_4  and  O_7 
ROOT
ATOM      1  C   UNL d   1      -0.077   0.177   0.389  0.00  0.00    -0.033 A 
ATOM      2  C1  UNL d   1      -0.917   0.978   1.164  0.00  0.00     0.039 A 
ATOM      3  C2  UNL d   1      -0.496   2.247   1.569  0.00  0.00    -0.080 A 
ATOM      4  C3  UNL d   1       0.765   2.701   1.192  0.00  0.00     0.150 A 
ATOM      5  C4  UNL d   1       1.605   1.909   0.416  0.00  0.00    -0.007 A 
ATOM      6  C5  UNL d   1       1.183   0.642   0.013  0.00  0.00     0.039 A 
ENDROOT
BRANCH   4   7
ATOM      7  O   UNL d   1       1.221   3.929   1.567  0.00  0.00    -0.526 OA
ATOM      8  H5  UNL d   1       0.546   4.352   2.123  0.00  0.00     0.418 HD
ENDBRANCH   4   7
TORSDOF 1
ENDMDL
