MODEL 1
REMARK minimizedAffinity 6.44917917
REMARK minimizedRMSD -1
REMARK  1 active torsions:
REMARK  status: ('A' for Active; 'I' for Inactive)
REMARK    1  A    between atoms: C3_4  and  O_7 
ROOT
ATOM      1  C   UNL d   1       2.298   0.090  -0.138  0.00  0.00    -0.033 A 
ATOM      2  C1  UNL d   1       2.971   1.093   0.561  0.00  0.00     0.039 A 
ATOM      3  C2  UNL d   1       2.254   2.016   1.325  0.00  0.00    -0.080 A 
ATOM      4  C3  UNL d   1       0.866   1.925   1.381  0.00  0.00     0.150 A 
ATOM      5  C4  UNL d   1       0.189   0.926   0.690  0.00  0.00    -0.007 A 
ATOM      6  C5  UNL d   1       0.907   0.005  -0.073  0.00  0.00     0.039 A 
ENDROOT
BRANCH   4   7
ATOM      7  O   UNL d   1       0.123   2.806   2.109  0.00  0.00    -0.526 OA
ATOM      8  H5  UNL d   1       0.722   3.458   2.509  0.00  0.00     0.418 HD
ENDBRANCH   4   7
TORSDOF 1
ENDMDL
