MODEL 1
REMARK minimizedAffinity -2.04145718
REMARK minimizedRMSD -1
REMARK  1 active torsions:
REMARK  status: ('A' for Active; 'I' for Inactive)
REMARK    1  A    between atoms: C3_4  and  O_7 
ROOT
ATOM      1  C   UNL d   1      -0.888   1.504   2.372  0.00  0.00    -0.033 A 
ATOM      2  C1  UNL d   1      -1.286   0.454   1.542  0.00  0.00     0.039 A 
ATOM      3  C2  UNL d   1      -0.364  -0.149   0.685  0.00  0.00    -0.080 A 
ATOM      4  C3  UNL d   1       0.952   0.305   0.669  0.00  0.00     0.150 A 
ATOM      5  C4  UNL d   1       1.356   1.348   1.496  0.00  0.00    -0.007 A 
ATOM      6  C5  UNL d   1       0.433   1.950   2.350  0.00  0.00     0.039 A 
ENDROOT
BRANCH   4   7
ATOM      7  O   UNL d   1       1.887  -0.250  -0.153  0.00  0.00    -0.526 OA
ATOM      8  H5  UNL d   1       1.458  -0.939  -0.687  0.00  0.00     0.418 HD
ENDBRANCH   4   7
TORSDOF 1
ENDMDL
