MODEL 1
REMARK minimizedAffinity 11.2352753
REMARK minimizedRMSD -1
REMARK  1 active torsions:
REMARK  status: ('A' for Active; 'I' for Inactive)
REMARK    1  A    between atoms: C1_2  and  C2_3 
ROOT
ATOM      1  C2  UNL d   1       3.191  -5.489  -1.604  0.00  0.00    -0.081 A 
ATOM      2  C3  UNL d   1       2.900  -5.408  -2.971  0.00  0.00     0.006 A 
ATOM      3  C4  UNL d   1       1.683  -4.879  -3.406  0.00  0.00     0.002 A 
ATOM      4  C5  UNL d   1       0.740  -4.415  -2.483  0.00  0.00    -0.080 A 
ATOM      5  C6  UNL d   1      -0.558  -3.817  -2.937  0.00  0.00     0.076 C 
ATOM      6  C7  UNL d   1       1.023  -4.512  -1.116  0.00  0.00     0.002 A 
ATOM      7  C8  UNL d   1       2.240  -5.042  -0.680  0.00  0.00     0.006 A 
ENDROOT
BRANCH   1   8
ATOM      8  C1  UNL d   1       4.529  -5.999  -1.134  0.00  0.00     0.054 C 
ATOM      9  C   UNL d   1       5.570  -4.889  -1.119  0.00  0.00     0.018 C 
ENDBRANCH   1   8
TORSDOF 1
ENDMDL
