MODEL 1
REMARK minimizedAffinity 5.73288965
REMARK minimizedRMSD -1
REMARK  1 active torsions:
REMARK  status: ('A' for Active; 'I' for Inactive)
REMARK    1  A    between atoms: C1_2  and  C2_3 
ROOT
ATOM      1  C2  UNL d   1       1.234  -4.235  -3.120  0.00  0.00    -0.081 A 
ATOM      2  C3  UNL d   1       0.248  -4.172  -2.127  0.00  0.00     0.006 A 
ATOM      3  C4  UNL d   1       0.604  -4.147  -0.777  0.00  0.00     0.002 A 
ATOM      4  C5  UNL d   1       1.950  -4.177  -0.397  0.00  0.00    -0.080 A 
ATOM      5  C6  UNL d   1       2.347  -4.120   1.048  0.00  0.00     0.076 C 
ATOM      6  C7  UNL d   1       2.934  -4.257  -1.388  0.00  0.00     0.002 A 
ATOM      7  C8  UNL d   1       2.579  -4.283  -2.739  0.00  0.00     0.006 A 
ENDROOT
BRANCH   1   8
ATOM      8  C1  UNL d   1       0.856  -4.197  -4.579  0.00  0.00     0.054 C 
ATOM      9  C   UNL d   1       1.991  -3.647  -5.431  0.00  0.00     0.018 C 
ENDBRANCH   1   8
TORSDOF 1
ENDMDL
