MODEL 1
REMARK minimizedAffinity 9.48761845
REMARK minimizedRMSD -1
REMARK  1 active torsions:
REMARK  status: ('A' for Active; 'I' for Inactive)
REMARK    1  A    between atoms: C1_2  and  C2_3 
ROOT
ATOM      1  C2  UNL d   1       2.405  -2.070  -0.371  0.00  0.00    -0.081 A 
ATOM      2  C3  UNL d   1       1.896  -2.503  -1.602  0.00  0.00     0.006 A 
ATOM      3  C4  UNL d   1       1.341  -3.779  -1.729  0.00  0.00     0.002 A 
ATOM      4  C5  UNL d   1       1.278  -4.639  -0.627  0.00  0.00    -0.080 A 
ATOM      5  C6  UNL d   1       0.657  -5.999  -0.743  0.00  0.00     0.076 C 
ATOM      6  C7  UNL d   1       1.802  -4.213   0.598  0.00  0.00     0.002 A 
ATOM      7  C8  UNL d   1       2.358  -2.938   0.725  0.00  0.00     0.006 A 
ENDROOT
BRANCH   1   8
ATOM      8  C1  UNL d   1       2.946  -0.672  -0.215  0.00  0.00     0.054 C 
ATOM      9  C   UNL d   1       1.882   0.276   0.320  0.00  0.00     0.018 C 
ENDBRANCH   1   8
TORSDOF 1
ENDMDL
