MODEL 1
REMARK minimizedAffinity 16.3020058
REMARK minimizedRMSD -1
REMARK  1 active torsions:
REMARK  status: ('A' for Active; 'I' for Inactive)
REMARK    1  A    between atoms: C1_2  and  C2_3 
ROOT
ATOM      1  C2  UNL d   1       1.076   2.279   0.818  0.00  0.00    -0.081 A 
ATOM      2  C3  UNL d   1      -0.296   2.138   1.059  0.00  0.00     0.006 A 
ATOM      3  C4  UNL d   1      -1.230   2.657   0.160  0.00  0.00     0.002 A 
ATOM      4  C5  UNL d   1      -0.809   3.317  -0.999  0.00  0.00    -0.080 A 
ATOM      5  C6  UNL d   1      -1.801   3.852  -1.988  0.00  0.00     0.076 C 
ATOM      6  C7  UNL d   1       0.562   3.473  -1.232  0.00  0.00     0.002 A 
ATOM      7  C8  UNL d   1       1.496   2.956  -0.332  0.00  0.00     0.006 A 
ENDROOT
BRANCH   1   8
ATOM      8  C1  UNL d   1       2.086   1.664   1.753  0.00  0.00     0.054 C 
ATOM      9  C   UNL d   1       2.722   2.716   2.650  0.00  0.00     0.018 C 
ENDBRANCH   1   8
TORSDOF 1
ENDMDL
