MODEL 1
REMARK minimizedAffinity 12.6486073
REMARK minimizedRMSD -1
REMARK  1 active torsions:
REMARK  status: ('A' for Active; 'I' for Inactive)
REMARK    1  A    between atoms: C1_2  and  C2_3 
ROOT
ATOM      1  C2  UNL d   1       0.024   0.076   3.478  0.00  0.00    -0.081 A 
ATOM      2  C3  UNL d   1       1.004   0.768   2.755  0.00  0.00     0.006 A 
ATOM      3  C4  UNL d   1       0.652   1.543   1.647  0.00  0.00     0.002 A 
ATOM      4  C5  UNL d   1      -0.685   1.646   1.249  0.00  0.00    -0.080 A 
ATOM      5  C6  UNL d   1      -1.080   2.498   0.080  0.00  0.00     0.076 C 
ATOM      6  C7  UNL d   1      -1.662   0.941   1.961  0.00  0.00     0.002 A 
ATOM      7  C8  UNL d   1      -1.310   0.165   3.068  0.00  0.00     0.006 A 
ENDROOT
BRANCH   1   8
ATOM      8  C1  UNL d   1       0.393  -0.708   4.711  0.00  0.00     0.054 C 
ATOM      9  C   UNL d   1       1.360  -1.836   4.382  0.00  0.00     0.018 C 
ENDBRANCH   1   8
TORSDOF 1
ENDMDL
