MODEL 1
REMARK minimizedAffinity 23.7151318
REMARK minimizedRMSD -1
REMARK  0 active torsions:
REMARK  status: ('A' for Active; 'I' for Inactive)
ROOT
ATOM      1  C   UNL d   1       0.966  -3.808  -0.896  0.00  0.00     0.124 A 
ATOM      2  C1  UNL d   1       1.648  -2.765  -0.285  0.00  0.00     0.062 A 
ATOM      3  C2  UNL d   1       3.035  -2.803  -0.178  0.00  0.00     0.162 A 
ATOM      4  C3  UNL d   1       3.750  -3.889  -0.684  0.00  0.00    -0.034 A 
ATOM      5  C4  UNL d   1       3.057  -4.934  -1.297  0.00  0.00     0.162 A 
ATOM      6  C5  UNL d   1       1.671  -4.891  -1.401  0.00  0.00     0.062 A 
ATOM      7  F   UNL d   1       1.014  -5.900  -1.992  0.00  0.00    -0.097 F 
ATOM      8  F1  UNL d   1       3.714  -5.993  -1.794  0.00  0.00    -0.096 F 
ATOM      9  I   UNL d   1       5.825  -3.950  -0.526  0.00  0.00    -0.060 I 
ATOM     10  F2  UNL d   1       3.668  -1.781   0.417  0.00  0.00    -0.096 F 
ATOM     11  F3  UNL d   1       0.969  -1.717   0.204  0.00  0.00    -0.097 F 
ATOM     12  F4  UNL d   1      -0.369  -3.769  -0.997  0.00  0.00    -0.092 F 
ENDROOT
TORSDOF 0
ENDMDL
