MODEL 1
REMARK minimizedAffinity 0.827990115
REMARK minimizedRMSD -1
REMARK  0 active torsions:
REMARK  status: ('A' for Active; 'I' for Inactive)
ROOT
ATOM      1  C   UNL d   1      -1.358  -4.721  -5.991  0.00  0.00     0.124 A 
ATOM      2  C1  UNL d   1      -2.744  -4.798  -5.994  0.00  0.00     0.062 A 
ATOM      3  C2  UNL d   1      -3.510  -3.636  -5.996  0.00  0.00     0.162 A 
ATOM      4  C3  UNL d   1      -2.892  -2.386  -5.996  0.00  0.00    -0.034 A 
ATOM      5  C4  UNL d   1      -1.498  -2.316  -5.993  0.00  0.00     0.162 A 
ATOM      6  C5  UNL d   1      -0.737  -3.480  -5.990  0.00  0.00     0.062 A 
ATOM      7  F   UNL d   1       0.602  -3.403  -5.987  0.00  0.00    -0.097 F 
ATOM      8  F1  UNL d   1      -0.871  -1.130  -5.993  0.00  0.00    -0.096 F 
ATOM      9  I   UNL d   1      -4.034  -0.646  -6.000  0.00  0.00    -0.060 I 
ATOM     10  F2  UNL d   1      -4.848  -3.741  -5.999  0.00  0.00    -0.096 F 
ATOM     11  F3  UNL d   1      -3.347  -5.996  -5.994  0.00  0.00    -0.097 F 
ATOM     12  F4  UNL d   1      -0.624  -5.840  -5.988  0.00  0.00    -0.092 F 
ENDROOT
TORSDOF 0
ENDMDL
