MODEL 1
REMARK minimizedAffinity 14.1068392
REMARK minimizedRMSD -1
REMARK  0 active torsions:
REMARK  status: ('A' for Active; 'I' for Inactive)
ROOT
ATOM      1  C   UNL d   1       3.750  -2.586  -0.036  0.00  0.00     0.124 A 
ATOM      2  C1  UNL d   1       2.430  -2.317  -0.368  0.00  0.00     0.062 A 
ATOM      3  C2  UNL d   1       1.651  -3.289  -0.988  0.00  0.00     0.162 A 
ATOM      4  C3  UNL d   1       2.190  -4.542  -1.279  0.00  0.00    -0.034 A 
ATOM      5  C4  UNL d   1       3.519  -4.806  -0.943  0.00  0.00     0.162 A 
ATOM      6  C5  UNL d   1       4.293  -3.830  -0.323  0.00  0.00     0.062 A 
ATOM      7  F   UNL d   1       5.569  -4.093  -0.003  0.00  0.00    -0.097 F 
ATOM      8  F1  UNL d   1       4.070  -6.000  -1.208  0.00  0.00    -0.096 F 
ATOM      9  I   UNL d   1       1.029  -6.000  -2.206  0.00  0.00    -0.060 I 
ATOM     10  F2  UNL d   1       0.378  -3.001  -1.297  0.00  0.00    -0.096 F 
ATOM     11  F3  UNL d   1       1.902  -1.115  -0.092  0.00  0.00    -0.097 F 
ATOM     12  F4  UNL d   1       4.497  -1.648   0.560  0.00  0.00    -0.092 F 
ENDROOT
TORSDOF 0
ENDMDL
