MODEL 1
REMARK minimizedAffinity 15.3944197
REMARK minimizedRMSD -1
REMARK  0 active torsions:
REMARK  status: ('A' for Active; 'I' for Inactive)
ROOT
ATOM      1  C   UNL d   1      -0.915  -2.385  -5.884  0.00  0.00     0.124 A 
ATOM      2  C1  UNL d   1      -2.252  -2.016  -5.938  0.00  0.00     0.062 A 
ATOM      3  C2  UNL d   1      -3.247  -2.990  -5.946  0.00  0.00     0.162 A 
ATOM      4  C3  UNL d   1      -2.908  -4.342  -5.898  0.00  0.00    -0.034 A 
ATOM      5  C4  UNL d   1      -1.561  -4.705  -5.845  0.00  0.00     0.162 A 
ATOM      6  C5  UNL d   1      -0.571  -3.728  -5.837  0.00  0.00     0.062 A 
ATOM      7  F   UNL d   1       0.720  -4.086  -5.785  0.00  0.00    -0.097 F 
ATOM      8  F1  UNL d   1      -1.201  -5.996  -5.798  0.00  0.00    -0.096 F 
ATOM      9  I   UNL d   1      -4.393  -5.801  -5.909  0.00  0.00    -0.060 I 
ATOM     10  F2  UNL d   1      -4.531  -2.605  -5.999  0.00  0.00    -0.096 F 
ATOM     11  F3  UNL d   1      -2.587  -0.719  -5.985  0.00  0.00    -0.097 F 
ATOM     12  F4  UNL d   1       0.040  -1.446  -5.878  0.00  0.00    -0.092 F 
ENDROOT
TORSDOF 0
ENDMDL
