MODEL 1
REMARK minimizedAffinity 7.24442577
REMARK minimizedRMSD -1
REMARK  1 active torsions:
REMARK  status: ('A' for Active; 'I' for Inactive)
REMARK    1  A    between atoms: C3_4  and  O_7 
ROOT
ATOM      1  C   UNL d   1      -5.824   3.960   2.288  0.00  0.00    -0.033 A 
ATOM      2  C1  UNL d   1      -5.996   5.344   2.356  0.00  0.00     0.039 A 
ATOM      3  C2  UNL d   1      -5.999   5.989   3.595  0.00  0.00    -0.080 A 
ATOM      4  C3  UNL d   1      -5.827   5.239   4.756  0.00  0.00     0.150 A 
ATOM      5  C4  UNL d   1      -5.651   3.861   4.695  0.00  0.00    -0.007 A 
ATOM      6  C5  UNL d   1      -5.650   3.219   3.457  0.00  0.00     0.039 A 
ENDROOT
BRANCH   4   7
ATOM      7  O   UNL d   1      -5.827   5.823   5.987  0.00  0.00    -0.526 OA
ATOM      8  H5  UNL d   1      -5.988   6.775   5.877  0.00  0.00     0.418 HD
ENDBRANCH   4   7
TORSDOF 1
ENDMDL
