MODEL 1
REMARK minimizedAffinity 1.74249423
REMARK minimizedRMSD -1
REMARK  1 active torsions:
REMARK  status: ('A' for Active; 'I' for Inactive)
REMARK    1  A    between atoms: C3_4  and  O_7 
ROOT
ATOM      1  C   UNL d   1       2.577  -1.299   0.490  0.00  0.00    -0.033 A 
ATOM      2  C1  UNL d   1       2.065  -1.101  -0.794  0.00  0.00     0.039 A 
ATOM      3  C2  UNL d   1       2.402   0.048  -1.513  0.00  0.00    -0.080 A 
ATOM      4  C3  UNL d   1       3.252   0.989  -0.937  0.00  0.00     0.150 A 
ATOM      5  C4  UNL d   1       3.769   0.796   0.340  0.00  0.00    -0.007 A 
ATOM      6  C5  UNL d   1       3.430  -0.351   1.056  0.00  0.00     0.039 A 
ENDROOT
BRANCH   4   7
ATOM      7  O   UNL d   1       3.605   2.127  -1.598  0.00  0.00    -0.526 OA
ATOM      8  H5  UNL d   1       3.150   2.139  -2.456  0.00  0.00     0.418 HD
ENDBRANCH   4   7
TORSDOF 1
ENDMDL
