MODEL 1
REMARK minimizedAffinity 4.57746506
REMARK minimizedRMSD -1
REMARK  1 active torsions:
REMARK  status: ('A' for Active; 'I' for Inactive)
REMARK    1  A    between atoms: C3_4  and  O_7 
ROOT
ATOM      1  C   UNL d   1       2.378  -1.327   0.561  0.00  0.00    -0.033 A 
ATOM      2  C1  UNL d   1       2.007  -1.391  -0.784  0.00  0.00     0.039 A 
ATOM      3  C2  UNL d   1       2.318  -0.339  -1.647  0.00  0.00    -0.080 A 
ATOM      4  C3  UNL d   1       3.001   0.769  -1.154  0.00  0.00     0.150 A 
ATOM      5  C4  UNL d   1       3.378   0.838   0.183  0.00  0.00    -0.007 A 
ATOM      6  C5  UNL d   1       3.066  -0.213   1.044  0.00  0.00     0.039 A 
ENDROOT
BRANCH   4   7
ATOM      7  O   UNL d   1       3.323   1.823  -1.958  0.00  0.00    -0.526 OA
ATOM      8  H5  UNL d   1       2.975   1.649  -2.848  0.00  0.00     0.418 HD
ENDBRANCH   4   7
TORSDOF 1
ENDMDL
