MODEL 1
REMARK minimizedAffinity 10.1440592
REMARK minimizedRMSD -1
REMARK  1 active torsions:
REMARK  status: ('A' for Active; 'I' for Inactive)
REMARK    1  A    between atoms: C3_4  and  O_7 
ROOT
ATOM      1  C   UNL d   1       5.997   4.310  -3.683  0.00  0.00    -0.033 A 
ATOM      2  C1  UNL d   1       5.426   4.955  -2.585  0.00  0.00     0.039 A 
ATOM      3  C2  UNL d   1       4.451   4.308  -1.823  0.00  0.00    -0.080 A 
ATOM      4  C3  UNL d   1       4.058   3.018  -2.169  0.00  0.00     0.150 A 
ATOM      5  C4  UNL d   1       4.626   2.368  -3.259  0.00  0.00    -0.007 A 
ATOM      6  C5  UNL d   1       5.599   3.016  -4.020  0.00  0.00     0.039 A 
ENDROOT
BRANCH   4   7
ATOM      7  O   UNL d   1       3.107   2.348  -1.458  0.00  0.00    -0.526 OA
ATOM      8  H5  UNL d   1       2.783   2.932  -0.751  0.00  0.00     0.418 HD
ENDBRANCH   4   7
TORSDOF 1
ENDMDL
