MODEL 1
REMARK minimizedAffinity 1.36308789
REMARK minimizedRMSD -1
REMARK  1 active torsions:
REMARK  status: ('A' for Active; 'I' for Inactive)
REMARK    1  A    between atoms: C3_4  and  O_7 
ROOT
ATOM      1  C   UNL d   1      -3.957   5.250   5.850  0.00  0.00    -0.033 A 
ATOM      2  C1  UNL d   1      -5.297   4.867   5.947  0.00  0.00     0.039 A 
ATOM      3  C2  UNL d   1      -6.000   4.486   4.803  0.00  0.00    -0.080 A 
ATOM      4  C3  UNL d   1      -5.353   4.490   3.570  0.00  0.00     0.150 A 
ATOM      5  C4  UNL d   1      -4.018   4.866   3.467  0.00  0.00    -0.007 A 
ATOM      6  C5  UNL d   1      -3.318   5.248   4.610  0.00  0.00     0.039 A 
ENDROOT
BRANCH   4   7
ATOM      7  O   UNL d   1      -6.000   4.131   2.425  0.00  0.00    -0.526 OA
ATOM      8  H5  UNL d   1      -6.923   3.923   2.645  0.00  0.00     0.418 HD
ENDBRANCH   4   7
TORSDOF 1
ENDMDL
