MODEL 1
REMARK minimizedAffinity 2.16917181
REMARK minimizedRMSD -1
REMARK  1 active torsions:
REMARK  status: ('A' for Active; 'I' for Inactive)
REMARK    1  A    between atoms: C3_4  and  O_7 
ROOT
ATOM      1  C   UNL d   1      -6.000   4.115   3.696  0.00  0.00    -0.033 A 
ATOM      2  C1  UNL d   1      -6.000   4.622   4.997  0.00  0.00     0.039 A 
ATOM      3  C2  UNL d   1      -4.827   5.147   5.543  0.00  0.00    -0.080 A 
ATOM      4  C3  UNL d   1      -3.663   5.160   4.779  0.00  0.00     0.150 A 
ATOM      5  C4  UNL d   1      -3.657   4.660   3.481  0.00  0.00    -0.007 A 
ATOM      6  C5  UNL d   1      -4.829   4.136   2.937  0.00  0.00     0.039 A 
ENDROOT
BRANCH   4   7
ATOM      7  O   UNL d   1      -2.493   5.657   5.271  0.00  0.00    -0.526 OA
ATOM      8  H5  UNL d   1      -2.641   5.940   6.189  0.00  0.00     0.418 HD
ENDBRANCH   4   7
TORSDOF 1
ENDMDL
