MODEL 1
REMARK minimizedAffinity 9.93919086
REMARK minimizedRMSD -1
REMARK  1 active torsions:
REMARK  status: ('A' for Active; 'I' for Inactive)
REMARK    1  A    between atoms: C3_4  and  O_7 
ROOT
ATOM      1  C   UNL d   1       4.447   3.202  -0.705  0.00  0.00    -0.033 A 
ATOM      2  C1  UNL d   1       4.135   2.877   0.617  0.00  0.00     0.039 A 
ATOM      3  C2  UNL d   1       3.533   1.652   0.913  0.00  0.00    -0.080 A 
ATOM      4  C3  UNL d   1       3.248   0.763  -0.119  0.00  0.00     0.150 A 
ATOM      5  C4  UNL d   1       3.560   1.078  -1.438  0.00  0.00    -0.007 A 
ATOM      6  C5  UNL d   1       4.160   2.302  -1.732  0.00  0.00     0.039 A 
ENDROOT
BRANCH   4   7
ATOM      7  O   UNL d   1       2.657  -0.442   0.121  0.00  0.00    -0.526 OA
ATOM      8  H5  UNL d   1       2.474  -0.510   1.073  0.00  0.00     0.418 HD
ENDBRANCH   4   7
TORSDOF 1
ENDMDL
