MODEL 1
REMARK minimizedAffinity 12.2493458
REMARK minimizedRMSD -1
REMARK  1 active torsions:
REMARK  status: ('A' for Active; 'I' for Inactive)
REMARK    1  A    between atoms: C3_4  and  O_7 
ROOT
ATOM      1  C   UNL d   1       1.975   0.314   0.054  0.00  0.00    -0.033 A 
ATOM      2  C1  UNL d   1       1.964  -0.408   1.249  0.00  0.00     0.039 A 
ATOM      3  C2  UNL d   1       1.643  -1.767   1.242  0.00  0.00    -0.080 A 
ATOM      4  C3  UNL d   1       1.337  -2.391   0.036  0.00  0.00     0.150 A 
ATOM      5  C4  UNL d   1       1.350  -1.678  -1.159  0.00  0.00    -0.007 A 
ATOM      6  C5  UNL d   1       1.670  -0.321  -1.150  0.00  0.00     0.039 A 
ENDROOT
BRANCH   4   7
ATOM      7  O   UNL d   1       1.013  -3.714  -0.020  0.00  0.00    -0.526 OA
ATOM      8  H5  UNL d   1       1.017  -4.070   0.884  0.00  0.00     0.418 HD
ENDBRANCH   4   7
TORSDOF 1
ENDMDL
