MODEL 1
REMARK minimizedAffinity 4.13721085
REMARK minimizedRMSD -1
REMARK  0 active torsions:
REMARK  status: ('A' for Active; 'I' for Inactive)
ROOT
ATOM      1  C1  DEN d   1       2.091  -3.555  -0.077  0.00  0.00     0.130 A 
ATOM      2  C2  DEN d   1       1.517  -4.819  -0.532  0.00  0.00    -0.031 A 
ATOM      3  C3  DEN d   1       1.900  -5.012  -1.945  0.00  0.00     0.027 A 
ATOM      4  C4  DEN d   1       3.322  -3.488  -3.464  0.00  0.00     0.027 A 
ATOM      5  C5  DEN d   1       4.019  -2.302  -3.527  0.00  0.00    -0.003 A 
ATOM      6  C6  DEN d   1       4.093  -1.441  -2.465  0.00  0.00     0.001 A 
ATOM      7  C7  DEN d   1       3.497  -1.776  -1.277  0.00  0.00     0.017 A 
ATOM      8  C8  DEN d   1       2.786  -2.967  -1.208  0.00  0.00    -0.094 A 
ATOM      9  C9  DEN d   1       2.733  -3.829  -2.290  0.00  0.00    -0.072 A 
ENDROOT
TORSDOF 0
ENDMDL
