MODEL 1
REMARK minimizedAffinity 6.2244668
REMARK minimizedRMSD -1
REMARK  0 active torsions:
REMARK  status: ('A' for Active; 'I' for Inactive)
ROOT
ATOM      1  C1  DEN d   1      -1.833   4.626  -2.582  0.00  0.00     0.130 A 
ATOM      2  C2  DEN d   1      -1.570   5.998  -2.156  0.00  0.00    -0.031 A 
ATOM      3  C3  DEN d   1      -0.719   5.947  -0.951  0.00  0.00     0.027 A 
ATOM      4  C4  DEN d   1       0.217   3.888   0.289  0.00  0.00     0.027 A 
ATOM      5  C5  DEN d   1       0.255   2.511   0.308  0.00  0.00    -0.003 A 
ATOM      6  C6  DEN d   1      -0.423   1.749  -0.606  0.00  0.00     0.001 A 
ATOM      7  C7  DEN d   1      -1.131   2.359  -1.607  0.00  0.00     0.017 A 
ATOM      8  C8  DEN d   1      -1.180   3.747  -1.629  0.00  0.00    -0.094 A 
ATOM      9  C9  DEN d   1      -0.479   4.500  -0.703  0.00  0.00    -0.072 A 
ENDROOT
TORSDOF 0
ENDMDL
