MODEL 1
REMARK minimizedAffinity 2.42022872
REMARK minimizedRMSD -1
REMARK  0 active torsions:
REMARK  status: ('A' for Active; 'I' for Inactive)
ROOT
ATOM      1  C1  DEN d   1       5.271  -3.828  -1.092  0.00  0.00     0.130 A 
ATOM      2  C2  DEN d   1       5.264  -5.184  -0.549  0.00  0.00    -0.031 A 
ATOM      3  C3  DEN d   1       4.345  -5.999  -1.368  0.00  0.00     0.027 A 
ATOM      4  C4  DEN d   1       2.943  -5.300  -3.417  0.00  0.00     0.027 A 
ATOM      5  C5  DEN d   1       2.610  -4.249  -4.243  0.00  0.00    -0.003 A 
ATOM      6  C6  DEN d   1       3.109  -2.988  -4.058  0.00  0.00     0.001 A 
ATOM      7  C7  DEN d   1       4.006  -2.754  -3.049  0.00  0.00     0.017 A 
ATOM      8  C8  DEN d   1       4.341  -3.806  -2.207  0.00  0.00    -0.094 A 
ATOM      9  C9  DEN d   1       3.835  -5.077  -2.418  0.00  0.00    -0.072 A 
ENDROOT
TORSDOF 0
ENDMDL
