MODEL 1
REMARK minimizedAffinity 6.62703657
REMARK minimizedRMSD -1
REMARK  0 active torsions:
REMARK  status: ('A' for Active; 'I' for Inactive)
ROOT
ATOM      1  C1  DEN d   1       4.502  -3.311  -2.306  0.00  0.00     0.130 A 
ATOM      2  C2  DEN d   1       4.603  -2.457  -1.125  0.00  0.00    -0.031 A 
ATOM      3  C3  DEN d   1       3.571  -2.890  -0.160  0.00  0.00     0.027 A 
ATOM      4  C4  DEN d   1       1.842  -4.791  -0.377  0.00  0.00     0.027 A 
ATOM      5  C5  DEN d   1       1.364  -5.785  -1.202  0.00  0.00    -0.003 A 
ATOM      6  C6  DEN d   1       1.871  -6.000  -2.456  0.00  0.00     0.001 A 
ATOM      7  C7  DEN d   1       2.919  -5.239  -2.904  0.00  0.00     0.017 A 
ATOM      8  C8  DEN d   1       3.402  -4.230  -2.081  0.00  0.00    -0.094 A 
ATOM      9  C9  DEN d   1       2.883  -4.037  -0.811  0.00  0.00    -0.072 A 
ENDROOT
TORSDOF 0
ENDMDL
