MODEL 1
REMARK minimizedAffinity 2.23216176
REMARK minimizedRMSD -1
REMARK  0 active torsions:
REMARK  status: ('A' for Active; 'I' for Inactive)
ROOT
ATOM      1  C1  DEN d   1       4.281  -1.927  -2.110  0.00  0.00     0.130 A 
ATOM      2  C2  DEN d   1       3.714  -1.836  -3.453  0.00  0.00    -0.031 A 
ATOM      3  C3  DEN d   1       3.685  -3.196  -4.029  0.00  0.00     0.027 A 
ATOM      4  C4  DEN d   1       4.454  -5.421  -2.976  0.00  0.00     0.027 A 
ATOM      5  C5  DEN d   1       5.014  -6.000  -1.859  0.00  0.00    -0.003 A 
ATOM      6  C6  DEN d   1       5.397  -5.263  -0.769  0.00  0.00     0.001 A 
ATOM      7  C7  DEN d   1       5.184  -3.910  -0.755  0.00  0.00     0.017 A 
ATOM      8  C8  DEN d   1       4.626  -3.319  -1.881  0.00  0.00    -0.094 A 
ATOM      9  C9  DEN d   1       4.234  -4.082  -2.968  0.00  0.00    -0.072 A 
ENDROOT
TORSDOF 0
ENDMDL
