MODEL 1
REMARK minimizedAffinity 0.0378683209
REMARK minimizedRMSD -1
REMARK  0 active torsions:
REMARK  status: ('A' for Active; 'I' for Inactive)
ROOT
ATOM      1  C1  DEN d   1       3.082  -3.807  -4.003  0.00  0.00     0.130 A 
ATOM      2  C2  DEN d   1       3.511  -5.144  -4.404  0.00  0.00    -0.031 A 
ATOM      3  C3  DEN d   1       4.477  -5.634  -3.400  0.00  0.00     0.027 A 
ATOM      4  C4  DEN d   1       5.340  -4.461  -1.271  0.00  0.00     0.027 A 
ATOM      5  C5  DEN d   1       5.271  -3.311  -0.517  0.00  0.00    -0.003 A 
ATOM      6  C6  DEN d   1       4.500  -2.240  -0.887  0.00  0.00     0.001 A 
ATOM      7  C7  DEN d   1       3.732  -2.316  -2.019  0.00  0.00     0.017 A 
ATOM      8  C8  DEN d   1       3.801  -3.470  -2.788  0.00  0.00    -0.094 A 
ATOM      9  C9  DEN d   1       4.577  -4.546  -2.391  0.00  0.00    -0.072 A 
ENDROOT
TORSDOF 0
ENDMDL
