MODEL 1
REMARK minimizedAffinity -0.00608523749
REMARK minimizedRMSD -1
REMARK  0 active torsions:
REMARK  status: ('A' for Active; 'I' for Inactive)
ROOT
ATOM      1  C1  DEN d   1      -5.742  -4.121   4.109  0.00  0.00     0.130 A 
ATOM      2  C2  DEN d   1      -5.886  -4.110   5.563  0.00  0.00    -0.031 A 
ATOM      3  C3  DEN d   1      -6.000  -2.704   6.000  0.00  0.00     0.027 A 
ATOM      4  C4  DEN d   1      -5.971  -0.555   4.575  0.00  0.00     0.027 A 
ATOM      5  C5  DEN d   1      -5.857  -0.058   3.295  0.00  0.00    -0.003 A 
ATOM      6  C6  DEN d   1      -5.665  -0.871   2.210  0.00  0.00     0.001 A 
ATOM      7  C7  DEN d   1      -5.626  -2.230   2.379  0.00  0.00     0.017 A 
ATOM      8  C8  DEN d   1      -5.732  -2.738   3.667  0.00  0.00    -0.094 A 
ATOM      9  C9  DEN d   1      -5.938  -1.900   4.750  0.00  0.00    -0.072 A 
ENDROOT
TORSDOF 0
ENDMDL
