MODEL 1
REMARK minimizedAffinity 6.03948402
REMARK minimizedRMSD -1
REMARK  0 active torsions:
REMARK  status: ('A' for Active; 'I' for Inactive)
ROOT
ATOM      1  C1  DEN d   1       4.263  -1.923  -1.498  0.00  0.00     0.130 A 
ATOM      2  C2  DEN d   1       3.713  -1.569  -2.804  0.00  0.00    -0.031 A 
ATOM      3  C3  DEN d   1       3.636  -2.800  -3.615  0.00  0.00     0.027 A 
ATOM      4  C4  DEN d   1       4.309  -5.208  -2.979  0.00  0.00     0.027 A 
ATOM      5  C5  DEN d   1       4.837  -6.000  -1.984  0.00  0.00    -0.003 A 
ATOM      6  C6  DEN d   1       5.238  -5.487  -0.779  0.00  0.00     0.001 A 
ATOM      7  C7  DEN d   1       5.077  -4.152  -0.522  0.00  0.00     0.017 A 
ATOM      8  C8  DEN d   1       4.553  -3.345  -1.523  0.00  0.00    -0.094 A 
ATOM      9  C9  DEN d   1       4.141  -3.884  -2.730  0.00  0.00    -0.072 A 
ENDROOT
TORSDOF 0
ENDMDL
