MODEL 1
REMARK minimizedAffinity -1.16205537
REMARK minimizedRMSD -1
REMARK  0 active torsions:
REMARK  status: ('A' for Active; 'I' for Inactive)
ROOT
ATOM      1  C1  DEN d   1       3.555  -3.908  -4.347  0.00  0.00     0.130 A 
ATOM      2  C2  DEN d   1       4.173  -5.193  -4.661  0.00  0.00    -0.031 A 
ATOM      3  C3  DEN d   1       5.017  -5.586  -3.515  0.00  0.00     0.027 A 
ATOM      4  C4  DEN d   1       5.419  -4.339  -1.293  0.00  0.00     0.027 A 
ATOM      5  C5  DEN d   1       5.120  -3.204  -0.573  0.00  0.00    -0.003 A 
ATOM      6  C6  DEN d   1       4.311  -2.216  -1.069  0.00  0.00     0.001 A 
ATOM      7  C7  DEN d   1       3.738  -2.365  -2.305  0.00  0.00     0.017 A 
ATOM      8  C8  DEN d   1       4.041  -3.504  -3.040  0.00  0.00    -0.094 A 
ATOM      9  C9  DEN d   1       4.850  -4.497  -2.515  0.00  0.00    -0.072 A 
ENDROOT
TORSDOF 0
ENDMDL
