MODEL 1
REMARK minimizedAffinity 5.27869034
REMARK minimizedRMSD -1
REMARK  1 active torsions:
REMARK  status: ('A' for Active; 'I' for Inactive)
REMARK    1  A    between atoms: C1_2  and  C2_3 
ROOT
ATOM      1  C2  UNL d   1      -0.880   4.049   0.590  0.00  0.00    -0.081 A 
ATOM      2  C3  UNL d   1      -0.697   3.539  -0.701  0.00  0.00     0.006 A 
ATOM      3  C4  UNL d   1      -0.245   2.230  -0.887  0.00  0.00     0.002 A 
ATOM      4  C5  UNL d   1       0.023   1.408   0.213  0.00  0.00    -0.080 A 
ATOM      5  C6  UNL d   1       0.480  -0.008   0.026  0.00  0.00     0.076 C 
ATOM      6  C7  UNL d   1      -0.143   1.924   1.502  0.00  0.00     0.002 A 
ATOM      7  C8  UNL d   1      -0.594   3.233   1.689  0.00  0.00     0.006 A 
ENDROOT
BRANCH   1   8
ATOM      8  C1  UNL d   1      -1.429   5.438   0.793  0.00  0.00     0.054 C 
ATOM      9  C   UNL d   1      -2.708   5.412   1.617  0.00  0.00     0.018 C 
ENDBRANCH   1   8
TORSDOF 1
ENDMDL
