MODEL 1
REMARK minimizedAffinity 19.2198849
REMARK minimizedRMSD -1
REMARK  1 active torsions:
REMARK  status: ('A' for Active; 'I' for Inactive)
REMARK    1  A    between atoms: C1_2  and  C2_3 
ROOT
ATOM      1  C2  UNL d   1      -1.334   5.606  -1.104  0.00  0.00    -0.081 A 
ATOM      2  C3  UNL d   1      -2.321   5.998  -0.191  0.00  0.00     0.006 A 
ATOM      3  C4  UNL d   1      -3.667   5.720  -0.440  0.00  0.00     0.002 A 
ATOM      4  C5  UNL d   1      -4.048   5.038  -1.601  0.00  0.00    -0.080 A 
ATOM      5  C6  UNL d   1      -5.486   4.706  -1.866  0.00  0.00     0.076 C 
ATOM      6  C7  UNL d   1      -3.064   4.661  -2.521  0.00  0.00     0.002 A 
ATOM      7  C8  UNL d   1      -1.718   4.939  -2.273  0.00  0.00     0.006 A 
ENDROOT
BRANCH   1   8
ATOM      8  C1  UNL d   1       0.124   5.847  -0.807  0.00  0.00     0.054 C 
ATOM      9  C   UNL d   1       0.970   4.635  -1.168  0.00  0.00     0.018 C 
ENDBRANCH   1   8
TORSDOF 1
ENDMDL
