MODEL 1
REMARK minimizedAffinity 7.86326742
REMARK minimizedRMSD -1
REMARK  1 active torsions:
REMARK  status: ('A' for Active; 'I' for Inactive)
REMARK    1  A    between atoms: C1_2  and  C2_3 
ROOT
ATOM      1  C2  UNL d   1      -1.101   1.142   0.813  0.00  0.00    -0.081 A 
ATOM      2  C3  UNL d   1      -0.525   2.142   1.606  0.00  0.00     0.006 A 
ATOM      3  C4  UNL d   1       0.084   3.252   1.016  0.00  0.00     0.002 A 
ATOM      4  C5  UNL d   1       0.119   3.385  -0.377  0.00  0.00    -0.080 A 
ATOM      5  C6  UNL d   1       0.743   4.586  -1.023  0.00  0.00     0.076 C 
ATOM      6  C7  UNL d   1      -0.441   2.378  -1.170  0.00  0.00     0.002 A 
ATOM      7  C8  UNL d   1      -1.049   1.268  -0.580  0.00  0.00     0.006 A 
ENDROOT
BRANCH   1   8
ATOM      8  C1  UNL d   1      -1.815  -0.024   1.448  0.00  0.00     0.054 C 
ATOM      9  C   UNL d   1      -2.979  -0.494   0.588  0.00  0.00     0.018 C 
ENDBRANCH   1   8
TORSDOF 1
ENDMDL
