MODEL 1
REMARK minimizedAffinity 8.14214897
REMARK minimizedRMSD -1
REMARK  1 active torsions:
REMARK  status: ('A' for Active; 'I' for Inactive)
REMARK    1  A    between atoms: C1_2  and  C2_3 
ROOT
ATOM      1  C2  UNL d   1       0.325   3.798   0.004  0.00  0.00    -0.081 A 
ATOM      2  C3  UNL d   1       0.212   5.191  -0.087  0.00  0.00     0.006 A 
ATOM      3  C4  UNL d   1      -0.622   5.772  -1.044  0.00  0.00     0.002 A 
ATOM      4  C5  UNL d   1      -1.363   4.972  -1.921  0.00  0.00    -0.080 A 
ATOM      5  C6  UNL d   1      -2.285   5.583  -2.934  0.00  0.00     0.076 C 
ATOM      6  C7  UNL d   1      -1.236   3.581  -1.841  0.00  0.00     0.002 A 
ATOM      7  C8  UNL d   1      -0.402   2.999  -0.885  0.00  0.00     0.006 A 
ENDROOT
BRANCH   1   8
ATOM      8  C1  UNL d   1       1.174   3.167   1.078  0.00  0.00     0.054 C 
ATOM      9  C   UNL d   1       0.326   2.359   2.050  0.00  0.00     0.018 C 
ENDBRANCH   1   8
TORSDOF 1
ENDMDL
