MODEL 1
REMARK minimizedAffinity 10.4644356
REMARK minimizedRMSD -1
REMARK  1 active torsions:
REMARK  status: ('A' for Active; 'I' for Inactive)
REMARK    1  A    between atoms: C1_2  and  C2_3 
ROOT
ATOM      1  C2  UNL d   1      -2.657   2.316  -1.862  0.00  0.00    -0.081 A 
ATOM      2  C3  UNL d   1      -2.477   3.642  -2.273  0.00  0.00     0.006 A 
ATOM      3  C4  UNL d   1      -1.388   4.386  -1.811  0.00  0.00     0.002 A 
ATOM      4  C5  UNL d   1      -0.457   3.813  -0.937  0.00  0.00    -0.080 A 
ATOM      5  C6  UNL d   1       0.733   4.590  -0.458  0.00  0.00     0.076 C 
ATOM      6  C7  UNL d   1      -0.646   2.494  -0.513  0.00  0.00     0.002 A 
ATOM      7  C8  UNL d   1      -1.735   1.750  -0.974  0.00  0.00     0.006 A 
ENDROOT
BRANCH   1   8
ATOM      8  C1  UNL d   1      -3.794   1.492  -2.408  0.00  0.00     0.054 C 
ATOM      9  C   UNL d   1      -4.333   0.529  -1.360  0.00  0.00     0.018 C 
ENDBRANCH   1   8
TORSDOF 1
ENDMDL
