MODEL 1
REMARK minimizedAffinity 9.06229877
REMARK minimizedRMSD -1
REMARK  1 active torsions:
REMARK  status: ('A' for Active; 'I' for Inactive)
REMARK    1  A    between atoms: C1_2  and  C2_3 
ROOT
ATOM      1  C2  UNL d   1      -0.819   4.282  -1.582  0.00  0.00    -0.081 A 
ATOM      2  C3  UNL d   1       0.563   4.102  -1.712  0.00  0.00     0.006 A 
ATOM      3  C4  UNL d   1       1.276   3.376  -0.756  0.00  0.00     0.002 A 
ATOM      4  C5  UNL d   1       0.618   2.811   0.342  0.00  0.00    -0.080 A 
ATOM      5  C6  UNL d   1       1.367   2.003   1.360  0.00  0.00     0.076 C 
ATOM      6  C7  UNL d   1      -0.760   3.005   0.481  0.00  0.00     0.002 A 
ATOM      7  C8  UNL d   1      -1.474   3.731  -0.475  0.00  0.00     0.006 A 
ENDROOT
BRANCH   1   8
ATOM      8  C1  UNL d   1      -1.601   5.009  -2.646  0.00  0.00     0.054 C 
ATOM      9  C   UNL d   1      -2.886   4.270  -2.992  0.00  0.00     0.018 C 
ENDBRANCH   1   8
TORSDOF 1
ENDMDL
