MODEL 1
REMARK minimizedAffinity 7.21571302
REMARK minimizedRMSD -1
REMARK  1 active torsions:
REMARK  status: ('A' for Active; 'I' for Inactive)
REMARK    1  A    between atoms: C1_2  and  C2_3 
ROOT
ATOM      1  C2  UNL d   1      -0.866  -4.571  -4.326  0.00  0.00    -0.081 A 
ATOM      2  C3  UNL d   1      -2.009  -3.824  -4.017  0.00  0.00     0.006 A 
ATOM      3  C4  UNL d   1      -3.248  -4.165  -4.566  0.00  0.00     0.002 A 
ATOM      4  C5  UNL d   1      -3.366  -5.262  -5.426  0.00  0.00    -0.080 A 
ATOM      5  C6  UNL d   1      -4.695  -5.656  -5.998  0.00  0.00     0.076 C 
ATOM      6  C7  UNL d   1      -2.220  -5.998  -5.749  0.00  0.00     0.002 A 
ATOM      7  C8  UNL d   1      -0.982  -5.657  -5.201  0.00  0.00     0.006 A 
ENDROOT
BRANCH   1   8
ATOM      8  C1  UNL d   1       0.459  -4.246  -3.685  0.00  0.00     0.054 C 
ATOM      9  C   UNL d   1       0.430  -4.515  -2.188  0.00  0.00     0.018 C 
ENDBRANCH   1   8
TORSDOF 1
ENDMDL
