MODEL 1
REMARK minimizedAffinity 5.71198177
REMARK minimizedRMSD -1
REMARK  1 active torsions:
REMARK  status: ('A' for Active; 'I' for Inactive)
REMARK    1  A    between atoms: C1_2  and  C2_3 
ROOT
ATOM      1  C2  UNL d   1      -1.452  -0.089   1.399  0.00  0.00    -0.073 A 
ATOM      2  C3  UNL d   1      -2.472  -0.363   2.317  0.00  0.00    -0.002 A 
ATOM      3  C4  UNL d   1      -2.166  -0.885   3.575  0.00  0.00     0.004 A 
ATOM      4  C5  UNL d   1      -0.840  -1.131   3.930  0.00  0.00    -0.004 A 
ATOM      5  C6  UNL d   1       0.194  -0.853   3.030  0.00  0.00    -0.075 A 
ATOM      6  C7  UNL d   1       1.626  -1.115   3.396  0.00  0.00     0.076 C 
ATOM      7  C8  UNL d   1      -0.121  -0.332   1.768  0.00  0.00     0.001 A 
ENDROOT
BRANCH   1   8
ATOM      8  C1  UNL d   1      -1.776   0.481   0.042  0.00  0.00     0.053 C 
ATOM      9  C   UNL d   1      -2.994  -0.184  -0.579  0.00  0.00     0.018 C 
ENDBRANCH   1   8
TORSDOF 1
ENDMDL
