MODEL 1
REMARK minimizedAffinity -4.29385805
REMARK minimizedRMSD -1
REMARK  1 active torsions:
REMARK  status: ('A' for Active; 'I' for Inactive)
REMARK    1  A    between atoms: C1_2  and  C2_3 
ROOT
ATOM      1  C2  UNL d   1       1.509  -0.387   0.515  0.00  0.00    -0.073 A 
ATOM      2  C3  UNL d   1       0.688  -0.632  -0.592  0.00  0.00    -0.002 A 
ATOM      3  C4  UNL d   1      -0.697  -0.499  -0.486  0.00  0.00     0.004 A 
ATOM      4  C5  UNL d   1      -1.275  -0.114   0.724  0.00  0.00    -0.004 A 
ATOM      5  C6  UNL d   1      -0.471   0.147   1.838  0.00  0.00    -0.075 A 
ATOM      6  C7  UNL d   1      -1.077   0.560   3.147  0.00  0.00     0.076 C 
ATOM      7  C8  UNL d   1       0.919   0.008   1.725  0.00  0.00     0.001 A 
ENDROOT
BRANCH   1   8
ATOM      8  C1  UNL d   1       3.005  -0.523   0.404  0.00  0.00     0.053 C 
ATOM      9  C   UNL d   1       3.548   0.151  -0.846  0.00  0.00     0.018 C 
ENDBRANCH   1   8
TORSDOF 1
ENDMDL
