MODEL 1
REMARK minimizedAffinity -3.38392067
REMARK minimizedRMSD -1
REMARK  1 active torsions:
REMARK  status: ('A' for Active; 'I' for Inactive)
REMARK    1  A    between atoms: C1_2  and  C2_3 
ROOT
ATOM      1  C2  UNL d   1       0.046   0.169   3.422  0.00  0.00    -0.073 A 
ATOM      2  C3  UNL d   1       0.573   1.433   3.131  0.00  0.00    -0.002 A 
ATOM      3  C4  UNL d   1       0.466   1.962   1.844  0.00  0.00     0.004 A 
ATOM      4  C5  UNL d   1      -0.173   1.238   0.838  0.00  0.00    -0.004 A 
ATOM      5  C6  UNL d   1      -0.716  -0.022   1.112  0.00  0.00    -0.075 A 
ATOM      6  C7  UNL d   1      -1.405  -0.814   0.040  0.00  0.00     0.076 C 
ATOM      7  C8  UNL d   1      -0.603  -0.547   2.406  0.00  0.00     0.001 A 
ENDROOT
BRANCH   1   8
ATOM      8  C1  UNL d   1       0.153  -0.403   4.811  0.00  0.00     0.053 C 
ATOM      9  C   UNL d   1       0.739  -1.807   4.806  0.00  0.00     0.018 C 
ENDBRANCH   1   8
TORSDOF 1
ENDMDL
