MODEL 1
REMARK minimizedAffinity 3.79085708
REMARK minimizedRMSD -1
REMARK  1 active torsions:
REMARK  status: ('A' for Active; 'I' for Inactive)
REMARK    1  A    between atoms: C1_2  and  C2_3 
ROOT
ATOM      1  C2  UNL d   1      -0.334  -0.291   3.393  0.00  0.00    -0.073 A 
ATOM      2  C3  UNL d   1      -1.632   0.195   3.204  0.00  0.00    -0.002 A 
ATOM      3  C4  UNL d   1      -2.166   0.301   1.919  0.00  0.00     0.004 A 
ATOM      4  C5  UNL d   1      -1.410  -0.085   0.812  0.00  0.00    -0.004 A 
ATOM      5  C6  UNL d   1      -0.115  -0.585   0.981  0.00  0.00    -0.075 A 
ATOM      6  C7  UNL d   1       0.711  -1.003  -0.200  0.00  0.00     0.076 C 
ATOM      7  C8  UNL d   1       0.414  -0.686   2.275  0.00  0.00     0.001 A 
ENDROOT
BRANCH   1   8
ATOM      8  C1  UNL d   1       0.244  -0.413   4.780  0.00  0.00     0.053 C 
ATOM      9  C   UNL d   1       0.918  -1.758   5.000  0.00  0.00     0.018 C 
ENDBRANCH   1   8
TORSDOF 1
ENDMDL
