MODEL 1
REMARK minimizedAffinity 0.532164991
REMARK minimizedRMSD -1
REMARK  1 active torsions:
REMARK  status: ('A' for Active; 'I' for Inactive)
REMARK    1  A    between atoms: C1_2  and  C2_3 
ROOT
ATOM      1  C2  UNL d   1      -0.750  -0.508   1.284  0.00  0.00    -0.073 A 
ATOM      2  C3  UNL d   1      -2.057  -0.125   1.608  0.00  0.00    -0.002 A 
ATOM      3  C4  UNL d   1      -2.531  -0.272   2.912  0.00  0.00     0.004 A 
ATOM      4  C5  UNL d   1      -1.704  -0.796   3.905  0.00  0.00    -0.004 A 
ATOM      5  C6  UNL d   1      -0.392  -1.174   3.604  0.00  0.00    -0.075 A 
ATOM      6  C7  UNL d   1       0.510  -1.741   4.660  0.00  0.00     0.076 C 
ATOM      7  C8  UNL d   1       0.077  -1.026   2.291  0.00  0.00     0.001 A 
ENDROOT
BRANCH   1   8
ATOM      8  C1  UNL d   1      -0.231  -0.346  -0.122  0.00  0.00     0.053 C 
ATOM      9  C   UNL d   1       1.148   0.293  -0.149  0.00  0.00     0.018 C 
ENDBRANCH   1   8
TORSDOF 1
ENDMDL
