MODEL 1
REMARK minimizedAffinity 0.0639027879
REMARK minimizedRMSD -1
REMARK  1 active torsions:
REMARK  status: ('A' for Active; 'I' for Inactive)
REMARK    1  A    between atoms: C1_2  and  C2_3 
ROOT
ATOM      1  C2  UNL d   1      -0.650  -1.727   4.624  0.00  0.00    -0.073 A 
ATOM      2  C3  UNL d   1      -0.038  -1.095   3.535  0.00  0.00    -0.002 A 
ATOM      3  C4  UNL d   1      -0.793  -0.718   2.424  0.00  0.00     0.004 A 
ATOM      4  C5  UNL d   1      -2.166  -0.962   2.392  0.00  0.00    -0.004 A 
ATOM      5  C6  UNL d   1      -2.797  -1.581   3.475  0.00  0.00    -0.075 A 
ATOM      6  C7  UNL d   1      -4.273  -1.852   3.456  0.00  0.00     0.076 C 
ATOM      7  C8  UNL d   1      -2.032  -1.960   4.587  0.00  0.00     0.001 A 
ENDROOT
BRANCH   1   8
ATOM      8  C1  UNL d   1       0.160  -2.130   5.829  0.00  0.00     0.053 C 
ATOM      9  C   UNL d   1       1.545  -1.502   5.821  0.00  0.00     0.018 C 
ENDBRANCH   1   8
TORSDOF 1
ENDMDL
