MODEL 1
REMARK minimizedAffinity -2.37650347
REMARK minimizedRMSD -1
REMARK  1 active torsions:
REMARK  status: ('A' for Active; 'I' for Inactive)
REMARK    1  A    between atoms: C1_2  and  C2_3 
ROOT
ATOM      1  C2  UNL d   1      -1.289   0.066   2.034  0.00  0.00    -0.073 A 
ATOM      2  C3  UNL d   1      -0.323   0.609   1.179  0.00  0.00    -0.002 A 
ATOM      3  C4  UNL d   1      -0.543   0.648  -0.199  0.00  0.00     0.004 A 
ATOM      4  C5  UNL d   1      -1.731   0.152  -0.734  0.00  0.00    -0.004 A 
ATOM      5  C6  UNL d   1      -2.714  -0.383   0.105  0.00  0.00    -0.075 A 
ATOM      6  C7  UNL d   1      -3.998  -0.921  -0.456  0.00  0.00     0.076 C 
ATOM      7  C8  UNL d   1      -2.485  -0.421   1.487  0.00  0.00     0.001 A 
ENDROOT
BRANCH   1   8
ATOM      8  C1  UNL d   1      -1.059   0.028   3.522  0.00  0.00     0.053 C 
ATOM      9  C   UNL d   1       0.126  -0.850   3.893  0.00  0.00     0.018 C 
ENDBRANCH   1   8
TORSDOF 1
ENDMDL
