MODEL 1
REMARK minimizedAffinity 0.14127478
REMARK minimizedRMSD -1
REMARK  1 active torsions:
REMARK  status: ('A' for Active; 'I' for Inactive)
REMARK    1  A    between atoms: C1_2  and  C2_3 
ROOT
ATOM      1  C2  UNL d   1       3.405   2.103   0.087  0.00  0.00    -0.073 A 
ATOM      2  C3  UNL d   1       3.729   3.029  -0.911  0.00  0.00    -0.002 A 
ATOM      3  C4  UNL d   1       4.286   2.600  -2.116  0.00  0.00     0.004 A 
ATOM      4  C5  UNL d   1       4.518   1.243  -2.339  0.00  0.00    -0.004 A 
ATOM      5  C6  UNL d   1       4.190   0.301  -1.358  0.00  0.00    -0.075 A 
ATOM      6  C7  UNL d   1       4.436  -1.163  -1.582  0.00  0.00     0.076 C 
ATOM      7  C8  UNL d   1       3.634   0.739  -0.149  0.00  0.00     0.001 A 
ENDROOT
BRANCH   1   8
ATOM      8  C1  UNL d   1       2.798   2.560   1.388  0.00  0.00     0.053 C 
ATOM      9  C   UNL d   1       1.347   2.127   1.523  0.00  0.00     0.018 C 
ENDBRANCH   1   8
TORSDOF 1
ENDMDL
