MODEL 1
REMARK minimizedAffinity 11.8910952
REMARK minimizedRMSD -1
REMARK  1 active torsions:
REMARK  status: ('A' for Active; 'I' for Inactive)
REMARK    1  A    between atoms: C1_2  and  C2_3 
ROOT
ATOM      1  C2  UNL d   1       3.948   3.641   2.986  0.00  0.00    -0.073 A 
ATOM      2  C3  UNL d   1       5.216   4.178   3.235  0.00  0.00    -0.002 A 
ATOM      3  C4  UNL d   1       5.999   3.682   4.278  0.00  0.00     0.004 A 
ATOM      4  C5  UNL d   1       5.527   2.641   5.077  0.00  0.00    -0.004 A 
ATOM      5  C6  UNL d   1       4.267   2.083   4.836  0.00  0.00    -0.075 A 
ATOM      6  C7  UNL d   1       3.743   0.965   5.688  0.00  0.00     0.076 C 
ATOM      7  C8  UNL d   1       3.485   2.589   3.789  0.00  0.00     0.001 A 
ENDROOT
BRANCH   1   8
ATOM      8  C1  UNL d   1       3.102   4.169   1.856  0.00  0.00     0.053 C 
ATOM      9  C   UNL d   1       1.930   3.252   1.546  0.00  0.00     0.018 C 
ENDBRANCH   1   8
TORSDOF 1
ENDMDL
