MODEL 1
REMARK minimizedAffinity 3.70119262
REMARK minimizedRMSD -1
REMARK  1 active torsions:
REMARK  status: ('A' for Active; 'I' for Inactive)
REMARK    1  A    between atoms: C1_2  and  C2_3 
ROOT
ATOM      1  C2  UNL d   1      -1.521   0.769   0.985  0.00  0.00    -0.073 A 
ATOM      2  C3  UNL d   1      -0.394   0.093   0.503  0.00  0.00    -0.002 A 
ATOM      3  C4  UNL d   1      -0.519  -0.844  -0.523  0.00  0.00     0.004 A 
ATOM      4  C5  UNL d   1      -1.769  -1.110  -1.083  0.00  0.00    -0.004 A 
ATOM      5  C6  UNL d   1      -2.905  -0.436  -0.623  0.00  0.00    -0.075 A 
ATOM      6  C7  UNL d   1      -4.257  -0.712  -1.212  0.00  0.00     0.076 C 
ATOM      7  C8  UNL d   1      -2.771   0.501   0.410  0.00  0.00     0.001 A 
ENDROOT
BRANCH   1   8
ATOM      8  C1  UNL d   1      -1.389   1.786   2.089  0.00  0.00     0.053 C 
ATOM      9  C   UNL d   1      -0.545   2.978   1.668  0.00  0.00     0.018 C 
ENDBRANCH   1   8
TORSDOF 1
ENDMDL
