MODEL 1
REMARK minimizedAffinity -2.59788299
REMARK minimizedRMSD -1
REMARK  0 active torsions:
REMARK  status: ('A' for Active; 'I' for Inactive)
ROOT
ATOM      1  O1  BZF d   1       0.583   1.362   2.426  0.00  0.00    -0.204 OA
ATOM      2  C2  BZF d   1      -0.348   1.647   1.446  0.00  0.00     0.174 A 
ATOM      3  C3  BZF d   1       0.028   1.122   0.262  0.00  0.00    -0.012 A 
ATOM      4  C3A BZF d   1       1.226   0.390   0.538  0.00  0.00    -0.107 A 
ATOM      5  C4  BZF d   1       2.064  -0.364  -0.233  0.00  0.00     0.055 A 
ATOM      6  C5  BZF d   1       3.188  -0.883   0.328  0.00  0.00    -0.016 A 
ATOM      7  C6  BZF d   1       3.507  -0.664   1.652  0.00  0.00     0.022 A 
ATOM      8  C7  BZF d   1       2.704   0.072   2.457  0.00  0.00     0.029 A 
ATOM      9  C7A BZF d   1       1.550   0.571   1.902  0.00  0.00     0.058 A 
ENDROOT
TORSDOF 0
ENDMDL
