MODEL 1
REMARK minimizedAffinity 7.3434391
REMARK minimizedRMSD -1
REMARK  0 active torsions:
REMARK  status: ('A' for Active; 'I' for Inactive)
ROOT
ATOM      1  O1  BZF d   1      -2.700   3.228   2.932  0.00  0.00    -0.204 OA
ATOM      2  C2  BZF d   1      -3.299   2.554   3.979  0.00  0.00     0.174 A 
ATOM      3  C3  BZF d   1      -2.967   1.247   3.957  0.00  0.00    -0.012 A 
ATOM      4  C3A BZF d   1      -2.034   1.113   2.881  0.00  0.00    -0.107 A 
ATOM      5  C4  BZF d   1      -1.334   0.057   2.371  0.00  0.00     0.055 A 
ATOM      6  C5  BZF d   1      -0.562   0.246   1.269  0.00  0.00    -0.016 A 
ATOM      7  C6  BZF d   1      -0.471   1.475   0.649  0.00  0.00     0.022 A 
ATOM      8  C7  BZF d   1      -1.143   2.553   1.121  0.00  0.00     0.029 A 
ATOM      9  C7A BZF d   1      -1.898   2.373   2.254  0.00  0.00     0.058 A 
ENDROOT
TORSDOF 0
ENDMDL
