MODEL 1
REMARK minimizedAffinity 4.14895105
REMARK minimizedRMSD -1
REMARK  0 active torsions:
REMARK  status: ('A' for Active; 'I' for Inactive)
ROOT
ATOM      1  O1  BZF d   1      -2.691   0.846   2.960  0.00  0.00    -0.204 OA
ATOM      2  C2  BZF d   1      -2.997   2.124   3.388  0.00  0.00     0.174 A 
ATOM      3  C3  BZF d   1      -2.100   3.014   2.917  0.00  0.00    -0.012 A 
ATOM      4  C3A BZF d   1      -1.229   2.258   2.071  0.00  0.00    -0.107 A 
ATOM      5  C4  BZF d   1      -0.147   2.586   1.305  0.00  0.00     0.055 A 
ATOM      6  C5  BZF d   1       0.527   1.600   0.656  0.00  0.00    -0.016 A 
ATOM      7  C6  BZF d   1       0.150   0.276   0.755  0.00  0.00     0.022 A 
ATOM      8  C7  BZF d   1      -0.920  -0.097   1.499  0.00  0.00     0.029 A 
ATOM      9  C7A BZF d   1      -1.622   0.901   2.129  0.00  0.00     0.058 A 
ENDROOT
TORSDOF 0
ENDMDL
