MODEL 1
REMARK minimizedAffinity 9.62839031
REMARK minimizedRMSD -1
REMARK  0 active torsions:
REMARK  status: ('A' for Active; 'I' for Inactive)
ROOT
ATOM      1  O1  BZF d   1      -3.290   1.808   2.185  0.00  0.00    -0.204 OA
ATOM      2  C2  BZF d   1      -3.253   0.742   3.063  0.00  0.00     0.174 A 
ATOM      3  C3  BZF d   1      -2.036   0.160   3.057  0.00  0.00    -0.012 A 
ATOM      4  C3A BZF d   1      -1.237   0.966   2.186  0.00  0.00    -0.107 A 
ATOM      5  C4  BZF d   1       0.067   0.907   1.786  0.00  0.00     0.055 A 
ATOM      6  C5  BZF d   1       0.518   1.804   0.869  0.00  0.00    -0.016 A 
ATOM      7  C6  BZF d   1      -0.308   2.767   0.329  0.00  0.00     0.022 A 
ATOM      8  C7  BZF d   1      -1.608   2.868   0.698  0.00  0.00     0.029 A 
ATOM      9  C7A BZF d   1      -2.058   1.984   1.649  0.00  0.00     0.058 A 
ENDROOT
TORSDOF 0
ENDMDL
