MODEL 1
REMARK minimizedAffinity -2.41545939
REMARK minimizedRMSD -1
REMARK  0 active torsions:
REMARK  status: ('A' for Active; 'I' for Inactive)
ROOT
ATOM      1  O1  BZF d   1       0.385   2.430   1.566  0.00  0.00    -0.204 OA
ATOM      2  C2  BZF d   1       1.269   1.585   0.921  0.00  0.00     0.174 A 
ATOM      3  C3  BZF d   1       0.814   0.315   0.937  0.00  0.00    -0.012 A 
ATOM      4  C3A BZF d   1      -0.475   0.385   1.553  0.00  0.00    -0.107 A 
ATOM      5  C4  BZF d   1      -1.430  -0.549   1.840  0.00  0.00     0.055 A 
ATOM      6  C5  BZF d   1      -2.547  -0.166   2.513  0.00  0.00    -0.016 A 
ATOM      7  C6  BZF d   1      -2.738   1.139   2.919  0.00  0.00     0.022 A 
ATOM      8  C7  BZF d   1      -1.821   2.101   2.653  0.00  0.00     0.029 A 
ATOM      9  C7A BZF d   1      -0.707   1.724   1.944  0.00  0.00     0.058 A 
ENDROOT
TORSDOF 0
ENDMDL
