MODEL 1
REMARK minimizedAffinity 2.44882298
REMARK minimizedRMSD -1
REMARK  0 active torsions:
REMARK  status: ('A' for Active; 'I' for Inactive)
ROOT
ATOM      1  O1  BZF d   1      -1.120   2.819   1.749  0.00  0.00    -0.204 OA
ATOM      2  C2  BZF d   1      -2.364   2.316   2.077  0.00  0.00     0.174 A 
ATOM      3  C3  BZF d   1      -2.399   0.978   1.907  0.00  0.00    -0.012 A 
ATOM      4  C3A BZF d   1      -1.067   0.612   1.534  0.00  0.00    -0.107 A 
ATOM      5  C4  BZF d   1      -0.468  -0.581   1.245  0.00  0.00     0.055 A 
ATOM      6  C5  BZF d   1       0.831  -0.587   0.844  0.00  0.00    -0.016 A 
ATOM      7  C6  BZF d   1       1.557   0.579   0.717  0.00  0.00     0.022 A 
ATOM      8  C7  BZF d   1       1.007   1.785   0.998  0.00  0.00     0.029 A 
ATOM      9  C7A BZF d   1      -0.295   1.792   1.434  0.00  0.00     0.058 A 
ENDROOT
TORSDOF 0
ENDMDL
