MODEL 1
REMARK minimizedAffinity 4.63489437
REMARK minimizedRMSD -1
REMARK  0 active torsions:
REMARK  status: ('A' for Active; 'I' for Inactive)
ROOT
ATOM      1  O1  BZF d   1      -3.694   2.117   3.089  0.00  0.00    -0.204 OA
ATOM      2  C2  BZF d   1      -4.219   0.997   3.704  0.00  0.00     0.174 A 
ATOM      3  C3  BZF d   1      -3.395  -0.061   3.554  0.00  0.00    -0.012 A 
ATOM      4  C3A BZF d   1      -2.243   0.452   2.878  0.00  0.00    -0.107 A 
ATOM      5  C4  BZF d   1      -1.071  -0.112   2.461  0.00  0.00     0.055 A 
ATOM      6  C5  BZF d   1      -0.185   0.647   1.765  0.00  0.00    -0.016 A 
ATOM      7  C6  BZF d   1      -0.439   1.969   1.464  0.00  0.00     0.022 A 
ATOM      8  C7  BZF d   1      -1.586   2.574   1.861  0.00  0.00     0.029 A 
ATOM      9  C7A BZF d   1      -2.469   1.819   2.593  0.00  0.00     0.058 A 
ENDROOT
TORSDOF 0
ENDMDL
