MODEL 1
REMARK minimizedAffinity -0.997320056
REMARK minimizedRMSD -1
REMARK  0 active torsions:
REMARK  status: ('A' for Active; 'I' for Inactive)
ROOT
ATOM      1  O1  BZF d   1      -1.627   2.575   2.597  0.00  0.00    -0.204 OA
ATOM      2  C2  BZF d   1      -2.719   1.804   2.946  0.00  0.00     0.174 A 
ATOM      3  C3  BZF d   1      -2.604   0.557   2.444  0.00  0.00    -0.012 A 
ATOM      4  C3A BZF d   1      -1.320   0.522   1.815  0.00  0.00    -0.107 A 
ATOM      5  C4  BZF d   1      -0.626  -0.449   1.151  0.00  0.00     0.055 A 
ATOM      6  C5  BZF d   1       0.574  -0.139   0.593  0.00  0.00    -0.016 A 
ATOM      7  C6  BZF d   1       1.107   1.131   0.676  0.00  0.00     0.022 A 
ATOM      8  C7  BZF d   1       0.458   2.126   1.328  0.00  0.00     0.029 A 
ATOM      9  C7A BZF d   1      -0.739   1.807   1.921  0.00  0.00     0.058 A 
ENDROOT
TORSDOF 0
ENDMDL
