MODEL 1
REMARK minimizedAffinity -0.52967155
REMARK minimizedRMSD -1
REMARK  0 active torsions:
REMARK  status: ('A' for Active; 'I' for Inactive)
ROOT
ATOM      1  O1  BZF d   1       0.462   2.356   1.557  0.00  0.00    -0.204 OA
ATOM      2  C2  BZF d   1       1.276   1.301   1.192  0.00  0.00     0.174 A 
ATOM      3  C3  BZF d   1       0.635   0.125   1.350  0.00  0.00    -0.012 A 
ATOM      4  C3A BZF d   1      -0.692   0.472   1.757  0.00  0.00    -0.107 A 
ATOM      5  C4  BZF d   1      -1.805  -0.262   2.054  0.00  0.00     0.055 A 
ATOM      6  C5  BZF d   1      -2.921   0.378   2.489  0.00  0.00    -0.016 A 
ATOM      7  C6  BZF d   1      -2.959   1.748   2.644  0.00  0.00     0.022 A 
ATOM      8  C7  BZF d   1      -1.881   2.519   2.358  0.00  0.00     0.029 A 
ATOM      9  C7A BZF d   1      -0.762   1.878   1.886  0.00  0.00     0.058 A 
ENDROOT
TORSDOF 0
ENDMDL
