MODEL 1
REMARK minimizedAffinity -5.09433699
REMARK minimizedRMSD -1
REMARK  0 active torsions:
REMARK  status: ('A' for Active; 'I' for Inactive)
ROOT
ATOM      1  O1  BZF d   1      -3.326   1.278   2.839  0.00  0.00    -0.204 OA
ATOM      2  C2  BZF d   1      -2.919  -0.011   3.123  0.00  0.00     0.174 A 
ATOM      3  C3  BZF d   1      -1.677  -0.236   2.650  0.00  0.00    -0.012 A 
ATOM      4  C3A BZF d   1      -1.246   1.018   2.112  0.00  0.00    -0.107 A 
ATOM      5  C4  BZF d   1      -0.092   1.436   1.513  0.00  0.00     0.055 A 
ATOM      6  C5  BZF d   1      -0.019   2.706   1.035  0.00  0.00    -0.016 A 
ATOM      7  C6  BZF d   1      -1.080   3.582   1.134  0.00  0.00     0.022 A 
ATOM      8  C7  BZF d   1      -2.244   3.214   1.725  0.00  0.00     0.029 A 
ATOM      9  C7A BZF d   1      -2.309   1.942   2.238  0.00  0.00     0.058 A 
ENDROOT
TORSDOF 0
ENDMDL
