MODEL 1
REMARK minimizedAffinity 10.4672527
REMARK minimizedRMSD -1
REMARK  0 active torsions:
REMARK  status: ('A' for Active; 'I' for Inactive)
ROOT
ATOM      1  O1  BZF d   1      -2.773   3.467   2.166  0.00  0.00    -0.204 OA
ATOM      2  C2  BZF d   1      -1.588   3.071   1.578  0.00  0.00     0.174 A 
ATOM      3  C3  BZF d   1      -1.336   1.772   1.837  0.00  0.00    -0.012 A 
ATOM      4  C3A BZF d   1      -2.479   1.303   2.559  0.00  0.00    -0.107 A 
ATOM      5  C4  BZF d   1      -2.827   0.090   3.081  0.00  0.00     0.055 A 
ATOM      6  C5  BZF d   1      -3.980  -0.016   3.793  0.00  0.00    -0.016 A 
ATOM      7  C6  BZF d   1      -4.804   1.070   4.006  0.00  0.00     0.022 A 
ATOM      8  C7  BZF d   1      -4.503   2.292   3.504  0.00  0.00     0.029 A 
ATOM      9  C7A BZF d   1      -3.355   2.395   2.756  0.00  0.00     0.058 A 
ENDROOT
TORSDOF 0
ENDMDL
