MODEL 1
REMARK minimizedAffinity 7.96840143
REMARK minimizedRMSD -1
REMARK  0 active torsions:
REMARK  status: ('A' for Active; 'I' for Inactive)
ROOT
ATOM      1  O1  BZF d   1      -3.597  -0.724  -4.245  0.00  0.00    -0.204 OA
ATOM      2  C2  BZF d   1      -3.126  -1.867  -4.862  0.00  0.00     0.174 A 
ATOM      3  C3  BZF d   1      -3.121  -2.906  -4.003  0.00  0.00    -0.012 A 
ATOM      4  C3A BZF d   1      -3.707  -2.402  -2.799  0.00  0.00    -0.107 A 
ATOM      5  C4  BZF d   1      -3.989  -2.963  -1.586  0.00  0.00     0.055 A 
ATOM      6  C5  BZF d   1      -4.494  -2.179  -0.597  0.00  0.00    -0.016 A 
ATOM      7  C6  BZF d   1      -4.722  -0.831  -0.785  0.00  0.00     0.022 A 
ATOM      8  C7  BZF d   1      -4.462  -0.231  -1.972  0.00  0.00     0.029 A 
ATOM      9  C7A BZF d   1      -3.983  -1.028  -2.983  0.00  0.00     0.058 A 
ENDROOT
TORSDOF 0
ENDMDL
