MODEL 1
REMARK minimizedAffinity -2.42568731
REMARK minimizedRMSD -1
REMARK  0 active torsions:
REMARK  status: ('A' for Active; 'I' for Inactive)
ROOT
ATOM      1  O1  BZF d   1      -0.107   2.661   1.877  0.00  0.00    -0.204 OA
ATOM      2  C2  BZF d   1       0.941   1.947   1.328  0.00  0.00     0.174 A 
ATOM      3  C3  BZF d   1       0.700   0.621   1.387  0.00  0.00    -0.012 A 
ATOM      4  C3A BZF d   1      -0.620   0.503   1.927  0.00  0.00    -0.107 A 
ATOM      5  C4  BZF d   1      -1.426  -0.563   2.210  0.00  0.00     0.055 A 
ATOM      6  C5  BZF d   1      -2.631  -0.341   2.800  0.00  0.00    -0.016 A 
ATOM      7  C6  BZF d   1      -3.058   0.930   3.124  0.00  0.00     0.022 A 
ATOM      8  C7  BZF d   1      -2.295   2.018   2.857  0.00  0.00     0.029 A 
ATOM      9  C7A BZF d   1      -1.092   1.800   2.232  0.00  0.00     0.058 A 
ENDROOT
TORSDOF 0
ENDMDL
