MODEL 1
REMARK minimizedAffinity 5.05414104
REMARK minimizedRMSD -1
REMARK  0 active torsions:
REMARK  status: ('A' for Active; 'I' for Inactive)
ROOT
ATOM      1  O1  BZF d   1      -1.284   2.862   1.603  0.00  0.00    -0.204 OA
ATOM      2  C2  BZF d   1      -2.452   2.403   2.180  0.00  0.00     0.174 A 
ATOM      3  C3  BZF d   1      -2.359   1.089   2.470  0.00  0.00    -0.012 A 
ATOM      4  C3A BZF d   1      -1.017   0.724   2.133  0.00  0.00    -0.107 A 
ATOM      5  C4  BZF d   1      -0.314  -0.445   2.210  0.00  0.00     0.055 A 
ATOM      6  C5  BZF d   1       0.957  -0.484   1.730  0.00  0.00    -0.016 A 
ATOM      7  C6  BZF d   1       1.553   0.623   1.163  0.00  0.00     0.022 A 
ATOM      8  C7  BZF d   1       0.898   1.806   1.069  0.00  0.00     0.029 A 
ATOM      9  C7A BZF d   1      -0.375   1.857   1.583  0.00  0.00     0.058 A 
ENDROOT
TORSDOF 0
ENDMDL
