MODEL 1
REMARK minimizedAffinity 7.90809059
REMARK minimizedRMSD -1
REMARK  0 active torsions:
REMARK  status: ('A' for Active; 'I' for Inactive)
ROOT
ATOM      1  O1  BZF d   1      -0.481  -1.677   2.953  0.00  0.00    -0.204 OA
ATOM      2  C2  BZF d   1      -1.859  -1.699   3.051  0.00  0.00     0.174 A 
ATOM      3  C3  BZF d   1      -2.385  -0.523   2.654  0.00  0.00    -0.012 A 
ATOM      4  C3A BZF d   1      -1.273   0.253   2.198  0.00  0.00    -0.107 A 
ATOM      5  C4  BZF d   1      -1.156   1.506   1.668  0.00  0.00     0.055 A 
ATOM      6  C5  BZF d   1       0.082   1.995   1.395  0.00  0.00    -0.016 A 
ATOM      7  C6  BZF d   1       1.224   1.261   1.643  0.00  0.00     0.022 A 
ATOM      8  C7  BZF d   1       1.158   0.011   2.163  0.00  0.00     0.029 A 
ATOM      9  C7A BZF d   1      -0.094  -0.499   2.409  0.00  0.00     0.058 A 
ENDROOT
TORSDOF 0
ENDMDL
