MODEL 1
REMARK minimizedAffinity 6.30808449
REMARK minimizedRMSD -1
REMARK  0 active torsions:
REMARK  status: ('A' for Active; 'I' for Inactive)
ROOT
ATOM      1  O1  BZF d   1      -1.194   3.082   1.478  0.00  0.00    -0.204 OA
ATOM      2  C2  BZF d   1      -2.371   2.591   2.009  0.00  0.00     0.174 A 
ATOM      3  C3  BZF d   1      -2.287   1.260   2.207  0.00  0.00    -0.012 A 
ATOM      4  C3A BZF d   1      -0.944   0.911   1.859  0.00  0.00    -0.107 A 
ATOM      5  C4  BZF d   1      -0.248  -0.264   1.862  0.00  0.00     0.055 A 
ATOM      6  C5  BZF d   1       1.027  -0.277   1.393  0.00  0.00    -0.016 A 
ATOM      7  C6  BZF d   1       1.636   0.863   0.911  0.00  0.00     0.022 A 
ATOM      8  C7  BZF d   1       0.988   2.053   0.893  0.00  0.00     0.029 A 
ATOM      9  C7A BZF d   1      -0.290   2.077   1.396  0.00  0.00     0.058 A 
ENDROOT
TORSDOF 0
ENDMDL
