MODEL 1
REMARK minimizedAffinity -2.2564168
REMARK minimizedRMSD -1
REMARK  0 active torsions:
REMARK  status: ('A' for Active; 'I' for Inactive)
ROOT
ATOM      1  O1  BZF d   1      -0.110   2.586   1.926  0.00  0.00    -0.204 OA
ATOM      2  C2  BZF d   1       1.086   2.012   1.538  0.00  0.00     0.174 A 
ATOM      3  C3  BZF d   1       0.978   0.669   1.491  0.00  0.00    -0.012 A 
ATOM      4  C3A BZF d   1      -0.394   0.390   1.785  0.00  0.00    -0.107 A 
ATOM      5  C4  BZF d   1      -1.120  -0.763   1.872  0.00  0.00     0.055 A 
ATOM      6  C5  BZF d   1      -2.424  -0.696   2.250  0.00  0.00    -0.016 A 
ATOM      7  C6  BZF d   1      -3.031   0.505   2.552  0.00  0.00     0.022 A 
ATOM      8  C7  BZF d   1      -2.353   1.676   2.475  0.00  0.00     0.029 A 
ATOM      9  C7A BZF d   1      -1.044   1.615   2.062  0.00  0.00     0.058 A 
ENDROOT
TORSDOF 0
ENDMDL
