MODEL 1
REMARK minimizedAffinity 3.05949068
REMARK minimizedRMSD -1
REMARK  0 active torsions:
REMARK  status: ('A' for Active; 'I' for Inactive)
ROOT
ATOM      1  O1  BZF d   1      -3.818   2.614   2.759  0.00  0.00    -0.204 OA
ATOM      2  C2  BZF d   1      -3.965   1.732   3.812  0.00  0.00     0.174 A 
ATOM      3  C3  BZF d   1      -2.785   1.161   4.127  0.00  0.00    -0.012 A 
ATOM      4  C3A BZF d   1      -1.824   1.790   3.273  0.00  0.00    -0.107 A 
ATOM      5  C4  BZF d   1      -0.472   1.659   3.124  0.00  0.00     0.055 A 
ATOM      6  C5  BZF d   1       0.156   2.367   2.149  0.00  0.00    -0.016 A 
ATOM      7  C6  BZF d   1      -0.535   3.210   1.304  0.00  0.00     0.022 A 
ATOM      8  C7  BZF d   1      -1.875   3.377   1.416  0.00  0.00     0.029 A 
ATOM      9  C7A BZF d   1      -2.508   2.688   2.422  0.00  0.00     0.058 A 
ENDROOT
TORSDOF 0
ENDMDL
