MODEL 1
REMARK minimizedAffinity -5.18307543
REMARK minimizedRMSD -1
REMARK  2 active torsions:
REMARK  status: ('A' for Active; 'I' for Inactive)
REMARK    1  A    between atoms: C2'_3  and  C1'_4 
REMARK    2  A    between atoms: C1'_4  and  C1_5 
ROOT
ATOM      1  C1  I4B d   1      -0.334  -0.338  -0.702  0.00  0.00    -0.075 A 
ATOM      2  C2  I4B d   1       0.014  -0.633  -1.997  0.00  0.00     0.003 A 
ATOM      3  C3  I4B d   1      -0.969  -0.629  -3.017  0.00  0.00     0.002 A 
ATOM      4  C4  I4B d   1      -2.286  -0.377  -2.691  0.00  0.00    -0.004 A 
ATOM      5  C5  I4B d   1      -2.632  -0.056  -1.382  0.00  0.00     0.002 A 
ATOM      6  C6  I4B d   1      -1.648  -0.024  -0.383  0.00  0.00     0.003 A 
ENDROOT
BRANCH   1   7
ATOM      7  C1' I4B d   1       0.723  -0.383   0.356  0.00  0.00     0.060 C 
BRANCH   7   8
ATOM      8  C2' I4B d   1       1.939   0.354  -0.168  0.00  0.00    -0.013 C 
ATOM      9  C4' I4B d   1       1.824   1.836   0.074  0.00  0.00     0.013 C 
ATOM     10  C3' I4B d   1       3.151  -0.213   0.509  0.00  0.00     0.013 C 
ENDBRANCH   7   8
ENDBRANCH   1   7
TORSDOF 2
ENDMDL
