MODEL 1
REMARK minimizedAffinity -6.29684639
REMARK minimizedRMSD -1
REMARK  2 active torsions:
REMARK  status: ('A' for Active; 'I' for Inactive)
REMARK    1  A    between atoms: C2'_3  and  C1'_4 
REMARK    2  A    between atoms: C1'_4  and  C1_5 
ROOT
ATOM      1  C1  I4B d   1       1.569   0.171   0.064  0.00  0.00    -0.075 A 
ATOM      2  C2  I4B d   1       0.570  -0.769   0.003  0.00  0.00     0.003 A 
ATOM      3  C3  I4B d   1      -0.784  -0.365  -0.082  0.00  0.00     0.002 A 
ATOM      4  C4  I4B d   1      -1.096   0.979  -0.053  0.00  0.00    -0.004 A 
ATOM      5  C5  I4B d   1      -0.081   1.931  -0.015  0.00  0.00     0.002 A 
ATOM      6  C6  I4B d   1       1.261   1.525   0.031  0.00  0.00     0.003 A 
ENDROOT
BRANCH   1   7
ATOM      7  C1' I4B d   1       2.986  -0.291   0.187  0.00  0.00     0.060 C 
BRANCH   7   8
ATOM      8  C2' I4B d   1       3.326  -0.368   1.661  0.00  0.00    -0.013 C 
ATOM      9  C4' I4B d   1       2.921   0.892   2.381  0.00  0.00     0.013 C 
ATOM     10  C3' I4B d   1       2.631  -1.566   2.234  0.00  0.00     0.013 C 
ENDBRANCH   7   8
ENDBRANCH   1   7
TORSDOF 2
ENDMDL
