MODEL 1
REMARK minimizedAffinity -5.23643541
REMARK minimizedRMSD -1
REMARK  2 active torsions:
REMARK  status: ('A' for Active; 'I' for Inactive)
REMARK    1  A    between atoms: C2'_3  and  C1'_4 
REMARK    2  A    between atoms: C1'_4  and  C1_5 
ROOT
ATOM      1  C1  I4B d   1      -0.268   0.454   0.053  0.00  0.00    -0.075 A 
ATOM      2  C2  I4B d   1       0.165   1.756   0.019  0.00  0.00     0.003 A 
ATOM      3  C3  I4B d   1       1.516   2.066   0.309  0.00  0.00     0.002 A 
ATOM      4  C4  I4B d   1       2.381   1.055   0.674  0.00  0.00    -0.004 A 
ATOM      5  C5  I4B d   1       1.946  -0.267   0.686  0.00  0.00     0.002 A 
ATOM      6  C6  I4B d   1       0.616  -0.571   0.362  0.00  0.00     0.003 A 
ENDROOT
BRANCH   1   7
ATOM      7  C1' I4B d   1      -1.709   0.166  -0.226  0.00  0.00     0.060 C 
BRANCH   7   8
ATOM      8  C2' I4B d   1      -1.983   0.515  -1.675  0.00  0.00    -0.013 C 
ATOM      9  C4' I4B d   1      -1.989  -0.717  -2.540  0.00  0.00     0.013 C 
ATOM     10  C3' I4B d   1      -3.301   1.228  -1.738  0.00  0.00     0.013 C 
ENDBRANCH   7   8
ENDBRANCH   1   7
TORSDOF 2
ENDMDL
