MODEL 1
REMARK minimizedAffinity 0.213875577
REMARK minimizedRMSD -1
REMARK  2 active torsions:
REMARK  status: ('A' for Active; 'I' for Inactive)
REMARK    1  A    between atoms: C2'_3  and  C1'_4 
REMARK    2  A    between atoms: C1'_4  and  C1_5 
ROOT
ATOM      1  C1  I4B d   1      -0.176   0.383   0.235  0.00  0.00    -0.075 A 
ATOM      2  C2  I4B d   1      -0.096  -0.110  -1.044  0.00  0.00     0.003 A 
ATOM      3  C3  I4B d   1      -0.199  -1.502  -1.279  0.00  0.00     0.002 A 
ATOM      4  C4  I4B d   1      -0.330  -2.364  -0.210  0.00  0.00    -0.004 A 
ATOM      5  C5  I4B d   1      -0.435  -1.861   1.084  0.00  0.00     0.002 A 
ATOM      6  C6  I4B d   1      -0.370  -0.478   1.307  0.00  0.00     0.003 A 
ENDROOT
BRANCH   1   7
ATOM      7  C1' I4B d   1      -0.031   1.856   0.450  0.00  0.00     0.060 C 
BRANCH   7   8
ATOM      8  C2' I4B d   1       1.395   2.239   0.109  0.00  0.00    -0.013 C 
ATOM      9  C4' I4B d   1       1.510   3.712  -0.181  0.00  0.00     0.013 C 
ATOM     10  C3' I4B d   1       2.269   1.845   1.263  0.00  0.00     0.013 C 
ENDBRANCH   7   8
ENDBRANCH   1   7
TORSDOF 2
ENDMDL
