MODEL 1
REMARK minimizedAffinity 1.16601443
REMARK minimizedRMSD -1
REMARK  0 active torsions:
REMARK  status: ('A' for Active; 'I' for Inactive)
ROOT
ATOM      1  N1  IND d   1      -0.683   1.424   0.923  0.00  0.00    -0.196 N 
ATOM      2  C2  IND d   1      -0.101   0.917  -0.205  0.00  0.00     0.054 A 
ATOM      3  C3  IND d   1      -0.990   0.168  -0.897  0.00  0.00    -0.031 A 
ATOM      4  C4  IND d   1      -3.479  -0.277  -0.415  0.00  0.00     0.051 A 
ATOM      5  C5  IND d   1      -4.451  -0.057   0.520  0.00  0.00    -0.031 A 
ATOM      6  C6  IND d   1      -4.213   0.686   1.659  0.00  0.00     0.015 A 
ATOM      7  C7  IND d   1      -2.991   1.247   1.900  0.00  0.00    -0.016 A 
ATOM      8  C8  IND d   1      -2.000   1.020   0.957  0.00  0.00    -0.047 A 
ATOM      9  C9  IND d   1      -2.223   0.232  -0.180  0.00  0.00    -0.096 A 
ATOM     10  HN1 IND d   1      -0.292   1.913   1.513  0.00  0.00     0.298 HD
ENDROOT
TORSDOF 0
ENDMDL
