MODEL 1
REMARK minimizedAffinity -0.00862823427
REMARK minimizedRMSD -1
REMARK  0 active torsions:
REMARK  status: ('A' for Active; 'I' for Inactive)
ROOT
ATOM      1  N1  IND d   1       5.691   4.661   4.418  0.00  0.00    -0.196 N 
ATOM      2  C2  IND d   1       5.286   5.419   5.481  0.00  0.00     0.054 A 
ATOM      3  C3  IND d   1       4.004   5.135   5.800  0.00  0.00    -0.031 A 
ATOM      4  C4  IND d   1       2.412   3.389   4.777  0.00  0.00     0.051 A 
ATOM      5  C5  IND d   1       2.318   2.483   3.758  0.00  0.00    -0.031 A 
ATOM      6  C6  IND d   1       3.366   2.250   2.892  0.00  0.00     0.015 A 
ATOM      7  C7  IND d   1       4.556   2.909   3.019  0.00  0.00    -0.016 A 
ATOM      8  C8  IND d   1       4.652   3.835   4.048  0.00  0.00    -0.047 A 
ATOM      9  C9  IND d   1       3.578   4.107   4.904  0.00  0.00    -0.096 A 
ATOM     10  HN1 IND d   1       6.464   4.695   4.043  0.00  0.00     0.298 HD
ENDROOT
TORSDOF 0
ENDMDL
