MODEL 1
REMARK minimizedAffinity 3.02573228
REMARK minimizedRMSD -1
REMARK  0 active torsions:
REMARK  status: ('A' for Active; 'I' for Inactive)
ROOT
ATOM      1  N1  IND d   1       0.749  -4.036  -0.621  0.00  0.00    -0.196 N 
ATOM      2  C2  IND d   1      -0.434  -3.736  -1.238  0.00  0.00     0.054 A 
ATOM      3  C3  IND d   1      -0.563  -2.397  -1.380  0.00  0.00    -0.031 A 
ATOM      4  C4  IND d   1       1.088  -0.520  -0.767  0.00  0.00     0.051 A 
ATOM      5  C5  IND d   1       2.287  -0.299  -0.148  0.00  0.00    -0.031 A 
ATOM      6  C6  IND d   1       3.050  -1.334   0.353  0.00  0.00     0.015 A 
ATOM      7  C7  IND d   1       2.647  -2.635   0.243  0.00  0.00    -0.016 A 
ATOM      8  C8  IND d   1       1.428  -2.862  -0.379  0.00  0.00    -0.047 A 
ATOM      9  C9  IND d   1       0.629  -1.813  -0.852  0.00  0.00    -0.096 A 
ATOM     10  HN1 IND d   1       1.022  -4.826  -0.418  0.00  0.00     0.298 HD
ENDROOT
TORSDOF 0
ENDMDL
