MODEL 1
REMARK minimizedAffinity 5.01901579
REMARK minimizedRMSD -1
REMARK  0 active torsions:
REMARK  status: ('A' for Active; 'I' for Inactive)
ROOT
ATOM      1  N1  IND d   1       0.637   2.439  -0.200  0.00  0.00    -0.196 N 
ATOM      2  C2  IND d   1       1.875   2.169   0.315  0.00  0.00     0.054 A 
ATOM      3  C3  IND d   1       1.768   1.726   1.588  0.00  0.00    -0.031 A 
ATOM      4  C4  IND d   1      -0.342   1.273   2.990  0.00  0.00     0.051 A 
ATOM      5  C5  IND d   1      -1.703   1.404   2.963  0.00  0.00    -0.031 A 
ATOM      6  C6  IND d   1      -2.366   1.894   1.857  0.00  0.00     0.015 A 
ATOM      7  C7  IND d   1      -1.692   2.262   0.727  0.00  0.00    -0.016 A 
ATOM      8  C8  IND d   1      -0.310   2.137   0.754  0.00  0.00    -0.047 A 
ATOM      9  C9  IND d   1       0.372   1.681   1.889  0.00  0.00    -0.096 A 
ATOM     10  HN1 IND d   1       0.477   2.747  -0.987  0.00  0.00     0.298 HD
ENDROOT
TORSDOF 0
ENDMDL
