MODEL 1
REMARK minimizedAffinity 3.95685101
REMARK minimizedRMSD -1
REMARK  0 active torsions:
REMARK  status: ('A' for Active; 'I' for Inactive)
ROOT
ATOM      1  N1  IND d   1       0.040  -0.825  -0.402  0.00  0.00    -0.196 N 
ATOM      2  C2  IND d   1      -0.924  -1.634  -0.936  0.00  0.00     0.054 A 
ATOM      3  C3  IND d   1      -0.364  -2.556  -1.752  0.00  0.00    -0.031 A 
ATOM      4  C4  IND d   1       2.119  -2.985  -2.275  0.00  0.00     0.051 A 
ATOM      5  C5  IND d   1       3.370  -2.481  -2.051  0.00  0.00    -0.031 A 
ATOM      6  C6  IND d   1       3.579  -1.379  -1.247  0.00  0.00     0.015 A 
ATOM      7  C7  IND d   1       2.541  -0.744  -0.626  0.00  0.00    -0.016 A 
ATOM      8  C8  IND d   1       1.269  -1.248  -0.857  0.00  0.00    -0.047 A 
ATOM      9  C9  IND d   1       1.047  -2.340  -1.705  0.00  0.00    -0.096 A 
ATOM     10  HN1 IND d   1      -0.099  -0.163   0.130  0.00  0.00     0.298 HD
ENDROOT
TORSDOF 0
ENDMDL
