MODEL 1
REMARK minimizedAffinity 0.825918436
REMARK minimizedRMSD -1
REMARK  0 active torsions:
REMARK  status: ('A' for Active; 'I' for Inactive)
ROOT
ATOM      1  N1  IND d   1       3.078  -1.752  -0.575  0.00  0.00    -0.196 N 
ATOM      2  C2  IND d   1       3.701  -0.548  -0.402  0.00  0.00     0.054 A 
ATOM      3  C3  IND d   1       2.809   0.462  -0.508  0.00  0.00    -0.031 A 
ATOM      4  C4  IND d   1       0.260   0.363  -0.861  0.00  0.00     0.051 A 
ATOM      5  C5  IND d   1      -0.759  -0.512  -1.110  0.00  0.00    -0.031 A 
ATOM      6  C6  IND d   1      -0.548  -1.873  -1.192  0.00  0.00     0.015 A 
ATOM      7  C7  IND d   1       0.694  -2.413  -1.016  0.00  0.00    -0.016 A 
ATOM      8  C8  IND d   1       1.733  -1.527  -0.771  0.00  0.00    -0.047 A 
ATOM      9  C9  IND d   1       1.532  -0.141  -0.729  0.00  0.00    -0.096 A 
ATOM     10  HN1 IND d   1       3.462  -2.522  -0.564  0.00  0.00     0.298 HD
ENDROOT
TORSDOF 0
ENDMDL
