MODEL 1
REMARK minimizedAffinity -4.3486681
REMARK minimizedRMSD -1
REMARK  0 active torsions:
REMARK  status: ('A' for Active; 'I' for Inactive)
ROOT
ATOM      1  C   UNL d   1       0.852  -0.302   0.196  0.00  0.00    -0.002 A 
ATOM      2  C1  UNL d   1       0.874  -1.006  -1.000  0.00  0.00     0.010 A 
ATOM      3  C2  UNL d   1      -0.015  -0.686  -2.028  0.00  0.00     0.041 A 
ATOM      4  C3  UNL d   1      -0.934   0.364  -1.833  0.00  0.00    -0.075 A 
ATOM      5  S   UNL d   1      -2.117   0.932  -2.951  0.00  0.00     0.015 SA
ATOM      6  C4  UNL d   1      -2.678   2.122  -1.868  0.00  0.00     0.022 A 
ATOM      7  C5  UNL d   1      -1.991   2.100  -0.678  0.00  0.00     0.026 A 
ATOM      8  C6  UNL d   1      -0.975   1.087  -0.637  0.00  0.00    -0.082 A 
ATOM      9  C7  UNL d   1      -0.061   0.738   0.386  0.00  0.00     0.045 A 
ENDROOT
TORSDOF 0
ENDMDL
