MODEL 1
REMARK minimizedAffinity -5.5774374
REMARK minimizedRMSD -1
REMARK  0 active torsions:
REMARK  status: ('A' for Active; 'I' for Inactive)
ROOT
ATOM      1  C   UNL d   1       1.019  -3.401   1.363  0.00  0.00    -0.002 A 
ATOM      2  C1  UNL d   1       0.190  -3.150   2.448  0.00  0.00     0.010 A 
ATOM      3  C2  UNL d   1      -0.525  -1.954   2.532  0.00  0.00     0.041 A 
ATOM      4  C3  UNL d   1      -0.394  -1.006   1.498  0.00  0.00    -0.075 A 
ATOM      5  S   UNL d   1      -1.173   0.528   1.388  0.00  0.00     0.015 SA
ATOM      6  C4  UNL d   1      -0.426   0.885  -0.101  0.00  0.00     0.022 A 
ATOM      7  C5  UNL d   1       0.402  -0.130  -0.519  0.00  0.00     0.026 A 
ATOM      8  C6  UNL d   1       0.434  -1.237   0.396  0.00  0.00    -0.082 A 
ATOM      9  C7  UNL d   1       1.147  -2.459   0.339  0.00  0.00     0.045 A 
ENDROOT
TORSDOF 0
ENDMDL
