MODEL 1
REMARK minimizedAffinity -0.867416084
REMARK minimizedRMSD -1
REMARK  0 active torsions:
REMARK  status: ('A' for Active; 'I' for Inactive)
ROOT
ATOM      1  C   UNL d   1       1.010  -1.861   3.653  0.00  0.00    -0.002 A 
ATOM      2  C1  UNL d   1      -0.277  -1.346   3.584  0.00  0.00     0.010 A 
ATOM      3  C2  UNL d   1      -0.735  -0.733   2.416  0.00  0.00     0.041 A 
ATOM      4  C3  UNL d   1       0.130  -0.647   1.307  0.00  0.00    -0.075 A 
ATOM      5  S   UNL d   1      -0.215   0.060  -0.227  0.00  0.00     0.015 SA
ATOM      6  C4  UNL d   1       1.338  -0.306  -0.828  0.00  0.00     0.022 A 
ATOM      7  C5  UNL d   1       2.113  -0.952   0.106  0.00  0.00     0.026 A 
ATOM      8  C6  UNL d   1       1.429  -1.159   1.352  0.00  0.00    -0.082 A 
ATOM      9  C7  UNL d   1       1.864  -1.774   2.551  0.00  0.00     0.045 A 
ENDROOT
TORSDOF 0
ENDMDL
