MODEL 1
REMARK minimizedAffinity -3.8326776
REMARK minimizedRMSD -1
REMARK  0 active torsions:
REMARK  status: ('A' for Active; 'I' for Inactive)
ROOT
ATOM      1  C   UNL d   1       1.972  -2.526  -0.263  0.00  0.00    -0.002 A 
ATOM      2  C1  UNL d   1       1.288  -2.621   0.940  0.00  0.00     0.010 A 
ATOM      3  C2  UNL d   1       0.303  -1.688   1.273  0.00  0.00     0.041 A 
ATOM      4  C3  UNL d   1       0.013  -0.650   0.366  0.00  0.00    -0.075 A 
ATOM      5  S   UNL d   1      -1.154   0.604   0.560  0.00  0.00     0.015 SA
ATOM      6  C4  UNL d   1      -0.772   1.295  -0.951  0.00  0.00     0.022 A 
ATOM      7  C5  UNL d   1       0.219   0.598  -1.601  0.00  0.00     0.026 A 
ATOM      8  C6  UNL d   1       0.688  -0.534  -0.853  0.00  0.00    -0.082 A 
ATOM      9  C7  UNL d   1       1.682  -1.495  -1.160  0.00  0.00     0.045 A 
ENDROOT
TORSDOF 0
ENDMDL
