MODEL 1
REMARK minimizedAffinity 2.43405724
REMARK minimizedRMSD -1
REMARK  0 active torsions:
REMARK  status: ('A' for Active; 'I' for Inactive)
ROOT
ATOM      1  C   UNL d   1      -2.062   2.284  -0.238  0.00  0.00    -0.002 A 
ATOM      2  C1  UNL d   1      -2.244   1.781  -1.519  0.00  0.00     0.010 A 
ATOM      3  C2  UNL d   1      -1.499   0.688  -1.965  0.00  0.00     0.041 A 
ATOM      4  C3  UNL d   1      -0.562   0.100  -1.093  0.00  0.00    -0.075 A 
ATOM      5  S   UNL d   1       0.461  -1.248  -1.423  0.00  0.00     0.015 SA
ATOM      6  C4  UNL d   1       1.163  -1.190   0.129  0.00  0.00     0.022 A 
ATOM      7  C5  UNL d   1       0.641  -0.173   0.893  0.00  0.00     0.026 A 
ATOM      8  C6  UNL d   1      -0.362   0.587   0.201  0.00  0.00    -0.082 A 
ATOM      9  C7  UNL d   1      -1.131   1.698   0.624  0.00  0.00     0.045 A 
ENDROOT
TORSDOF 0
ENDMDL
