MODEL 1
REMARK minimizedAffinity 0.338743716
REMARK minimizedRMSD -1
REMARK  0 active torsions:
REMARK  status: ('A' for Active; 'I' for Inactive)
ROOT
ATOM      1  C   UNL d   1       2.118  -2.581   0.638  0.00  0.00    -0.002 A 
ATOM      2  C1  UNL d   1       2.973  -1.489   0.577  0.00  0.00     0.010 A 
ATOM      3  C2  UNL d   1       2.509  -0.248   0.136  0.00  0.00     0.041 A 
ATOM      4  C3  UNL d   1       1.159  -0.121  -0.244  0.00  0.00    -0.075 A 
ATOM      5  S   UNL d   1       0.369   1.302  -0.815  0.00  0.00     0.015 SA
ATOM      6  C4  UNL d   1      -1.122   0.494  -0.989  0.00  0.00     0.022 A 
ATOM      7  C5  UNL d   1      -1.037  -0.829  -0.626  0.00  0.00     0.026 A 
ATOM      8  C6  UNL d   1       0.279  -1.205  -0.190  0.00  0.00    -0.082 A 
ATOM      9  C7  UNL d   1       0.779  -2.450   0.261  0.00  0.00     0.045 A 
ENDROOT
TORSDOF 0
ENDMDL
