MODEL 1
REMARK minimizedAffinity -0.644694269
REMARK minimizedRMSD -1
REMARK  0 active torsions:
REMARK  status: ('A' for Active; 'I' for Inactive)
ROOT
ATOM      1  C   UNL d   1      -1.932  -1.348   2.209  0.00  0.00    -0.002 A 
ATOM      2  C1  UNL d   1      -1.005  -2.298   1.804  0.00  0.00     0.010 A 
ATOM      3  C2  UNL d   1      -0.069  -1.999   0.812  0.00  0.00     0.041 A 
ATOM      4  C3  UNL d   1      -0.079  -0.717   0.229  0.00  0.00    -0.075 A 
ATOM      5  S   UNL d   1       0.974  -0.126  -1.002  0.00  0.00     0.015 SA
ATOM      6  C4  UNL d   1       0.218   1.401  -1.020  0.00  0.00     0.022 A 
ATOM      7  C5  UNL d   1      -0.814   1.476  -0.114  0.00  0.00     0.026 A 
ATOM      8  C6  UNL d   1      -1.002   0.257   0.621  0.00  0.00    -0.082 A 
ATOM      9  C7  UNL d   1      -1.939  -0.077   1.628  0.00  0.00     0.045 A 
ENDROOT
TORSDOF 0
ENDMDL
