MODEL 1
REMARK minimizedAffinity 2.39831448
REMARK minimizedRMSD -1
REMARK  0 active torsions:
REMARK  status: ('A' for Active; 'I' for Inactive)
ROOT
ATOM      1  C   UNL d   1      -1.255   1.494  -0.673  0.00  0.00    -0.002 A 
ATOM      2  C1  UNL d   1      -0.154   2.339  -0.642  0.00  0.00     0.010 A 
ATOM      3  C2  UNL d   1       1.083   1.877  -0.189  0.00  0.00     0.041 A 
ATOM      4  C3  UNL d   1       1.198   0.538   0.233  0.00  0.00    -0.075 A 
ATOM      5  S   UNL d   1       2.614  -0.247   0.825  0.00  0.00     0.015 SA
ATOM      6  C4  UNL d   1       1.792  -1.723   1.050  0.00  0.00     0.022 A 
ATOM      7  C5  UNL d   1       0.469  -1.637   0.687  0.00  0.00     0.026 A 
ATOM      8  C6  UNL d   1       0.105  -0.332   0.210  0.00  0.00    -0.082 A 
ATOM      9  C7  UNL d   1      -1.137   0.166  -0.253  0.00  0.00     0.045 A 
ENDROOT
TORSDOF 0
ENDMDL
