MODEL 1
REMARK minimizedAffinity -2.55206966
REMARK minimizedRMSD -1
REMARK  1 active torsions:
REMARK  status: ('A' for Active; 'I' for Inactive)
REMARK    1  A    between atoms: C1_2  and  C2_3 
ROOT
ATOM      1  C2  UNL d   1      -0.157   0.466  -0.058  0.00  0.00    -0.076 A 
ATOM      2  C3  UNL d   1       1.070   0.254   0.593  0.00  0.00     0.004 A 
ATOM      3  C4  UNL d   1       1.128   0.062   1.972  0.00  0.00    -0.003 A 
ATOM      4  C5  UNL d   1      -0.042   0.080   2.724  0.00  0.00     0.000 A 
ATOM      5  C6  UNL d   1      -1.271   0.272   2.093  0.00  0.00     0.000 A 
ATOM      6  C7  UNL d   1      -1.348   0.450   0.701  0.00  0.00    -0.073 A 
ATOM      7  C8  UNL d   1      -2.699   0.659   0.073  0.00  0.00     0.078 C 
ENDROOT
BRANCH   1   8
ATOM      8  C1  UNL d   1      -0.155   0.695  -1.552  0.00  0.00     0.053 C 
ATOM      9  C   UNL d   1       0.651  -0.355  -2.301  0.00  0.00     0.018 C 
ENDBRANCH   1   8
TORSDOF 1
ENDMDL
