MODEL 1
REMARK minimizedAffinity -1.67551196
REMARK minimizedRMSD -1
REMARK  1 active torsions:
REMARK  status: ('A' for Active; 'I' for Inactive)
REMARK    1  A    between atoms: C1_2  and  C2_3 
ROOT
ATOM      1  C2  UNL d   1       0.230   0.437  -0.164  0.00  0.00    -0.076 A 
ATOM      2  C3  UNL d   1       1.508   0.465   0.422  0.00  0.00     0.004 A 
ATOM      3  C4  UNL d   1       1.669   0.319   1.798  0.00  0.00    -0.003 A 
ATOM      4  C5  UNL d   1       0.555   0.140   2.612  0.00  0.00     0.000 A 
ATOM      5  C6  UNL d   1      -0.718   0.092   2.045  0.00  0.00     0.000 A 
ATOM      6  C7  UNL d   1      -0.897   0.221   0.658  0.00  0.00    -0.073 A 
ATOM      7  C8  UNL d   1      -2.293   0.167   0.101  0.00  0.00     0.078 C 
ENDROOT
BRANCH   1   8
ATOM      8  C1  UNL d   1       0.115   0.628  -1.660  0.00  0.00     0.053 C 
ATOM      9  C   UNL d   1       0.779  -0.493  -2.444  0.00  0.00     0.018 C 
ENDBRANCH   1   8
TORSDOF 1
ENDMDL
