MODEL 1
REMARK minimizedAffinity -4.07970095
REMARK minimizedRMSD -1
REMARK  1 active torsions:
REMARK  status: ('A' for Active; 'I' for Inactive)
REMARK    1  A    between atoms: C1_2  and  C2_3 
ROOT
ATOM      1  C2  UNL d   1      -0.650   0.090   0.140  0.00  0.00    -0.076 A 
ATOM      2  C3  UNL d   1       0.630  -0.002   0.712  0.00  0.00     0.004 A 
ATOM      3  C4  UNL d   1       0.794  -0.359   2.050  0.00  0.00    -0.003 A 
ATOM      4  C5  UNL d   1      -0.321  -0.629   2.836  0.00  0.00     0.000 A 
ATOM      5  C6  UNL d   1      -1.597  -0.559   2.280  0.00  0.00     0.000 A 
ATOM      6  C7  UNL d   1      -1.779  -0.217   0.929  0.00  0.00    -0.073 A 
ATOM      7  C8  UNL d   1      -3.179  -0.151   0.383  0.00  0.00     0.078 C 
ENDROOT
BRANCH   1   8
ATOM      8  C1  UNL d   1      -0.767   0.508  -1.309  0.00  0.00     0.053 C 
ATOM      9  C   UNL d   1       0.539   0.341  -2.071  0.00  0.00     0.018 C 
ENDBRANCH   1   8
TORSDOF 1
ENDMDL
