MODEL 1
REMARK minimizedAffinity -4.48011589
REMARK minimizedRMSD -1
REMARK  1 active torsions:
REMARK  status: ('A' for Active; 'I' for Inactive)
REMARK    1  A    between atoms: C1_2  and  C2_3 
ROOT
ATOM      1  C2  UNL d   1      -1.192   0.251   0.966  0.00  0.00    -0.076 A 
ATOM      2  C3  UNL d   1      -0.086  -0.114   1.753  0.00  0.00     0.004 A 
ATOM      3  C4  UNL d   1      -0.212  -0.289   3.130  0.00  0.00    -0.003 A 
ATOM      4  C5  UNL d   1      -1.447  -0.102   3.742  0.00  0.00     0.000 A 
ATOM      5  C6  UNL d   1      -2.558   0.242   2.974  0.00  0.00     0.000 A 
ATOM      6  C7  UNL d   1      -2.452   0.406   1.582  0.00  0.00    -0.073 A 
ATOM      7  C8  UNL d   1      -3.682   0.784   0.804  0.00  0.00     0.078 C 
ENDROOT
BRANCH   1   8
ATOM      8  C1  UNL d   1      -0.989   0.452  -0.519  0.00  0.00     0.053 C 
ATOM      9  C   UNL d   1       0.461   0.267  -0.939  0.00  0.00     0.018 C 
ENDBRANCH   1   8
TORSDOF 1
ENDMDL
