MODEL 1
REMARK minimizedAffinity -3.0703125
REMARK minimizedRMSD -1
REMARK  1 active torsions:
REMARK  status: ('A' for Active; 'I' for Inactive)
REMARK    1  A    between atoms: C1_2  and  C2_3 
ROOT
ATOM      1  C2  UNL d   1      -0.150   0.682   1.134  0.00  0.00    -0.076 A 
ATOM      2  C3  UNL d   1       1.204   0.826   0.785  0.00  0.00     0.004 A 
ATOM      3  C4  UNL d   1       1.610   0.775  -0.548  0.00  0.00    -0.003 A 
ATOM      4  C5  UNL d   1       0.669   0.580  -1.552  0.00  0.00     0.000 A 
ATOM      5  C6  UNL d   1      -0.681   0.453  -1.225  0.00  0.00     0.000 A 
ATOM      6  C7  UNL d   1      -1.109   0.518   0.111  0.00  0.00    -0.073 A 
ATOM      7  C8  UNL d   1      -2.576   0.369   0.407  0.00  0.00     0.078 C 
ENDROOT
BRANCH   1   8
ATOM      8  C1  UNL d   1      -0.529   0.718   2.598  0.00  0.00     0.053 C 
ATOM      9  C   UNL d   1       0.077   1.908   3.326  0.00  0.00     0.018 C 
ENDBRANCH   1   8
TORSDOF 1
ENDMDL
