MODEL 1
REMARK minimizedAffinity -4.41153479
REMARK minimizedRMSD -1
REMARK  1 active torsions:
REMARK  status: ('A' for Active; 'I' for Inactive)
REMARK    1  A    between atoms: C1_2  and  C2_3 
ROOT
ATOM      1  C2  UNL d   1      -2.103   0.683   1.607  0.00  0.00    -0.076 A 
ATOM      2  C3  UNL d   1      -1.925   1.049   0.262  0.00  0.00     0.004 A 
ATOM      3  C4  UNL d   1      -0.723   0.798  -0.397  0.00  0.00    -0.003 A 
ATOM      4  C5  UNL d   1       0.321   0.176   0.279  0.00  0.00     0.000 A 
ATOM      5  C6  UNL d   1       0.156  -0.210   1.609  0.00  0.00     0.000 A 
ATOM      6  C7  UNL d   1      -1.055   0.022   2.283  0.00  0.00    -0.073 A 
ATOM      7  C8  UNL d   1      -1.176  -0.410   3.719  0.00  0.00     0.078 C 
ENDROOT
BRANCH   1   8
ATOM      8  C1  UNL d   1      -3.419   1.006   2.278  0.00  0.00     0.053 C 
ATOM      9  C   UNL d   1      -3.409   2.367   2.957  0.00  0.00     0.018 C 
ENDBRANCH   1   8
TORSDOF 1
ENDMDL
