MODEL 1
REMARK minimizedAffinity -1.52061391
REMARK minimizedRMSD -1
REMARK  1 active torsions:
REMARK  status: ('A' for Active; 'I' for Inactive)
REMARK    1  A    between atoms: C1_2  and  C2_3 
ROOT
ATOM      1  C2  UNL d   1       1.175  -0.105  -2.622  0.00  0.00    -0.076 A 
ATOM      2  C3  UNL d   1       2.433   0.465  -2.883  0.00  0.00     0.004 A 
ATOM      3  C4  UNL d   1       3.363  -0.188  -3.689  0.00  0.00    -0.003 A 
ATOM      4  C5  UNL d   1       3.051  -1.422  -4.248  0.00  0.00     0.000 A 
ATOM      5  C6  UNL d   1       1.801  -1.995  -4.014  0.00  0.00     0.000 A 
ATOM      6  C7  UNL d   1       0.845  -1.342  -3.217  0.00  0.00    -0.073 A 
ATOM      7  C8  UNL d   1      -0.485  -2.008  -2.993  0.00  0.00     0.078 C 
ENDROOT
BRANCH   1   8
ATOM      8  C1  UNL d   1       0.217   0.637  -1.718  0.00  0.00     0.053 C 
ATOM      9  C   UNL d   1       0.504   0.399  -0.243  0.00  0.00     0.018 C 
ENDBRANCH   1   8
TORSDOF 1
ENDMDL
