MODEL 1
REMARK minimizedAffinity -3.61748505
REMARK minimizedRMSD -1
REMARK  1 active torsions:
REMARK  status: ('A' for Active; 'I' for Inactive)
REMARK    1  A    between atoms: C1_2  and  C2_3 
ROOT
ATOM      1  C2  UNL d   1       0.534   0.480   0.388  0.00  0.00    -0.076 A 
ATOM      2  C3  UNL d   1       0.180   0.739  -0.947  0.00  0.00     0.004 A 
ATOM      3  C4  UNL d   1      -1.154   0.911  -1.315  0.00  0.00    -0.003 A 
ATOM      4  C5  UNL d   1      -2.154   0.827  -0.353  0.00  0.00     0.000 A 
ATOM      5  C6  UNL d   1      -1.820   0.588   0.979  0.00  0.00     0.000 A 
ATOM      6  C7  UNL d   1      -0.479   0.429   1.370  0.00  0.00    -0.073 A 
ATOM      7  C8  UNL d   1      -0.175   0.167   2.819  0.00  0.00     0.078 C 
ENDROOT
BRANCH   1   8
ATOM      8  C1  UNL d   1       1.994   0.275   0.723  0.00  0.00     0.053 C 
ATOM      9  C   UNL d   1       2.798   1.563   0.638  0.00  0.00     0.018 C 
ENDBRANCH   1   8
TORSDOF 1
ENDMDL
