MODEL 1
REMARK minimizedAffinity -0.567840636
REMARK minimizedRMSD -1
REMARK  1 active torsions:
REMARK  status: ('A' for Active; 'I' for Inactive)
REMARK    1  A    between atoms: C1_2  and  C2_3 
ROOT
ATOM      1  C2  UNL d   1      -0.946   0.314   0.812  0.00  0.00    -0.076 A 
ATOM      2  C3  UNL d   1      -0.189   0.444  -0.365  0.00  0.00     0.004 A 
ATOM      3  C4  UNL d   1       1.199   0.567  -0.316  0.00  0.00    -0.003 A 
ATOM      4  C5  UNL d   1       1.852   0.561   0.912  0.00  0.00     0.000 A 
ATOM      5  C6  UNL d   1       1.119   0.415   2.089  0.00  0.00     0.000 A 
ATOM      6  C7  UNL d   1      -0.279   0.274   2.056  0.00  0.00    -0.073 A 
ATOM      7  C8  UNL d   1      -1.021   0.126   3.356  0.00  0.00     0.078 C 
ENDROOT
BRANCH   1   8
ATOM      8  C1  UNL d   1      -2.450   0.212   0.699  0.00  0.00     0.053 C 
ATOM      9  C   UNL d   1      -2.940   0.401  -0.728  0.00  0.00     0.018 C 
ENDBRANCH   1   8
TORSDOF 1
ENDMDL
