MODEL 1
REMARK minimizedAffinity 2.81023312
REMARK minimizedRMSD -1
REMARK  1 active torsions:
REMARK  status: ('A' for Active; 'I' for Inactive)
REMARK    1  A    between atoms: C1_2  and  C2_3 
ROOT
ATOM      1  C2  UNL d   1      -0.876  -0.793   0.568  0.00  0.00    -0.076 A 
ATOM      2  C3  UNL d   1       0.449  -0.943   0.124  0.00  0.00     0.004 A 
ATOM      3  C4  UNL d   1       0.924  -0.226  -0.973  0.00  0.00    -0.003 A 
ATOM      4  C5  UNL d   1       0.081   0.654  -1.644  0.00  0.00     0.000 A 
ATOM      5  C6  UNL d   1      -1.232   0.828  -1.206  0.00  0.00     0.000 A 
ATOM      6  C7  UNL d   1      -1.721   0.125  -0.092  0.00  0.00    -0.073 A 
ATOM      7  C8  UNL d   1      -3.147   0.347   0.333  0.00  0.00     0.078 C 
ENDROOT
BRANCH   1   8
ATOM      8  C1  UNL d   1      -1.343  -1.617   1.746  0.00  0.00     0.053 C 
ATOM      9  C   UNL d   1      -1.618  -0.769   2.978  0.00  0.00     0.018 C 
ENDBRANCH   1   8
TORSDOF 1
ENDMDL
