MODEL 1
REMARK minimizedAffinity -1.52439845
REMARK minimizedRMSD -1
REMARK  1 active torsions:
REMARK  status: ('A' for Active; 'I' for Inactive)
REMARK    1  A    between atoms: C1_2  and  C2_3 
ROOT
ATOM      1  C2  UNL d   1       0.457  -1.654   0.096  0.00  0.00    -0.076 A 
ATOM      2  C3  UNL d   1      -0.360  -2.739   0.459  0.00  0.00     0.004 A 
ATOM      3  C4  UNL d   1      -1.256  -2.638   1.522  0.00  0.00    -0.003 A 
ATOM      4  C5  UNL d   1      -1.350  -1.450   2.239  0.00  0.00     0.000 A 
ATOM      5  C6  UNL d   1      -0.560  -0.358   1.881  0.00  0.00     0.000 A 
ATOM      6  C7  UNL d   1       0.337  -0.438   0.802  0.00  0.00    -0.073 A 
ATOM      7  C8  UNL d   1       1.169   0.769   0.464  0.00  0.00     0.078 C 
ENDROOT
BRANCH   1   8
ATOM      8  C1  UNL d   1       1.430  -1.830  -1.048  0.00  0.00     0.053 C 
ATOM      9  C   UNL d   1       0.761  -2.369  -2.304  0.00  0.00     0.018 C 
ENDBRANCH   1   8
TORSDOF 1
ENDMDL
