MODEL 1
REMARK minimizedAffinity -3.2606051
REMARK minimizedRMSD -1
REMARK  1 active torsions:
REMARK  status: ('A' for Active; 'I' for Inactive)
REMARK    1  A    between atoms: C1_2  and  C2_3 
ROOT
ATOM      1  C2  UNL d   1      -0.002   0.002   1.091  0.00  0.00    -0.076 A 
ATOM      2  C3  UNL d   1       0.203   0.127   2.477  0.00  0.00     0.004 A 
ATOM      3  C4  UNL d   1      -0.778  -0.268   3.385  0.00  0.00    -0.003 A 
ATOM      4  C5  UNL d   1      -1.979  -0.794   2.924  0.00  0.00     0.000 A 
ATOM      5  C6  UNL d   1      -2.192  -0.942   1.554  0.00  0.00     0.000 A 
ATOM      6  C7  UNL d   1      -1.207  -0.564   0.624  0.00  0.00    -0.073 A 
ATOM      7  C8  UNL d   1      -1.493  -0.740  -0.842  0.00  0.00     0.078 C 
ENDROOT
BRANCH   1   8
ATOM      8  C1  UNL d   1       1.086   0.472   0.153  0.00  0.00     0.053 C 
ATOM      9  C   UNL d   1       2.349   0.893   0.889  0.00  0.00     0.018 C 
ENDBRANCH   1   8
TORSDOF 1
ENDMDL
