MODEL 1
REMARK minimizedAffinity -2.34330797
REMARK minimizedRMSD -1
REMARK  1 active torsions:
REMARK  status: ('A' for Active; 'I' for Inactive)
REMARK    1  A    between atoms: C1_2  and  C2_3 
ROOT
ATOM      1  C2  UNL d   1       0.121  -0.348  -0.228  0.00  0.00    -0.076 A 
ATOM      2  C3  UNL d   1       1.250  -0.668   0.545  0.00  0.00     0.004 A 
ATOM      3  C4  UNL d   1       1.311  -0.335   1.898  0.00  0.00    -0.003 A 
ATOM      4  C5  UNL d   1       0.243   0.323   2.498  0.00  0.00     0.000 A 
ATOM      5  C6  UNL d   1      -0.892   0.632   1.750  0.00  0.00     0.000 A 
ATOM      6  C7  UNL d   1      -0.976   0.290   0.389  0.00  0.00    -0.073 A 
ATOM      7  C8  UNL d   1      -2.222   0.653  -0.371  0.00  0.00     0.078 C 
ENDROOT
BRANCH   1   8
ATOM      8  C1  UNL d   1       0.124  -0.709  -1.697  0.00  0.00     0.053 C 
ATOM      9  C   UNL d   1       1.491  -0.533  -2.338  0.00  0.00     0.018 C 
ENDBRANCH   1   8
TORSDOF 1
ENDMDL
