MODEL 1
REMARK minimizedAffinity -2.43926835
REMARK minimizedRMSD -1
REMARK  1 active torsions:
REMARK  status: ('A' for Active; 'I' for Inactive)
REMARK    1  A    between atoms: C1_2  and  C2_3 
ROOT
ATOM      1  C2  UNL d   1       1.198  -0.291  -0.852  0.00  0.00    -0.076 A 
ATOM      2  C3  UNL d   1       2.243  -1.097  -1.334  0.00  0.00     0.004 A 
ATOM      3  C4  UNL d   1       2.110  -1.808  -2.526  0.00  0.00    -0.003 A 
ATOM      4  C5  UNL d   1       0.928  -1.724  -3.254  0.00  0.00     0.000 A 
ATOM      5  C6  UNL d   1      -0.113  -0.916  -2.799  0.00  0.00     0.000 A 
ATOM      6  C7  UNL d   1       0.012  -0.180  -1.608  0.00  0.00    -0.073 A 
ATOM      7  C8  UNL d   1      -1.145   0.672  -1.162  0.00  0.00     0.078 C 
ENDROOT
BRANCH   1   8
ATOM      8  C1  UNL d   1       1.390   0.435   0.461  0.00  0.00     0.053 C 
ATOM      9  C   UNL d   1       0.599  -0.194   1.596  0.00  0.00     0.018 C 
ENDBRANCH   1   8
TORSDOF 1
ENDMDL
