MODEL 1
REMARK minimizedAffinity -0.619062185
REMARK minimizedRMSD -1
REMARK  1 active torsions:
REMARK  status: ('A' for Active; 'I' for Inactive)
REMARK    1  A    between atoms: C1_2  and  C2_3 
ROOT
ATOM      1  C2  UNL d   1      -0.449   0.463   1.602  0.00  0.00    -0.076 A 
ATOM      2  C3  UNL d   1      -1.769   0.469   1.117  0.00  0.00     0.004 A 
ATOM      3  C4  UNL d   1      -2.031   0.546  -0.249  0.00  0.00    -0.003 A 
ATOM      4  C5  UNL d   1      -0.978   0.617  -1.154  0.00  0.00     0.000 A 
ATOM      5  C6  UNL d   1       0.338   0.594  -0.692  0.00  0.00     0.000 A 
ATOM      6  C7  UNL d   1       0.620   0.501   0.681  0.00  0.00    -0.073 A 
ATOM      7  C8  UNL d   1       2.057   0.487   1.124  0.00  0.00     0.078 C 
ENDROOT
BRANCH   1   8
ATOM      8  C1  UNL d   1      -0.227   0.406   3.096  0.00  0.00     0.053 C 
ATOM      9  C   UNL d   1      -1.100  -0.638   3.776  0.00  0.00     0.018 C 
ENDBRANCH   1   8
TORSDOF 1
ENDMDL
