MODEL 1
REMARK minimizedAffinity -1.88011193
REMARK minimizedRMSD -1
REMARK  1 active torsions:
REMARK  status: ('A' for Active; 'I' for Inactive)
REMARK    1  A    between atoms: C1_2  and  C2_3 
ROOT
ATOM      1  C2  UNL d   1       0.333   0.239  -0.381  0.00  0.00    -0.076 A 
ATOM      2  C3  UNL d   1       1.376   0.024   0.537  0.00  0.00     0.004 A 
ATOM      3  C4  UNL d   1       1.133   0.018   1.910  0.00  0.00    -0.003 A 
ATOM      4  C5  UNL d   1      -0.156   0.227   2.387  0.00  0.00     0.000 A 
ATOM      5  C6  UNL d   1      -1.205   0.424   1.490  0.00  0.00     0.000 A 
ATOM      6  C7  UNL d   1      -0.981   0.417   0.103  0.00  0.00    -0.073 A 
ATOM      7  C8  UNL d   1      -2.148   0.641  -0.819  0.00  0.00     0.078 C 
ENDROOT
BRANCH   1   8
ATOM      8  C1  UNL d   1       0.661   0.262  -1.857  0.00  0.00     0.053 C 
ATOM      9  C   UNL d   1       0.963  -1.123  -2.408  0.00  0.00     0.018 C 
ENDBRANCH   1   8
TORSDOF 1
ENDMDL
