MODEL 1
REMARK minimizedAffinity -3.08608007
REMARK minimizedRMSD -1
REMARK  1 active torsions:
REMARK  status: ('A' for Active; 'I' for Inactive)
REMARK    1  A    between atoms: C1_2  and  C2_3 
ROOT
ATOM      1  C2  UNL d   1       0.051   0.021  -0.231  0.00  0.00    -0.076 A 
ATOM      2  C3  UNL d   1       1.338  -0.124   0.315  0.00  0.00     0.004 A 
ATOM      3  C4  UNL d   1       1.552  -0.015   1.688  0.00  0.00    -0.003 A 
ATOM      4  C5  UNL d   1       0.482   0.240   2.538  0.00  0.00     0.000 A 
ATOM      5  C6  UNL d   1      -0.805   0.369   2.016  0.00  0.00     0.000 A 
ATOM      6  C7  UNL d   1      -1.040   0.245   0.635  0.00  0.00    -0.073 A 
ATOM      7  C8  UNL d   1      -2.447   0.400   0.126  0.00  0.00     0.078 C 
ENDROOT
BRANCH   1   8
ATOM      8  C1  UNL d   1      -0.116  -0.081  -1.730  0.00  0.00     0.053 C 
ATOM      9  C   UNL d   1       0.778  -1.147  -2.345  0.00  0.00     0.018 C 
ENDBRANCH   1   8
TORSDOF 1
ENDMDL
