MODEL 1
REMARK minimizedAffinity -5.25079775
REMARK minimizedRMSD -1
REMARK  0 active torsions:
REMARK  status: ('A' for Active; 'I' for Inactive)
ROOT
ATOM      1  N1  IND d   1       0.308   1.683  -2.207  0.00  0.00    -0.196 N 
ATOM      2  C2  IND d   1      -0.821   1.919  -1.474  0.00  0.00     0.054 A 
ATOM      3  C3  IND d   1      -1.025   0.918  -0.588  0.00  0.00    -0.031 A 
ATOM      4  C4  IND d   1       0.425  -1.153  -0.099  0.00  0.00     0.051 A 
ATOM      5  C5  IND d   1       1.535  -1.819  -0.538  0.00  0.00    -0.031 A 
ATOM      6  C6  IND d   1       2.310  -1.340  -1.574  0.00  0.00     0.015 A 
ATOM      7  C7  IND d   1       2.009  -0.167  -2.206  0.00  0.00    -0.016 A 
ATOM      8  C8  IND d   1       0.878   0.508  -1.768  0.00  0.00    -0.047 A 
ATOM      9  C9  IND d   1       0.064   0.006  -0.745  0.00  0.00    -0.096 A 
ATOM     10  HN1 IND d   1       0.612   2.185  -2.836  0.00  0.00     0.298 HD
ENDROOT
TORSDOF 0
ENDMDL
