MODEL 1
REMARK minimizedAffinity -5.72306681
REMARK minimizedRMSD -1
REMARK  0 active torsions:
REMARK  status: ('A' for Active; 'I' for Inactive)
ROOT
ATOM      1  N1  IND d   1       1.152   1.726  -1.663  0.00  0.00    -0.196 N 
ATOM      2  C2  IND d   1       2.222   1.458  -2.471  0.00  0.00     0.054 A 
ATOM      3  C3  IND d   1       2.618   0.175  -2.318  0.00  0.00    -0.031 A 
ATOM      4  C4  IND d   1       1.593  -1.691  -0.870  0.00  0.00     0.051 A 
ATOM      5  C5  IND d   1       0.627  -1.918   0.069  0.00  0.00    -0.031 A 
ATOM      6  C6  IND d   1      -0.233  -0.922   0.486  0.00  0.00     0.015 A 
ATOM      7  C7  IND d   1      -0.165   0.341  -0.032  0.00  0.00    -0.016 A 
ATOM      8  C8  IND d   1       0.819   0.576  -0.981  0.00  0.00    -0.047 A 
ATOM      9  C9  IND d   1       1.722  -0.420  -1.377  0.00  0.00    -0.096 A 
ATOM     10  HN1 IND d   1       0.754   2.485  -1.592  0.00  0.00     0.298 HD
ENDROOT
TORSDOF 0
ENDMDL
