MODEL 1
REMARK minimizedAffinity -2.96323895
REMARK minimizedRMSD -1
REMARK  0 active torsions:
REMARK  status: ('A' for Active; 'I' for Inactive)
ROOT
ATOM      1  N1  IND d   1       2.704  -2.227  -1.503  0.00  0.00    -0.196 N 
ATOM      2  C2  IND d   1       3.029  -1.258  -2.411  0.00  0.00     0.054 A 
ATOM      3  C3  IND d   1       2.117  -0.261  -2.381  0.00  0.00    -0.031 A 
ATOM      4  C4  IND d   1       0.067   0.037  -0.852  0.00  0.00     0.051 A 
ATOM      5  C5  IND d   1      -0.659  -0.604   0.112  0.00  0.00    -0.031 A 
ATOM      6  C6  IND d   1      -0.293  -1.842   0.599  0.00  0.00     0.015 A 
ATOM      7  C7  IND d   1       0.825  -2.484   0.146  0.00  0.00    -0.016 A 
ATOM      8  C8  IND d   1       1.561  -1.839  -0.838  0.00  0.00    -0.047 A 
ATOM      9  C9  IND d   1       1.171  -0.602  -1.366  0.00  0.00    -0.096 A 
ATOM     10  HN1 IND d   1       3.140  -2.956  -1.369  0.00  0.00     0.298 HD
ENDROOT
TORSDOF 0
ENDMDL
