MODEL 1
REMARK minimizedAffinity -0.280026853
REMARK minimizedRMSD -1
REMARK  0 active torsions:
REMARK  status: ('A' for Active; 'I' for Inactive)
ROOT
ATOM      1  N1  IND d   1       0.289   0.908  -0.619  0.00  0.00    -0.196 N 
ATOM      2  C2  IND d   1      -0.849   0.994   0.133  0.00  0.00     0.054 A 
ATOM      3  C3  IND d   1      -1.234  -0.235   0.546  0.00  0.00    -0.031 A 
ATOM      4  C4  IND d   1      -0.088  -2.513   0.189  0.00  0.00     0.051 A 
ATOM      5  C5  IND d   1       0.958  -3.102  -0.465  0.00  0.00    -0.031 A 
ATOM      6  C6  IND d   1       1.854  -2.369  -1.216  0.00  0.00     0.015 A 
ATOM      7  C7  IND d   1       1.743  -1.013  -1.333  0.00  0.00    -0.016 A 
ATOM      8  C8  IND d   1       0.679  -0.412  -0.677  0.00  0.00    -0.047 A 
ATOM      9  C9  IND d   1      -0.259  -1.155   0.052  0.00  0.00    -0.096 A 
ATOM     10  HN1 IND d   1       0.694   1.568  -0.993  0.00  0.00     0.298 HD
ENDROOT
TORSDOF 0
ENDMDL
