MODEL 1
REMARK minimizedAffinity -4.42857599
REMARK minimizedRMSD -1
REMARK  0 active torsions:
REMARK  status: ('A' for Active; 'I' for Inactive)
ROOT
ATOM      1  N1  IND d   1      -0.451   1.194  -0.664  0.00  0.00    -0.196 N 
ATOM      2  C2  IND d   1      -1.161   0.287   0.073  0.00  0.00     0.054 A 
ATOM      3  C3  IND d   1      -0.476  -0.874   0.176  0.00  0.00    -0.031 A 
ATOM      4  C4  IND d   1       1.871  -1.471  -0.697  0.00  0.00     0.051 A 
ATOM      5  C5  IND d   1       2.895  -0.980  -1.459  0.00  0.00    -0.031 A 
ATOM      6  C6  IND d   1       2.856   0.287  -2.003  0.00  0.00     0.015 A 
ATOM      7  C7  IND d   1       1.792   1.119  -1.795  0.00  0.00    -0.016 A 
ATOM      8  C8  IND d   1       0.748   0.621  -1.028  0.00  0.00    -0.047 A 
ATOM      9  C9  IND d   1       0.763  -0.680  -0.509  0.00  0.00    -0.096 A 
ATOM     10  HN1 IND d   1      -0.709   1.989  -0.865  0.00  0.00     0.298 HD
ENDROOT
TORSDOF 0
ENDMDL
