MODEL 1
REMARK minimizedAffinity -2.1718533
REMARK minimizedRMSD -1
REMARK  0 active torsions:
REMARK  status: ('A' for Active; 'I' for Inactive)
ROOT
ATOM      1  N1  IND d   1      -0.217   1.585  -1.729  0.00  0.00    -0.196 N 
ATOM      2  C2  IND d   1      -1.443   1.649  -1.127  0.00  0.00     0.054 A 
ATOM      3  C3  IND d   1      -1.615   0.596  -0.297  0.00  0.00    -0.031 A 
ATOM      4  C4  IND d   1       0.023  -1.298   0.303  0.00  0.00     0.051 A 
ATOM      5  C5  IND d   1       1.251  -1.803  -0.021  0.00  0.00    -0.031 A 
ATOM      6  C6  IND d   1       2.070  -1.191  -0.947  0.00  0.00     0.015 A 
ATOM      7  C7  IND d   1       1.695  -0.039  -1.578  0.00  0.00    -0.016 A 
ATOM      8  C8  IND d   1       0.445   0.473  -1.258  0.00  0.00    -0.047 A 
ATOM      9  C9  IND d   1      -0.408  -0.167  -0.350  0.00  0.00    -0.096 A 
ATOM     10  HN1 IND d   1       0.089   2.146  -2.305  0.00  0.00     0.298 HD
ENDROOT
TORSDOF 0
ENDMDL
