MODEL 1
REMARK minimizedAffinity -2.8514502
REMARK minimizedRMSD -1
REMARK  0 active torsions:
REMARK  status: ('A' for Active; 'I' for Inactive)
ROOT
ATOM      1  N1  IND d   1      -0.778   1.129  -0.508  0.00  0.00    -0.196 N 
ATOM      2  C2  IND d   1      -1.113   0.289   0.517  0.00  0.00     0.054 A 
ATOM      3  C3  IND d   1      -0.225  -0.726   0.603  0.00  0.00    -0.031 A 
ATOM      4  C4  IND d   1       1.910  -1.152  -0.771  0.00  0.00     0.051 A 
ATOM      5  C5  IND d   1       2.614  -0.679  -1.843  0.00  0.00    -0.031 A 
ATOM      6  C6  IND d   1       2.216   0.445  -2.538  0.00  0.00     0.015 A 
ATOM      7  C7  IND d   1       1.101   1.148  -2.177  0.00  0.00    -0.016 A 
ATOM      8  C8  IND d   1       0.381   0.666  -1.093  0.00  0.00    -0.047 A 
ATOM      9  C9  IND d   1       0.756  -0.498  -0.411  0.00  0.00    -0.096 A 
ATOM     10  HN1 IND d   1      -1.217   1.828  -0.748  0.00  0.00     0.298 HD
ENDROOT
TORSDOF 0
ENDMDL
