MODEL 1
REMARK minimizedAffinity -1.45364547
REMARK minimizedRMSD -1
REMARK  0 active torsions:
REMARK  status: ('A' for Active; 'I' for Inactive)
ROOT
ATOM      1  N1  IND d   1       0.331   1.652  -1.911  0.00  0.00    -0.196 N 
ATOM      2  C2  IND d   1       1.161   1.707  -2.995  0.00  0.00     0.054 A 
ATOM      3  C3  IND d   1       1.881   0.567  -3.095  0.00  0.00    -0.031 A 
ATOM      4  C4  IND d   1       1.783  -1.560  -1.647  0.00  0.00     0.051 A 
ATOM      5  C5  IND d   1       1.204  -2.070  -0.519  0.00  0.00    -0.031 A 
ATOM      6  C6  IND d   1       0.284  -1.351   0.216  0.00  0.00     0.015 A 
ATOM      7  C7  IND d   1      -0.102  -0.095  -0.157  0.00  0.00    -0.016 A 
ATOM      8  C8  IND d   1       0.489   0.428  -1.299  0.00  0.00    -0.047 A 
ATOM      9  C9  IND d   1       1.455  -0.279  -2.025  0.00  0.00    -0.096 A 
ATOM     10  HN1 IND d   1      -0.201   2.277  -1.654  0.00  0.00     0.298 HD
ENDROOT
TORSDOF 0
ENDMDL
