MODEL 1
REMARK minimizedAffinity -4.69838953
REMARK minimizedRMSD -1
REMARK  0 active torsions:
REMARK  status: ('A' for Active; 'I' for Inactive)
ROOT
ATOM      1  N1  IND d   1      -0.488   1.680  -1.268  0.00  0.00    -0.196 N 
ATOM      2  C2  IND d   1       0.192   2.476  -2.147  0.00  0.00     0.054 A 
ATOM      3  C3  IND d   1       1.416   1.961  -2.398  0.00  0.00    -0.031 A 
ATOM      4  C4  IND d   1       2.473  -0.230  -1.555  0.00  0.00     0.051 A 
ATOM      5  C5  IND d   1       2.251  -1.275  -0.702  0.00  0.00    -0.031 A 
ATOM      6  C6  IND d   1       1.079  -1.392   0.018  0.00  0.00     0.015 A 
ATOM      7  C7  IND d   1       0.077  -0.470  -0.097  0.00  0.00    -0.016 A 
ATOM      8  C8  IND d   1       0.302   0.596  -0.956  0.00  0.00    -0.047 A 
ATOM      9  C9  IND d   1       1.506   0.742  -1.657  0.00  0.00    -0.096 A 
ATOM     10  HN1 IND d   1      -1.277   1.831  -0.961  0.00  0.00     0.298 HD
ENDROOT
TORSDOF 0
ENDMDL
