MODEL 1
REMARK minimizedAffinity -6.33540392
REMARK minimizedRMSD -1
REMARK  0 active torsions:
REMARK  status: ('A' for Active; 'I' for Inactive)
ROOT
ATOM      1  N1  IND d   1      -0.713   0.587   0.021  0.00  0.00    -0.196 N 
ATOM      2  C2  IND d   1      -0.572  -0.613   0.661  0.00  0.00     0.054 A 
ATOM      3  C3  IND d   1       0.396  -1.349   0.071  0.00  0.00    -0.031 A 
ATOM      4  C4  IND d   1       1.948  -0.740  -1.891  0.00  0.00     0.051 A 
ATOM      5  C5  IND d   1       2.173   0.233  -2.824  0.00  0.00    -0.031 A 
ATOM      6  C6  IND d   1       1.435   1.399  -2.855  0.00  0.00     0.015 A 
ATOM      7  C7  IND d   1       0.447   1.640  -1.943  0.00  0.00    -0.016 A 
ATOM      8  C8  IND d   1       0.210   0.652  -0.999  0.00  0.00    -0.047 A 
ATOM      9  C9  IND d   1       0.928  -0.552  -0.989  0.00  0.00    -0.096 A 
ATOM     10  HN1 IND d   1      -1.283   1.199   0.222  0.00  0.00     0.298 HD
ENDROOT
TORSDOF 0
ENDMDL
