MODEL 1
REMARK minimizedAffinity -3.77175379
REMARK minimizedRMSD -1
REMARK  0 active torsions:
REMARK  status: ('A' for Active; 'I' for Inactive)
ROOT
ATOM      1  N1  IND d   1       2.082  -1.458  -1.611  0.00  0.00    -0.196 N 
ATOM      2  C2  IND d   1       1.245  -2.538  -1.653  0.00  0.00     0.054 A 
ATOM      3  C3  IND d   1       0.094  -2.266  -0.997  0.00  0.00    -0.031 A 
ATOM      4  C4  IND d   1      -0.670  -0.081   0.130  0.00  0.00     0.051 A 
ATOM      5  C5  IND d   1      -0.233   1.172   0.457  0.00  0.00    -0.031 A 
ATOM      6  C6  IND d   1       1.022   1.623   0.102  0.00  0.00     0.015 A 
ATOM      7  C7  IND d   1       1.887   0.837  -0.607  0.00  0.00    -0.016 A 
ATOM      8  C8  IND d   1       1.449  -0.438  -0.935  0.00  0.00    -0.047 A 
ATOM      9  C9  IND d   1       0.193  -0.916  -0.540  0.00  0.00    -0.096 A 
ATOM     10  HN1 IND d   1       2.871  -1.422  -1.951  0.00  0.00     0.298 HD
ENDROOT
TORSDOF 0
ENDMDL
