MODEL 1
REMARK minimizedAffinity -3.53945756
REMARK minimizedRMSD -1
REMARK  0 active torsions:
REMARK  status: ('A' for Active; 'I' for Inactive)
ROOT
ATOM      1  N1  IND d   1      -0.808   0.561   0.214  0.00  0.00    -0.196 N 
ATOM      2  C2  IND d   1      -1.263  -0.674   0.583  0.00  0.00     0.054 A 
ATOM      3  C3  IND d   1      -0.452  -1.639   0.093  0.00  0.00    -0.031 A 
ATOM      4  C4  IND d   1       1.732  -1.413  -1.252  0.00  0.00     0.051 A 
ATOM      5  C5  IND d   1       2.531  -0.486  -1.861  0.00  0.00    -0.031 A 
ATOM      6  C6  IND d   1       2.254   0.865  -1.806  0.00  0.00     0.015 A 
ATOM      7  C7  IND d   1       1.169   1.342  -1.127  0.00  0.00    -0.016 A 
ATOM      8  C8  IND d   1       0.351   0.403  -0.513  0.00  0.00    -0.047 A 
ATOM      9  C9  IND d   1       0.603  -0.972  -0.602  0.00  0.00    -0.096 A 
ATOM     10  HN1 IND d   1      -1.183   1.311   0.405  0.00  0.00     0.298 HD
ENDROOT
TORSDOF 0
ENDMDL
