MODEL 1
REMARK minimizedAffinity 11.5870686
REMARK minimizedRMSD -1
REMARK  0 active torsions:
REMARK  status: ('A' for Active; 'I' for Inactive)
ROOT
ATOM      1  N1  IND d   1      -1.436  -1.105  -0.255  0.00  0.00    -0.196 N 
ATOM      2  C2  IND d   1      -1.205  -0.889   1.075  0.00  0.00     0.054 A 
ATOM      3  C3  IND d   1       0.054  -1.259   1.400  0.00  0.00    -0.031 A 
ATOM      4  C4  IND d   1       1.939  -2.147  -0.111  0.00  0.00     0.051 A 
ATOM      5  C5  IND d   1       2.195  -2.547  -1.392  0.00  0.00    -0.031 A 
ATOM      6  C6  IND d   1       1.234  -2.482  -2.381  0.00  0.00     0.015 A 
ATOM      7  C7  IND d   1      -0.020  -2.003  -2.126  0.00  0.00    -0.016 A 
ATOM      8  C8  IND d   1      -0.285  -1.603  -0.824  0.00  0.00    -0.047 A 
ATOM      9  C9  IND d   1       0.673  -1.706   0.193  0.00  0.00    -0.096 A 
ATOM     10  HN1 IND d   1      -2.176  -0.955  -0.666  0.00  0.00     0.298 HD
ENDROOT
TORSDOF 0
ENDMDL
