MODEL 1
REMARK minimizedAffinity 4.92456341
REMARK minimizedRMSD -1
REMARK  0 active torsions:
REMARK  status: ('A' for Active; 'I' for Inactive)
ROOT
ATOM      1  N1  IND d   1       0.590   1.959  -3.051  0.00  0.00    -0.196 N 
ATOM      2  C2  IND d   1      -0.348   2.550  -2.252  0.00  0.00     0.054 A 
ATOM      3  C3  IND d   1      -0.783   1.679  -1.313  0.00  0.00    -0.031 A 
ATOM      4  C4  IND d   1      -0.019  -0.733  -0.841  0.00  0.00     0.051 A 
ATOM      5  C5  IND d   1       0.790  -1.721  -1.328  0.00  0.00    -0.031 A 
ATOM      6  C6  IND d   1       1.592  -1.529  -2.434  0.00  0.00     0.015 A 
ATOM      7  C7  IND d   1       1.623  -0.331  -3.091  0.00  0.00    -0.016 A 
ATOM      8  C8  IND d   1       0.798   0.672  -2.604  0.00  0.00    -0.047 A 
ATOM      9  C9  IND d   1      -0.050   0.469  -1.508  0.00  0.00    -0.096 A 
ATOM     10  HN1 IND d   1       0.984   2.328  -3.719  0.00  0.00     0.298 HD
ENDROOT
TORSDOF 0
ENDMDL
