MODEL 1
REMARK minimizedAffinity 0.534346342
REMARK minimizedRMSD -1
REMARK  0 active torsions:
REMARK  status: ('A' for Active; 'I' for Inactive)
ROOT
ATOM      1  N1  IND d   1      -2.719   1.790   3.874  0.00  0.00    -0.196 N 
ATOM      2  C2  IND d   1      -3.663   0.817   4.050  0.00  0.00     0.054 A 
ATOM      3  C3  IND d   1      -3.453  -0.203   3.188  0.00  0.00    -0.031 A 
ATOM      4  C4  IND d   1      -1.563  -0.531   1.471  0.00  0.00     0.051 A 
ATOM      5  C5  IND d   1      -0.486   0.104   0.921  0.00  0.00    -0.031 A 
ATOM      6  C6  IND d   1      -0.088   1.358   1.336  0.00  0.00     0.015 A 
ATOM      7  C7  IND d   1      -0.749   2.022   2.331  0.00  0.00    -0.016 A 
ATOM      8  C8  IND d   1      -1.848   1.383   2.887  0.00  0.00    -0.047 A 
ATOM      9  C9  IND d   1      -2.282   0.128   2.440  0.00  0.00    -0.096 A 
ATOM     10  HN1 IND d   1      -2.677   2.532   4.306  0.00  0.00     0.298 HD
ENDROOT
TORSDOF 0
ENDMDL
