MODEL 1
REMARK minimizedAffinity -4.58754206
REMARK minimizedRMSD -1
REMARK  0 active torsions:
REMARK  status: ('A' for Active; 'I' for Inactive)
ROOT
ATOM      1  N1  IND d   1      -2.986  -1.286   4.911  0.00  0.00    -0.196 N 
ATOM      2  C2  IND d   1      -3.358  -2.426   4.255  0.00  0.00     0.054 A 
ATOM      3  C3  IND d   1      -3.302  -2.238   2.917  0.00  0.00    -0.031 A 
ATOM      4  C4  IND d   1      -2.530  -0.174   1.586  0.00  0.00     0.051 A 
ATOM      5  C5  IND d   1      -2.132   1.124   1.746  0.00  0.00    -0.031 A 
ATOM      6  C6  IND d   1      -1.992   1.695   2.995  0.00  0.00     0.015 A 
ATOM      7  C7  IND d   1      -2.236   0.983   4.135  0.00  0.00    -0.016 A 
ATOM      8  C8  IND d   1      -2.648  -0.333   3.976  0.00  0.00    -0.047 A 
ATOM      9  C9  IND d   1      -2.832  -0.905   2.711  0.00  0.00    -0.096 A 
ATOM     10  HN1 IND d   1      -2.966  -1.182   5.765  0.00  0.00     0.298 HD
ENDROOT
TORSDOF 0
ENDMDL
