MODEL 1
REMARK minimizedAffinity -5.51246166
REMARK minimizedRMSD -1
REMARK  0 active torsions:
REMARK  status: ('A' for Active; 'I' for Inactive)
ROOT
ATOM      1  O1  BZF d   1      -1.675   0.328   0.569  0.00  0.00    -0.204 OA
ATOM      2  C2  BZF d   1      -0.866   1.348   0.107  0.00  0.00     0.174 A 
ATOM      3  C3  BZF d   1       0.372   0.890  -0.171  0.00  0.00    -0.012 A 
ATOM      4  C3A BZF d   1       0.307  -0.523   0.049  0.00  0.00    -0.107 A 
ATOM      5  C4  BZF d   1       1.216  -1.535  -0.074  0.00  0.00     0.055 A 
ATOM      6  C5  BZF d   1       0.856  -2.794   0.289  0.00  0.00    -0.016 A 
ATOM      7  C6  BZF d   1      -0.400  -3.075   0.784  0.00  0.00     0.022 A 
ATOM      8  C7  BZF d   1      -1.337  -2.106   0.919  0.00  0.00     0.029 A 
ATOM      9  C7A BZF d   1      -0.987  -0.838   0.522  0.00  0.00     0.058 A 
ENDROOT
TORSDOF 0
ENDMDL
