MODEL 1
REMARK minimizedAffinity -4.36101723
REMARK minimizedRMSD -1
REMARK  0 active torsions:
REMARK  status: ('A' for Active; 'I' for Inactive)
ROOT
ATOM      1  O1  BZF d   1       1.657  -0.405  -0.308  0.00  0.00    -0.204 OA
ATOM      2  C2  BZF d   1       1.191   0.889  -0.185  0.00  0.00     0.174 A 
ATOM      3  C3  BZF d   1      -0.115   0.897   0.153  0.00  0.00    -0.012 A 
ATOM      4  C3A BZF d   1      -0.464  -0.478   0.338  0.00  0.00    -0.107 A 
ATOM      5  C4  BZF d   1      -1.618  -1.114   0.697  0.00  0.00     0.055 A 
ATOM      6  C5  BZF d   1      -1.646  -2.472   0.714  0.00  0.00    -0.016 A 
ATOM      7  C6  BZF d   1      -0.541  -3.226   0.374  0.00  0.00     0.022 A 
ATOM      8  C7  BZF d   1       0.627  -2.640   0.017  0.00  0.00     0.029 A 
ATOM      9  C7A BZF d   1       0.668  -1.267   0.030  0.00  0.00     0.058 A 
ENDROOT
TORSDOF 0
ENDMDL
