MODEL 1
REMARK minimizedAffinity -3.20752335
REMARK minimizedRMSD -1
REMARK  0 active torsions:
REMARK  status: ('A' for Active; 'I' for Inactive)
ROOT
ATOM      1  O1  BZF d   1       0.900   1.752  -0.457  0.00  0.00    -0.204 OA
ATOM      2  C2  BZF d   1       0.703   1.876   0.905  0.00  0.00     0.174 A 
ATOM      3  C3  BZF d   1       0.356   0.692   1.448  0.00  0.00    -0.012 A 
ATOM      4  C3A BZF d   1       0.425  -0.250   0.373  0.00  0.00    -0.107 A 
ATOM      5  C4  BZF d   1       0.208  -1.595   0.288  0.00  0.00     0.055 A 
ATOM      6  C5  BZF d   1       0.288  -2.202  -0.925  0.00  0.00    -0.016 A 
ATOM      7  C6  BZF d   1       0.579  -1.494  -2.073  0.00  0.00     0.022 A 
ATOM      8  C7  BZF d   1       0.808  -0.159  -2.038  0.00  0.00     0.029 A 
ATOM      9  C7A BZF d   1       0.759   0.451  -0.808  0.00  0.00     0.058 A 
ENDROOT
TORSDOF 0
ENDMDL
