MODEL 1
REMARK minimizedAffinity -4.22299957
REMARK minimizedRMSD -1
REMARK  0 active torsions:
REMARK  status: ('A' for Active; 'I' for Inactive)
ROOT
ATOM      1  O1  BZF d   1      -1.708  -2.413   0.701  0.00  0.00    -0.204 OA
ATOM      2  C2  BZF d   1      -0.747  -3.405   0.749  0.00  0.00     0.174 A 
ATOM      3  C3  BZF d   1       0.486  -2.885   0.578  0.00  0.00    -0.012 A 
ATOM      4  C3A BZF d   1       0.290  -1.470   0.504  0.00  0.00    -0.107 A 
ATOM      5  C4  BZF d   1       1.140  -0.411   0.354  0.00  0.00     0.055 A 
ATOM      6  C5  BZF d   1       0.623   0.841   0.247  0.00  0.00    -0.016 A 
ATOM      7  C6  BZF d   1      -0.737   1.070   0.282  0.00  0.00     0.022 A 
ATOM      8  C7  BZF d   1      -1.619   0.053   0.434  0.00  0.00     0.029 A 
ATOM      9  C7A BZF d   1      -1.098  -1.210   0.575  0.00  0.00     0.058 A 
ENDROOT
TORSDOF 0
ENDMDL
