MODEL 1
REMARK minimizedAffinity -1.31967688
REMARK minimizedRMSD -1
REMARK  0 active torsions:
REMARK  status: ('A' for Active; 'I' for Inactive)
ROOT
ATOM      1  O1  BZF d   1       1.636  -0.396  -0.223  0.00  0.00    -0.204 OA
ATOM      2  C2  BZF d   1       0.978   0.817  -0.288  0.00  0.00     0.174 A 
ATOM      3  C3  BZF d   1      -0.337   0.662  -0.034  0.00  0.00    -0.012 A 
ATOM      4  C3A BZF d   1      -0.496  -0.721   0.297  0.00  0.00    -0.107 A 
ATOM      5  C4  BZF d   1      -1.570  -1.482   0.660  0.00  0.00     0.055 A 
ATOM      6  C5  BZF d   1      -1.401  -2.818   0.843  0.00  0.00    -0.016 A 
ATOM      7  C6  BZF d   1      -0.175  -3.426   0.667  0.00  0.00     0.022 A 
ATOM      8  C7  BZF d   1       0.921  -2.711   0.312  0.00  0.00     0.029 A 
ATOM      9  C7A BZF d   1       0.760  -1.356   0.159  0.00  0.00     0.058 A 
ENDROOT
TORSDOF 0
ENDMDL
