MODEL 1
REMARK minimizedAffinity -5.35037851
REMARK minimizedRMSD -1
REMARK  0 active torsions:
REMARK  status: ('A' for Active; 'I' for Inactive)
ROOT
ATOM      1  O1  BZF d   1      -1.772  -2.746   2.033  0.00  0.00    -0.204 OA
ATOM      2  C2  BZF d   1      -2.052  -1.666   2.848  0.00  0.00     0.174 A 
ATOM      3  C3  BZF d   1      -1.396  -0.566   2.426  0.00  0.00    -0.012 A 
ATOM      4  C3A BZF d   1      -0.732  -0.962   1.222  0.00  0.00    -0.107 A 
ATOM      5  C4  BZF d   1       0.066  -0.305   0.330  0.00  0.00     0.055 A 
ATOM      6  C5  BZF d   1       0.614  -0.998  -0.702  0.00  0.00    -0.016 A 
ATOM      7  C6  BZF d   1       0.389  -2.349  -0.870  0.00  0.00     0.022 A 
ATOM      8  C7  BZF d   1      -0.400  -3.043  -0.014  0.00  0.00     0.029 A 
ATOM      9  C7A BZF d   1      -0.981  -2.338   1.012  0.00  0.00     0.058 A 
ENDROOT
TORSDOF 0
ENDMDL
