MODEL 1
REMARK minimizedAffinity -2.60224867
REMARK minimizedRMSD -1
REMARK  0 active torsions:
REMARK  status: ('A' for Active; 'I' for Inactive)
ROOT
ATOM      1  O1  BZF d   1      -0.757  -2.946  -1.934  0.00  0.00    -0.204 OA
ATOM      2  C2  BZF d   1      -0.085  -1.975  -2.650  0.00  0.00     0.174 A 
ATOM      3  C3  BZF d   1       0.041  -0.846  -1.923  0.00  0.00    -0.012 A 
ATOM      4  C3A BZF d   1      -0.510  -1.161  -0.640  0.00  0.00    -0.107 A 
ATOM      5  C4  BZF d   1      -0.657  -0.453   0.518  0.00  0.00     0.055 A 
ATOM      6  C5  BZF d   1      -1.303  -1.028   1.566  0.00  0.00    -0.016 A 
ATOM      7  C6  BZF d   1      -1.817  -2.306   1.489  0.00  0.00     0.022 A 
ATOM      8  C7  BZF d   1      -1.691  -3.049   0.363  0.00  0.00     0.029 A 
ATOM      9  C7A BZF d   1      -1.010  -2.483  -0.687  0.00  0.00     0.058 A 
ENDROOT
TORSDOF 0
ENDMDL
