MODEL 1
REMARK minimizedAffinity -4.51345253
REMARK minimizedRMSD -1
REMARK  0 active torsions:
REMARK  status: ('A' for Active; 'I' for Inactive)
ROOT
ATOM      1  O1  BZF d   1      -0.243   0.856   0.344  0.00  0.00    -0.204 OA
ATOM      2  C2  BZF d   1       0.807   0.900  -0.553  0.00  0.00     0.174 A 
ATOM      3  C3  BZF d   1       1.276  -0.339  -0.802  0.00  0.00    -0.012 A 
ATOM      4  C3A BZF d   1       0.410  -1.221  -0.082  0.00  0.00    -0.107 A 
ATOM      5  C4  BZF d   1       0.355  -2.579   0.054  0.00  0.00     0.055 A 
ATOM      6  C5  BZF d   1      -0.570  -3.122   0.889  0.00  0.00    -0.016 A 
ATOM      7  C6  BZF d   1      -1.449  -2.339   1.607  0.00  0.00     0.022 A 
ATOM      8  C7  BZF d   1      -1.436  -0.987   1.501  0.00  0.00     0.029 A 
ATOM      9  C7A BZF d   1      -0.525  -0.437   0.633  0.00  0.00     0.058 A 
ENDROOT
TORSDOF 0
ENDMDL
