MODEL 1
REMARK minimizedAffinity -1.87394464
REMARK minimizedRMSD -1
REMARK  0 active torsions:
REMARK  status: ('A' for Active; 'I' for Inactive)
ROOT
ATOM      1  O1  BZF d   1       0.742   5.057   2.583  0.00  0.00    -0.204 OA
ATOM      2  C2  BZF d   1      -0.594   4.959   2.924  0.00  0.00     0.174 A 
ATOM      3  C3  BZF d   1      -1.228   4.080   2.122  0.00  0.00    -0.012 A 
ATOM      4  C3A BZF d   1      -0.207   3.529   1.284  0.00  0.00    -0.107 A 
ATOM      5  C4  BZF d   1      -0.212   2.592   0.292  0.00  0.00     0.055 A 
ATOM      6  C5  BZF d   1       0.942   2.334  -0.379  0.00  0.00    -0.016 A 
ATOM      7  C6  BZF d   1       2.115   2.999  -0.087  0.00  0.00     0.022 A 
ATOM      8  C7  BZF d   1       2.170   3.934   0.892  0.00  0.00     0.029 A 
ATOM      9  C7A BZF d   1       1.013   4.172   1.594  0.00  0.00     0.058 A 
ENDROOT
TORSDOF 0
ENDMDL
