MODEL 1
REMARK minimizedAffinity -1.75276732
REMARK minimizedRMSD -1
REMARK  0 active torsions:
REMARK  status: ('A' for Active; 'I' for Inactive)
ROOT
ATOM      1  O1  BZF d   1       0.918  -2.085  -1.785  0.00  0.00    -0.204 OA
ATOM      2  C2  BZF d   1       0.810  -3.023  -0.777  0.00  0.00     0.174 A 
ATOM      3  C3  BZF d   1       0.289  -2.470   0.337  0.00  0.00    -0.012 A 
ATOM      4  C3A BZF d   1      -0.029  -1.123  -0.025  0.00  0.00    -0.107 A 
ATOM      5  C4  BZF d   1      -0.589  -0.076   0.650  0.00  0.00     0.055 A 
ATOM      6  C5  BZF d   1      -0.695   1.129   0.030  0.00  0.00    -0.016 A 
ATOM      7  C6  BZF d   1      -0.248   1.324  -1.260  0.00  0.00     0.022 A 
ATOM      8  C7  BZF d   1       0.310   0.314  -1.972  0.00  0.00     0.029 A 
ATOM      9  C7A BZF d   1       0.388  -0.913  -1.360  0.00  0.00     0.058 A 
ENDROOT
TORSDOF 0
ENDMDL
