MODEL 1
REMARK minimizedAffinity -0.481113464
REMARK minimizedRMSD -1
REMARK  0 active torsions:
REMARK  status: ('A' for Active; 'I' for Inactive)
ROOT
ATOM      1  O1  BZF d   1      -0.015  -1.699  -2.129  0.00  0.00    -0.204 OA
ATOM      2  C2  BZF d   1       0.579  -0.536  -2.577  0.00  0.00     0.174 A 
ATOM      3  C3  BZF d   1       0.458   0.447  -1.662  0.00  0.00    -0.012 A 
ATOM      4  C3A BZF d   1      -0.176  -0.164  -0.535  0.00  0.00    -0.107 A 
ATOM      5  C4  BZF d   1      -0.552   0.296   0.695  0.00  0.00     0.055 A 
ATOM      6  C5  BZF d   1      -1.215  -0.539   1.538  0.00  0.00    -0.016 A 
ATOM      7  C6  BZF d   1      -1.523  -1.835   1.182  0.00  0.00     0.022 A 
ATOM      8  C7  BZF d   1      -1.167  -2.338  -0.025  0.00  0.00     0.029 A 
ATOM      9  C7A BZF d   1      -0.467  -1.508  -0.866  0.00  0.00     0.058 A 
ENDROOT
TORSDOF 0
ENDMDL
