MODEL 1
REMARK minimizedAffinity -4.8148284
REMARK minimizedRMSD -1
REMARK  0 active torsions:
REMARK  status: ('A' for Active; 'I' for Inactive)
ROOT
ATOM      1  O1  BZF d   1       1.003  -0.169  -0.913  0.00  0.00    -0.204 OA
ATOM      2  C2  BZF d   1       0.626   1.123  -0.600  0.00  0.00     0.174 A 
ATOM      3  C3  BZF d   1      -0.482   1.126   0.168  0.00  0.00    -0.012 A 
ATOM      4  C3A BZF d   1      -0.766  -0.253   0.424  0.00  0.00    -0.107 A 
ATOM      5  C4  BZF d   1      -1.735  -0.895   1.142  0.00  0.00     0.055 A 
ATOM      6  C5  BZF d   1      -1.775  -2.253   1.130  0.00  0.00    -0.016 A 
ATOM      7  C6  BZF d   1      -0.866  -3.000   0.409  0.00  0.00     0.022 A 
ATOM      8  C7  BZF d   1       0.116  -2.409  -0.313  0.00  0.00     0.029 A 
ATOM      9  C7A BZF d   1       0.179  -1.037  -0.277  0.00  0.00     0.058 A 
ENDROOT
TORSDOF 0
ENDMDL
