MODEL 1
REMARK minimizedAffinity -4.01458836
REMARK minimizedRMSD -1
REMARK  0 active torsions:
REMARK  status: ('A' for Active; 'I' for Inactive)
ROOT
ATOM      1  O1  BZF d   1       0.291   0.368  -0.123  0.00  0.00    -0.204 OA
ATOM      2  C2  BZF d   1      -0.455   0.822   0.948  0.00  0.00     0.174 A 
ATOM      3  C3  BZF d   1      -1.160  -0.186   1.501  0.00  0.00    -0.012 A 
ATOM      4  C3A BZF d   1      -0.764  -1.360   0.785  0.00  0.00    -0.107 A 
ATOM      5  C4  BZF d   1      -1.105  -2.678   0.882  0.00  0.00     0.055 A 
ATOM      6  C5  BZF d   1      -0.593  -3.561  -0.016  0.00  0.00    -0.016 A 
ATOM      7  C6  BZF d   1       0.258  -3.159  -1.025  0.00  0.00     0.022 A 
ATOM      8  C7  BZF d   1       0.629  -1.862  -1.158  0.00  0.00     0.029 A 
ATOM      9  C7A BZF d   1       0.139  -0.973  -0.232  0.00  0.00     0.058 A 
ENDROOT
TORSDOF 0
ENDMDL
