MODEL 1
REMARK minimizedAffinity -2.27987957
REMARK minimizedRMSD -1
REMARK  0 active torsions:
REMARK  status: ('A' for Active; 'I' for Inactive)
ROOT
ATOM      1  O1  BZF d   1      -0.202  -3.593   1.216  0.00  0.00    -0.204 OA
ATOM      2  C2  BZF d   1       1.111  -3.455   0.810  0.00  0.00     0.174 A 
ATOM      3  C3  BZF d   1       1.315  -2.243   0.255  0.00  0.00    -0.012 A 
ATOM      4  C3A BZF d   1       0.073  -1.548   0.402  0.00  0.00    -0.107 A 
ATOM      5  C4  BZF d   1      -0.348  -0.295   0.061  0.00  0.00     0.055 A 
ATOM      6  C5  BZF d   1      -1.645   0.049   0.277  0.00  0.00    -0.016 A 
ATOM      7  C6  BZF d   1      -2.548  -0.837   0.828  0.00  0.00     0.022 A 
ATOM      8  C7  BZF d   1      -2.176  -2.090   1.187  0.00  0.00     0.029 A 
ATOM      9  C7A BZF d   1      -0.858  -2.429   1.000  0.00  0.00     0.058 A 
ENDROOT
TORSDOF 0
ENDMDL
