MODEL 1
REMARK minimizedAffinity -4.73958683
REMARK minimizedRMSD -1
REMARK  0 active torsions:
REMARK  status: ('A' for Active; 'I' for Inactive)
ROOT
ATOM      1  O1  BZF d   1      -0.207  -2.809  -1.688  0.00  0.00    -0.204 OA
ATOM      2  C2  BZF d   1       0.320  -1.930  -2.615  0.00  0.00     0.174 A 
ATOM      3  C3  BZF d   1       0.130  -0.653  -2.226  0.00  0.00    -0.012 A 
ATOM      4  C3A BZF d   1      -0.477  -0.740  -0.933  0.00  0.00    -0.107 A 
ATOM      5  C4  BZF d   1      -0.892   0.193  -0.026  0.00  0.00     0.055 A 
ATOM      6  C5  BZF d   1      -1.512  -0.221   1.110  0.00  0.00    -0.016 A 
ATOM      7  C6  BZF d   1      -1.737  -1.557   1.369  0.00  0.00     0.022 A 
ATOM      8  C7  BZF d   1      -1.339  -2.519   0.502  0.00  0.00     0.029 A 
ATOM      9  C7A BZF d   1      -0.683  -2.106  -0.632  0.00  0.00     0.058 A 
ENDROOT
TORSDOF 0
ENDMDL
