MODEL 1
REMARK minimizedAffinity -2.80292416
REMARK minimizedRMSD -1
REMARK  0 active torsions:
REMARK  status: ('A' for Active; 'I' for Inactive)
ROOT
ATOM      1  O1  BZF d   1       1.661  -0.469  -0.240  0.00  0.00    -0.204 OA
ATOM      2  C2  BZF d   1       1.318   0.851  -0.020  0.00  0.00     0.174 A 
ATOM      3  C3  BZF d   1       0.062   0.944   0.463  0.00  0.00    -0.012 A 
ATOM      4  C3A BZF d   1      -0.376  -0.407   0.638  0.00  0.00    -0.107 A 
ATOM      5  C4  BZF d   1      -1.532  -0.967   1.101  0.00  0.00     0.055 A 
ATOM      6  C5  BZF d   1      -1.668  -2.319   1.075  0.00  0.00    -0.016 A 
ATOM      7  C6  BZF d   1      -0.672  -3.139   0.587  0.00  0.00     0.022 A 
ATOM      8  C7  BZF d   1       0.495  -2.630   0.121  0.00  0.00     0.029 A 
ATOM      9  C7A BZF d   1       0.649  -1.266   0.177  0.00  0.00     0.058 A 
ENDROOT
TORSDOF 0
ENDMDL
