MODEL 1
REMARK minimizedAffinity -3.96376872
REMARK minimizedRMSD -1
REMARK  0 active torsions:
REMARK  status: ('A' for Active; 'I' for Inactive)
ROOT
ATOM      1  O1  BZF d   1      -1.747  -2.589   1.930  0.00  0.00    -0.204 OA
ATOM      2  C2  BZF d   1      -2.501  -1.448   2.123  0.00  0.00     0.174 A 
ATOM      3  C3  BZF d   1      -1.972  -0.405   1.451  0.00  0.00    -0.012 A 
ATOM      4  C3A BZF d   1      -0.867  -0.949   0.723  0.00  0.00    -0.107 A 
ATOM      5  C4  BZF d   1       0.044  -0.411  -0.141  0.00  0.00     0.055 A 
ATOM      6  C5  BZF d   1       1.042  -1.197  -0.622  0.00  0.00    -0.016 A 
ATOM      7  C6  BZF d   1       1.163  -2.522  -0.257  0.00  0.00     0.022 A 
ATOM      8  C7  BZF d   1       0.280  -3.102   0.593  0.00  0.00     0.029 A 
ATOM      9  C7A BZF d   1      -0.749  -2.318   1.055  0.00  0.00     0.058 A 
ENDROOT
TORSDOF 0
ENDMDL
