MODEL 1
REMARK minimizedAffinity -5.09495306
REMARK minimizedRMSD -1
REMARK  0 active torsions:
REMARK  status: ('A' for Active; 'I' for Inactive)
ROOT
ATOM      1  O1  BZF d   1      -0.720  -2.662   0.812  0.00  0.00    -0.204 OA
ATOM      2  C2  BZF d   1       0.160  -3.320  -0.025  0.00  0.00     0.174 A 
ATOM      3  C3  BZF d   1       0.804  -2.446  -0.825  0.00  0.00    -0.012 A 
ATOM      4  C3A BZF d   1       0.363  -1.153  -0.401  0.00  0.00    -0.107 A 
ATOM      5  C4  BZF d   1       0.659   0.119  -0.802  0.00  0.00     0.055 A 
ATOM      6  C5  BZF d   1      -0.001   1.161  -0.232  0.00  0.00    -0.016 A 
ATOM      7  C6  BZF d   1      -0.964   0.969   0.737  0.00  0.00     0.022 A 
ATOM      8  C7  BZF d   1      -1.288  -0.273   1.171  0.00  0.00     0.029 A 
ATOM      9  C7A BZF d   1      -0.600  -1.327   0.620  0.00  0.00     0.058 A 
ENDROOT
TORSDOF 0
ENDMDL
