MODEL 1
REMARK minimizedAffinity -3.60820365
REMARK minimizedRMSD -1
REMARK  1 active torsions:
REMARK  status: ('A' for Active; 'I' for Inactive)
REMARK    1  A    between atoms: N_2  and  C1_3 
ROOT
ATOM      1  C1  UNL d   1      -0.975   1.305  -0.137  0.00  0.00     0.143 A 
ATOM      2  C2  UNL d   1      -0.252   2.138  -0.998  0.00  0.00    -0.057 A 
ATOM      3  C3  UNL d   1       0.850   1.657  -1.716  0.00  0.00     0.033 A 
ATOM      4  C4  UNL d   1       1.266   0.339  -1.564  0.00  0.00    -0.042 A 
ATOM      5  C5  UNL d   1       0.577  -0.500  -0.695  0.00  0.00     0.033 A 
ATOM      6  C6  UNL d   1      -0.526  -0.016   0.015  0.00  0.00    -0.057 A 
ENDROOT
BRANCH   1   7
ATOM      7  N   UNL d   1      -2.019   1.749   0.679  0.00  0.00    -0.732 N 
ATOM      8  C   UNL d   1      -1.754   2.226   2.019  0.00  0.00     0.284 C 
ATOM      9  H3  UNL d   1      -2.703   2.302   0.168  0.00  0.00     0.395 HD
ENDBRANCH   1   7
TORSDOF 1
ENDMDL
