MODEL 1
REMARK minimizedAffinity -3.5833416
REMARK minimizedRMSD -1
REMARK  1 active torsions:
REMARK  status: ('A' for Active; 'I' for Inactive)
REMARK    1  A    between atoms: N_2  and  C1_3 
ROOT
ATOM      1  C1  UNL d   1       0.155  -0.333   0.030  0.00  0.00     0.143 A 
ATOM      2  C2  UNL d   1      -0.131  -0.771   1.328  0.00  0.00    -0.057 A 
ATOM      3  C3  UNL d   1      -0.931  -0.011   2.190  0.00  0.00     0.033 A 
ATOM      4  C4  UNL d   1      -1.436   1.218   1.778  0.00  0.00    -0.042 A 
ATOM      5  C5  UNL d   1      -1.144   1.684   0.501  0.00  0.00     0.033 A 
ATOM      6  C6  UNL d   1      -0.350   0.918  -0.358  0.00  0.00    -0.057 A 
ENDROOT
BRANCH   1   7
ATOM      7  N   UNL d   1       1.024  -0.996  -0.840  0.00  0.00    -0.732 N 
ATOM      8  C   UNL d   1       0.601  -2.193  -1.535  0.00  0.00     0.284 C 
ATOM      9  H3  UNL d   1       1.566  -0.352  -1.413  0.00  0.00     0.395 HD
ENDBRANCH   1   7
TORSDOF 1
ENDMDL
