MODEL 1
REMARK minimizedAffinity -2.91491461
REMARK minimizedRMSD -1
REMARK  1 active torsions:
REMARK  status: ('A' for Active; 'I' for Inactive)
REMARK    1  A    between atoms: N_2  and  C1_3 
ROOT
ATOM      1  C1  UNL d   1      -0.808   0.909   2.053  0.00  0.00     0.143 A 
ATOM      2  C2  UNL d   1      -1.651   1.758   1.327  0.00  0.00    -0.057 A 
ATOM      3  C3  UNL d   1      -1.915   1.533  -0.029  0.00  0.00     0.033 A 
ATOM      4  C4  UNL d   1      -1.316   0.467  -0.693  0.00  0.00    -0.042 A 
ATOM      5  C5  UNL d   1      -0.455  -0.375   0.002  0.00  0.00     0.033 A 
ATOM      6  C6  UNL d   1      -0.200  -0.149   1.358  0.00  0.00    -0.057 A 
ENDROOT
BRANCH   1   7
ATOM      7  N   UNL d   1      -0.428   1.136   3.378  0.00  0.00    -0.732 N 
ATOM      8  C   UNL d   1       0.176   2.393   3.766  0.00  0.00     0.284 C 
ATOM      9  H3  UNL d   1      -1.109   0.779   4.044  0.00  0.00     0.395 HD
ENDBRANCH   1   7
TORSDOF 1
ENDMDL
