MODEL 1
REMARK minimizedAffinity -2.41453743
REMARK minimizedRMSD -1
REMARK  1 active torsions:
REMARK  status: ('A' for Active; 'I' for Inactive)
REMARK    1  A    between atoms: N_2  and  C1_3 
ROOT
ATOM      1  C1  UNL d   1      -0.194   0.261   0.171  0.00  0.00     0.143 A 
ATOM      2  C2  UNL d   1      -1.171   1.124  -0.337  0.00  0.00    -0.057 A 
ATOM      3  C3  UNL d   1      -2.077   1.773   0.511  0.00  0.00     0.033 A 
ATOM      4  C4  UNL d   1      -2.039   1.548   1.883  0.00  0.00    -0.042 A 
ATOM      5  C5  UNL d   1      -1.092   0.675   2.407  0.00  0.00     0.033 A 
ATOM      6  C6  UNL d   1      -0.186   0.034   1.556  0.00  0.00    -0.057 A 
ENDROOT
BRANCH   1   7
ATOM      7  N   UNL d   1       0.671  -0.491  -0.629  0.00  0.00    -0.732 N 
ATOM      8  C   UNL d   1       0.188  -1.646  -1.354  0.00  0.00     0.284 C 
ATOM      9  H3  UNL d   1       1.316   0.092  -1.158  0.00  0.00     0.395 HD
ENDBRANCH   1   7
TORSDOF 1
ENDMDL
