MODEL 1
REMARK minimizedAffinity -3.94551206
REMARK minimizedRMSD -1
REMARK  1 active torsions:
REMARK  status: ('A' for Active; 'I' for Inactive)
REMARK    1  A    between atoms: N_2  and  C1_3 
ROOT
ATOM      1  C1  UNL d   1      -0.781   0.924   2.530  0.00  0.00     0.143 A 
ATOM      2  C2  UNL d   1      -1.696   1.678   1.788  0.00  0.00    -0.057 A 
ATOM      3  C3  UNL d   1      -1.848   1.484   0.409  0.00  0.00     0.033 A 
ATOM      4  C4  UNL d   1      -1.065   0.549  -0.258  0.00  0.00    -0.042 A 
ATOM      5  C5  UNL d   1      -0.131  -0.195   0.455  0.00  0.00     0.033 A 
ATOM      6  C6  UNL d   1       0.011  -0.001   1.832  0.00  0.00    -0.057 A 
ENDROOT
BRANCH   1   7
ATOM      7  N   UNL d   1      -0.514   1.138   3.884  0.00  0.00    -0.732 N 
ATOM      8  C   UNL d   1       0.214   2.312   4.315  0.00  0.00     0.284 C 
ATOM      9  H3  UNL d   1      -1.303   0.897   4.479  0.00  0.00     0.395 HD
ENDBRANCH   1   7
TORSDOF 1
ENDMDL
