MODEL 1
REMARK minimizedAffinity -4.37633514
REMARK minimizedRMSD -1
REMARK  1 active torsions:
REMARK  status: ('A' for Active; 'I' for Inactive)
REMARK    1  A    between atoms: N_2  and  C1_3 
ROOT
ATOM      1  C1  UNL d   1       0.809  -0.291  -0.363  0.00  0.00     0.143 A 
ATOM      2  C2  UNL d   1       0.998   0.920  -1.036  0.00  0.00    -0.057 A 
ATOM      3  C3  UNL d   1       0.278   2.068  -0.681  0.00  0.00     0.033 A 
ATOM      4  C4  UNL d   1      -0.667   2.016   0.338  0.00  0.00    -0.042 A 
ATOM      5  C5  UNL d   1      -0.889   0.816   1.004  0.00  0.00     0.033 A 
ATOM      6  C6  UNL d   1      -0.163  -0.325   0.649  0.00  0.00    -0.057 A 
ENDROOT
BRANCH   1   7
ATOM      7  N   UNL d   1       1.422  -1.491  -0.734  0.00  0.00    -0.732 N 
ATOM      8  C   UNL d   1       0.685  -2.501  -1.463  0.00  0.00     0.284 C 
ATOM      9  H3  UNL d   1       2.376  -1.355  -1.061  0.00  0.00     0.395 HD
ENDBRANCH   1   7
TORSDOF 1
ENDMDL
