MODEL 1
REMARK minimizedAffinity -3.67956519
REMARK minimizedRMSD -1
REMARK  1 active torsions:
REMARK  status: ('A' for Active; 'I' for Inactive)
REMARK    1  A    between atoms: N_2  and  C1_3 
ROOT
ATOM      1  C1  UNL d   1      -0.152   0.221   0.208  0.00  0.00     0.143 A 
ATOM      2  C2  UNL d   1      -0.434   0.088   1.572  0.00  0.00    -0.057 A 
ATOM      3  C3  UNL d   1      -1.472   0.812   2.172  0.00  0.00     0.033 A 
ATOM      4  C4  UNL d   1      -2.229   1.706   1.423  0.00  0.00    -0.042 A 
ATOM      5  C5  UNL d   1      -1.950   1.873   0.071  0.00  0.00     0.033 A 
ATOM      6  C6  UNL d   1      -0.917   1.143  -0.524  0.00  0.00    -0.057 A 
ENDROOT
BRANCH   1   7
ATOM      7  N   UNL d   1       0.929  -0.396  -0.426  0.00  0.00    -0.732 N 
ATOM      8  C   UNL d   1       0.763  -1.669  -1.093  0.00  0.00     0.284 C 
ATOM      9  H3  UNL d   1       1.511   0.267  -0.934  0.00  0.00     0.395 HD
ENDBRANCH   1   7
TORSDOF 1
ENDMDL
