MODEL 1
REMARK minimizedAffinity -3.23115063
REMARK minimizedRMSD -1
REMARK  1 active torsions:
REMARK  status: ('A' for Active; 'I' for Inactive)
REMARK    1  A    between atoms: N_2  and  C1_3 
ROOT
ATOM      1  C1  UNL d   1      -0.040  -0.242   0.109  0.00  0.00     0.143 A 
ATOM      2  C2  UNL d   1       0.059  -1.637   0.084  0.00  0.00    -0.057 A 
ATOM      3  C3  UNL d   1       0.808  -2.295  -0.899  0.00  0.00     0.033 A 
ATOM      4  C4  UNL d   1       1.450  -1.568  -1.895  0.00  0.00    -0.042 A 
ATOM      5  C5  UNL d   1       1.345  -0.181  -1.906  0.00  0.00     0.033 A 
ATOM      6  C6  UNL d   1       0.602   0.470  -0.917  0.00  0.00    -0.057 A 
ENDROOT
BRANCH   1   7
ATOM      7  N   UNL d   1      -0.849   0.466   1.001  0.00  0.00    -0.732 N 
ATOM      8  C   UNL d   1      -0.769   0.217   2.424  0.00  0.00     0.284 C 
ATOM      9  H3  UNL d   1      -0.931   1.450   0.755  0.00  0.00     0.395 HD
ENDBRANCH   1   7
TORSDOF 1
ENDMDL
