MODEL 1
REMARK minimizedAffinity -3.48722053
REMARK minimizedRMSD -1
REMARK  1 active torsions:
REMARK  status: ('A' for Active; 'I' for Inactive)
REMARK    1  A    between atoms: N_2  and  C1_3 
ROOT
ATOM      1  C1  UNL d   1       0.869  -1.425  -1.043  0.00  0.00     0.143 A 
ATOM      2  C2  UNL d   1       0.676  -2.361  -0.021  0.00  0.00    -0.057 A 
ATOM      3  C3  UNL d   1       0.400  -3.703  -0.309  0.00  0.00     0.033 A 
ATOM      4  C4  UNL d   1       0.283  -4.128  -1.628  0.00  0.00    -0.042 A 
ATOM      5  C5  UNL d   1       0.446  -3.210  -2.659  0.00  0.00     0.033 A 
ATOM      6  C6  UNL d   1       0.728  -1.872  -2.366  0.00  0.00    -0.057 A 
ENDROOT
BRANCH   1   7
ATOM      7  N   UNL d   1       1.048  -0.058  -0.821  0.00  0.00    -0.732 N 
ATOM      8  C   UNL d   1      -0.004   0.737  -0.225  0.00  0.00     0.284 C 
ATOM      9  H3  UNL d   1       1.980   0.161  -0.475  0.00  0.00     0.395 HD
ENDBRANCH   1   7
TORSDOF 1
ENDMDL
