MODEL 1
REMARK minimizedAffinity -3.3323977
REMARK minimizedRMSD -1
REMARK  1 active torsions:
REMARK  status: ('A' for Active; 'I' for Inactive)
REMARK    1  A    between atoms: N_2  and  C1_3 
ROOT
ATOM      1  C1  UNL d   1      -0.301   0.369   0.410  0.00  0.00     0.143 A 
ATOM      2  C2  UNL d   1      -0.361   0.020   1.764  0.00  0.00    -0.057 A 
ATOM      3  C3  UNL d   1      -1.402   0.473   2.584  0.00  0.00     0.033 A 
ATOM      4  C4  UNL d   1      -2.388   1.308   2.070  0.00  0.00    -0.042 A 
ATOM      5  C5  UNL d   1      -2.334   1.688   0.734  0.00  0.00     0.033 A 
ATOM      6  C6  UNL d   1      -1.296   1.228  -0.082  0.00  0.00    -0.057 A 
ENDROOT
BRANCH   1   7
ATOM      7  N   UNL d   1       0.761   0.033  -0.433  0.00  0.00    -0.732 N 
ATOM      8  C   UNL d   1       1.078   0.853  -1.582  0.00  0.00     0.284 C 
ATOM      9  H3  UNL d   1       1.576  -0.296   0.081  0.00  0.00     0.395 HD
ENDBRANCH   1   7
TORSDOF 1
ENDMDL
