MODEL 1
REMARK minimizedAffinity -5.55216694
REMARK minimizedRMSD -1
REMARK  1 active torsions:
REMARK  status: ('A' for Active; 'I' for Inactive)
REMARK    1  A    between atoms: N_2  and  C1_3 
ROOT
ATOM      1  C1  UNL d   1      -0.177   0.067   0.176  0.00  0.00     0.143 A 
ATOM      2  C2  UNL d   1      -0.487  -0.151   1.522  0.00  0.00    -0.057 A 
ATOM      3  C3  UNL d   1      -1.236   0.777   2.255  0.00  0.00     0.033 A 
ATOM      4  C4  UNL d   1      -1.665   1.959   1.659  0.00  0.00    -0.042 A 
ATOM      5  C5  UNL d   1      -1.347   2.209   0.329  0.00  0.00     0.033 A 
ATOM      6  C6  UNL d   1      -0.604   1.275  -0.399  0.00  0.00    -0.057 A 
ENDROOT
BRANCH   1   7
ATOM      7  N   UNL d   1       0.648  -0.771  -0.579  0.00  0.00    -0.732 N 
ATOM      8  C   UNL d   1       0.082  -1.833  -1.383  0.00  0.00     0.284 C 
ATOM      9  H3  UNL d   1       1.405  -0.265  -1.032  0.00  0.00     0.395 HD
ENDBRANCH   1   7
TORSDOF 1
ENDMDL
