MODEL 1
REMARK minimizedAffinity 9.7005043
REMARK minimizedRMSD -1
REMARK  3 active torsions:
REMARK  status: ('A' for Active; 'I' for Inactive)
REMARK    1  A    between atoms: C3'_2  and  C2'_3 
REMARK    2  A    between atoms: C2'_3  and  C1'_4 
REMARK    3  A    between atoms: C1'_4  and  C1_5 
ROOT
ATOM      1  C1  N4B d   1       2.577   0.635   1.137  0.00  0.00    -0.075 A 
ATOM      2  C2  N4B d   1       2.096   1.911   0.767  0.00  0.00     0.002 A 
ATOM      3  C3  N4B d   1       1.107   2.512   1.506  0.00  0.00     0.002 A 
ATOM      4  C4  N4B d   1       0.573   1.853   2.603  0.00  0.00    -0.004 A 
ATOM      5  C5  N4B d   1       1.061   0.632   2.968  0.00  0.00     0.002 A 
ATOM      6  C6  N4B d   1       2.058   0.017   2.237  0.00  0.00     0.002 A 
ENDROOT
BRANCH   1   7
ATOM      7  C1' N4B d   1       3.596  -0.099   0.310  0.00  0.00     0.057 C 
BRANCH   7   8
ATOM      8  C2' N4B d   1       4.620  -0.748   1.237  0.00  0.00     0.009 C 
BRANCH   8   9
ATOM      9  C3' N4B d   1       5.999  -0.816   0.602  0.00  0.00     0.004 C 
ATOM     10  C4' N4B d   1       6.000  -1.548  -0.707  0.00  0.00     0.003 C 
ENDBRANCH   8   9
ENDBRANCH   7   8
ENDBRANCH   1   7
TORSDOF 3
ENDMDL
