MODEL 1
REMARK minimizedAffinity 16.4638214
REMARK minimizedRMSD -1
REMARK  3 active torsions:
REMARK  status: ('A' for Active; 'I' for Inactive)
REMARK    1  A    between atoms: C3'_2  and  C2'_3 
REMARK    2  A    between atoms: C2'_3  and  C1'_4 
REMARK    3  A    between atoms: C1'_4  and  C1_5 
ROOT
ATOM      1  C1  N4B d   1      -3.509  -4.069  -2.096  0.00  0.00    -0.075 A 
ATOM      2  C2  N4B d   1      -3.738  -5.244  -1.348  0.00  0.00     0.002 A 
ATOM      3  C3  N4B d   1      -4.862  -5.998  -1.580  0.00  0.00     0.002 A 
ATOM      4  C4  N4B d   1      -5.777  -5.588  -2.539  0.00  0.00    -0.004 A 
ATOM      5  C5  N4B d   1      -5.535  -4.465  -3.275  0.00  0.00     0.002 A 
ATOM      6  C6  N4B d   1      -4.408  -3.700  -3.054  0.00  0.00     0.002 A 
ENDROOT
BRANCH   1   7
ATOM      7  C1' N4B d   1      -2.338  -3.166  -1.818  0.00  0.00     0.057 C 
BRANCH   7   8
ATOM      8  C2' N4B d   1      -2.209  -2.962  -0.312  0.00  0.00     0.009 C 
BRANCH   8   9
ATOM      9  C3' N4B d   1      -0.872  -3.452   0.216  0.00  0.00     0.004 C 
ATOM     10  C4' N4B d   1      -1.008  -4.621   1.146  0.00  0.00     0.003 C 
ENDBRANCH   8   9
ENDBRANCH   7   8
ENDBRANCH   1   7
TORSDOF 3
ENDMDL
