MODEL 1
REMARK minimizedAffinity 20.1964817
REMARK minimizedRMSD -1
REMARK  3 active torsions:
REMARK  status: ('A' for Active; 'I' for Inactive)
REMARK    1  A    between atoms: C3'_2  and  C2'_3 
REMARK    2  A    between atoms: C2'_3  and  C1'_4 
REMARK    3  A    between atoms: C1'_4  and  C1_5 
ROOT
ATOM      1  C1  N4B d   1       3.622   3.321  -3.130  0.00  0.00    -0.075 A 
ATOM      2  C2  N4B d   1       4.884   3.925  -2.934  0.00  0.00     0.002 A 
ATOM      3  C3  N4B d   1       5.137   5.169  -3.458  0.00  0.00     0.002 A 
ATOM      4  C4  N4B d   1       4.156   5.817  -4.193  0.00  0.00    -0.004 A 
ATOM      5  C5  N4B d   1       2.932   5.237  -4.356  0.00  0.00     0.002 A 
ATOM      6  C6  N4B d   1       2.661   3.989  -3.832  0.00  0.00     0.002 A 
ENDROOT
BRANCH   1   7
ATOM      7  C1' N4B d   1       3.327   1.926  -2.649  0.00  0.00     0.057 C 
BRANCH   7   8
ATOM      8  C2' N4B d   1       3.820   1.776  -1.213  0.00  0.00     0.009 C 
BRANCH   8   9
ATOM      9  C3' N4B d   1       2.753   1.192  -0.304  0.00  0.00     0.004 C 
ATOM     10  C4' N4B d   1       3.234  -0.005   0.462  0.00  0.00     0.003 C 
ENDBRANCH   8   9
ENDBRANCH   7   8
ENDBRANCH   1   7
TORSDOF 3
ENDMDL
