MODEL 1
REMARK minimizedAffinity 5.51911831
REMARK minimizedRMSD -1
REMARK  3 active torsions:
REMARK  status: ('A' for Active; 'I' for Inactive)
REMARK    1  A    between atoms: C3'_2  and  C2'_3 
REMARK    2  A    between atoms: C2'_3  and  C1'_4 
REMARK    3  A    between atoms: C1'_4  and  C1_5 
ROOT
ATOM      1  C1  N4B d   1       3.568   1.226  -1.360  0.00  0.00    -0.075 A 
ATOM      2  C2  N4B d   1       2.309   1.428  -0.752  0.00  0.00     0.002 A 
ATOM      3  C3  N4B d   1       2.008   0.795   0.429  0.00  0.00     0.002 A 
ATOM      4  C4  N4B d   1       2.939  -0.055   1.009  0.00  0.00    -0.004 A 
ATOM      5  C5  N4B d   1       4.161  -0.224   0.428  0.00  0.00     0.002 A 
ATOM      6  C6  N4B d   1       4.479   0.408  -0.757  0.00  0.00     0.002 A 
ENDROOT
BRANCH   1   7
ATOM      7  C1' N4B d   1       3.910   1.828  -2.696  0.00  0.00     0.057 C 
BRANCH   7   8
ATOM      8  C2' N4B d   1       2.859   1.408  -3.719  0.00  0.00     0.009 C 
BRANCH   8   9
ATOM      9  C3' N4B d   1       1.878   2.528  -4.018  0.00  0.00     0.004 C 
ATOM     10  C4' N4B d   1       0.700   2.533  -3.089  0.00  0.00     0.003 C 
ENDBRANCH   8   9
ENDBRANCH   7   8
ENDBRANCH   1   7
TORSDOF 3
ENDMDL
