MODEL 1
REMARK minimizedAffinity 9.28807163
REMARK minimizedRMSD -1
REMARK  3 active torsions:
REMARK  status: ('A' for Active; 'I' for Inactive)
REMARK    1  A    between atoms: C3'_2  and  C2'_3 
REMARK    2  A    between atoms: C2'_3  and  C1'_4 
REMARK    3  A    between atoms: C1'_4  and  C1_5 
ROOT
ATOM      1  C1  N4B d   1       3.061   1.054  -0.966  0.00  0.00    -0.075 A 
ATOM      2  C2  N4B d   1       3.945   0.402  -0.078  0.00  0.00     0.002 A 
ATOM      3  C3  N4B d   1       3.735   0.475   1.277  0.00  0.00     0.002 A 
ATOM      4  C4  N4B d   1       2.662   1.205   1.766  0.00  0.00    -0.004 A 
ATOM      5  C5  N4B d   1       1.799   1.811   0.901  0.00  0.00     0.002 A 
ATOM      6  C6  N4B d   1       1.996   1.743  -0.463  0.00  0.00     0.002 A 
ENDROOT
BRANCH   1   7
ATOM      7  C1' N4B d   1       3.299   1.075  -2.451  0.00  0.00     0.057 C 
BRANCH   7   8
ATOM      8  C2' N4B d   1       2.190   1.877  -3.125  0.00  0.00     0.009 C 
BRANCH   8   9
ATOM      9  C3' N4B d   1       2.524   2.207  -4.569  0.00  0.00     0.004 C 
ATOM     10  C4' N4B d   1       1.620   3.252  -5.151  0.00  0.00     0.003 C 
ENDBRANCH   8   9
ENDBRANCH   7   8
ENDBRANCH   1   7
TORSDOF 3
ENDMDL
