MODEL 1
REMARK minimizedAffinity 10.2265854
REMARK minimizedRMSD -1
REMARK  3 active torsions:
REMARK  status: ('A' for Active; 'I' for Inactive)
REMARK    1  A    between atoms: C3'_2  and  C2'_3 
REMARK    2  A    between atoms: C2'_3  and  C1'_4 
REMARK    3  A    between atoms: C1'_4  and  C1_5 
ROOT
ATOM      1  C1  N4B d   1      -3.809  -3.639  -2.205  0.00  0.00    -0.075 A 
ATOM      2  C2  N4B d   1      -3.994  -4.913  -1.625  0.00  0.00     0.002 A 
ATOM      3  C3  N4B d   1      -5.064  -5.689  -1.999  0.00  0.00     0.002 A 
ATOM      4  C4  N4B d   1      -5.969  -5.205  -2.932  0.00  0.00    -0.004 A 
ATOM      5  C5  N4B d   1      -5.769  -3.984  -3.506  0.00  0.00     0.002 A 
ATOM      6  C6  N4B d   1      -4.696  -3.195  -3.143  0.00  0.00     0.002 A 
ENDROOT
BRANCH   1   7
ATOM      7  C1' N4B d   1      -2.702  -2.720  -1.766  0.00  0.00     0.057 C 
BRANCH   7   8
ATOM      8  C2' N4B d   1      -2.648  -2.694  -0.241  0.00  0.00     0.009 C 
BRANCH   8   9
ATOM      9  C3' N4B d   1      -1.270  -3.056   0.285  0.00  0.00     0.004 C 
ATOM     10  C4' N4B d   1      -1.280  -4.288   1.139  0.00  0.00     0.003 C 
ENDBRANCH   8   9
ENDBRANCH   7   8
ENDBRANCH   1   7
TORSDOF 3
ENDMDL
