MODEL 1
REMARK minimizedAffinity 9.06799221
REMARK minimizedRMSD -1
REMARK  3 active torsions:
REMARK  status: ('A' for Active; 'I' for Inactive)
REMARK    1  A    between atoms: C3'_2  and  C2'_3 
REMARK    2  A    between atoms: C2'_3  and  C1'_4 
REMARK    3  A    between atoms: C1'_4  and  C1_5 
ROOT
ATOM      1  C1  N4B d   1      -1.901  -2.966   0.334  0.00  0.00    -0.075 A 
ATOM      2  C2  N4B d   1      -3.070  -2.972  -0.459  0.00  0.00     0.002 A 
ATOM      3  C3  N4B d   1      -2.991  -2.689  -1.800  0.00  0.00     0.002 A 
ATOM      4  C4  N4B d   1      -1.763  -2.379  -2.365  0.00  0.00    -0.004 A 
ATOM      5  C5  N4B d   1      -0.635  -2.400  -1.598  0.00  0.00     0.002 A 
ATOM      6  C6  N4B d   1      -0.699  -2.687  -0.249  0.00  0.00     0.002 A 
ENDROOT
BRANCH   1   7
ATOM      7  C1' N4B d   1      -1.949  -3.185   1.821  0.00  0.00     0.057 C 
BRANCH   7   8
ATOM      8  C2' N4B d   1      -2.109  -1.839   2.521  0.00  0.00     0.009 C 
BRANCH   8   9
ATOM      9  C3' N4B d   1      -3.482  -1.234   2.284  0.00  0.00     0.004 C 
ATOM     10  C4' N4B d   1      -3.617   0.144   2.861  0.00  0.00     0.003 C 
ENDBRANCH   8   9
ENDBRANCH   7   8
ENDBRANCH   1   7
TORSDOF 3
ENDMDL
