MODEL 1
REMARK minimizedAffinity 2.60490561
REMARK minimizedRMSD -1
REMARK  3 active torsions:
REMARK  status: ('A' for Active; 'I' for Inactive)
REMARK    1  A    between atoms: C3'_2  and  C2'_3 
REMARK    2  A    between atoms: C2'_3  and  C1'_4 
REMARK    3  A    between atoms: C1'_4  and  C1_5 
ROOT
ATOM      1  C1  N4B d   1      -2.611  -3.758   0.757  0.00  0.00    -0.075 A 
ATOM      2  C2  N4B d   1      -3.446  -4.897   0.752  0.00  0.00     0.002 A 
ATOM      3  C3  N4B d   1      -3.108  -5.999   1.497  0.00  0.00     0.002 A 
ATOM      4  C4  N4B d   1      -1.936  -5.994   2.238  0.00  0.00    -0.004 A 
ATOM      5  C5  N4B d   1      -1.148  -4.880   2.258  0.00  0.00     0.002 A 
ATOM      6  C6  N4B d   1      -1.477  -3.763   1.517  0.00  0.00     0.002 A 
ENDROOT
BRANCH   1   7
ATOM      7  C1' N4B d   1      -2.894  -2.561  -0.108  0.00  0.00     0.057 C 
BRANCH   7   8
ATOM      8  C2' N4B d   1      -1.912  -2.543  -1.276  0.00  0.00     0.009 C 
BRANCH   8   9
ATOM      9  C3' N4B d   1      -2.622  -2.597  -2.617  0.00  0.00     0.004 C 
ATOM     10  C4' N4B d   1      -3.930  -3.329  -2.553  0.00  0.00     0.003 C 
ENDBRANCH   8   9
ENDBRANCH   7   8
ENDBRANCH   1   7
TORSDOF 3
ENDMDL
