MODEL 1
REMARK minimizedAffinity 9.45106792
REMARK minimizedRMSD -1
REMARK  3 active torsions:
REMARK  status: ('A' for Active; 'I' for Inactive)
REMARK    1  A    between atoms: C3'_2  and  C2'_3 
REMARK    2  A    between atoms: C2'_3  and  C1'_4 
REMARK    3  A    between atoms: C1'_4  and  C1_5 
ROOT
ATOM      1  C1  N4B d   1       2.926   2.091   0.400  0.00  0.00    -0.075 A 
ATOM      2  C2  N4B d   1       3.046   1.620  -0.925  0.00  0.00     0.002 A 
ATOM      3  C3  N4B d   1       3.499   0.345  -1.163  0.00  0.00     0.002 A 
ATOM      4  C4  N4B d   1       3.853  -0.467  -0.095  0.00  0.00    -0.004 A 
ATOM      5  C5  N4B d   1       3.709  -0.013   1.183  0.00  0.00     0.002 A 
ATOM      6  C6  N4B d   1       3.252   1.265   1.436  0.00  0.00     0.002 A 
ENDROOT
BRANCH   1   7
ATOM      7  C1' N4B d   1       2.518   3.506   0.706  0.00  0.00     0.057 C 
BRANCH   7   8
ATOM      8  C2' N4B d   1       3.743   4.411   0.619  0.00  0.00     0.009 C 
BRANCH   8   9
ATOM      9  C3' N4B d   1       3.564   5.690   1.417  0.00  0.00     0.004 C 
ATOM     10  C4' N4B d   1       4.742   6.000   2.291  0.00  0.00     0.003 C 
ENDBRANCH   8   9
ENDBRANCH   7   8
ENDBRANCH   1   7
TORSDOF 3
ENDMDL
