MODEL 1
REMARK minimizedAffinity 10.7091713
REMARK minimizedRMSD -1
REMARK  3 active torsions:
REMARK  status: ('A' for Active; 'I' for Inactive)
REMARK    1  A    between atoms: C3'_2  and  C2'_3 
REMARK    2  A    between atoms: C2'_3  and  C1'_4 
REMARK    3  A    between atoms: C1'_4  and  C1_5 
ROOT
ATOM      1  C1  N4B d   1       0.399   1.852   2.608  0.00  0.00    -0.075 A 
ATOM      2  C2  N4B d   1       1.352   0.848   2.327  0.00  0.00     0.002 A 
ATOM      3  C3  N4B d   1       2.270   1.035   1.324  0.00  0.00     0.002 A 
ATOM      4  C4  N4B d   1       2.244   2.204   0.579  0.00  0.00    -0.004 A 
ATOM      5  C5  N4B d   1       1.337   3.180   0.873  0.00  0.00     0.002 A 
ATOM      6  C6  N4B d   1       0.411   3.007   1.882  0.00  0.00     0.002 A 
ENDROOT
BRANCH   1   7
ATOM      7  C1' N4B d   1      -0.679   1.658   3.639  0.00  0.00     0.057 C 
BRANCH   7   8
ATOM      8  C2' N4B d   1      -2.001   2.182   3.085  0.00  0.00     0.009 C 
BRANCH   8   9
ATOM      9  C3' N4B d   1      -3.194   1.631   3.847  0.00  0.00     0.004 C 
ATOM     10  C4' N4B d   1      -3.824   0.453   3.165  0.00  0.00     0.003 C 
ENDBRANCH   8   9
ENDBRANCH   7   8
ENDBRANCH   1   7
TORSDOF 3
ENDMDL
