MODEL 1
REMARK minimizedAffinity 0.925219059
REMARK minimizedRMSD -1
REMARK  3 active torsions:
REMARK  status: ('A' for Active; 'I' for Inactive)
REMARK    1  A    between atoms: C3'_2  and  C2'_3 
REMARK    2  A    between atoms: C2'_3  and  C1'_4 
REMARK    3  A    between atoms: C1'_4  and  C1_5 
ROOT
ATOM      1  C1  N4B d   1       2.830   1.251   0.569  0.00  0.00    -0.075 A 
ATOM      2  C2  N4B d   1       3.597   0.303   1.281  0.00  0.00     0.002 A 
ATOM      3  C3  N4B d   1       4.367  -0.608   0.600  0.00  0.00     0.002 A 
ATOM      4  C4  N4B d   1       4.371  -0.602  -0.787  0.00  0.00    -0.004 A 
ATOM      5  C5  N4B d   1       3.647   0.334  -1.466  0.00  0.00     0.002 A 
ATOM      6  C6  N4B d   1       2.872   1.258  -0.795  0.00  0.00     0.002 A 
ENDROOT
BRANCH   1   7
ATOM      7  C1' N4B d   1       1.906   2.211   1.268  0.00  0.00     0.057 C 
BRANCH   7   8
ATOM      8  C2' N4B d   1       0.609   1.490   1.622  0.00  0.00     0.009 C 
BRANCH   8   9
ATOM      9  C3' N4B d   1      -0.520   2.463   1.916  0.00  0.00     0.004 C 
ATOM     10  C4' N4B d   1      -1.855   1.789   2.024  0.00  0.00     0.003 C 
ENDBRANCH   8   9
ENDBRANCH   7   8
ENDBRANCH   1   7
TORSDOF 3
ENDMDL
