MODEL 1
REMARK minimizedAffinity 2.38880253
REMARK minimizedRMSD -1
REMARK  0 active torsions:
REMARK  status: ('A' for Active; 'I' for Inactive)
ROOT
ATOM      1  C2' OXE d   1      -0.545   0.364  -1.035  0.00  0.00     0.078 C 
ATOM      2  C1' OXE d   1      -0.269  -1.030   1.387  0.00  0.00     0.078 C 
ATOM      3  C1  OXE d   1      -0.108   0.469   1.416  0.00  0.00    -0.078 A 
ATOM      4  C2  OXE d   1      -0.198   1.138   0.219  0.00  0.00    -0.078 A 
ATOM      5  C3  OXE d   1      -0.112   2.528   0.197  0.00  0.00     0.003 A 
ATOM      6  C4  OXE d   1       0.218   3.235   1.359  0.00  0.00    -0.002 A 
ATOM      7  C5  OXE d   1       0.354   2.569   2.582  0.00  0.00    -0.002 A 
ATOM      8  C6  OXE d   1       0.152   1.194   2.635  0.00  0.00     0.003 A 
ENDROOT
TORSDOF 0
ENDMDL
