MODEL 1
REMARK minimizedAffinity 4.6942606
REMARK minimizedRMSD -1
REMARK  0 active torsions:
REMARK  status: ('A' for Active; 'I' for Inactive)
ROOT
ATOM      1  C2' OXE d   1      -0.520   3.776  -1.624  0.00  0.00     0.078 C 
ATOM      2  C1' OXE d   1      -1.221   1.061  -1.503  0.00  0.00     0.078 C 
ATOM      3  C1  OXE d   1      -0.600   1.682  -0.277  0.00  0.00    -0.078 A 
ATOM      4  C2  OXE d   1      -0.217   2.999  -0.361  0.00  0.00    -0.078 A 
ATOM      5  C3  OXE d   1       0.310   3.637   0.759  0.00  0.00     0.003 A 
ATOM      6  C4  OXE d   1       0.596   2.908   1.920  0.00  0.00    -0.002 A 
ATOM      7  C5  OXE d   1       0.251   1.556   2.013  0.00  0.00    -0.002 A 
ATOM      8  C6  OXE d   1      -0.385   0.940   0.940  0.00  0.00     0.003 A 
ENDROOT
TORSDOF 0
ENDMDL
