MODEL 1
REMARK minimizedAffinity 8.5901041
REMARK minimizedRMSD -1
REMARK  0 active torsions:
REMARK  status: ('A' for Active; 'I' for Inactive)
ROOT
ATOM      1  C2' OXE d   1      -1.047  -3.588  -1.791  0.00  0.00     0.078 C 
ATOM      2  C1' OXE d   1      -2.614  -1.655  -3.090  0.00  0.00     0.078 C 
ATOM      3  C1  OXE d   1      -1.277  -1.224  -2.540  0.00  0.00    -0.078 A 
ATOM      4  C2  OXE d   1      -0.538  -2.165  -1.865  0.00  0.00    -0.078 A 
ATOM      5  C3  OXE d   1       0.727  -1.835  -1.386  0.00  0.00     0.003 A 
ATOM      6  C4  OXE d   1       1.186  -0.514  -1.450  0.00  0.00    -0.002 A 
ATOM      7  C5  OXE d   1       0.431   0.470  -2.098  0.00  0.00    -0.002 A 
ATOM      8  C6  OXE d   1      -0.781   0.122  -2.685  0.00  0.00     0.003 A 
ENDROOT
TORSDOF 0
ENDMDL
