MODEL 1
REMARK minimizedAffinity 5.8527751
REMARK minimizedRMSD -1
REMARK  0 active torsions:
REMARK  status: ('A' for Active; 'I' for Inactive)
ROOT
ATOM      1  C2' OXE d   1      -0.020   1.637  -0.105  0.00  0.00     0.078 C 
ATOM      2  C1' OXE d   1      -1.323   2.333   2.282  0.00  0.00     0.078 C 
ATOM      3  C1  OXE d   1      -0.376   1.160   2.314  0.00  0.00    -0.078 A 
ATOM      4  C2  OXE d   1       0.222   0.797   1.131  0.00  0.00    -0.078 A 
ATOM      5  C3  OXE d   1       1.145  -0.244   1.115  0.00  0.00     0.003 A 
ATOM      6  C4  OXE d   1       1.355  -1.022   2.260  0.00  0.00    -0.002 A 
ATOM      7  C5  OXE d   1       0.726  -0.695   3.466  0.00  0.00    -0.002 A 
ATOM      8  C6  OXE d   1      -0.107   0.416   3.520  0.00  0.00     0.003 A 
ENDROOT
TORSDOF 0
ENDMDL
