MODEL 1
REMARK minimizedAffinity 3.64762044
REMARK minimizedRMSD -1
REMARK  0 active torsions:
REMARK  status: ('A' for Active; 'I' for Inactive)
ROOT
ATOM      1  C2' OXE d   1       0.365  -0.229   3.286  0.00  0.00     0.078 C 
ATOM      2  C1' OXE d   1       2.401   1.130   1.911  0.00  0.00     0.078 C 
ATOM      3  C1  OXE d   1       1.056   1.804   2.023  0.00  0.00    -0.078 A 
ATOM      4  C2  OXE d   1       0.053   1.112   2.657  0.00  0.00    -0.078 A 
ATOM      5  C3  OXE d   1      -1.191   1.710   2.835  0.00  0.00     0.003 A 
ATOM      6  C4  OXE d   1      -1.475   2.946   2.241  0.00  0.00    -0.002 A 
ATOM      7  C5  OXE d   1      -0.479   3.650   1.557  0.00  0.00    -0.002 A 
ATOM      8  C6  OXE d   1       0.801   3.114   1.476  0.00  0.00     0.003 A 
ENDROOT
TORSDOF 0
ENDMDL
