MODEL 1
REMARK minimizedAffinity 5.61915922
REMARK minimizedRMSD -1
REMARK  0 active torsions:
REMARK  status: ('A' for Active; 'I' for Inactive)
ROOT
ATOM      1  C2' OXE d   1       1.625  -1.739  -0.220  0.00  0.00     0.078 C 
ATOM      2  C1' OXE d   1      -0.029   0.366  -1.063  0.00  0.00     0.078 C 
ATOM      3  C1  OXE d   1       0.257   0.245   0.413  0.00  0.00    -0.078 A 
ATOM      4  C2  OXE d   1       1.030  -0.816   0.822  0.00  0.00    -0.078 A 
ATOM      5  C3  OXE d   1       1.370  -0.943   2.165  0.00  0.00     0.003 A 
ATOM      6  C4  OXE d   1       0.807  -0.091   3.123  0.00  0.00    -0.002 A 
ATOM      7  C5  OXE d   1      -0.015   0.972   2.732  0.00  0.00    -0.002 A 
ATOM      8  C6  OXE d   1      -0.264   1.179   1.380  0.00  0.00     0.003 A 
ENDROOT
TORSDOF 0
ENDMDL
