MODEL 1
REMARK minimizedAffinity 1.11923313
REMARK minimizedRMSD -1
REMARK  0 active torsions:
REMARK  status: ('A' for Active; 'I' for Inactive)
ROOT
ATOM      1  C2' OXE d   1       1.065   3.004   0.453  0.00  0.00     0.078 C 
ATOM      2  C1' OXE d   1       0.603   0.550  -0.830  0.00  0.00     0.078 C 
ATOM      3  C1  OXE d   1       0.507   0.586   0.675  0.00  0.00    -0.078 A 
ATOM      4  C2  OXE d   1       0.781   1.781   1.297  0.00  0.00    -0.078 A 
ATOM      5  C3  OXE d   1       0.653   1.883   2.680  0.00  0.00     0.003 A 
ATOM      6  C4  OXE d   1       0.399   0.744   3.454  0.00  0.00    -0.002 A 
ATOM      7  C5  OXE d   1       0.157  -0.491   2.843  0.00  0.00    -0.002 A 
ATOM      8  C6  OXE d   1       0.165  -0.577   1.455  0.00  0.00     0.003 A 
ENDROOT
TORSDOF 0
ENDMDL
