MODEL 1
REMARK minimizedAffinity 4.15266562
REMARK minimizedRMSD -1
REMARK  0 active torsions:
REMARK  status: ('A' for Active; 'I' for Inactive)
ROOT
ATOM      1  C2' OXE d   1      -0.425   1.155  -1.322  0.00  0.00     0.078 C 
ATOM      2  C1' OXE d   1      -3.138   1.868  -1.450  0.00  0.00     0.078 C 
ATOM      3  C1  OXE d   1      -2.674   0.707  -2.295  0.00  0.00    -0.078 A 
ATOM      4  C2  OXE d   1      -1.337   0.395  -2.261  0.00  0.00    -0.078 A 
ATOM      5  C3  OXE d   1      -0.866  -0.701  -2.979  0.00  0.00     0.003 A 
ATOM      6  C4  OXE d   1      -1.713  -1.392  -3.853  0.00  0.00    -0.002 A 
ATOM      7  C5  OXE d   1      -3.071  -1.065  -3.932  0.00  0.00    -0.002 A 
ATOM      8  C6  OXE d   1      -3.575  -0.048  -3.130  0.00  0.00     0.003 A 
ENDROOT
TORSDOF 0
ENDMDL
