MODEL 1
REMARK minimizedAffinity 5.03766251
REMARK minimizedRMSD -1
REMARK  0 active torsions:
REMARK  status: ('A' for Active; 'I' for Inactive)
ROOT
ATOM      1  C2' OXE d   1       0.085   0.270  -0.444  0.00  0.00     0.078 C 
ATOM      2  C1' OXE d   1       0.308  -0.705   2.179  0.00  0.00     0.078 C 
ATOM      3  C1  OXE d   1       0.400   0.787   1.972  0.00  0.00    -0.078 A 
ATOM      4  C2  OXE d   1       0.336   1.251   0.681  0.00  0.00    -0.078 A 
ATOM      5  C3  OXE d   1       0.361   2.622   0.439  0.00  0.00     0.003 A 
ATOM      6  C4  OXE d   1       0.604   3.521   1.484  0.00  0.00    -0.002 A 
ATOM      7  C5  OXE d   1       0.711   3.066   2.802  0.00  0.00    -0.002 A 
ATOM      8  C6  OXE d   1       0.569   1.709   3.068  0.00  0.00     0.003 A 
ENDROOT
TORSDOF 0
ENDMDL
