MODEL 1
REMARK minimizedAffinity -2.1850822
REMARK minimizedRMSD -1
REMARK  1 active torsions:
REMARK  status: ('A' for Active; 'I' for Inactive)
REMARK    1  A    between atoms: C1_2  and  C2_3 
ROOT
ATOM      1  C2  UNL d   1       0.231   0.296  -0.476  0.00  0.00    -0.076 A 
ATOM      2  C3  UNL d   1       0.154  -0.625   0.584  0.00  0.00     0.004 A 
ATOM      3  C4  UNL d   1      -0.823  -1.619   0.601  0.00  0.00    -0.003 A 
ATOM      4  C5  UNL d   1      -1.738  -1.709  -0.442  0.00  0.00     0.000 A 
ATOM      5  C6  UNL d   1      -1.665  -0.816  -1.510  0.00  0.00     0.000 A 
ATOM      6  C7  UNL d   1      -0.676   0.182  -1.551  0.00  0.00    -0.073 A 
ATOM      7  C8  UNL d   1      -0.648   1.123  -2.725  0.00  0.00     0.078 C 
ENDROOT
BRANCH   1   8
ATOM      8  C1  UNL d   1       1.295   1.369  -0.428  0.00  0.00     0.053 C 
ATOM      9  C   UNL d   1       1.887   1.540   0.963  0.00  0.00     0.018 C 
ENDBRANCH   1   8
TORSDOF 1
ENDMDL
