MODEL 1
REMARK minimizedAffinity -2.69929862
REMARK minimizedRMSD -1
REMARK  1 active torsions:
REMARK  status: ('A' for Active; 'I' for Inactive)
REMARK    1  A    between atoms: C1_2  and  C2_3 
ROOT
ATOM      1  C2  UNL d   1      -0.830  -1.379   0.090  0.00  0.00    -0.076 A 
ATOM      2  C3  UNL d   1      -2.041  -1.340  -0.624  0.00  0.00     0.004 A 
ATOM      3  C4  UNL d   1      -2.204  -0.487  -1.714  0.00  0.00    -0.003 A 
ATOM      4  C5  UNL d   1      -1.158   0.340  -2.109  0.00  0.00     0.000 A 
ATOM      5  C6  UNL d   1       0.055   0.302  -1.423  0.00  0.00     0.000 A 
ATOM      6  C7  UNL d   1       0.241  -0.564  -0.332  0.00  0.00    -0.073 A 
ATOM      7  C8  UNL d   1       1.569  -0.560   0.374  0.00  0.00     0.078 C 
ENDROOT
BRANCH   1   8
ATOM      8  C1  UNL d   1      -0.721  -2.305   1.281  0.00  0.00     0.053 C 
ATOM      9  C   UNL d   1      -1.721  -3.449   1.223  0.00  0.00     0.018 C 
ENDBRANCH   1   8
TORSDOF 1
ENDMDL
