MODEL 1
REMARK minimizedAffinity -3.86731958
REMARK minimizedRMSD -1
REMARK  1 active torsions:
REMARK  status: ('A' for Active; 'I' for Inactive)
REMARK    1  A    between atoms: C1_2  and  C2_3 
ROOT
ATOM      1  C2  UNL d   1      -0.824  -1.580   0.125  0.00  0.00    -0.076 A 
ATOM      2  C3  UNL d   1      -2.031  -1.361  -0.561  0.00  0.00     0.004 A 
ATOM      3  C4  UNL d   1      -2.147  -0.337  -1.500  0.00  0.00    -0.003 A 
ATOM      4  C5  UNL d   1      -1.057   0.484  -1.768  0.00  0.00     0.000 A 
ATOM      5  C6  UNL d   1       0.154   0.269  -1.110  0.00  0.00     0.000 A 
ATOM      6  C7  UNL d   1       0.292  -0.769  -0.173  0.00  0.00    -0.073 A 
ATOM      7  C8  UNL d   1       1.619  -0.952   0.512  0.00  0.00     0.078 C 
ENDROOT
BRANCH   1   8
ATOM      8  C1  UNL d   1      -0.766  -2.689   1.152  0.00  0.00     0.053 C 
ATOM      9  C   UNL d   1      -1.849  -3.736   0.940  0.00  0.00     0.018 C 
ENDBRANCH   1   8
TORSDOF 1
ENDMDL
