MODEL 1
REMARK minimizedAffinity -3.27324915
REMARK minimizedRMSD -1
REMARK  1 active torsions:
REMARK  status: ('A' for Active; 'I' for Inactive)
REMARK    1  A    between atoms: C1_2  and  C2_3 
ROOT
ATOM      1  C2  UNL d   1      -0.625  -0.357   0.044  0.00  0.00    -0.076 A 
ATOM      2  C3  UNL d   1      -0.805  -1.172   1.175  0.00  0.00     0.004 A 
ATOM      3  C4  UNL d   1      -1.773  -2.176   1.189  0.00  0.00    -0.003 A 
ATOM      4  C5  UNL d   1      -2.575  -2.381   0.072  0.00  0.00     0.000 A 
ATOM      5  C6  UNL d   1      -2.397  -1.593  -1.065  0.00  0.00     0.000 A 
ATOM      6  C7  UNL d   1      -1.416  -0.588  -1.101  0.00  0.00    -0.073 A 
ATOM      7  C8  UNL d   1      -1.272   0.236  -2.352  0.00  0.00     0.078 C 
ENDROOT
BRANCH   1   8
ATOM      8  C1  UNL d   1       0.422   0.733   0.097  0.00  0.00     0.053 C 
ATOM      9  C   UNL d   1       1.765   0.228   0.602  0.00  0.00     0.018 C 
ENDBRANCH   1   8
TORSDOF 1
ENDMDL
