MODEL 1
REMARK minimizedAffinity -1.79057872
REMARK minimizedRMSD -1
REMARK  1 active torsions:
REMARK  status: ('A' for Active; 'I' for Inactive)
REMARK    1  A    between atoms: C1_2  and  C2_3 
ROOT
ATOM      1  C2  UNL d   1      -0.722  -0.805   0.007  0.00  0.00    -0.076 A 
ATOM      2  C3  UNL d   1      -0.391  -1.690   1.048  0.00  0.00     0.004 A 
ATOM      3  C4  UNL d   1      -1.083  -2.887   1.219  0.00  0.00    -0.003 A 
ATOM      4  C5  UNL d   1      -2.118  -3.220   0.352  0.00  0.00     0.000 A 
ATOM      5  C6  UNL d   1      -2.448  -2.363  -0.697  0.00  0.00     0.000 A 
ATOM      6  C7  UNL d   1      -1.749  -1.159  -0.894  0.00  0.00    -0.073 A 
ATOM      7  C8  UNL d   1      -2.152  -0.269  -2.038  0.00  0.00     0.078 C 
ENDROOT
BRANCH   1   8
ATOM      8  C1  UNL d   1       0.046   0.492  -0.113  0.00  0.00     0.053 C 
ATOM      9  C   UNL d   1       1.552   0.285  -0.056  0.00  0.00     0.018 C 
ENDBRANCH   1   8
TORSDOF 1
ENDMDL
