MODEL 1
REMARK minimizedAffinity -3.51485825
REMARK minimizedRMSD -1
REMARK  1 active torsions:
REMARK  status: ('A' for Active; 'I' for Inactive)
REMARK    1  A    between atoms: C1_2  and  C2_3 
ROOT
ATOM      1  C2  UNL d   1      -0.415  -1.044   0.106  0.00  0.00    -0.076 A 
ATOM      2  C3  UNL d   1      -0.413  -2.167   0.951  0.00  0.00     0.004 A 
ATOM      3  C4  UNL d   1      -1.457  -3.090   0.920  0.00  0.00    -0.003 A 
ATOM      4  C5  UNL d   1      -2.520  -2.905   0.043  0.00  0.00     0.000 A 
ATOM      5  C6  UNL d   1      -2.529  -1.806  -0.816  0.00  0.00     0.000 A 
ATOM      6  C7  UNL d   1      -1.476  -0.875  -0.809  0.00  0.00    -0.073 A 
ATOM      7  C8  UNL d   1      -1.541   0.295  -1.752  0.00  0.00     0.078 C 
ENDROOT
BRANCH   1   8
ATOM      8  C1  UNL d   1       0.731  -0.063   0.203  0.00  0.00     0.053 C 
ATOM      9  C   UNL d   1       2.088  -0.751   0.218  0.00  0.00     0.018 C 
ENDBRANCH   1   8
TORSDOF 1
ENDMDL
