MODEL 1
REMARK minimizedAffinity -4.10344362
REMARK minimizedRMSD -1
REMARK  1 active torsions:
REMARK  status: ('A' for Active; 'I' for Inactive)
REMARK    1  A    between atoms: C1_2  and  C2_3 
ROOT
ATOM      1  C2  UNL d   1      -0.295  -1.131   0.002  0.00  0.00    -0.076 A 
ATOM      2  C3  UNL d   1      -0.272  -2.176   0.942  0.00  0.00     0.004 A 
ATOM      3  C4  UNL d   1      -1.270  -3.149   0.958  0.00  0.00    -0.003 A 
ATOM      4  C5  UNL d   1      -2.306  -3.094   0.032  0.00  0.00     0.000 A 
ATOM      5  C6  UNL d   1      -2.336  -2.075  -0.919  0.00  0.00     0.000 A 
ATOM      6  C7  UNL d   1      -1.329  -1.095  -0.958  0.00  0.00    -0.073 A 
ATOM      7  C8  UNL d   1      -1.413  -0.015  -2.001  0.00  0.00     0.078 C 
ENDROOT
BRANCH   1   8
ATOM      8  C1  UNL d   1       0.799  -0.089   0.051  0.00  0.00     0.053 C 
ATOM      9  C   UNL d   1       2.125  -0.658   0.529  0.00  0.00     0.018 C 
ENDBRANCH   1   8
TORSDOF 1
ENDMDL
