MODEL 1
REMARK minimizedAffinity 0.106599815
REMARK minimizedRMSD -1
REMARK  1 active torsions:
REMARK  status: ('A' for Active; 'I' for Inactive)
REMARK    1  A    between atoms: C1_2  and  C2_3 
ROOT
ATOM      1  C2  UNL d   1       0.202   0.089  -0.278  0.00  0.00    -0.076 A 
ATOM      2  C3  UNL d   1      -0.321   0.845  -1.342  0.00  0.00     0.004 A 
ATOM      3  C4  UNL d   1      -1.508   0.473  -1.970  0.00  0.00    -0.003 A 
ATOM      4  C5  UNL d   1      -2.191  -0.661  -1.545  0.00  0.00     0.000 A 
ATOM      5  C6  UNL d   1      -1.696  -1.413  -0.480  0.00  0.00     0.000 A 
ATOM      6  C7  UNL d   1      -0.509  -1.042   0.175  0.00  0.00    -0.073 A 
ATOM      7  C8  UNL d   1      -0.018  -1.893   1.314  0.00  0.00     0.078 C 
ENDROOT
BRANCH   1   8
ATOM      8  C1  UNL d   1       1.508   0.526   0.347  0.00  0.00     0.053 C 
ATOM      9  C   UNL d   1       1.378   1.834   1.113  0.00  0.00     0.018 C 
ENDBRANCH   1   8
TORSDOF 1
ENDMDL
