MODEL 1
REMARK minimizedAffinity -2.54405236
REMARK minimizedRMSD -1
REMARK  1 active torsions:
REMARK  status: ('A' for Active; 'I' for Inactive)
REMARK    1  A    between atoms: C1_2  and  C2_3 
ROOT
ATOM      1  C2  UNL d   1       0.732   1.283  -0.133  0.00  0.00    -0.076 A 
ATOM      2  C3  UNL d   1      -0.211   2.292  -0.394  0.00  0.00     0.004 A 
ATOM      3  C4  UNL d   1      -1.494   1.977  -0.839  0.00  0.00    -0.003 A 
ATOM      4  C5  UNL d   1      -1.854   0.648  -1.031  0.00  0.00     0.000 A 
ATOM      5  C6  UNL d   1      -0.937  -0.367  -0.760  0.00  0.00     0.000 A 
ATOM      6  C7  UNL d   1       0.355  -0.068  -0.294  0.00  0.00    -0.073 A 
ATOM      7  C8  UNL d   1       1.306  -1.202  -0.024  0.00  0.00     0.078 C 
ENDROOT
BRANCH   1   8
ATOM      8  C1  UNL d   1       2.116   1.685   0.322  0.00  0.00     0.053 C 
ATOM      9  C   UNL d   1       2.115   2.987   1.109  0.00  0.00     0.018 C 
ENDBRANCH   1   8
TORSDOF 1
ENDMDL
