MODEL 1
REMARK minimizedAffinity -5.4293313
REMARK minimizedRMSD -1
REMARK  1 active torsions:
REMARK  status: ('A' for Active; 'I' for Inactive)
REMARK    1  A    between atoms: C1_2  and  C2_3 
ROOT
ATOM      1  C2  UNL d   1       0.414   0.631   0.538  0.00  0.00    -0.076 A 
ATOM      2  C3  UNL d   1      -0.588   1.573   0.248  0.00  0.00     0.004 A 
ATOM      3  C4  UNL d   1      -1.934   1.213   0.248  0.00  0.00    -0.003 A 
ATOM      4  C5  UNL d   1      -2.301  -0.097   0.540  0.00  0.00     0.000 A 
ATOM      5  C6  UNL d   1      -1.322  -1.040   0.848  0.00  0.00     0.000 A 
ATOM      6  C7  UNL d   1       0.039  -0.689   0.868  0.00  0.00    -0.073 A 
ATOM      7  C8  UNL d   1       1.053  -1.749   1.201  0.00  0.00     0.078 C 
ENDROOT
BRANCH   1   8
ATOM      8  C1  UNL d   1       1.859   1.074   0.496  0.00  0.00     0.053 C 
ATOM      9  C   UNL d   1       2.099   2.354   1.282  0.00  0.00     0.018 C 
ENDBRANCH   1   8
TORSDOF 1
ENDMDL
