MODEL 1
REMARK minimizedAffinity 0.630276501
REMARK minimizedRMSD -1
REMARK  1 active torsions:
REMARK  status: ('A' for Active; 'I' for Inactive)
REMARK    1  A    between atoms: C1_2  and  C2_3 
ROOT
ATOM      1  C2  UNL d   1       0.183   0.359  -0.797  0.00  0.00    -0.076 A 
ATOM      2  C3  UNL d   1      -0.160  -0.393   0.339  0.00  0.00     0.004 A 
ATOM      3  C4  UNL d   1      -1.337  -1.139   0.378  0.00  0.00    -0.003 A 
ATOM      4  C5  UNL d   1      -2.190  -1.145  -0.721  0.00  0.00     0.000 A 
ATOM      5  C6  UNL d   1      -1.856  -0.419  -1.864  0.00  0.00     0.000 A 
ATOM      6  C7  UNL d   1      -0.666   0.325  -1.925  0.00  0.00    -0.073 A 
ATOM      7  C8  UNL d   1      -0.359   1.095  -3.180  0.00  0.00     0.078 C 
ENDROOT
BRANCH   1   8
ATOM      8  C1  UNL d   1       1.459   1.170  -0.771  0.00  0.00     0.053 C 
ATOM      9  C   UNL d   1       1.687   1.854   0.568  0.00  0.00     0.018 C 
ENDBRANCH   1   8
TORSDOF 1
ENDMDL
