MODEL 1
REMARK minimizedAffinity -4.10930634
REMARK minimizedRMSD -1
REMARK  1 active torsions:
REMARK  status: ('A' for Active; 'I' for Inactive)
REMARK    1  A    between atoms: C1_2  and  C2_3 
ROOT
ATOM      1  C2  UNL d   1      -0.266   0.320   0.358  0.00  0.00    -0.076 A 
ATOM      2  C3  UNL d   1      -1.158   0.425   1.440  0.00  0.00     0.004 A 
ATOM      3  C4  UNL d   1      -2.494   0.051   1.307  0.00  0.00    -0.003 A 
ATOM      4  C5  UNL d   1      -2.960  -0.435   0.091  0.00  0.00     0.000 A 
ATOM      5  C6  UNL d   1      -2.086  -0.563  -0.988  0.00  0.00     0.000 A 
ATOM      6  C7  UNL d   1      -0.732  -0.206  -0.866  0.00  0.00    -0.073 A 
ATOM      7  C8  UNL d   1       0.165  -0.359  -2.064  0.00  0.00     0.078 C 
ENDROOT
BRANCH   1   8
ATOM      8  C1  UNL d   1       1.165   0.766   0.553  0.00  0.00     0.053 C 
ATOM      9  C   UNL d   1       1.340   1.641   1.785  0.00  0.00     0.018 C 
ENDBRANCH   1   8
TORSDOF 1
ENDMDL
