MODEL 1
REMARK minimizedAffinity -3.1576798
REMARK minimizedRMSD -1
REMARK  0 active torsions:
REMARK  status: ('A' for Active; 'I' for Inactive)
ROOT
ATOM      1  C1  BNZ d   1       0.305  -1.198  -0.237  0.00  0.00     0.000 A 
ATOM      2  C2  BNZ d   1       1.418  -1.990  -0.350  0.00  0.00     0.000 A 
ATOM      3  C3  BNZ d   1       2.669  -1.464  -0.190  0.00  0.00     0.000 A 
ATOM      4  C4  BNZ d   1       2.809  -0.143   0.042  0.00  0.00     0.000 A 
ATOM      5  C5  BNZ d   1       1.698   0.669   0.150  0.00  0.00     0.000 A 
ATOM      6  C6  BNZ d   1       0.438   0.130   0.027  0.00  0.00     0.000 A 
ENDROOT
TORSDOF 0
ENDMDL
