MODEL 1
REMARK minimizedAffinity -2.6601665
REMARK minimizedRMSD -1
REMARK  0 active torsions:
REMARK  status: ('A' for Active; 'I' for Inactive)
ROOT
ATOM      1  C1  BNZ d   1      -3.507   1.489   1.851  0.00  0.00     0.000 A 
ATOM      2  C2  BNZ d   1      -2.139   1.455   1.804  0.00  0.00     0.000 A 
ATOM      3  C3  BNZ d   1      -1.486   1.131   0.648  0.00  0.00     0.000 A 
ATOM      4  C4  BNZ d   1      -2.200   0.802  -0.447  0.00  0.00     0.000 A 
ATOM      5  C5  BNZ d   1      -3.580   0.823  -0.414  0.00  0.00     0.000 A 
ATOM      6  C6  BNZ d   1      -4.234   1.187   0.740  0.00  0.00     0.000 A 
ENDROOT
TORSDOF 0
ENDMDL
