MODEL 1
REMARK minimizedAffinity -0.0381119214
REMARK minimizedRMSD -1
REMARK  0 active torsions:
REMARK  status: ('A' for Active; 'I' for Inactive)
ROOT
ATOM      1  C1  BNZ d   1       3.096  -1.719   1.310  0.00  0.00     0.000 A 
ATOM      2  C2  BNZ d   1       3.460  -0.479   1.761  0.00  0.00     0.000 A 
ATOM      3  C3  BNZ d   1       2.984   0.652   1.158  0.00  0.00     0.000 A 
ATOM      4  C4  BNZ d   1       2.179   0.542   0.082  0.00  0.00     0.000 A 
ATOM      5  C5  BNZ d   1       1.811  -0.702  -0.391  0.00  0.00     0.000 A 
ATOM      6  C6  BNZ d   1       2.260  -1.838   0.243  0.00  0.00     0.000 A 
ENDROOT
TORSDOF 0
ENDMDL
