MODEL 1
REMARK minimizedAffinity -4.13698864
REMARK minimizedRMSD -1
REMARK  0 active torsions:
REMARK  status: ('A' for Active; 'I' for Inactive)
ROOT
ATOM      1  C1  BNZ d   1      -0.066  -1.197  -0.898  0.00  0.00     0.000 A 
ATOM      2  C2  BNZ d   1       1.102  -1.417  -0.217  0.00  0.00     0.000 A 
ATOM      3  C3  BNZ d   1       1.714  -0.405   0.468  0.00  0.00     0.000 A 
ATOM      4  C4  BNZ d   1       1.181   0.833   0.438  0.00  0.00     0.000 A 
ATOM      5  C5  BNZ d   1       0.009   1.073  -0.252  0.00  0.00     0.000 A 
ATOM      6  C6  BNZ d   1      -0.625   0.043  -0.909  0.00  0.00     0.000 A 
ENDROOT
TORSDOF 0
ENDMDL
