MODEL 1
REMARK minimizedAffinity -1.70529079
REMARK minimizedRMSD -1
REMARK  0 active torsions:
REMARK  status: ('A' for Active; 'I' for Inactive)
ROOT
ATOM      1  C1  BNZ d   1      -0.740   0.146  -0.360  0.00  0.00     0.000 A 
ATOM      2  C2  BNZ d   1      -0.688   1.513  -0.417  0.00  0.00     0.000 A 
ATOM      3  C3  BNZ d   1       0.495   2.176  -0.246  0.00  0.00     0.000 A 
ATOM      4  C4  BNZ d   1       1.615   1.475   0.021  0.00  0.00     0.000 A 
ATOM      5  C5  BNZ d   1       1.577   0.096   0.090  0.00  0.00     0.000 A 
ATOM      6  C6  BNZ d   1       0.392  -0.570  -0.121  0.00  0.00     0.000 A 
ENDROOT
TORSDOF 0
ENDMDL
