MODEL 1
REMARK minimizedAffinity -3.60098863
REMARK minimizedRMSD -1
REMARK  0 active torsions:
REMARK  status: ('A' for Active; 'I' for Inactive)
ROOT
ATOM      1  C1  BNZ d   1       0.931  -0.690   0.008  0.00  0.00     0.000 A 
ATOM      2  C2  BNZ d   1       1.498   0.557   0.000  0.00  0.00     0.000 A 
ATOM      3  C3  BNZ d   1       0.784   1.648  -0.408  0.00  0.00     0.000 A 
ATOM      4  C4  BNZ d   1      -0.481   1.486  -0.846  0.00  0.00     0.000 A 
ATOM      5  C5  BNZ d   1      -1.064   0.235  -0.854  0.00  0.00     0.000 A 
ATOM      6  C6  BNZ d   1      -0.355  -0.856  -0.405  0.00  0.00     0.000 A 
ENDROOT
TORSDOF 0
ENDMDL
