MODEL 1
REMARK minimizedAffinity -3.48474193
REMARK minimizedRMSD -1
REMARK  0 active torsions:
REMARK  status: ('A' for Active; 'I' for Inactive)
ROOT
ATOM      1  C1  BNZ d   1       1.345  -1.741  -0.263  0.00  0.00     0.000 A 
ATOM      2  C2  BNZ d   1       2.306  -1.230   0.568  0.00  0.00     0.000 A 
ATOM      3  C3  BNZ d   1       2.176   0.022   1.102  0.00  0.00     0.000 A 
ATOM      4  C4  BNZ d   1       1.107   0.775   0.772  0.00  0.00     0.000 A 
ATOM      5  C5  BNZ d   1       0.135   0.278  -0.073  0.00  0.00     0.000 A 
ATOM      6  C6  BNZ d   1       0.250  -0.997  -0.577  0.00  0.00     0.000 A 
ENDROOT
TORSDOF 0
ENDMDL
