MODEL 1
REMARK minimizedAffinity -3.15126991
REMARK minimizedRMSD -1
REMARK  0 active torsions:
REMARK  status: ('A' for Active; 'I' for Inactive)
ROOT
ATOM      1  C1  BNZ d   1       1.393  -1.775  -0.639  0.00  0.00     0.000 A 
ATOM      2  C2  BNZ d   1       0.373  -1.037  -1.177  0.00  0.00     0.000 A 
ATOM      3  C3  BNZ d   1      -0.059   0.109  -0.569  0.00  0.00     0.000 A 
ATOM      4  C4  BNZ d   1       0.501   0.493   0.596  0.00  0.00     0.000 A 
ATOM      5  C5  BNZ d   1       1.524  -0.246   1.157  0.00  0.00     0.000 A 
ATOM      6  C6  BNZ d   1       1.983  -1.377   0.522  0.00  0.00     0.000 A 
ENDROOT
TORSDOF 0
ENDMDL
