MODEL 1
REMARK minimizedAffinity -4.35797882
REMARK minimizedRMSD -1
REMARK  0 active torsions:
REMARK  status: ('A' for Active; 'I' for Inactive)
ROOT
ATOM      1  C1  BNZ d   1       0.464   0.067   0.295  0.00  0.00     0.000 A 
ATOM      2  C2  BNZ d   1       1.453   0.872   0.793  0.00  0.00     0.000 A 
ATOM      3  C3  BNZ d   1       2.743   0.425   0.877  0.00  0.00     0.000 A 
ATOM      4  C4  BNZ d   1       3.033  -0.837   0.501  0.00  0.00     0.000 A 
ATOM      5  C5  BNZ d   1       2.044  -1.664   0.006  0.00  0.00     0.000 A 
ATOM      6  C6  BNZ d   1       0.755  -1.198  -0.113  0.00  0.00     0.000 A 
ENDROOT
TORSDOF 0
ENDMDL
