MODEL 1
REMARK minimizedAffinity -3.1050508
REMARK minimizedRMSD -1
REMARK  1 active torsions:
REMARK  status: ('A' for Active; 'I' for Inactive)
REMARK    1  A    between atoms: C1_2  and  C2_3 
ROOT
ATOM      1  C2  UNL d   1      -0.056   0.116  -0.008  0.00  0.00    -0.076 A 
ATOM      2  C3  UNL d   1       0.978   0.787   0.666  0.00  0.00     0.004 A 
ATOM      3  C4  UNL d   1       0.761   1.371   1.913  0.00  0.00    -0.003 A 
ATOM      4  C5  UNL d   1      -0.494   1.293   2.506  0.00  0.00     0.000 A 
ATOM      5  C6  UNL d   1      -1.527   0.616   1.859  0.00  0.00     0.000 A 
ATOM      6  C7  UNL d   1      -1.321   0.008   0.609  0.00  0.00    -0.073 A 
ATOM      7  C8  UNL d   1      -2.472  -0.704  -0.046  0.00  0.00     0.078 C 
ENDROOT
BRANCH   1   8
ATOM      8  C1  UNL d   1       0.231  -0.474  -1.370  0.00  0.00     0.053 C 
ATOM      9  C   UNL d   1       0.693   0.572  -2.373  0.00  0.00     0.018 C 
ENDBRANCH   1   8
TORSDOF 1
ENDMDL
