MODEL 1
REMARK minimizedAffinity -3.4907546
REMARK minimizedRMSD -1
REMARK  1 active torsions:
REMARK  status: ('A' for Active; 'I' for Inactive)
REMARK    1  A    between atoms: C1_2  and  C2_3 
ROOT
ATOM      1  C2  UNL d   1       0.260  -0.137   0.139  0.00  0.00    -0.076 A 
ATOM      2  C3  UNL d   1       1.220   0.454   0.979  0.00  0.00     0.004 A 
ATOM      3  C4  UNL d   1       0.839   1.289   2.028  0.00  0.00    -0.003 A 
ATOM      4  C5  UNL d   1      -0.508   1.546   2.255  0.00  0.00     0.000 A 
ATOM      5  C6  UNL d   1      -1.475   0.954   1.443  0.00  0.00     0.000 A 
ATOM      6  C7  UNL d   1      -1.109   0.096   0.391  0.00  0.00    -0.073 A 
ATOM      7  C8  UNL d   1      -2.193  -0.510  -0.457  0.00  0.00     0.078 C 
ENDROOT
BRANCH   1   8
ATOM      8  C1  UNL d   1       0.734  -1.012  -0.999  0.00  0.00     0.053 C 
ATOM      9  C   UNL d   1       0.953  -0.229  -2.284  0.00  0.00     0.018 C 
ENDBRANCH   1   8
TORSDOF 1
ENDMDL
