MODEL 1
REMARK minimizedAffinity 0.452942044
REMARK minimizedRMSD -1
REMARK  1 active torsions:
REMARK  status: ('A' for Active; 'I' for Inactive)
REMARK    1  A    between atoms: C1_2  and  C2_3 
ROOT
ATOM      1  C2  UNL d   1      -0.491  -0.124   0.041  0.00  0.00    -0.076 A 
ATOM      2  C3  UNL d   1      -1.827   0.198   0.339  0.00  0.00     0.004 A 
ATOM      3  C4  UNL d   1      -2.254   0.339   1.658  0.00  0.00    -0.003 A 
ATOM      4  C5  UNL d   1      -1.352   0.161   2.701  0.00  0.00     0.000 A 
ATOM      5  C6  UNL d   1      -0.020  -0.142   2.424  0.00  0.00     0.000 A 
ATOM      6  C7  UNL d   1       0.431  -0.271   1.099  0.00  0.00    -0.073 A 
ATOM      7  C8  UNL d   1       1.878  -0.605   0.858  0.00  0.00     0.078 C 
ENDROOT
BRANCH   1   8
ATOM      8  C1  UNL d   1      -0.092  -0.291  -1.408  0.00  0.00     0.053 C 
ATOM      9  C   UNL d   1       0.371   1.013  -2.038  0.00  0.00     0.018 C 
ENDBRANCH   1   8
TORSDOF 1
ENDMDL
