MODEL 1
REMARK minimizedAffinity -3.27189112
REMARK minimizedRMSD -1
REMARK  1 active torsions:
REMARK  status: ('A' for Active; 'I' for Inactive)
REMARK    1  A    between atoms: C1_2  and  C2_3 
ROOT
ATOM      1  C2  UNL d   1       0.084  -0.448   0.572  0.00  0.00    -0.076 A 
ATOM      2  C3  UNL d   1      -1.031   0.189   1.144  0.00  0.00     0.004 A 
ATOM      3  C4  UNL d   1      -1.059   0.505   2.502  0.00  0.00    -0.003 A 
ATOM      4  C5  UNL d   1       0.028   0.190   3.309  0.00  0.00     0.000 A 
ATOM      5  C6  UNL d   1       1.150  -0.426   2.755  0.00  0.00     0.000 A 
ATOM      6  C7  UNL d   1       1.201  -0.737   1.385  0.00  0.00    -0.073 A 
ATOM      7  C8  UNL d   1       2.433  -1.407   0.841  0.00  0.00     0.078 C 
ENDROOT
BRANCH   1   8
ATOM      8  C1  UNL d   1       0.045  -0.790  -0.900  0.00  0.00     0.053 C 
ATOM      9  C   UNL d   1       0.815   0.208  -1.751  0.00  0.00     0.018 C 
ENDBRANCH   1   8
TORSDOF 1
ENDMDL
