MODEL 1
REMARK minimizedAffinity -3.57061338
REMARK minimizedRMSD -1
REMARK  1 active torsions:
REMARK  status: ('A' for Active; 'I' for Inactive)
REMARK    1  A    between atoms: C1_2  and  C2_3 
ROOT
ATOM      1  C2  UNL d   1      -0.030   0.312  -0.998  0.00  0.00    -0.076 A 
ATOM      2  C3  UNL d   1      -0.930   1.370  -0.788  0.00  0.00     0.004 A 
ATOM      3  C4  UNL d   1      -1.396   1.673   0.491  0.00  0.00    -0.003 A 
ATOM      4  C5  UNL d   1      -0.967   0.923   1.580  0.00  0.00     0.000 A 
ATOM      5  C6  UNL d   1      -0.060  -0.119   1.393  0.00  0.00     0.000 A 
ATOM      6  C7  UNL d   1       0.431  -0.428   0.112  0.00  0.00    -0.073 A 
ATOM      7  C8  UNL d   1       1.403  -1.566  -0.033  0.00  0.00     0.078 C 
ENDROOT
BRANCH   1   8
ATOM      8  C1  UNL d   1       0.419   0.012  -2.410  0.00  0.00     0.053 C 
ATOM      9  C   UNL d   1       1.289   1.116  -2.992  0.00  0.00     0.018 C 
ENDBRANCH   1   8
TORSDOF 1
ENDMDL
