MODEL 1
REMARK minimizedAffinity -5.45052958
REMARK minimizedRMSD -1
REMARK  1 active torsions:
REMARK  status: ('A' for Active; 'I' for Inactive)
REMARK    1  A    between atoms: C1_2  and  C2_3 
ROOT
ATOM      1  C2  UNL d   1      -0.379  -0.580  -0.508  0.00  0.00    -0.076 A 
ATOM      2  C3  UNL d   1      -1.627   0.061  -0.593  0.00  0.00     0.004 A 
ATOM      3  C4  UNL d   1      -2.299   0.477   0.554  0.00  0.00    -0.003 A 
ATOM      4  C5  UNL d   1      -1.734   0.260   1.806  0.00  0.00     0.000 A 
ATOM      5  C6  UNL d   1      -0.488  -0.358   1.908  0.00  0.00     0.000 A 
ATOM      6  C7  UNL d   1       0.210  -0.770   0.760  0.00  0.00    -0.073 A 
ATOM      7  C8  UNL d   1       1.547  -1.437   0.929  0.00  0.00     0.078 C 
ENDROOT
BRANCH   1   8
ATOM      8  C1  UNL d   1       0.291  -1.034  -1.786  0.00  0.00     0.053 C 
ATOM      9  C   UNL d   1       0.997   0.102  -2.509  0.00  0.00     0.018 C 
ENDBRANCH   1   8
TORSDOF 1
ENDMDL
