MODEL 1
REMARK minimizedAffinity -3.77490854
REMARK minimizedRMSD -1
REMARK  1 active torsions:
REMARK  status: ('A' for Active; 'I' for Inactive)
REMARK    1  A    between atoms: C1_2  and  C2_3 
ROOT
ATOM      1  C2  UNL d   1       0.029  -0.398  -0.182  0.00  0.00    -0.076 A 
ATOM      2  C3  UNL d   1       1.033   0.269   0.541  0.00  0.00     0.004 A 
ATOM      3  C4  UNL d   1       0.719   1.043   1.658  0.00  0.00    -0.003 A 
ATOM      4  C5  UNL d   1      -0.603   1.160   2.070  0.00  0.00     0.000 A 
ATOM      5  C6  UNL d   1      -1.610   0.490   1.376  0.00  0.00     0.000 A 
ATOM      6  C7  UNL d   1      -1.309  -0.307   0.258  0.00  0.00    -0.073 A 
ATOM      7  C8  UNL d   1      -2.435  -1.002  -0.457  0.00  0.00     0.078 C 
ENDROOT
BRANCH   1   8
ATOM      8  C1  UNL d   1       0.426  -1.200  -1.400  0.00  0.00     0.053 C 
ATOM      9  C   UNL d   1       1.028  -0.335  -2.497  0.00  0.00     0.018 C 
ENDBRANCH   1   8
TORSDOF 1
ENDMDL
