MODEL 1
REMARK minimizedAffinity -0.357610852
REMARK minimizedRMSD -1
REMARK  1 active torsions:
REMARK  status: ('A' for Active; 'I' for Inactive)
REMARK    1  A    between atoms: C1_2  and  C2_3 
ROOT
ATOM      1  C2  UNL d   1      -0.221  -0.227   0.647  0.00  0.00    -0.076 A 
ATOM      2  C3  UNL d   1       0.715  -1.009   1.345  0.00  0.00     0.004 A 
ATOM      3  C4  UNL d   1       2.084  -0.826   1.158  0.00  0.00    -0.003 A 
ATOM      4  C5  UNL d   1       2.539   0.142   0.270  0.00  0.00     0.000 A 
ATOM      5  C6  UNL d   1       1.624   0.940  -0.418  0.00  0.00     0.000 A 
ATOM      6  C7  UNL d   1       0.241   0.779  -0.228  0.00  0.00    -0.073 A 
ATOM      7  C8  UNL d   1      -0.701   1.663  -1.000  0.00  0.00     0.078 C 
ENDROOT
BRANCH   1   8
ATOM      8  C1  UNL d   1      -1.694  -0.488   0.871  0.00  0.00     0.053 C 
ATOM      9  C   UNL d   1      -2.097  -0.340   2.330  0.00  0.00     0.018 C 
ENDBRANCH   1   8
TORSDOF 1
ENDMDL
