MODEL 1
REMARK minimizedAffinity 7.53614712
REMARK minimizedRMSD -1
REMARK  0 active torsions:
REMARK  status: ('A' for Active; 'I' for Inactive)
ROOT
ATOM      1  C1  BNZ d   1       2.551  -2.602   0.670  0.00  0.00     0.000 A 
ATOM      2  C2  BNZ d   1       1.814  -3.732   0.435  0.00  0.00     0.000 A 
ATOM      3  C3  BNZ d   1       1.509  -4.115  -0.841  0.00  0.00     0.000 A 
ATOM      4  C4  BNZ d   1       1.906  -3.348  -1.877  0.00  0.00     0.000 A 
ATOM      5  C5  BNZ d   1       2.641  -2.201  -1.656  0.00  0.00     0.000 A 
ATOM      6  C6  BNZ d   1       2.980  -1.839  -0.372  0.00  0.00     0.000 A 
ENDROOT
TORSDOF 0
ENDMDL
