MODEL 1
REMARK minimizedAffinity 5.03024912
REMARK minimizedRMSD -1
REMARK  0 active torsions:
REMARK  status: ('A' for Active; 'I' for Inactive)
ROOT
ATOM      1  C1  BNZ d   1       6.000   0.741  -0.151  0.00  0.00     0.000 A 
ATOM      2  C2  BNZ d   1       6.000  -0.615  -0.344  0.00  0.00     0.000 A 
ATOM      3  C3  BNZ d   1       4.866  -1.265  -0.743  0.00  0.00     0.000 A 
ATOM      4  C4  BNZ d   1       3.725  -0.566  -0.911  0.00  0.00     0.000 A 
ATOM      5  C5  BNZ d   1       3.706   0.800  -0.712  0.00  0.00     0.000 A 
ATOM      6  C6  BNZ d   1       4.859   1.457  -0.347  0.00  0.00     0.000 A 
ENDROOT
TORSDOF 0
ENDMDL
