MODEL 1
REMARK minimizedAffinity 4.18501139
REMARK minimizedRMSD -1
REMARK  0 active torsions:
REMARK  status: ('A' for Active; 'I' for Inactive)
ROOT
ATOM      1  C1  BNZ d   1       6.000  -0.384   0.006  0.00  0.00     0.000 A 
ATOM      2  C2  BNZ d   1       5.142   0.355  -0.764  0.00  0.00     0.000 A 
ATOM      3  C3  BNZ d   1       3.831  -0.010  -0.898  0.00  0.00     0.000 A 
ATOM      4  C4  BNZ d   1       3.391  -1.133  -0.296  0.00  0.00     0.000 A 
ATOM      5  C5  BNZ d   1       4.246  -1.894   0.476  0.00  0.00     0.000 A 
ATOM      6  C6  BNZ d   1       5.555  -1.503   0.640  0.00  0.00     0.000 A 
ENDROOT
TORSDOF 0
ENDMDL
