MODEL 1
REMARK minimizedAffinity 6.34047318
REMARK minimizedRMSD -1
REMARK  0 active torsions:
REMARK  status: ('A' for Active; 'I' for Inactive)
ROOT
ATOM      1  C1  BNZ d   1      -5.999   2.091  -2.348  0.00  0.00     0.000 A 
ATOM      2  C2  BNZ d   1      -5.998   0.815  -2.845  0.00  0.00     0.000 A 
ATOM      3  C3  BNZ d   1      -5.434   0.538  -4.059  0.00  0.00     0.000 A 
ATOM      4  C4  BNZ d   1      -4.909   1.542  -4.791  0.00  0.00     0.000 A 
ATOM      5  C5  BNZ d   1      -4.911   2.835  -4.307  0.00  0.00     0.000 A 
ATOM      6  C6  BNZ d   1      -5.445   3.104  -3.068  0.00  0.00     0.000 A 
ENDROOT
TORSDOF 0
ENDMDL
