MODEL 1
REMARK minimizedAffinity 7.04810858
REMARK minimizedRMSD -1
REMARK  0 active torsions:
REMARK  status: ('A' for Active; 'I' for Inactive)
ROOT
ATOM      1  C1  BNZ d   1       4.507   1.624  -0.404  0.00  0.00     0.000 A 
ATOM      2  C2  BNZ d   1       3.381   1.046   0.121  0.00  0.00     0.000 A 
ATOM      3  C3  BNZ d   1       2.849  -0.083  -0.437  0.00  0.00     0.000 A 
ATOM      4  C4  BNZ d   1       3.420  -0.610  -1.539  0.00  0.00     0.000 A 
ATOM      5  C5  BNZ d   1       4.550  -0.034  -2.085  0.00  0.00     0.000 A 
ATOM      6  C6  BNZ d   1       5.104   1.080  -1.499  0.00  0.00     0.000 A 
ENDROOT
TORSDOF 0
ENDMDL
