MODEL 1
REMARK minimizedAffinity 0.535854101
REMARK minimizedRMSD -1
REMARK  0 active torsions:
REMARK  status: ('A' for Active; 'I' for Inactive)
ROOT
ATOM      1  C1  BNZ d   1       3.390   5.067   4.182  0.00  0.00     0.000 A 
ATOM      2  C2  BNZ d   1       3.934   3.810   4.189  0.00  0.00     0.000 A 
ATOM      3  C3  BNZ d   1       4.880   3.463   5.112  0.00  0.00     0.000 A 
ATOM      4  C4  BNZ d   1       5.310   4.383   6.000  0.00  0.00     0.000 A 
ATOM      5  C5  BNZ d   1       4.778   5.657   5.999  0.00  0.00     0.000 A 
ATOM      6  C6  BNZ d   1       3.797   5.991   5.094  0.00  0.00     0.000 A 
ENDROOT
TORSDOF 0
ENDMDL
