MODEL 1
REMARK minimizedAffinity 0.251214713
REMARK minimizedRMSD -1
REMARK  0 active torsions:
REMARK  status: ('A' for Active; 'I' for Inactive)
ROOT
ATOM      1  C1  BNZ d   1       5.573   0.625  -1.746  0.00  0.00     0.000 A 
ATOM      2  C2  BNZ d   1       5.630  -0.728  -1.944  0.00  0.00     0.000 A 
ATOM      3  C3  BNZ d   1       4.574  -1.530  -1.614  0.00  0.00     0.000 A 
ATOM      4  C4  BNZ d   1       3.478  -0.983  -1.049  0.00  0.00     0.000 A 
ATOM      5  C5  BNZ d   1       3.408   0.379  -0.834  0.00  0.00     0.000 A 
ATOM      6  C6  BNZ d   1       4.458   1.188  -1.204  0.00  0.00     0.000 A 
ENDROOT
TORSDOF 0
ENDMDL
