MODEL 1
REMARK minimizedAffinity 12.2028484
REMARK minimizedRMSD -1
REMARK  3 active torsions:
REMARK  status: ('A' for Active; 'I' for Inactive)
REMARK    1  A    between atoms: C3'_2  and  C2'_3 
REMARK    2  A    between atoms: C2'_3  and  C1'_4 
REMARK    3  A    between atoms: C1'_4  and  C1_5 
ROOT
ATOM      1  C1  N4B d   1       1.181  -3.768  -2.647  0.00  0.00    -0.075 A 
ATOM      2  C2  N4B d   1      -0.192  -3.742  -2.977  0.00  0.00     0.002 A 
ATOM      3  C3  N4B d   1      -0.783  -4.845  -3.542  0.00  0.00     0.002 A 
ATOM      4  C4  N4B d   1      -0.021  -5.974  -3.803  0.00  0.00    -0.004 A 
ATOM      5  C5  N4B d   1       1.299  -6.000  -3.458  0.00  0.00     0.002 A 
ATOM      6  C6  N4B d   1       1.905  -4.900  -2.885  0.00  0.00     0.002 A 
ENDROOT
BRANCH   1   7
ATOM      7  C1' N4B d   1       1.890  -2.557  -2.106  0.00  0.00     0.057 C 
BRANCH   7   8
ATOM      8  C2' N4B d   1       1.593  -1.360  -3.004  0.00  0.00     0.009 C 
BRANCH   8   9
ATOM      9  C3' N4B d   1       1.593  -0.054  -2.229  0.00  0.00     0.004 C 
ATOM     10  C4' N4B d   1       2.207  -0.187  -0.867  0.00  0.00     0.003 C 
ENDBRANCH   8   9
ENDBRANCH   7   8
ENDBRANCH   1   7
TORSDOF 3
ENDMDL
