MODEL 1
REMARK minimizedAffinity 13.8566971
REMARK minimizedRMSD -1
REMARK  3 active torsions:
REMARK  status: ('A' for Active; 'I' for Inactive)
REMARK    1  A    between atoms: C3'_2  and  C2'_3 
REMARK    2  A    between atoms: C2'_3  and  C1'_4 
REMARK    3  A    between atoms: C1'_4  and  C1_5 
ROOT
ATOM      1  C1  N4B d   1       1.153  -1.249  -2.306  0.00  0.00    -0.075 A 
ATOM      2  C2  N4B d   1       1.119  -2.653  -2.459  0.00  0.00     0.002 A 
ATOM      3  C3  N4B d   1       1.800  -3.456  -1.578  0.00  0.00     0.002 A 
ATOM      4  C4  N4B d   1       2.535  -2.880  -0.553  0.00  0.00    -0.004 A 
ATOM      5  C5  N4B d   1       2.543  -1.525  -0.397  0.00  0.00     0.002 A 
ATOM      6  C6  N4B d   1       1.859  -0.706  -1.273  0.00  0.00     0.002 A 
ENDROOT
BRANCH   1   7
ATOM      7  C1' N4B d   1       0.494  -0.327  -3.295  0.00  0.00     0.057 C 
BRANCH   7   8
ATOM      8  C2' N4B d   1      -1.017  -0.363  -3.084  0.00  0.00     0.009 C 
BRANCH   8   9
ATOM      9  C3' N4B d   1      -1.772   0.168  -4.290  0.00  0.00     0.004 C 
ATOM     10  C4' N4B d   1      -1.352   1.557  -4.673  0.00  0.00     0.003 C 
ENDBRANCH   8   9
ENDBRANCH   7   8
ENDBRANCH   1   7
TORSDOF 3
ENDMDL
