MODEL 1
REMARK minimizedAffinity 15.1684523
REMARK minimizedRMSD -1
REMARK  3 active torsions:
REMARK  status: ('A' for Active; 'I' for Inactive)
REMARK    1  A    between atoms: C3'_2  and  C2'_3 
REMARK    2  A    between atoms: C2'_3  and  C1'_4 
REMARK    3  A    between atoms: C1'_4  and  C1_5 
ROOT
ATOM      1  C1  N4B d   1      -2.762  -4.237  -3.862  0.00  0.00    -0.075 A 
ATOM      2  C2  N4B d   1      -2.665  -5.040  -2.705  0.00  0.00     0.002 A 
ATOM      3  C3  N4B d   1      -1.482  -5.100  -2.009  0.00  0.00     0.002 A 
ATOM      4  C4  N4B d   1      -0.383  -4.384  -2.460  0.00  0.00    -0.004 A 
ATOM      5  C5  N4B d   1      -0.494  -3.591  -3.565  0.00  0.00     0.002 A 
ATOM      6  C6  N4B d   1      -1.677  -3.517  -4.271  0.00  0.00     0.002 A 
ENDROOT
BRANCH   1   7
ATOM      7  C1' N4B d   1      -4.009  -4.206  -4.704  0.00  0.00     0.057 C 
BRANCH   7   8
ATOM      8  C2' N4B d   1      -3.744  -3.380  -5.960  0.00  0.00     0.009 C 
BRANCH   8   9
ATOM      9  C3' N4B d   1      -4.420  -2.020  -5.897  0.00  0.00     0.004 C 
ATOM     10  C4' N4B d   1      -5.914  -2.109  -5.989  0.00  0.00     0.003 C 
ENDBRANCH   8   9
ENDBRANCH   7   8
ENDBRANCH   1   7
TORSDOF 3
ENDMDL
