MODEL 1
REMARK minimizedAffinity 7.35528421
REMARK minimizedRMSD -1
REMARK  3 active torsions:
REMARK  status: ('A' for Active; 'I' for Inactive)
REMARK    1  A    between atoms: C3'_2  and  C2'_3 
REMARK    2  A    between atoms: C2'_3  and  C1'_4 
REMARK    3  A    between atoms: C1'_4  and  C1_5 
ROOT
ATOM      1  C1  N4B d   1      -2.611  -3.533  -4.056  0.00  0.00    -0.075 A 
ATOM      2  C2  N4B d   1      -2.828  -2.137  -4.036  0.00  0.00     0.002 A 
ATOM      3  C3  N4B d   1      -3.612  -1.551  -5.000  0.00  0.00     0.002 A 
ATOM      4  C4  N4B d   1      -4.170  -2.333  -6.000  0.00  0.00    -0.004 A 
ATOM      5  C5  N4B d   1      -3.976  -3.684  -5.997  0.00  0.00     0.002 A 
ATOM      6  C6  N4B d   1      -3.194  -4.287  -5.032  0.00  0.00     0.002 A 
ENDROOT
BRANCH   1   7
ATOM      7  C1' N4B d   1      -1.693  -4.207  -3.074  0.00  0.00     0.057 C 
BRANCH   7   8
ATOM      8  C2' N4B d   1      -2.498  -5.188  -2.227  0.00  0.00     0.009 C 
BRANCH   8   9
ATOM      9  C3' N4B d   1      -3.396  -4.474  -1.231  0.00  0.00     0.004 C 
ATOM     10  C4' N4B d   1      -3.590  -5.251   0.037  0.00  0.00     0.003 C 
ENDBRANCH   8   9
ENDBRANCH   7   8
ENDBRANCH   1   7
TORSDOF 3
ENDMDL
