MODEL 1
REMARK minimizedAffinity 12.0102205
REMARK minimizedRMSD -1
REMARK  3 active torsions:
REMARK  status: ('A' for Active; 'I' for Inactive)
REMARK    1  A    between atoms: C3'_2  and  C2'_3 
REMARK    2  A    between atoms: C2'_3  and  C1'_4 
REMARK    3  A    between atoms: C1'_4  and  C1_5 
ROOT
ATOM      1  C1  N4B d   1       2.542  -0.587  -0.882  0.00  0.00    -0.075 A 
ATOM      2  C2  N4B d   1       3.080   0.657  -0.486  0.00  0.00     0.002 A 
ATOM      3  C3  N4B d   1       3.004   1.738  -1.329  0.00  0.00     0.002 A 
ATOM      4  C4  N4B d   1       2.414   1.595  -2.576  0.00  0.00    -0.004 A 
ATOM      5  C5  N4B d   1       1.875   0.396  -2.942  0.00  0.00     0.002 A 
ATOM      6  C6  N4B d   1       1.940  -0.698  -2.102  0.00  0.00     0.002 A 
ENDROOT
BRANCH   1   7
ATOM      7  C1' N4B d   1       2.678  -1.819  -0.030  0.00  0.00     0.057 C 
BRANCH   7   8
ATOM      8  C2' N4B d   1       4.151  -2.042   0.298  0.00  0.00     0.009 C 
BRANCH   8   9
ATOM      9  C3' N4B d   1       4.517  -3.516   0.297  0.00  0.00     0.004 C 
ATOM     10  C4' N4B d   1       5.999  -3.747   0.275  0.00  0.00     0.003 C 
ENDBRANCH   8   9
ENDBRANCH   7   8
ENDBRANCH   1   7
TORSDOF 3
ENDMDL
