MODEL 1
REMARK minimizedAffinity 10.1790285
REMARK minimizedRMSD -1
REMARK  3 active torsions:
REMARK  status: ('A' for Active; 'I' for Inactive)
REMARK    1  A    between atoms: C3'_2  and  C2'_3 
REMARK    2  A    between atoms: C2'_3  and  C1'_4 
REMARK    3  A    between atoms: C1'_4  and  C1_5 
ROOT
ATOM      1  C1  N4B d   1       1.946  -2.682  -1.155  0.00  0.00    -0.075 A 
ATOM      2  C2  N4B d   1       1.998  -1.271  -1.187  0.00  0.00     0.002 A 
ATOM      3  C3  N4B d   1       1.579  -0.593  -2.305  0.00  0.00     0.002 A 
ATOM      4  C4  N4B d   1       1.123  -1.303  -3.406  0.00  0.00    -0.004 A 
ATOM      5  C5  N4B d   1       1.051  -2.664  -3.358  0.00  0.00     0.002 A 
ATOM      6  C6  N4B d   1       1.466  -3.358  -2.239  0.00  0.00     0.002 A 
ENDROOT
BRANCH   1   7
ATOM      7  C1' N4B d   1       2.473  -3.470   0.013  0.00  0.00     0.057 C 
BRANCH   7   8
ATOM      8  C2' N4B d   1       3.816  -4.087  -0.366  0.00  0.00     0.009 C 
BRANCH   8   9
ATOM      9  C3' N4B d   1       3.722  -5.595  -0.530  0.00  0.00     0.004 C 
ATOM     10  C4' N4B d   1       2.973  -5.998  -1.765  0.00  0.00     0.003 C 
ENDBRANCH   8   9
ENDBRANCH   7   8
ENDBRANCH   1   7
TORSDOF 3
ENDMDL
