MODEL 1
REMARK minimizedAffinity 9.61325359
REMARK minimizedRMSD -1
REMARK  3 active torsions:
REMARK  status: ('A' for Active; 'I' for Inactive)
REMARK    1  A    between atoms: C3'_2  and  C2'_3 
REMARK    2  A    between atoms: C2'_3  and  C1'_4 
REMARK    3  A    between atoms: C1'_4  and  C1_5 
ROOT
ATOM      1  C1  N4B d   1       2.488  -0.127  -0.845  0.00  0.00    -0.075 A 
ATOM      2  C2  N4B d   1       2.782   1.225  -0.562  0.00  0.00     0.002 A 
ATOM      3  C3  N4B d   1       2.448   2.203  -1.467  0.00  0.00     0.002 A 
ATOM      4  C4  N4B d   1       1.840   1.853  -2.663  0.00  0.00    -0.004 A 
ATOM      5  C5  N4B d   1       1.537   0.548  -2.917  0.00  0.00     0.002 A 
ATOM      6  C6  N4B d   1       1.863  -0.446  -2.016  0.00  0.00     0.002 A 
ENDROOT
BRANCH   1   7
ATOM      7  C1' N4B d   1       2.911  -1.240   0.074  0.00  0.00     0.057 C 
BRANCH   7   8
ATOM      8  C2' N4B d   1       2.537  -2.579  -0.555  0.00  0.00     0.009 C 
BRANCH   8   9
ATOM      9  C3' N4B d   1       3.334  -3.728   0.038  0.00  0.00     0.004 C 
ATOM     10  C4' N4B d   1       4.760  -3.360   0.322  0.00  0.00     0.003 C 
ENDBRANCH   8   9
ENDBRANCH   7   8
ENDBRANCH   1   7
TORSDOF 3
ENDMDL
