MODEL 1
REMARK minimizedAffinity 7.06993103
REMARK minimizedRMSD -1
REMARK  3 active torsions:
REMARK  status: ('A' for Active; 'I' for Inactive)
REMARK    1  A    between atoms: C3'_2  and  C2'_3 
REMARK    2  A    between atoms: C2'_3  and  C1'_4 
REMARK    3  A    between atoms: C1'_4  and  C1_5 
ROOT
ATOM      1  C1  N4B d   1       0.272   2.815  -4.149  0.00  0.00    -0.075 A 
ATOM      2  C2  N4B d   1       0.125   3.951  -3.325  0.00  0.00     0.002 A 
ATOM      3  C3  N4B d   1       1.000   4.165  -2.288  0.00  0.00     0.002 A 
ATOM      4  C4  N4B d   1       2.013   3.250  -2.046  0.00  0.00    -0.004 A 
ATOM      5  C5  N4B d   1       2.164   2.167  -2.863  0.00  0.00     0.002 A 
ATOM      6  C6  N4B d   1       1.294   1.942  -3.911  0.00  0.00     0.002 A 
ENDROOT
BRANCH   1   7
ATOM      7  C1' N4B d   1      -0.711   2.494  -5.242  0.00  0.00     0.057 C 
BRANCH   7   8
ATOM      8  C2' N4B d   1      -2.085   3.031  -4.853  0.00  0.00     0.009 C 
BRANCH   8   9
ATOM      9  C3' N4B d   1      -2.716   3.841  -5.973  0.00  0.00     0.004 C 
ATOM     10  C4' N4B d   1      -2.779   5.307  -5.665  0.00  0.00     0.003 C 
ENDBRANCH   8   9
ENDBRANCH   7   8
ENDBRANCH   1   7
TORSDOF 3
ENDMDL
