MODEL 1
REMARK minimizedAffinity 16.5059834
REMARK minimizedRMSD -1
REMARK  3 active torsions:
REMARK  status: ('A' for Active; 'I' for Inactive)
REMARK    1  A    between atoms: C3'_2  and  C2'_3 
REMARK    2  A    between atoms: C2'_3  and  C1'_4 
REMARK    3  A    between atoms: C1'_4  and  C1_5 
ROOT
ATOM      1  C1  N4B d   1       1.768   3.674  -1.244  0.00  0.00    -0.075 A 
ATOM      2  C2  N4B d   1       1.481   3.527   0.131  0.00  0.00     0.002 A 
ATOM      3  C3  N4B d   1       1.097   4.618   0.872  0.00  0.00     0.002 A 
ATOM      4  C4  N4B d   1       1.012   5.863   0.267  0.00  0.00    -0.004 A 
ATOM      5  C5  N4B d   1       1.266   5.991  -1.067  0.00  0.00     0.002 A 
ATOM      6  C6  N4B d   1       1.649   4.904  -1.825  0.00  0.00     0.002 A 
ENDROOT
BRANCH   1   7
ATOM      7  C1' N4B d   1       2.275   2.528  -2.077  0.00  0.00     0.057 C 
BRANCH   7   8
ATOM      8  C2' N4B d   1       2.263   1.255  -1.236  0.00  0.00     0.009 C 
BRANCH   8   9
ATOM      9  C3' N4B d   1       1.849   0.041  -2.050  0.00  0.00     0.004 C 
ATOM     10  C4' N4B d   1       2.179  -1.254  -1.369  0.00  0.00     0.003 C 
ENDBRANCH   8   9
ENDBRANCH   7   8
ENDBRANCH   1   7
TORSDOF 3
ENDMDL
