MODEL 1
REMARK minimizedAffinity 13.6469421
REMARK minimizedRMSD -1
REMARK  3 active torsions:
REMARK  status: ('A' for Active; 'I' for Inactive)
REMARK    1  A    between atoms: C3'_2  and  C2'_3 
REMARK    2  A    between atoms: C2'_3  and  C1'_4 
REMARK    3  A    between atoms: C1'_4  and  C1_5 
ROOT
ATOM      1  C1  N4B d   1       2.253   0.314  -1.029  0.00  0.00    -0.075 A 
ATOM      2  C2  N4B d   1       1.825   0.555  -2.353  0.00  0.00     0.002 A 
ATOM      3  C3  N4B d   1       1.788  -0.475  -3.261  0.00  0.00     0.002 A 
ATOM      4  C4  N4B d   1       2.190  -1.745  -2.874  0.00  0.00    -0.004 A 
ATOM      5  C5  N4B d   1       2.577  -1.974  -1.587  0.00  0.00     0.002 A 
ATOM      6  C6  N4B d   1       2.616  -0.950  -0.663  0.00  0.00     0.002 A 
ENDROOT
BRANCH   1   7
ATOM      7  C1' N4B d   1       2.392   1.425  -0.025  0.00  0.00     0.057 C 
BRANCH   7   8
ATOM      8  C2' N4B d   1       2.208   2.765  -0.732  0.00  0.00     0.009 C 
BRANCH   8   9
ATOM      9  C3' N4B d   1       1.508   3.783   0.153  0.00  0.00     0.004 C 
ATOM     10  C4' N4B d   1       1.041   4.988  -0.607  0.00  0.00     0.003 C 
ENDBRANCH   8   9
ENDBRANCH   7   8
ENDBRANCH   1   7
TORSDOF 3
ENDMDL
