MODEL 1
REMARK minimizedAffinity 15.1557703
REMARK minimizedRMSD -1
REMARK  3 active torsions:
REMARK  status: ('A' for Active; 'I' for Inactive)
REMARK    1  A    between atoms: C3'_2  and  C2'_3 
REMARK    2  A    between atoms: C2'_3  and  C1'_4 
REMARK    3  A    between atoms: C1'_4  and  C1_5 
ROOT
ATOM      1  C1  N4B d   1       3.617   1.165  -0.798  0.00  0.00    -0.075 A 
ATOM      2  C2  N4B d   1       4.902   1.594  -1.197  0.00  0.00     0.002 A 
ATOM      3  C3  N4B d   1       5.581   2.519  -0.443  0.00  0.00     0.002 A 
ATOM      4  C4  N4B d   1       4.991   3.041   0.699  0.00  0.00    -0.004 A 
ATOM      5  C5  N4B d   1       3.761   2.602   1.091  0.00  0.00     0.002 A 
ATOM      6  C6  N4B d   1       3.068   1.669   0.345  0.00  0.00     0.002 A 
ENDROOT
BRANCH   1   7
ATOM      7  C1' N4B d   1       2.800   0.220  -1.636  0.00  0.00     0.057 C 
BRANCH   7   8
ATOM      8  C2' N4B d   1       2.295  -0.921  -0.756  0.00  0.00     0.009 C 
BRANCH   8   9
ATOM      9  C3' N4B d   1       2.648  -2.281  -1.332  0.00  0.00     0.004 C 
ATOM     10  C4' N4B d   1       2.966  -3.295  -0.274  0.00  0.00     0.003 C 
ENDBRANCH   8   9
ENDBRANCH   7   8
ENDBRANCH   1   7
TORSDOF 3
ENDMDL
