MODEL 1
REMARK minimizedAffinity 20.0567875
REMARK minimizedRMSD -1
REMARK  3 active torsions:
REMARK  status: ('A' for Active; 'I' for Inactive)
REMARK    1  A    between atoms: C3'_2  and  C2'_3 
REMARK    2  A    between atoms: C2'_3  and  C1'_4 
REMARK    3  A    between atoms: C1'_4  and  C1_5 
ROOT
ATOM      1  C1  N4B d   1      -3.987  -0.748   2.267  0.00  0.00    -0.075 A 
ATOM      2  C2  N4B d   1      -3.960  -1.252   3.586  0.00  0.00     0.002 A 
ATOM      3  C3  N4B d   1      -4.955  -2.094   4.020  0.00  0.00     0.002 A 
ATOM      4  C4  N4B d   1      -5.992  -2.429   3.162  0.00  0.00    -0.004 A 
ATOM      5  C5  N4B d   1      -5.997  -1.958   1.882  0.00  0.00     0.002 A 
ATOM      6  C6  N4B d   1      -5.002  -1.115   1.431  0.00  0.00     0.002 A 
ENDROOT
BRANCH   1   7
ATOM      7  C1' N4B d   1      -2.968   0.243   1.775  0.00  0.00     0.057 C 
BRANCH   7   8
ATOM      8  C2' N4B d   1      -2.509   1.111   2.943  0.00  0.00     0.009 C 
BRANCH   8   9
ATOM      9  C3' N4B d   1      -3.682   1.705   3.705  0.00  0.00     0.004 C 
ATOM     10  C4' N4B d   1      -3.295   2.213   5.062  0.00  0.00     0.003 C 
ENDBRANCH   8   9
ENDBRANCH   7   8
ENDBRANCH   1   7
TORSDOF 3
ENDMDL
