MODEL 1
REMARK minimizedAffinity -0.145534307
REMARK minimizedRMSD -1
REMARK  1 active torsions:
REMARK  status: ('A' for Active; 'I' for Inactive)
REMARK    1  A    between atoms: C1_2  and  C2_3 
ROOT
ATOM      1  C2  UNL d   1      -0.099  -0.688  -0.424  0.00  0.00    -0.076 A 
ATOM      2  C3  UNL d   1       0.938  -1.617  -0.620  0.00  0.00     0.004 A 
ATOM      3  C4  UNL d   1       1.076  -2.724   0.215  0.00  0.00    -0.003 A 
ATOM      4  C5  UNL d   1       0.179  -2.922   1.259  0.00  0.00     0.000 A 
ATOM      5  C6  UNL d   1      -0.866  -2.020   1.458  0.00  0.00     0.000 A 
ATOM      6  C7  UNL d   1      -1.029  -0.907   0.615  0.00  0.00    -0.073 A 
ATOM      7  C8  UNL d   1      -2.171   0.036   0.878  0.00  0.00     0.078 C 
ENDROOT
BRANCH   1   8
ATOM      8  C1  UNL d   1      -0.183   0.508  -1.344  0.00  0.00     0.053 C 
ATOM      9  C   UNL d   1       0.409   0.230  -2.717  0.00  0.00     0.018 C 
ENDBRANCH   1   8
TORSDOF 1
ENDMDL
