MODEL 1
REMARK minimizedAffinity -0.622075737
REMARK minimizedRMSD -1
REMARK  1 active torsions:
REMARK  status: ('A' for Active; 'I' for Inactive)
REMARK    1  A    between atoms: C1_2  and  C2_3 
ROOT
ATOM      1  C2  UNL d   1       0.297   1.002   0.483  0.00  0.00    -0.076 A 
ATOM      2  C3  UNL d   1       0.987   1.302   1.670  0.00  0.00     0.004 A 
ATOM      3  C4  UNL d   1       1.812   2.422   1.756  0.00  0.00    -0.003 A 
ATOM      4  C5  UNL d   1       1.961   3.260   0.656  0.00  0.00     0.000 A 
ATOM      5  C6  UNL d   1       1.270   2.986  -0.524  0.00  0.00     0.000 A 
ATOM      6  C7  UNL d   1       0.421   1.871  -0.622  0.00  0.00    -0.073 A 
ATOM      7  C8  UNL d   1      -0.295   1.620  -1.921  0.00  0.00     0.078 C 
ENDROOT
BRANCH   1   8
ATOM      8  C1  UNL d   1      -0.563  -0.241   0.440  0.00  0.00     0.053 C 
ATOM      9  C   UNL d   1       0.109  -1.390  -0.295  0.00  0.00     0.018 C 
ENDBRANCH   1   8
TORSDOF 1
ENDMDL
