MODEL 1
REMARK minimizedAffinity -5.03423262
REMARK minimizedRMSD -1
REMARK  1 active torsions:
REMARK  status: ('A' for Active; 'I' for Inactive)
REMARK    1  A    between atoms: C1_2  and  C2_3 
ROOT
ATOM      1  C2  UNL d   1      -0.249   0.317   0.206  0.00  0.00    -0.076 A 
ATOM      2  C3  UNL d   1      -0.872   0.354   1.466  0.00  0.00     0.004 A 
ATOM      3  C4  UNL d   1      -1.294  -0.817   2.093  0.00  0.00    -0.003 A 
ATOM      4  C5  UNL d   1      -1.099  -2.045   1.470  0.00  0.00     0.000 A 
ATOM      5  C6  UNL d   1      -0.468  -2.103   0.228  0.00  0.00     0.000 A 
ATOM      6  C7  UNL d   1      -0.021  -0.933  -0.410  0.00  0.00    -0.073 A 
ATOM      7  C8  UNL d   1       0.648  -1.053  -1.751  0.00  0.00     0.078 C 
ENDROOT
BRANCH   1   8
ATOM      8  C1  UNL d   1       0.163   1.621  -0.437  0.00  0.00     0.053 C 
ATOM      9  C   UNL d   1       1.084   2.443   0.450  0.00  0.00     0.018 C 
ENDBRANCH   1   8
TORSDOF 1
ENDMDL
