MODEL 1
REMARK minimizedAffinity -2.3979938
REMARK minimizedRMSD -1
REMARK  1 active torsions:
REMARK  status: ('A' for Active; 'I' for Inactive)
REMARK    1  A    between atoms: C1_2  and  C2_3 
ROOT
ATOM      1  C2  UNL d   1      -0.220   0.418   0.390  0.00  0.00    -0.076 A 
ATOM      2  C3  UNL d   1      -0.507  -0.053   1.683  0.00  0.00     0.004 A 
ATOM      3  C4  UNL d   1      -0.919  -1.368   1.893  0.00  0.00    -0.003 A 
ATOM      4  C5  UNL d   1      -1.049  -2.234   0.813  0.00  0.00     0.000 A 
ATOM      5  C6  UNL d   1      -0.752  -1.789  -0.475  0.00  0.00     0.000 A 
ATOM      6  C7  UNL d   1      -0.320  -0.471  -0.702  0.00  0.00    -0.073 A 
ATOM      7  C8  UNL d   1      -0.019  -0.043  -2.112  0.00  0.00     0.078 C 
ENDROOT
BRANCH   1   8
ATOM      8  C1  UNL d   1       0.196   1.862   0.221  0.00  0.00     0.053 C 
ATOM      9  C   UNL d   1       1.687   2.067   0.437  0.00  0.00     0.018 C 
ENDBRANCH   1   8
TORSDOF 1
ENDMDL
