MODEL 1
REMARK minimizedAffinity 1.96109366
REMARK minimizedRMSD -1
REMARK  1 active torsions:
REMARK  status: ('A' for Active; 'I' for Inactive)
REMARK    1  A    between atoms: C1_2  and  C2_3 
ROOT
ATOM      1  C2  UNL d   1      -0.268  -0.745  -1.110  0.00  0.00    -0.076 A 
ATOM      2  C3  UNL d   1      -0.420   0.653  -1.129  0.00  0.00     0.004 A 
ATOM      3  C4  UNL d   1      -1.121   1.311  -0.121  0.00  0.00    -0.003 A 
ATOM      4  C5  UNL d   1      -1.681   0.583   0.924  0.00  0.00     0.000 A 
ATOM      5  C6  UNL d   1      -1.524  -0.801   0.968  0.00  0.00     0.000 A 
ATOM      6  C7  UNL d   1      -0.806  -1.479  -0.033  0.00  0.00    -0.073 A 
ATOM      7  C8  UNL d   1      -0.674  -2.975   0.062  0.00  0.00     0.078 C 
ENDROOT
BRANCH   1   8
ATOM      8  C1  UNL d   1       0.480  -1.407  -2.246  0.00  0.00     0.053 C 
ATOM      9  C   UNL d   1       1.112  -0.399  -3.193  0.00  0.00     0.018 C 
ENDBRANCH   1   8
TORSDOF 1
ENDMDL
