MODEL 1
REMARK minimizedAffinity -3.72162938
REMARK minimizedRMSD -1
REMARK  1 active torsions:
REMARK  status: ('A' for Active; 'I' for Inactive)
REMARK    1  A    between atoms: C1_2  and  C2_3 
ROOT
ATOM      1  C2  UNL d   1      -0.711  -2.172   0.355  0.00  0.00    -0.076 A 
ATOM      2  C3  UNL d   1      -1.669  -2.430  -0.640  0.00  0.00     0.004 A 
ATOM      3  C4  UNL d   1      -1.318  -3.072  -1.826  0.00  0.00    -0.003 A 
ATOM      4  C5  UNL d   1      -0.001  -3.466  -2.036  0.00  0.00     0.000 A 
ATOM      5  C6  UNL d   1       0.960  -3.234  -1.053  0.00  0.00     0.000 A 
ATOM      6  C7  UNL d   1       0.618  -2.602   0.156  0.00  0.00    -0.073 A 
ATOM      7  C8  UNL d   1       1.696  -2.371   1.179  0.00  0.00     0.078 C 
ENDROOT
BRANCH   1   8
ATOM      8  C1  UNL d   1      -1.145  -1.448   1.609  0.00  0.00     0.053 C 
ATOM      9  C   UNL d   1      -1.257   0.055   1.406  0.00  0.00     0.018 C 
ENDBRANCH   1   8
TORSDOF 1
ENDMDL
