MODEL 1
REMARK minimizedAffinity -5.85425854
REMARK minimizedRMSD -1
REMARK  1 active torsions:
REMARK  status: ('A' for Active; 'I' for Inactive)
REMARK    1  A    between atoms: C1_2  and  C2_3 
ROOT
ATOM      1  C2  UNL d   1      -0.023  -0.563  -0.470  0.00  0.00    -0.076 A 
ATOM      2  C3  UNL d   1       0.915  -1.241  -1.268  0.00  0.00     0.004 A 
ATOM      3  C4  UNL d   1       1.254  -2.568  -1.007  0.00  0.00    -0.003 A 
ATOM      4  C5  UNL d   1       0.660  -3.238   0.056  0.00  0.00     0.000 A 
ATOM      5  C6  UNL d   1      -0.286  -2.587   0.847  0.00  0.00     0.000 A 
ATOM      6  C7  UNL d   1      -0.651  -1.255   0.588  0.00  0.00    -0.073 A 
ATOM      7  C8  UNL d   1      -1.672  -0.599   1.477  0.00  0.00     0.078 C 
ENDROOT
BRANCH   1   8
ATOM      8  C1  UNL d   1      -0.331   0.883  -0.785  0.00  0.00     0.053 C 
ATOM      9  C   UNL d   1       0.640   1.844  -0.117  0.00  0.00     0.018 C 
ENDBRANCH   1   8
TORSDOF 1
ENDMDL
