MODEL 1
REMARK minimizedAffinity -1.68797767
REMARK minimizedRMSD -1
REMARK  1 active torsions:
REMARK  status: ('A' for Active; 'I' for Inactive)
REMARK    1  A    between atoms: C1_2  and  C2_3 
ROOT
ATOM      1  C2  UNL d   1      -0.424   0.206  -0.099  0.00  0.00    -0.076 A 
ATOM      2  C3  UNL d   1      -0.995   0.212   1.186  0.00  0.00     0.004 A 
ATOM      3  C4  UNL d   1      -1.360  -0.978   1.813  0.00  0.00    -0.003 A 
ATOM      4  C5  UNL d   1      -1.161  -2.193   1.166  0.00  0.00     0.000 A 
ATOM      5  C6  UNL d   1      -0.580  -2.218  -0.101  0.00  0.00     0.000 A 
ATOM      6  C7  UNL d   1      -0.191  -1.029  -0.741  0.00  0.00    -0.073 A 
ATOM      7  C8  UNL d   1       0.426  -1.114  -2.110  0.00  0.00     0.078 C 
ENDROOT
BRANCH   1   8
ATOM      8  C1  UNL d   1      -0.073   1.529  -0.741  0.00  0.00     0.053 C 
ATOM      9  C   UNL d   1       1.253   2.084  -0.245  0.00  0.00     0.018 C 
ENDBRANCH   1   8
TORSDOF 1
ENDMDL
