MODEL 1
REMARK minimizedAffinity -5.38803816
REMARK minimizedRMSD -1
REMARK  1 active torsions:
REMARK  status: ('A' for Active; 'I' for Inactive)
REMARK    1  A    between atoms: C1_2  and  C2_3 
ROOT
ATOM      1  C2  UNL d   1      -0.102  -0.789  -0.286  0.00  0.00    -0.076 A 
ATOM      2  C3  UNL d   1       0.793  -0.545  -1.343  0.00  0.00     0.004 A 
ATOM      3  C4  UNL d   1       1.224   0.749  -1.633  0.00  0.00    -0.003 A 
ATOM      4  C5  UNL d   1       0.768   1.819  -0.871  0.00  0.00     0.000 A 
ATOM      5  C6  UNL d   1      -0.106   1.593   0.191  0.00  0.00     0.000 A 
ATOM      6  C7  UNL d   1      -0.538   0.293   0.508  0.00  0.00    -0.073 A 
ATOM      7  C8  UNL d   1      -1.486   0.108   1.661  0.00  0.00     0.078 C 
ENDROOT
BRANCH   1   8
ATOM      8  C1  UNL d   1      -0.556  -2.209  -0.036  0.00  0.00     0.053 C 
ATOM      9  C   UNL d   1       0.498  -3.040   0.680  0.00  0.00     0.018 C 
ENDBRANCH   1   8
TORSDOF 1
ENDMDL
