MODEL 1
REMARK minimizedAffinity -5.13709354
REMARK minimizedRMSD -1
REMARK  1 active torsions:
REMARK  status: ('A' for Active; 'I' for Inactive)
REMARK    1  A    between atoms: C1_2  and  C2_3 
ROOT
ATOM      1  C2  UNL d   1      -0.290   0.079   0.195  0.00  0.00    -0.076 A 
ATOM      2  C3  UNL d   1      -0.612  -0.277   1.516  0.00  0.00     0.004 A 
ATOM      3  C4  UNL d   1      -0.959  -1.587   1.841  0.00  0.00    -0.003 A 
ATOM      4  C5  UNL d   1      -0.989  -2.563   0.850  0.00  0.00     0.000 A 
ATOM      5  C6  UNL d   1      -0.656  -2.230  -0.462  0.00  0.00     0.000 A 
ATOM      6  C7  UNL d   1      -0.287  -0.918  -0.804  0.00  0.00    -0.073 A 
ATOM      7  C8  UNL d   1       0.057  -0.614  -2.236  0.00  0.00     0.078 C 
ENDROOT
BRANCH   1   8
ATOM      8  C1  UNL d   1       0.053   1.522  -0.103  0.00  0.00     0.053 C 
ATOM      9  C   UNL d   1       1.440   1.904   0.389  0.00  0.00     0.018 C 
ENDBRANCH   1   8
TORSDOF 1
ENDMDL
