MODEL 1
REMARK minimizedAffinity -1.72887075
REMARK minimizedRMSD -1
REMARK  1 active torsions:
REMARK  status: ('A' for Active; 'I' for Inactive)
REMARK    1  A    between atoms: C1_2  and  C2_3 
ROOT
ATOM      1  C2  UNL d   1      -0.357  -0.495   0.286  0.00  0.00    -0.076 A 
ATOM      2  C3  UNL d   1      -0.167   0.680  -0.462  0.00  0.00     0.004 A 
ATOM      3  C4  UNL d   1       0.297   0.627  -1.776  0.00  0.00    -0.003 A 
ATOM      4  C5  UNL d   1       0.577  -0.602  -2.363  0.00  0.00     0.000 A 
ATOM      5  C6  UNL d   1       0.377  -1.779  -1.641  0.00  0.00     0.000 A 
ATOM      6  C7  UNL d   1      -0.105  -1.744  -0.322  0.00  0.00    -0.073 A 
ATOM      7  C8  UNL d   1      -0.297  -3.043   0.412  0.00  0.00     0.078 C 
ENDROOT
BRANCH   1   8
ATOM      8  C1  UNL d   1      -0.837  -0.374   1.715  0.00  0.00     0.053 C 
ATOM      9  C   UNL d   1      -0.478   0.966   2.338  0.00  0.00     0.018 C 
ENDBRANCH   1   8
TORSDOF 1
ENDMDL
