MODEL 1
REMARK minimizedAffinity -2.26984
REMARK minimizedRMSD -1
REMARK  1 active torsions:
REMARK  status: ('A' for Active; 'I' for Inactive)
REMARK    1  A    between atoms: C1_2  and  C2_3 
ROOT
ATOM      1  C2  UNL d   1      -0.390  -1.467  -0.388  0.00  0.00    -0.076 A 
ATOM      2  C3  UNL d   1       0.156  -1.480  -1.684  0.00  0.00     0.004 A 
ATOM      3  C4  UNL d   1       0.456  -0.291  -2.347  0.00  0.00    -0.003 A 
ATOM      4  C5  UNL d   1       0.215   0.929  -1.726  0.00  0.00     0.000 A 
ATOM      5  C6  UNL d   1      -0.310   0.960  -0.434  0.00  0.00     0.000 A 
ATOM      6  C7  UNL d   1      -0.603  -0.229   0.255  0.00  0.00    -0.073 A 
ATOM      7  C8  UNL d   1      -1.173  -0.137   1.644  0.00  0.00     0.078 C 
ENDROOT
BRANCH   1   8
ATOM      8  C1  UNL d   1      -0.720  -2.787   0.271  0.00  0.00     0.053 C 
ATOM      9  C   UNL d   1      -2.076  -3.328  -0.155  0.00  0.00     0.018 C 
ENDBRANCH   1   8
TORSDOF 1
ENDMDL
