MODEL 1
REMARK minimizedAffinity -4.57998371
REMARK minimizedRMSD -1
REMARK  3 active torsions:
REMARK  status: ('A' for Active; 'I' for Inactive)
REMARK    1  A    between atoms: C3'_2  and  C2'_3 
REMARK    2  A    between atoms: C2'_3  and  C1'_4 
REMARK    3  A    between atoms: C1'_4  and  C1_5 
ROOT
ATOM      1  C1  N4B d   1      -0.836   0.367   0.116  0.00  0.00    -0.075 A 
ATOM      2  C2  N4B d   1      -0.432   1.720   0.127  0.00  0.00     0.002 A 
ATOM      3  C3  N4B d   1       0.871   2.044   0.418  0.00  0.00     0.002 A 
ATOM      4  C4  N4B d   1       1.778   1.039   0.718  0.00  0.00    -0.004 A 
ATOM      5  C5  N4B d   1       1.385  -0.267   0.680  0.00  0.00     0.002 A 
ATOM      6  C6  N4B d   1       0.080  -0.608   0.386  0.00  0.00     0.002 A 
ENDROOT
BRANCH   1   7
ATOM      7  C1' N4B d   1      -2.269  -0.032  -0.112  0.00  0.00     0.057 C 
BRANCH   7   8
ATOM      8  C2' N4B d   1      -2.857   0.830  -1.225  0.00  0.00     0.009 C 
BRANCH   8   9
ATOM      9  C3' N4B d   1      -2.328   0.432  -2.592  0.00  0.00     0.004 C 
ATOM     10  C4' N4B d   1      -2.763  -0.942  -3.006  0.00  0.00     0.003 C 
ENDBRANCH   8   9
ENDBRANCH   7   8
ENDBRANCH   1   7
TORSDOF 3
ENDMDL
