MODEL 1
REMARK minimizedAffinity -2.73304057
REMARK minimizedRMSD -1
REMARK  3 active torsions:
REMARK  status: ('A' for Active; 'I' for Inactive)
REMARK    1  A    between atoms: C3'_2  and  C2'_3 
REMARK    2  A    between atoms: C2'_3  and  C1'_4 
REMARK    3  A    between atoms: C1'_4  and  C1_5 
ROOT
ATOM      1  C1  N4B d   1      -0.359   0.120   0.341  0.00  0.00    -0.075 A 
ATOM      2  C2  N4B d   1       0.335   1.149  -0.333  0.00  0.00     0.002 A 
ATOM      3  C3  N4B d   1       1.626   1.455   0.022  0.00  0.00     0.002 A 
ATOM      4  C4  N4B d   1       2.234   0.761   1.057  0.00  0.00    -0.004 A 
ATOM      5  C5  N4B d   1       1.567  -0.249   1.687  0.00  0.00     0.002 A 
ATOM      6  C6  N4B d   1       0.270  -0.569   1.337  0.00  0.00     0.002 A 
ENDROOT
BRANCH   1   7
ATOM      7  C1' N4B d   1      -1.800  -0.192   0.046  0.00  0.00     0.057 C 
BRANCH   7   8
ATOM      8  C2' N4B d   1      -2.202   0.486  -1.261  0.00  0.00     0.009 C 
BRANCH   8   9
ATOM      9  C3' N4B d   1      -2.693  -0.515  -2.293  0.00  0.00     0.004 C 
ATOM     10  C4' N4B d   1      -1.954  -0.417  -3.594  0.00  0.00     0.003 C 
ENDBRANCH   8   9
ENDBRANCH   7   8
ENDBRANCH   1   7
TORSDOF 3
ENDMDL
