MODEL 1
REMARK minimizedAffinity -1.46266305
REMARK minimizedRMSD -1
REMARK  3 active torsions:
REMARK  status: ('A' for Active; 'I' for Inactive)
REMARK    1  A    between atoms: C3'_2  and  C2'_3 
REMARK    2  A    between atoms: C2'_3  and  C1'_4 
REMARK    3  A    between atoms: C1'_4  and  C1_5 
ROOT
ATOM      1  C1  N4B d   1       1.069   0.109   2.069  0.00  0.00    -0.075 A 
ATOM      2  C2  N4B d   1       2.038   1.137   2.077  0.00  0.00     0.002 A 
ATOM      3  C3  N4B d   1       2.903   1.257   3.137  0.00  0.00     0.002 A 
ATOM      4  C4  N4B d   1       2.807   0.376   4.203  0.00  0.00    -0.004 A 
ATOM      5  C5  N4B d   1       1.886  -0.630   4.176  0.00  0.00     0.002 A 
ATOM      6  C6  N4B d   1       1.012  -0.764   3.116  0.00  0.00     0.002 A 
ENDROOT
BRANCH   1   7
ATOM      7  C1' N4B d   1       0.046  -0.009   0.973  0.00  0.00     0.057 C 
BRANCH   7   8
ATOM      8  C2' N4B d   1      -0.072   1.331   0.251  0.00  0.00     0.009 C 
BRANCH   8   9
ATOM      9  C3' N4B d   1      -1.520   1.745   0.054  0.00  0.00     0.004 C 
ATOM     10  C4' N4B d   1      -1.955   1.670  -1.379  0.00  0.00     0.003 C 
ENDBRANCH   8   9
ENDBRANCH   7   8
ENDBRANCH   1   7
TORSDOF 3
ENDMDL
