MODEL 1
REMARK minimizedAffinity 0.146259129
REMARK minimizedRMSD -1
REMARK  3 active torsions:
REMARK  status: ('A' for Active; 'I' for Inactive)
REMARK    1  A    between atoms: C3'_2  and  C2'_3 
REMARK    2  A    between atoms: C2'_3  and  C1'_4 
REMARK    3  A    between atoms: C1'_4  and  C1_5 
ROOT
ATOM      1  C1  N4B d   1       1.122  -0.742   0.847  0.00  0.00    -0.075 A 
ATOM      2  C2  N4B d   1       0.756  -1.841   1.655  0.00  0.00     0.002 A 
ATOM      3  C3  N4B d   1       1.532  -2.189   2.733  0.00  0.00     0.002 A 
ATOM      4  C4  N4B d   1       2.683  -1.467   3.011  0.00  0.00    -0.004 A 
ATOM      5  C5  N4B d   1       3.016  -0.391   2.242  0.00  0.00     0.002 A 
ATOM      6  C6  N4B d   1       2.243  -0.028   1.157  0.00  0.00     0.002 A 
ENDROOT
BRANCH   1   7
ATOM      7  C1' N4B d   1       0.352  -0.376  -0.392  0.00  0.00     0.057 C 
BRANCH   7   8
ATOM      8  C2' N4B d   1       0.400   1.137  -0.584  0.00  0.00     0.009 C 
BRANCH   8   9
ATOM      9  C3' N4B d   1      -0.438   1.867   0.451  0.00  0.00     0.004 C 
ATOM     10  C4' N4B d   1      -0.091   3.322   0.558  0.00  0.00     0.003 C 
ENDBRANCH   8   9
ENDBRANCH   7   8
ENDBRANCH   1   7
TORSDOF 3
ENDMDL
