MODEL 1
REMARK minimizedAffinity -6.31302786
REMARK minimizedRMSD -1
REMARK  3 active torsions:
REMARK  status: ('A' for Active; 'I' for Inactive)
REMARK    1  A    between atoms: C3'_2  and  C2'_3 
REMARK    2  A    between atoms: C2'_3  and  C1'_4 
REMARK    3  A    between atoms: C1'_4  and  C1_5 
ROOT
ATOM      1  C1  N4B d   1      -0.099   0.235   0.376  0.00  0.00    -0.075 A 
ATOM      2  C2  N4B d   1       0.715   1.369   0.588  0.00  0.00     0.002 A 
ATOM      3  C3  N4B d   1       2.045   1.212   0.890  0.00  0.00     0.002 A 
ATOM      4  C4  N4B d   1       2.577  -0.064   1.003  0.00  0.00    -0.004 A 
ATOM      5  C5  N4B d   1       1.790  -1.153   0.771  0.00  0.00     0.002 A 
ATOM      6  C6  N4B d   1       0.452  -1.010   0.462  0.00  0.00     0.002 A 
ENDROOT
BRANCH   1   7
ATOM      7  C1' N4B d   1      -1.578   0.355   0.128  0.00  0.00     0.057 C 
BRANCH   7   8
ATOM      8  C2' N4B d   1      -1.958  -0.520  -1.063  0.00  0.00     0.009 C 
BRANCH   8   9
ATOM      9  C3' N4B d   1      -2.977   0.158  -1.964  0.00  0.00     0.004 C 
ATOM     10  C4' N4B d   1      -3.518  -0.757  -3.022  0.00  0.00     0.003 C 
ENDBRANCH   8   9
ENDBRANCH   7   8
ENDBRANCH   1   7
TORSDOF 3
ENDMDL
