MODEL 1
REMARK minimizedAffinity 8.96682167
REMARK minimizedRMSD -1
REMARK  1 active torsions:
REMARK  status: ('A' for Active; 'I' for Inactive)
REMARK    1  A    between atoms: C1_2  and  C2_3 
ROOT
ATOM      1  C2  UNL d   1       3.322  -2.070  -3.556  0.00  0.00    -0.073 A 
ATOM      2  C3  UNL d   1       4.638  -2.528  -3.429  0.00  0.00    -0.002 A 
ATOM      3  C4  UNL d   1       5.696  -1.789  -3.960  0.00  0.00     0.004 A 
ATOM      4  C5  UNL d   1       5.451  -0.583  -4.616  0.00  0.00    -0.004 A 
ATOM      5  C6  UNL d   1       4.143  -0.102  -4.743  0.00  0.00    -0.075 A 
ATOM      6  C7  UNL d   1       3.862   1.192  -5.447  0.00  0.00     0.076 C 
ATOM      7  C8  UNL d   1       3.086  -0.852  -4.209  0.00  0.00     0.001 A 
ENDROOT
BRANCH   1   8
ATOM      8  C1  UNL d   1       2.177  -2.861  -2.979  0.00  0.00     0.053 C 
ATOM      9  C   UNL d   1       2.615  -4.240  -2.512  0.00  0.00     0.018 C 
ENDBRANCH   1   8
TORSDOF 1
ENDMDL
