MODEL 1
REMARK minimizedAffinity 7.5455451
REMARK minimizedRMSD -1
REMARK  1 active torsions:
REMARK  status: ('A' for Active; 'I' for Inactive)
REMARK    1  A    between atoms: C1_2  and  C2_3 
ROOT
ATOM      1  C2  UNL d   1      -3.562  -5.364  -4.020  0.00  0.00    -0.073 A 
ATOM      2  C3  UNL d   1      -2.351  -5.775  -3.451  0.00  0.00    -0.002 A 
ATOM      3  C4  UNL d   1      -2.249  -5.965  -2.072  0.00  0.00     0.004 A 
ATOM      4  C5  UNL d   1      -3.356  -5.753  -1.250  0.00  0.00    -0.004 A 
ATOM      5  C6  UNL d   1      -4.578  -5.353  -1.802  0.00  0.00    -0.075 A 
ATOM      6  C7  UNL d   1      -5.777  -5.118  -0.932  0.00  0.00     0.076 C 
ATOM      7  C8  UNL d   1      -4.671  -5.162  -3.187  0.00  0.00     0.001 A 
ENDROOT
BRANCH   1   8
ATOM      8  C1  UNL d   1      -3.678  -5.164  -5.509  0.00  0.00     0.053 C 
ATOM      9  C   UNL d   1      -5.108  -5.336  -5.997  0.00  0.00     0.018 C 
ENDBRANCH   1   8
TORSDOF 1
ENDMDL
