MODEL 1
REMARK minimizedAffinity 4.32248783
REMARK minimizedRMSD -1
REMARK  1 active torsions:
REMARK  status: ('A' for Active; 'I' for Inactive)
REMARK    1  A    between atoms: C1_2  and  C2_3 
ROOT
ATOM      1  C2  UNL d   1       4.615  -0.372  -4.360  0.00  0.00    -0.073 A 
ATOM      2  C3  UNL d   1       3.519   0.420  -4.721  0.00  0.00    -0.002 A 
ATOM      3  C4  UNL d   1       2.239   0.102  -4.265  0.00  0.00     0.004 A 
ATOM      4  C5  UNL d   1       2.042  -1.005  -3.441  0.00  0.00    -0.004 A 
ATOM      5  C6  UNL d   1       3.127  -1.803  -3.060  0.00  0.00    -0.075 A 
ATOM      6  C7  UNL d   1       2.932  -2.999  -2.175  0.00  0.00     0.076 C 
ATOM      7  C8  UNL d   1       4.409  -1.478  -3.524  0.00  0.00     0.001 A 
ENDROOT
BRANCH   1   8
ATOM      8  C1  UNL d   1       6.000  -0.028  -4.845  0.00  0.00     0.053 C 
ATOM      9  C   UNL d   1       5.972   0.978  -5.984  0.00  0.00     0.018 C 
ENDBRANCH   1   8
TORSDOF 1
ENDMDL
