MODEL 1
REMARK minimizedAffinity 9.78005028
REMARK minimizedRMSD -1
REMARK  1 active torsions:
REMARK  status: ('A' for Active; 'I' for Inactive)
REMARK    1  A    between atoms: C1_2  and  C2_3 
ROOT
ATOM      1  C2  UNL d   1       2.886  -1.122  -0.939  0.00  0.00    -0.073 A 
ATOM      2  C3  UNL d   1       1.853  -1.886  -1.495  0.00  0.00    -0.002 A 
ATOM      3  C4  UNL d   1       2.038  -2.540  -2.714  0.00  0.00     0.004 A 
ATOM      4  C5  UNL d   1       3.257  -2.443  -3.385  0.00  0.00    -0.004 A 
ATOM      5  C6  UNL d   1       4.305  -1.694  -2.839  0.00  0.00    -0.075 A 
ATOM      6  C7  UNL d   1       5.622  -1.578  -3.550  0.00  0.00     0.076 C 
ATOM      7  C8  UNL d   1       4.111  -1.038  -1.616  0.00  0.00     0.001 A 
ENDROOT
BRANCH   1   8
ATOM      8  C1  UNL d   1       2.693  -0.419   0.380  0.00  0.00     0.053 C 
ATOM      9  C   UNL d   1       1.502  -0.968   1.150  0.00  0.00     0.018 C 
ENDBRANCH   1   8
TORSDOF 1
ENDMDL
