MODEL 1
REMARK minimizedAffinity 4.69421959
REMARK minimizedRMSD -1
REMARK  1 active torsions:
REMARK  status: ('A' for Active; 'I' for Inactive)
REMARK    1  A    between atoms: C1_2  and  C2_3 
ROOT
ATOM      1  C2  UNL d   1      -5.706  -4.566  -4.062  0.00  0.00    -0.073 A 
ATOM      2  C3  UNL d   1      -5.998  -3.258  -3.661  0.00  0.00    -0.002 A 
ATOM      3  C4  UNL d   1      -5.724  -2.842  -2.358  0.00  0.00     0.004 A 
ATOM      4  C5  UNL d   1      -5.149  -3.727  -1.445  0.00  0.00    -0.004 A 
ATOM      5  C6  UNL d   1      -4.839  -5.035  -1.831  0.00  0.00    -0.075 A 
ATOM      6  C7  UNL d   1      -4.223  -5.999  -0.860  0.00  0.00     0.076 C 
ATOM      7  C8  UNL d   1      -5.120  -5.446  -3.141  0.00  0.00     0.001 A 
ENDROOT
BRANCH   1   8
ATOM      8  C1  UNL d   1      -5.995  -5.018  -5.471  0.00  0.00     0.053 C 
ATOM      9  C   UNL d   1      -4.930  -5.968  -5.994  0.00  0.00     0.018 C 
ENDBRANCH   1   8
TORSDOF 1
ENDMDL
