MODEL 1
REMARK minimizedAffinity -6.50380707
REMARK minimizedRMSD -1
REMARK  3 active torsions:
REMARK  status: ('A' for Active; 'I' for Inactive)
REMARK    1  A    between atoms: C3'_2  and  C2'_3 
REMARK    2  A    between atoms: C2'_3  and  C1'_4 
REMARK    3  A    between atoms: C1'_4  and  C1_5 
ROOT
ATOM      1  C1  N4B d   1      -0.230   0.728  -0.530  0.00  0.00    -0.075 A 
ATOM      2  C2  N4B d   1      -0.368   0.735   0.875  0.00  0.00     0.002 A 
ATOM      3  C3  N4B d   1      -0.882   1.840   1.509  0.00  0.00     0.002 A 
ATOM      4  C4  N4B d   1      -1.245   2.952   0.763  0.00  0.00    -0.004 A 
ATOM      5  C5  N4B d   1      -1.131   2.928  -0.596  0.00  0.00     0.002 A 
ATOM      6  C6  N4B d   1      -0.620   1.822  -1.247  0.00  0.00     0.002 A 
ENDROOT
BRANCH   1   7
ATOM      7  C1' N4B d   1       0.406  -0.423  -1.260  0.00  0.00     0.057 C 
BRANCH   7   8
ATOM      8  C2' N4B d   1      -0.015  -1.731  -0.596  0.00  0.00     0.009 C 
BRANCH   8   9
ATOM      9  C3' N4B d   1       0.115  -2.914  -1.539  0.00  0.00     0.004 C 
ATOM     10  C4' N4B d   1      -1.097  -3.799  -1.531  0.00  0.00     0.003 C 
ENDBRANCH   8   9
ENDBRANCH   7   8
ENDBRANCH   1   7
TORSDOF 3
ENDMDL
