MODEL 1
REMARK minimizedAffinity -3.14714527
REMARK minimizedRMSD -1
REMARK  3 active torsions:
REMARK  status: ('A' for Active; 'I' for Inactive)
REMARK    1  A    between atoms: C3'_2  and  C2'_3 
REMARK    2  A    between atoms: C2'_3  and  C1'_4 
REMARK    3  A    between atoms: C1'_4  and  C1_5 
ROOT
ATOM      1  C1  N4B d   1       0.093   0.416   1.314  0.00  0.00    -0.075 A 
ATOM      2  C2  N4B d   1      -1.024   0.372   0.450  0.00  0.00     0.002 A 
ATOM      3  C3  N4B d   1      -1.988   1.348   0.524  0.00  0.00     0.002 A 
ATOM      4  C4  N4B d   1      -1.866   2.363   1.461  0.00  0.00    -0.004 A 
ATOM      5  C5  N4B d   1      -0.771   2.413   2.273  0.00  0.00     0.002 A 
ATOM      6  C6  N4B d   1       0.207   1.441   2.208  0.00  0.00     0.002 A 
ENDROOT
BRANCH   1   7
ATOM      7  C1' N4B d   1       1.128  -0.675   1.329  0.00  0.00     0.057 C 
BRANCH   7   8
ATOM      8  C2' N4B d   1       2.248  -0.289   2.291  0.00  0.00     0.009 C 
BRANCH   8   9
ATOM      9  C3' N4B d   1       2.220  -1.123   3.560  0.00  0.00     0.004 C 
ATOM     10  C4' N4B d   1       3.587  -1.555   4.002  0.00  0.00     0.003 C 
ENDBRANCH   8   9
ENDBRANCH   7   8
ENDBRANCH   1   7
TORSDOF 3
ENDMDL
