MODEL 1
REMARK minimizedAffinity -6.47541285
REMARK minimizedRMSD -1
REMARK  3 active torsions:
REMARK  status: ('A' for Active; 'I' for Inactive)
REMARK    1  A    between atoms: C3'_2  and  C2'_3 
REMARK    2  A    between atoms: C2'_3  and  C1'_4 
REMARK    3  A    between atoms: C1'_4  and  C1_5 
ROOT
ATOM      1  C1  N4B d   1      -0.077  -0.152   0.095  0.00  0.00    -0.075 A 
ATOM      2  C2  N4B d   1       0.042   0.169   1.465  0.00  0.00     0.002 A 
ATOM      3  C3  N4B d   1      -0.503   1.334   1.947  0.00  0.00     0.002 A 
ATOM      4  C4  N4B d   1      -1.152   2.198   1.078  0.00  0.00    -0.004 A 
ATOM      5  C5  N4B d   1      -1.285   1.868  -0.239  0.00  0.00     0.002 A 
ATOM      6  C6  N4B d   1      -0.746   0.699  -0.736  0.00  0.00     0.002 A 
ENDROOT
BRANCH   1   7
ATOM      7  C1' N4B d   1       0.576  -1.373  -0.494  0.00  0.00     0.057 C 
BRANCH   7   8
ATOM      8  C2' N4B d   1       0.285  -1.423  -1.991  0.00  0.00     0.009 C 
BRANCH   8   9
ATOM      9  C3' N4B d   1      -0.468  -2.683  -2.382  0.00  0.00     0.004 C 
ATOM     10  C4' N4B d   1      -1.172  -3.322  -1.222  0.00  0.00     0.003 C 
ENDBRANCH   8   9
ENDBRANCH   7   8
ENDBRANCH   1   7
TORSDOF 3
ENDMDL
