MODEL 1
REMARK minimizedAffinity 2.89962077
REMARK minimizedRMSD -1
REMARK  3 active torsions:
REMARK  status: ('A' for Active; 'I' for Inactive)
REMARK    1  A    between atoms: C3'_2  and  C2'_3 
REMARK    2  A    between atoms: C2'_3  and  C1'_4 
REMARK    3  A    between atoms: C1'_4  and  C1_5 
ROOT
ATOM      1  C1  N4B d   1      -2.118   2.468  -1.106  0.00  0.00    -0.075 A 
ATOM      2  C2  N4B d   1      -1.952   1.091  -1.373  0.00  0.00     0.002 A 
ATOM      3  C3  N4B d   1      -0.725   0.500  -1.197  0.00  0.00     0.002 A 
ATOM      4  C4  N4B d   1       0.351   1.267  -0.774  0.00  0.00    -0.004 A 
ATOM      5  C5  N4B d   1       0.176   2.590  -0.494  0.00  0.00     0.002 A 
ATOM      6  C6  N4B d   1      -1.053   3.196  -0.662  0.00  0.00     0.002 A 
ENDROOT
BRANCH   1   7
ATOM      7  C1' N4B d   1      -3.419   3.176  -1.365  0.00  0.00     0.057 C 
BRANCH   7   8
ATOM      8  C2' N4B d   1      -3.381   3.801  -2.757  0.00  0.00     0.009 C 
BRANCH   8   9
ATOM      9  C3' N4B d   1      -4.668   4.538  -3.085  0.00  0.00     0.004 C 
ATOM     10  C4' N4B d   1      -4.755   4.940  -4.527  0.00  0.00     0.003 C 
ENDBRANCH   8   9
ENDBRANCH   7   8
ENDBRANCH   1   7
TORSDOF 3
ENDMDL
