MODEL 1
REMARK minimizedAffinity 0.792306364
REMARK minimizedRMSD -1
REMARK  0 active torsions:
REMARK  status: ('A' for Active; 'I' for Inactive)
ROOT
ATOM      1  C   UNL d   1      -2.586  -1.129   1.810  0.00  0.00     0.172 C 
ATOM      2  N   UNL d   1      -3.919  -1.339   2.326  0.00  0.00    -0.070 N 
ATOM      3  C1  UNL d   1      -4.870  -0.368   2.498  0.00  0.00    -0.004 A 
ATOM      4  C2  UNL d   1      -5.999  -0.970   3.009  0.00  0.00    -0.047 A 
ATOM      5  C3  UNL d   1      -5.717  -2.350   3.151  0.00  0.00    -0.047 A 
ATOM      6  C4  UNL d   1      -4.422  -2.550   2.721  0.00  0.00    -0.004 A 
ENDROOT
TORSDOF 0
ENDMDL
