MODEL 1
REMARK minimizedAffinity 0.609526992
REMARK minimizedRMSD -1
REMARK  0 active torsions:
REMARK  status: ('A' for Active; 'I' for Inactive)
ROOT
ATOM      1  C   UNL d   1       1.142   2.905  -2.719  0.00  0.00     0.172 C 
ATOM      2  N   UNL d   1       2.067   2.402  -1.730  0.00  0.00    -0.070 N 
ATOM      3  C1  UNL d   1       1.745   2.030  -0.453  0.00  0.00    -0.004 A 
ATOM      4  C2  UNL d   1       2.901   1.609   0.168  0.00  0.00    -0.047 A 
ATOM      5  C3  UNL d   1       3.955   1.734  -0.769  0.00  0.00    -0.047 A 
ATOM      6  C4  UNL d   1       3.410   2.227  -1.936  0.00  0.00    -0.004 A 
ENDROOT
TORSDOF 0
ENDMDL
