MODEL 1
REMARK minimizedAffinity 4.04218149
REMARK minimizedRMSD -1
REMARK  0 active torsions:
REMARK  status: ('A' for Active; 'I' for Inactive)
ROOT
ATOM      1  C   UNL d   1      -3.120  -5.030  -5.011  0.00  0.00     0.172 C 
ATOM      2  N   UNL d   1      -2.284  -4.429  -3.998  0.00  0.00    -0.070 N 
ATOM      3  C1  UNL d   1      -2.378  -3.139  -3.548  0.00  0.00    -0.004 A 
ATOM      4  C2  UNL d   1      -1.408  -2.956  -2.586  0.00  0.00    -0.047 A 
ATOM      5  C3  UNL d   1      -0.706  -4.178  -2.455  0.00  0.00    -0.047 A 
ATOM      6  C4  UNL d   1      -1.269  -5.072  -3.341  0.00  0.00    -0.004 A 
ENDROOT
TORSDOF 0
ENDMDL
