MODEL 1
REMARK minimizedAffinity 5.64335108
REMARK minimizedRMSD -1
REMARK  0 active torsions:
REMARK  status: ('A' for Active; 'I' for Inactive)
ROOT
ATOM      1  C   UNL d   1      -5.025   0.129   1.103  0.00  0.00     0.172 C 
ATOM      2  N   UNL d   1      -3.675  -0.205   1.491  0.00  0.00    -0.070 N 
ATOM      3  C1  UNL d   1      -2.919   0.468   2.414  0.00  0.00    -0.004 A 
ATOM      4  C2  UNL d   1      -1.696  -0.161   2.497  0.00  0.00    -0.047 A 
ATOM      5  C3  UNL d   1      -1.716  -1.249   1.592  0.00  0.00    -0.047 A 
ATOM      6  C4  UNL d   1      -2.953  -1.253   0.983  0.00  0.00    -0.004 A 
ENDROOT
TORSDOF 0
ENDMDL
