MODEL 1
REMARK minimizedAffinity 10.9559956
REMARK minimizedRMSD -1
REMARK  0 active torsions:
REMARK  status: ('A' for Active; 'I' for Inactive)
ROOT
ATOM      1  C   UNL d   1      -4.130  -4.573   2.614  0.00  0.00     0.172 C 
ATOM      2  N   UNL d   1      -4.634  -4.783   3.951  0.00  0.00    -0.070 N 
ATOM      3  C1  UNL d   1      -4.862  -6.000   4.537  0.00  0.00    -0.004 A 
ATOM      4  C2  UNL d   1      -5.338  -5.773   5.810  0.00  0.00    -0.047 A 
ATOM      5  C3  UNL d   1      -5.399  -4.371   5.996  0.00  0.00    -0.047 A 
ATOM      6  C4  UNL d   1      -4.957  -3.783   4.830  0.00  0.00    -0.004 A 
ENDROOT
TORSDOF 0
ENDMDL
