MODEL 1
REMARK minimizedAffinity 2.34841847
REMARK minimizedRMSD -1
REMARK  0 active torsions:
REMARK  status: ('A' for Active; 'I' for Inactive)
ROOT
ATOM      1  C   UNL d   1      -5.246  -0.008   2.410  0.00  0.00     0.172 C 
ATOM      2  N   UNL d   1      -5.039   0.497   3.747  0.00  0.00    -0.070 N 
ATOM      3  C1  UNL d   1      -3.866   0.435   4.452  0.00  0.00    -0.004 A 
ATOM      4  C2  UNL d   1      -4.080   1.024   5.679  0.00  0.00    -0.047 A 
ATOM      5  C3  UNL d   1      -5.427   1.455   5.713  0.00  0.00    -0.047 A 
ATOM      6  C4  UNL d   1      -5.998   1.116   4.505  0.00  0.00    -0.004 A 
ENDROOT
TORSDOF 0
ENDMDL
