MODEL 1
REMARK minimizedAffinity 0.914911449
REMARK minimizedRMSD -1
REMARK  0 active torsions:
REMARK  status: ('A' for Active; 'I' for Inactive)
ROOT
ATOM      1  C   UNL d   1      -4.888  -1.482   2.667  0.00  0.00     0.172 C 
ATOM      2  N   UNL d   1      -4.843  -0.607   3.814  0.00  0.00    -0.070 N 
ATOM      3  C1  UNL d   1      -4.814   0.762   3.774  0.00  0.00    -0.004 A 
ATOM      4  C2  UNL d   1      -4.775   1.222   5.072  0.00  0.00    -0.047 A 
ATOM      5  C3  UNL d   1      -4.780   0.091   5.922  0.00  0.00    -0.047 A 
ATOM      6  C4  UNL d   1      -4.822  -1.028   5.118  0.00  0.00    -0.004 A 
ENDROOT
TORSDOF 0
ENDMDL
