MODEL 1
REMARK minimizedAffinity 6.26238108
REMARK minimizedRMSD -1
REMARK  0 active torsions:
REMARK  status: ('A' for Active; 'I' for Inactive)
ROOT
ATOM      1  C   UNL d   1      -3.778  -5.870  -3.735  0.00  0.00     0.172 C 
ATOM      2  N   UNL d   1      -2.419  -5.565  -4.118  0.00  0.00    -0.070 N 
ATOM      3  C1  UNL d   1      -1.539  -4.802  -3.397  0.00  0.00    -0.004 A 
ATOM      4  C2  UNL d   1      -0.354  -4.750  -4.097  0.00  0.00    -0.047 A 
ATOM      5  C3  UNL d   1      -0.527  -5.507  -5.280  0.00  0.00    -0.047 A 
ATOM      6  C4  UNL d   1      -1.815  -6.000  -5.267  0.00  0.00    -0.004 A 
ENDROOT
TORSDOF 0
ENDMDL
