MODEL 1
REMARK minimizedAffinity 1.91482317
REMARK minimizedRMSD -1
REMARK  0 active torsions:
REMARK  status: ('A' for Active; 'I' for Inactive)
ROOT
ATOM      1  C   UNL d   1       1.665  -5.996  -4.264  0.00  0.00     0.172 C 
ATOM      2  N   UNL d   1       0.257  -5.758  -4.484  0.00  0.00    -0.070 N 
ATOM      3  C1  UNL d   1      -0.420  -6.000  -5.650  0.00  0.00    -0.004 A 
ATOM      4  C2  UNL d   1      -1.736  -5.643  -5.455  0.00  0.00    -0.047 A 
ATOM      5  C3  UNL d   1      -1.855  -5.169  -4.126  0.00  0.00    -0.047 A 
ATOM      6  C4  UNL d   1      -0.605  -5.252  -3.549  0.00  0.00    -0.004 A 
ENDROOT
TORSDOF 0
ENDMDL
