MODEL 1
REMARK minimizedAffinity 5.54710197
REMARK minimizedRMSD -1
REMARK  0 active torsions:
REMARK  status: ('A' for Active; 'I' for Inactive)
ROOT
ATOM      1  C   UNL d   1      -2.914   1.130   3.922  0.00  0.00     0.172 C 
ATOM      2  N   UNL d   1      -2.312   0.195   3.001  0.00  0.00    -0.070 N 
ATOM      3  C1  UNL d   1      -0.978  -0.107   2.928  0.00  0.00    -0.004 A 
ATOM      4  C2  UNL d   1      -0.811  -1.039   1.927  0.00  0.00    -0.047 A 
ATOM      5  C3  UNL d   1      -2.087  -1.305   1.378  0.00  0.00    -0.047 A 
ATOM      6  C4  UNL d   1      -2.999  -0.528   2.062  0.00  0.00    -0.004 A 
ENDROOT
TORSDOF 0
ENDMDL
