MODEL 1
REMARK minimizedAffinity 5.02977943
REMARK minimizedRMSD -1
REMARK  0 active torsions:
REMARK  status: ('A' for Active; 'I' for Inactive)
ROOT
ATOM      1  C   UNL d   1      -5.063  -5.999   5.389  0.00  0.00     0.172 C 
ATOM      2  N   UNL d   1      -5.253  -5.366   4.105  0.00  0.00    -0.070 N 
ATOM      3  C1  UNL d   1      -4.740  -4.153   3.730  0.00  0.00    -0.004 A 
ATOM      4  C2  UNL d   1      -5.147  -3.905   2.437  0.00  0.00    -0.047 A 
ATOM      5  C3  UNL d   1      -5.933  -5.005   2.021  0.00  0.00    -0.047 A 
ATOM      6  C4  UNL d   1      -5.983  -5.895   3.074  0.00  0.00    -0.004 A 
ENDROOT
TORSDOF 0
ENDMDL
