MODEL 1
REMARK minimizedAffinity 7.8223052
REMARK minimizedRMSD -1
REMARK  0 active torsions:
REMARK  status: ('A' for Active; 'I' for Inactive)
ROOT
ATOM      1  C   UNL d   1      -4.920  -5.999   6.000  0.00  0.00     0.172 C 
ATOM      2  N   UNL d   1      -4.929  -5.344   4.713  0.00  0.00    -0.070 N 
ATOM      3  C1  UNL d   1      -4.942  -3.990   4.507  0.00  0.00    -0.004 A 
ATOM      4  C2  UNL d   1      -4.946  -3.770   3.146  0.00  0.00    -0.047 A 
ATOM      5  C3  UNL d   1      -4.936  -5.036   2.513  0.00  0.00    -0.047 A 
ATOM      6  C4  UNL d   1      -4.926  -5.992   3.507  0.00  0.00    -0.004 A 
ENDROOT
TORSDOF 0
ENDMDL
