MODEL 1
REMARK minimizedAffinity 1.72584593
REMARK minimizedRMSD -1
REMARK  0 active torsions:
REMARK  status: ('A' for Active; 'I' for Inactive)
ROOT
ATOM      1  C   UNL d   1      -2.593  -6.000  -6.000  0.00  0.00     0.172 C 
ATOM      2  N   UNL d   1      -1.549  -5.517  -5.126  0.00  0.00    -0.070 N 
ATOM      3  C1  UNL d   1      -0.255  -5.964  -5.106  0.00  0.00    -0.004 A 
ATOM      4  C2  UNL d   1       0.421  -5.255  -4.136  0.00  0.00    -0.047 A 
ATOM      5  C3  UNL d   1      -0.500  -4.352  -3.553  0.00  0.00    -0.047 A 
ATOM      6  C4  UNL d   1      -1.711  -4.535  -4.185  0.00  0.00    -0.004 A 
ENDROOT
TORSDOF 0
ENDMDL
