MODEL 1
REMARK minimizedAffinity 1.59630823
REMARK minimizedRMSD -1
REMARK  0 active torsions:
REMARK  status: ('A' for Active; 'I' for Inactive)
ROOT
ATOM      1  C   UNL d   1      -5.853  -6.000   5.974  0.00  0.00     0.172 C 
ATOM      2  N   UNL d   1      -5.687  -5.319   4.711  0.00  0.00    -0.070 N 
ATOM      3  C1  UNL d   1      -5.456  -3.979   4.551  0.00  0.00    -0.004 A 
ATOM      4  C2  UNL d   1      -5.358  -3.727   3.199  0.00  0.00    -0.047 A 
ATOM      5  C3  UNL d   1      -5.538  -4.958   2.525  0.00  0.00    -0.047 A 
ATOM      6  C4  UNL d   1      -5.740  -5.927   3.485  0.00  0.00    -0.004 A 
ENDROOT
TORSDOF 0
ENDMDL
