MODEL 1
REMARK minimizedAffinity 12.5570345
REMARK minimizedRMSD -1
REMARK  0 active torsions:
REMARK  status: ('A' for Active; 'I' for Inactive)
ROOT
ATOM      1  C   UNL d   1       3.995   2.975  -4.103  0.00  0.00     0.172 C 
ATOM      2  N   UNL d   1       2.922   2.538  -3.241  0.00  0.00    -0.070 N 
ATOM      3  C1  UNL d   1       1.597   2.844  -3.398  0.00  0.00    -0.004 A 
ATOM      4  C2  UNL d   1       0.900   2.239  -2.375  0.00  0.00    -0.047 A 
ATOM      5  C3  UNL d   1       1.839   1.545  -1.575  0.00  0.00    -0.047 A 
ATOM      6  C4  UNL d   1       3.083   1.748  -2.134  0.00  0.00    -0.004 A 
ENDROOT
TORSDOF 0
ENDMDL
