MODEL 1
REMARK minimizedAffinity 8.09376907
REMARK minimizedRMSD -1
REMARK  0 active torsions:
REMARK  status: ('A' for Active; 'I' for Inactive)
ROOT
ATOM      1  C   UNL d   1       5.632  -3.381  -0.750  0.00  0.00     0.172 C 
ATOM      2  N   UNL d   1       4.678  -4.446  -0.952  0.00  0.00    -0.070 N 
ATOM      3  C1  UNL d   1       3.913  -5.028   0.023  0.00  0.00    -0.004 A 
ATOM      4  C2  UNL d   1       3.136  -5.998  -0.573  0.00  0.00    -0.047 A 
ATOM      5  C3  UNL d   1       3.446  -6.000  -1.954  0.00  0.00    -0.047 A 
ATOM      6  C4  UNL d   1       4.404  -5.029  -2.161  0.00  0.00    -0.004 A 
ENDROOT
TORSDOF 0
ENDMDL
