MODEL 1
REMARK minimizedAffinity -0.0580840111
REMARK minimizedRMSD -1
REMARK  1 active torsions:
REMARK  status: ('A' for Active; 'I' for Inactive)
REMARK    1  A    between atoms: C1_2  and  C2_3 
ROOT
ATOM      1  C2  UNL d   1       2.359  -0.989   0.519  0.00  0.00    -0.073 A 
ATOM      2  C3  UNL d   1       2.399  -1.736  -0.664  0.00  0.00    -0.002 A 
ATOM      3  C4  UNL d   1       2.337  -1.099  -1.903  0.00  0.00     0.004 A 
ATOM      4  C5  UNL d   1       2.241   0.291  -1.974  0.00  0.00    -0.004 A 
ATOM      5  C6  UNL d   1       2.211   1.056  -0.804  0.00  0.00    -0.075 A 
ATOM      6  C7  UNL d   1       2.106   2.552  -0.863  0.00  0.00     0.076 C 
ATOM      7  C8  UNL d   1       2.271   0.408   0.437  0.00  0.00     0.001 A 
ENDROOT
BRANCH   1   8
ATOM      8  C1  UNL d   1       2.432  -1.672   1.860  0.00  0.00     0.053 C 
ATOM      9  C   UNL d   1       1.293  -1.253   2.776  0.00  0.00     0.018 C 
ENDBRANCH   1   8
TORSDOF 1
ENDMDL
