MODEL 1
REMARK minimizedAffinity 6.77419901
REMARK minimizedRMSD -1
REMARK  1 active torsions:
REMARK  status: ('A' for Active; 'I' for Inactive)
REMARK    1  A    between atoms: C1_2  and  C2_3 
ROOT
ATOM      1  C2  UNL d   1       1.298  -1.064   0.990  0.00  0.00    -0.073 A 
ATOM      2  C3  UNL d   1       2.014  -1.507   2.108  0.00  0.00    -0.002 A 
ATOM      3  C4  UNL d   1       1.473  -1.377   3.388  0.00  0.00     0.004 A 
ATOM      4  C5  UNL d   1       0.211  -0.811   3.563  0.00  0.00    -0.004 A 
ATOM      5  C6  UNL d   1      -0.525  -0.374   2.457  0.00  0.00    -0.075 A 
ATOM      6  C7  UNL d   1      -1.884   0.240   2.628  0.00  0.00     0.076 C 
ATOM      7  C8  UNL d   1       0.026  -0.504   1.175  0.00  0.00     0.001 A 
ENDROOT
BRANCH   1   8
ATOM      8  C1  UNL d   1       1.876  -1.207  -0.394  0.00  0.00     0.053 C 
ATOM      9  C   UNL d   1       0.943  -0.654  -1.460  0.00  0.00     0.018 C 
ENDBRANCH   1   8
TORSDOF 1
ENDMDL
