MODEL 1
REMARK minimizedAffinity 6.71440315
REMARK minimizedRMSD -1
REMARK  1 active torsions:
REMARK  status: ('A' for Active; 'I' for Inactive)
REMARK    1  A    between atoms: C1_2  and  C2_3 
ROOT
ATOM      1  C2  UNL d   1       1.749  -0.797   0.846  0.00  0.00    -0.073 A 
ATOM      2  C3  UNL d   1       1.348  -1.432  -0.336  0.00  0.00    -0.002 A 
ATOM      3  C4  UNL d   1       1.539  -0.809  -1.570  0.00  0.00     0.004 A 
ATOM      4  C5  UNL d   1       2.137   0.449  -1.636  0.00  0.00    -0.004 A 
ATOM      5  C6  UNL d   1       2.555   1.094  -0.467  0.00  0.00    -0.075 A 
ATOM      6  C7  UNL d   1       3.198   2.449  -0.522  0.00  0.00     0.076 C 
ATOM      7  C8  UNL d   1       2.358   0.464   0.768  0.00  0.00     0.001 A 
ENDROOT
BRANCH   1   8
ATOM      8  C1  UNL d   1       1.551  -1.469   2.180  0.00  0.00     0.053 C 
ATOM      9  C   UNL d   1       2.161  -0.666   3.318  0.00  0.00     0.018 C 
ENDBRANCH   1   8
TORSDOF 1
ENDMDL
