MODEL 1
REMARK minimizedAffinity 5.53932047
REMARK minimizedRMSD -1
REMARK  1 active torsions:
REMARK  status: ('A' for Active; 'I' for Inactive)
REMARK    1  A    between atoms: C1_2  and  C2_3 
ROOT
ATOM      1  C2  UNL d   1      -1.453   0.425   3.152  0.00  0.00    -0.073 A 
ATOM      2  C3  UNL d   1      -0.096   0.380   3.492  0.00  0.00    -0.002 A 
ATOM      3  C4  UNL d   1       0.765  -0.505   2.841  0.00  0.00     0.004 A 
ATOM      4  C5  UNL d   1       0.280  -1.347   1.841  0.00  0.00    -0.004 A 
ATOM      5  C6  UNL d   1      -1.070  -1.309   1.478  0.00  0.00    -0.075 A 
ATOM      6  C7  UNL d   1      -1.607  -2.210   0.405  0.00  0.00     0.076 C 
ATOM      7  C8  UNL d   1      -1.929  -0.419   2.138  0.00  0.00     0.001 A 
ENDROOT
BRANCH   1   8
ATOM      8  C1  UNL d   1      -2.385   1.383   3.847  0.00  0.00     0.053 C 
ATOM      9  C   UNL d   1      -3.792   1.327   3.273  0.00  0.00     0.018 C 
ENDBRANCH   1   8
TORSDOF 1
ENDMDL
