MODEL 1
REMARK minimizedAffinity 8.00355721
REMARK minimizedRMSD -1
REMARK  1 active torsions:
REMARK  status: ('A' for Active; 'I' for Inactive)
REMARK    1  A    between atoms: C1_2  and  C2_3 
ROOT
ATOM      1  C2  UNL d   1      -0.198  -0.801   2.107  0.00  0.00    -0.073 A 
ATOM      2  C3  UNL d   1       0.221  -0.441   3.393  0.00  0.00    -0.002 A 
ATOM      3  C4  UNL d   1       1.494  -0.793   3.843  0.00  0.00     0.004 A 
ATOM      4  C5  UNL d   1       2.362  -1.501   3.012  0.00  0.00    -0.004 A 
ATOM      5  C6  UNL d   1       1.966  -1.859   1.719  0.00  0.00    -0.075 A 
ATOM      6  C7  UNL d   1       2.887  -2.622   0.813  0.00  0.00     0.076 C 
ATOM      7  C8  UNL d   1       0.685  -1.504   1.275  0.00  0.00     0.001 A 
ENDROOT
BRANCH   1   8
ATOM      8  C1  UNL d   1      -1.570  -0.417   1.614  0.00  0.00     0.053 C 
ATOM      9  C   UNL d   1      -2.239   0.601   2.524  0.00  0.00     0.018 C 
ENDBRANCH   1   8
TORSDOF 1
ENDMDL
