MODEL 1
REMARK minimizedAffinity 6.78101683
REMARK minimizedRMSD -1
REMARK  1 active torsions:
REMARK  status: ('A' for Active; 'I' for Inactive)
REMARK    1  A    between atoms: C1_2  and  C2_3 
ROOT
ATOM      1  C2  UNL d   1       0.839  -0.751   0.110  0.00  0.00    -0.073 A 
ATOM      2  C3  UNL d   1       2.125  -1.275   0.278  0.00  0.00    -0.002 A 
ATOM      3  C4  UNL d   1       2.633  -1.500   1.559  0.00  0.00     0.004 A 
ATOM      4  C5  UNL d   1       1.859  -1.209   2.682  0.00  0.00    -0.004 A 
ATOM      5  C6  UNL d   1       0.566  -0.695   2.534  0.00  0.00    -0.075 A 
ATOM      6  C7  UNL d   1      -0.278  -0.375   3.732  0.00  0.00     0.076 C 
ATOM      7  C8  UNL d   1       0.065  -0.470   1.245  0.00  0.00     0.001 A 
ENDROOT
BRANCH   1   8
ATOM      8  C1  UNL d   1       0.284  -0.513  -1.271  0.00  0.00     0.053 C 
ATOM      9  C   UNL d   1      -1.234  -0.598  -1.297  0.00  0.00     0.018 C 
ENDBRANCH   1   8
TORSDOF 1
ENDMDL
