MODEL 1
REMARK minimizedAffinity 0.467142224
REMARK minimizedRMSD -1
REMARK  0 active torsions:
REMARK  status: ('A' for Active; 'I' for Inactive)
ROOT
ATOM      1  C1  DEN d   1      -1.875   0.000   2.658  0.00  0.00     0.130 A 
ATOM      2  C2  DEN d   1      -0.851  -0.330   3.645  0.00  0.00    -0.031 A 
ATOM      3  C3  DEN d   1       0.365  -0.750   2.918  0.00  0.00     0.027 A 
ATOM      4  C4  DEN d   1       0.759  -0.915   0.375  0.00  0.00     0.027 A 
ATOM      5  C5  DEN d   1       0.180  -0.750  -0.864  0.00  0.00    -0.003 A 
ATOM      6  C6  DEN d   1      -1.124  -0.359  -1.014  0.00  0.00     0.001 A 
ATOM      7  C7  DEN d   1      -1.880  -0.077   0.093  0.00  0.00     0.017 A 
ATOM      8  C8  DEN d   1      -1.305  -0.248   1.346  0.00  0.00    -0.094 A 
ATOM      9  C9  DEN d   1       0.019  -0.632   1.476  0.00  0.00    -0.072 A 
ENDROOT
TORSDOF 0
ENDMDL
