MODEL 1
REMARK minimizedAffinity 1.6033076
REMARK minimizedRMSD -1
REMARK  0 active torsions:
REMARK  status: ('A' for Active; 'I' for Inactive)
ROOT
ATOM      1  C1  DEN d   1       1.199  -1.112   3.895  0.00  0.00     0.130 A 
ATOM      2  C2  DEN d   1       1.973  -0.501   2.819  0.00  0.00    -0.031 A 
ATOM      3  C3  DEN d   1       1.025   0.039   1.823  0.00  0.00     0.027 A 
ATOM      4  C4  DEN d   1      -1.553  -0.008   1.847  0.00  0.00     0.027 A 
ATOM      5  C5  DEN d   1      -2.662  -0.428   2.548  0.00  0.00    -0.003 A 
ATOM      6  C6  DEN d   1      -2.562  -1.130   3.720  0.00  0.00     0.001 A 
ATOM      7  C7  DEN d   1      -1.327  -1.393   4.250  0.00  0.00     0.017 A 
ATOM      8  C8  DEN d   1      -0.204  -0.979   3.545  0.00  0.00    -0.094 A 
ATOM      9  C9  DEN d   1      -0.326  -0.261   2.368  0.00  0.00    -0.072 A 
ENDROOT
TORSDOF 0
ENDMDL
