MODEL 1
REMARK minimizedAffinity 7.04127026
REMARK minimizedRMSD -1
REMARK  0 active torsions:
REMARK  status: ('A' for Active; 'I' for Inactive)
ROOT
ATOM      1  C1  DEN d   1       1.224  -0.829  -0.421  0.00  0.00     0.130 A 
ATOM      2  C2  DEN d   1       2.073  -0.375   0.678  0.00  0.00    -0.031 A 
ATOM      3  C3  DEN d   1       1.220   0.347   1.644  0.00  0.00     0.027 A 
ATOM      4  C4  DEN d   1      -1.317   0.800   1.548  0.00  0.00     0.027 A 
ATOM      5  C5  DEN d   1      -2.462   0.620   0.803  0.00  0.00    -0.003 A 
ATOM      6  C6  DEN d   1      -2.453  -0.020  -0.407  0.00  0.00     0.001 A 
ATOM      7  C7  DEN d   1      -1.282  -0.544  -0.889  0.00  0.00     0.017 A 
ATOM      8  C8  DEN d   1      -0.122  -0.360  -0.148  0.00  0.00    -0.094 A 
ATOM      9  C9  DEN d   1      -0.155   0.279   1.080  0.00  0.00    -0.072 A 
ENDROOT
TORSDOF 0
ENDMDL
