MODEL 1
REMARK minimizedAffinity 11.8937502
REMARK minimizedRMSD -1
REMARK  0 active torsions:
REMARK  status: ('A' for Active; 'I' for Inactive)
ROOT
ATOM      1  C1  DEN d   1      -3.325  -1.602   2.568  0.00  0.00     0.130 A 
ATOM      2  C2  DEN d   1      -3.030  -0.741   3.710  0.00  0.00    -0.031 A 
ATOM      3  C3  DEN d   1      -2.556   0.558   3.192  0.00  0.00     0.027 A 
ATOM      4  C4  DEN d   1      -2.258   1.318   0.745  0.00  0.00     0.027 A 
ATOM      5  C5  DEN d   1      -2.369   0.931  -0.572  0.00  0.00    -0.003 A 
ATOM      6  C6  DEN d   1      -2.771  -0.328  -0.932  0.00  0.00     0.001 A 
ATOM      7  C7  DEN d   1      -3.120  -1.232   0.037  0.00  0.00     0.017 A 
ATOM      8  C8  DEN d   1      -3.003  -0.851   1.368  0.00  0.00    -0.094 A 
ATOM      9  C9  DEN d   1      -2.607   0.430   1.710  0.00  0.00    -0.072 A 
ENDROOT
TORSDOF 0
ENDMDL
