MODEL 1
REMARK minimizedAffinity -1.12603164
REMARK minimizedRMSD -1
REMARK  0 active torsions:
REMARK  status: ('A' for Active; 'I' for Inactive)
ROOT
ATOM      1  C1  DEN d   1      -2.297   0.184   2.287  0.00  0.00     0.130 A 
ATOM      2  C2  DEN d   1      -3.156  -0.360   3.335  0.00  0.00    -0.031 A 
ATOM      3  C3  DEN d   1      -2.301  -1.087   4.295  0.00  0.00     0.027 A 
ATOM      4  C4  DEN d   1       0.257  -1.416   4.262  0.00  0.00     0.027 A 
ATOM      5  C5  DEN d   1       1.414  -1.149   3.565  0.00  0.00    -0.003 A 
ATOM      6  C6  DEN d   1       1.412  -0.453   2.385  0.00  0.00     0.001 A 
ATOM      7  C7  DEN d   1       0.233   0.038   1.889  0.00  0.00     0.017 A 
ATOM      8  C8  DEN d   1      -0.939  -0.234   2.582  0.00  0.00    -0.094 A 
ATOM      9  C9  DEN d   1      -0.914  -0.928   3.780  0.00  0.00    -0.072 A 
ENDROOT
TORSDOF 0
ENDMDL
