MODEL 1
REMARK minimizedAffinity 3.01184225
REMARK minimizedRMSD -1
REMARK  0 active torsions:
REMARK  status: ('A' for Active; 'I' for Inactive)
ROOT
ATOM      1  C   UNL d   1      -0.486   2.808  -0.382  0.00  0.00     0.078 C 
ATOM      2  C1  UNL d   1      -0.846   1.398  -0.745  0.00  0.00    -0.077 A 
ATOM      3  C2  UNL d   1       0.138   0.477  -1.123  0.00  0.00    -0.001 A 
ATOM      4  C3  UNL d   1      -0.212  -0.829  -1.467  0.00  0.00     0.003 A 
ATOM      5  C4  UNL d   1      -1.548  -1.226  -1.439  0.00  0.00    -0.005 A 
ATOM      6  C5  UNL d   1      -2.535  -0.316  -1.067  0.00  0.00     0.003 A 
ATOM      7  C6  UNL d   1      -2.186   0.991  -0.722  0.00  0.00    -0.001 A 
ENDROOT
TORSDOF 0
ENDMDL
