MODEL 1
REMARK minimizedAffinity 9.01256275
REMARK minimizedRMSD -1
REMARK  0 active torsions:
REMARK  status: ('A' for Active; 'I' for Inactive)
ROOT
ATOM      1  C   UNL d   1      -1.782  -1.696  -2.396  0.00  0.00     0.078 C 
ATOM      2  C1  UNL d   1      -2.732  -0.735  -1.746  0.00  0.00    -0.077 A 
ATOM      3  C2  UNL d   1      -2.771   0.611  -2.130  0.00  0.00    -0.001 A 
ATOM      4  C3  UNL d   1      -3.654   1.497  -1.510  0.00  0.00     0.003 A 
ATOM      5  C4  UNL d   1      -4.503   1.046  -0.501  0.00  0.00    -0.005 A 
ATOM      6  C5  UNL d   1      -4.470  -0.291  -0.111  0.00  0.00     0.003 A 
ATOM      7  C6  UNL d   1      -3.588  -1.178  -0.730  0.00  0.00    -0.001 A 
ENDROOT
TORSDOF 0
ENDMDL
