MODEL 1
REMARK minimizedAffinity 3.47518277
REMARK minimizedRMSD -1
REMARK  0 active torsions:
REMARK  status: ('A' for Active; 'I' for Inactive)
ROOT
ATOM      1  C   UNL d   1      -0.285   3.129  -0.178  0.00  0.00     0.078 C 
ATOM      2  C1  UNL d   1       0.043   2.520   1.152  0.00  0.00    -0.077 A 
ATOM      3  C2  UNL d   1       1.283   2.744   1.762  0.00  0.00    -0.001 A 
ATOM      4  C3  UNL d   1       1.579   2.163   2.996  0.00  0.00     0.003 A 
ATOM      5  C4  UNL d   1       0.639   1.353   3.631  0.00  0.00    -0.005 A 
ATOM      6  C5  UNL d   1      -0.597   1.122   3.031  0.00  0.00     0.003 A 
ATOM      7  C6  UNL d   1      -0.894   1.703   1.797  0.00  0.00    -0.001 A 
ENDROOT
TORSDOF 0
ENDMDL
