MODEL 1
REMARK minimizedAffinity 9.50944042
REMARK minimizedRMSD -1
REMARK  0 active torsions:
REMARK  status: ('A' for Active; 'I' for Inactive)
ROOT
ATOM      1  C   UNL d   1      -0.474   2.717  -0.400  0.00  0.00     0.078 C 
ATOM      2  C1  UNL d   1      -0.831   1.347  -0.893  0.00  0.00    -0.077 A 
ATOM      3  C2  UNL d   1      -2.131   0.845  -0.749  0.00  0.00    -0.001 A 
ATOM      4  C3  UNL d   1      -2.447  -0.436  -1.204  0.00  0.00     0.003 A 
ATOM      5  C4  UNL d   1      -1.470  -1.226  -1.805  0.00  0.00    -0.005 A 
ATOM      6  C5  UNL d   1      -0.173  -0.737  -1.950  0.00  0.00     0.003 A 
ATOM      7  C6  UNL d   1       0.145   0.544  -1.496  0.00  0.00    -0.001 A 
ENDROOT
TORSDOF 0
ENDMDL
