MODEL 1
REMARK minimizedAffinity -0.887606502
REMARK minimizedRMSD -1
REMARK  0 active torsions:
REMARK  status: ('A' for Active; 'I' for Inactive)
ROOT
ATOM      1  C   UNL d   1      -0.542   5.667  -1.349  0.00  0.00     0.078 C 
ATOM      2  C1  UNL d   1      -0.676   4.340  -0.663  0.00  0.00    -0.077 A 
ATOM      3  C2  UNL d   1      -0.645   4.243   0.733  0.00  0.00    -0.001 A 
ATOM      4  C3  UNL d   1      -0.761   3.000   1.357  0.00  0.00     0.003 A 
ATOM      5  C4  UNL d   1      -0.907   1.844   0.593  0.00  0.00    -0.005 A 
ATOM      6  C5  UNL d   1      -0.936   1.931  -0.797  0.00  0.00     0.003 A 
ATOM      7  C6  UNL d   1      -0.821   3.173  -1.423  0.00  0.00    -0.001 A 
ENDROOT
TORSDOF 0
ENDMDL
