MODEL 1
REMARK minimizedAffinity -2.5655241
REMARK minimizedRMSD -1
REMARK  2 active torsions:
REMARK  status: ('A' for Active; 'I' for Inactive)
REMARK    1  A    between atoms: C2'_3  and  C1'_4 
REMARK    2  A    between atoms: C1'_4  and  C1_5 
ROOT
ATOM      1  C1  I4B d   1       0.773  -0.437   1.494  0.00  0.00    -0.075 A 
ATOM      2  C2  I4B d   1       1.521  -1.042   0.514  0.00  0.00     0.003 A 
ATOM      3  C3  I4B d   1       2.646  -1.829   0.860  0.00  0.00     0.002 A 
ATOM      4  C4  I4B d   1       3.014  -1.944   2.185  0.00  0.00    -0.004 A 
ATOM      5  C5  I4B d   1       2.242  -1.349   3.178  0.00  0.00     0.002 A 
ATOM      6  C6  I4B d   1       1.107  -0.601   2.832  0.00  0.00     0.003 A 
ENDROOT
BRANCH   1   7
ATOM      7  C1' I4B d   1      -0.389   0.414   1.092  0.00  0.00     0.060 C 
BRANCH   7   8
ATOM      8  C2' I4B d   1      -1.308  -0.427   0.230  0.00  0.00    -0.013 C 
ATOM      9  C4' I4B d   1      -2.709  -0.442   0.781  0.00  0.00     0.013 C 
ATOM     10  C3' I4B d   1      -1.279   0.133  -1.161  0.00  0.00     0.013 C 
ENDBRANCH   7   8
ENDBRANCH   1   7
TORSDOF 2
ENDMDL
