MODEL 1
REMARK minimizedAffinity -5.35886955
REMARK minimizedRMSD -1
REMARK  2 active torsions:
REMARK  status: ('A' for Active; 'I' for Inactive)
REMARK    1  A    between atoms: C2'_3  and  C1'_4 
REMARK    2  A    between atoms: C1'_4  and  C1_5 
ROOT
ATOM      1  C1  I4B d   1       0.130  -0.347   0.414  0.00  0.00    -0.075 A 
ATOM      2  C2  I4B d   1       1.374  -0.909   0.557  0.00  0.00     0.003 A 
ATOM      3  C3  I4B d   1       1.938  -1.072   1.846  0.00  0.00     0.002 A 
ATOM      4  C4  I4B d   1       1.250  -0.615   2.952  0.00  0.00    -0.004 A 
ATOM      5  C5  I4B d   1      -0.020  -0.066   2.806  0.00  0.00     0.002 A 
ATOM      6  C6  I4B d   1      -0.590   0.058   1.531  0.00  0.00     0.003 A 
ENDROOT
BRANCH   1   7
ATOM      7  C1' I4B d   1      -0.422  -0.161  -0.964  0.00  0.00     0.060 C 
BRANCH   7   8
ATOM      8  C2' I4B d   1      -0.774   1.303  -1.131  0.00  0.00    -0.013 C 
ATOM      9  C4' I4B d   1       0.441   2.120  -1.483  0.00  0.00     0.013 C 
ATOM     10  C3' I4B d   1      -1.824   1.408  -2.198  0.00  0.00     0.013 C 
ENDBRANCH   7   8
ENDBRANCH   1   7
TORSDOF 2
ENDMDL
