MODEL 1
REMARK minimizedAffinity -3.02688742
REMARK minimizedRMSD -1
REMARK  2 active torsions:
REMARK  status: ('A' for Active; 'I' for Inactive)
REMARK    1  A    between atoms: C2'_3  and  C1'_4 
REMARK    2  A    between atoms: C1'_4  and  C1_5 
ROOT
ATOM      1  C1  I4B d   1       0.898  -0.415   0.795  0.00  0.00    -0.075 A 
ATOM      2  C2  I4B d   1      -0.065  -0.024  -0.101  0.00  0.00     0.003 A 
ATOM      3  C3  I4B d   1      -1.436  -0.194   0.207  0.00  0.00     0.002 A 
ATOM      4  C4  I4B d   1      -1.796  -0.802   1.392  0.00  0.00    -0.004 A 
ATOM      5  C5  I4B d   1      -0.819  -1.177   2.310  0.00  0.00     0.002 A 
ATOM      6  C6  I4B d   1       0.536  -0.972   2.015  0.00  0.00     0.003 A 
ENDROOT
BRANCH   1   7
ATOM      7  C1' I4B d   1       2.338  -0.251   0.424  0.00  0.00     0.060 C 
BRANCH   7   8
ATOM      8  C2' I4B d   1       2.822  -1.561  -0.163  0.00  0.00    -0.013 C 
ATOM      9  C4' I4B d   1       2.168  -1.838  -1.491  0.00  0.00     0.013 C 
ATOM     10  C3' I4B d   1       4.313  -1.486  -0.298  0.00  0.00     0.013 C 
ENDBRANCH   7   8
ENDBRANCH   1   7
TORSDOF 2
ENDMDL
