MODEL 1
REMARK minimizedAffinity -3.54886007
REMARK minimizedRMSD -1
REMARK  2 active torsions:
REMARK  status: ('A' for Active; 'I' for Inactive)
REMARK    1  A    between atoms: C2'_3  and  C1'_4 
REMARK    2  A    between atoms: C1'_4  and  C1_5 
ROOT
ATOM      1  C1  I4B d   1       0.081   0.493  -0.267  0.00  0.00    -0.075 A 
ATOM      2  C2  I4B d   1      -1.038  -0.145   0.209  0.00  0.00     0.003 A 
ATOM      3  C3  I4B d   1      -1.034  -0.722   1.502  0.00  0.00     0.002 A 
ATOM      4  C4  I4B d   1       0.118  -0.682   2.260  0.00  0.00    -0.004 A 
ATOM      5  C5  I4B d   1       1.244  -0.015   1.786  0.00  0.00     0.002 A 
ATOM      6  C6  I4B d   1       1.222   0.587   0.520  0.00  0.00     0.003 A 
ENDROOT
BRANCH   1   7
ATOM      7  C1' I4B d   1       0.053   1.062  -1.650  0.00  0.00     0.060 C 
BRANCH   7   8
ATOM      8  C2' I4B d   1      -1.067   2.080  -1.713  0.00  0.00    -0.013 C 
ATOM      9  C4' I4B d   1      -0.576   3.398  -2.252  0.00  0.00     0.013 C 
ATOM     10  C3' I4B d   1      -2.158   1.516  -2.574  0.00  0.00     0.013 C 
ENDBRANCH   7   8
ENDBRANCH   1   7
TORSDOF 2
ENDMDL
