MODEL 1
REMARK minimizedAffinity -5.36861467
REMARK minimizedRMSD -1
REMARK  2 active torsions:
REMARK  status: ('A' for Active; 'I' for Inactive)
REMARK    1  A    between atoms: C2'_3  and  C1'_4 
REMARK    2  A    between atoms: C1'_4  and  C1_5 
ROOT
ATOM      1  C1  I4B d   1       1.374  -0.450   0.818  0.00  0.00    -0.075 A 
ATOM      2  C2  I4B d   1       1.486  -0.252   2.171  0.00  0.00     0.003 A 
ATOM      3  C3  I4B d   1       2.008  -1.274   3.001  0.00  0.00     0.002 A 
ATOM      4  C4  I4B d   1       2.357  -2.488   2.445  0.00  0.00    -0.004 A 
ATOM      5  C5  I4B d   1       2.264  -2.679   1.070  0.00  0.00     0.002 A 
ATOM      6  C6  I4B d   1       1.782  -1.650   0.249  0.00  0.00     0.003 A 
ENDROOT
BRANCH   1   7
ATOM      7  C1' I4B d   1       0.788   0.639  -0.024  0.00  0.00     0.060 C 
BRANCH   7   8
ATOM      8  C2' I4B d   1      -0.395   0.062  -0.775  0.00  0.00    -0.013 C 
ATOM      9  C4' I4B d   1      -1.541  -0.231   0.157  0.00  0.00     0.013 C 
ATOM     10  C3' I4B d   1      -0.796   1.046  -1.833  0.00  0.00     0.013 C 
ENDBRANCH   7   8
ENDBRANCH   1   7
TORSDOF 2
ENDMDL
