MODEL 1
REMARK minimizedAffinity -3.73612213
REMARK minimizedRMSD -1
REMARK  1 active torsions:
REMARK  status: ('A' for Active; 'I' for Inactive)
REMARK    1  A    between atoms: C1_2  and  C2_3 
ROOT
ATOM      1  C2  UNL d   1       0.128  -0.878   0.366  0.00  0.00    -0.073 A 
ATOM      2  C3  UNL d   1       0.595  -0.009  -0.627  0.00  0.00    -0.002 A 
ATOM      3  C4  UNL d   1      -0.305   0.704  -1.420  0.00  0.00     0.004 A 
ATOM      4  C5  UNL d   1      -1.679   0.562  -1.224  0.00  0.00    -0.004 A 
ATOM      5  C6  UNL d   1      -2.165  -0.292  -0.229  0.00  0.00    -0.075 A 
ATOM      6  C7  UNL d   1      -3.639  -0.458  -0.007  0.00  0.00     0.076 C 
ATOM      7  C8  UNL d   1      -1.255  -1.007   0.561  0.00  0.00     0.001 A 
ENDROOT
BRANCH   1   8
ATOM      8  C1  UNL d   1       1.096  -1.645   1.229  0.00  0.00     0.053 C 
ATOM      9  C   UNL d   1       0.420  -2.791   1.964  0.00  0.00     0.018 C 
ENDBRANCH   1   8
TORSDOF 1
ENDMDL
