MODEL 1
REMARK minimizedAffinity -3.97226143
REMARK minimizedRMSD -1
REMARK  1 active torsions:
REMARK  status: ('A' for Active; 'I' for Inactive)
REMARK    1  A    between atoms: C1_2  and  C2_3 
ROOT
ATOM      1  C2  UNL d   1       0.320   0.135  -0.258  0.00  0.00    -0.073 A 
ATOM      2  C3  UNL d   1       0.222   0.853  -1.456  0.00  0.00    -0.002 A 
ATOM      3  C4  UNL d   1      -0.977   0.873  -2.170  0.00  0.00     0.004 A 
ATOM      4  C5  UNL d   1      -2.090   0.182  -1.692  0.00  0.00    -0.004 A 
ATOM      5  C6  UNL d   1      -2.016  -0.531  -0.491  0.00  0.00    -0.075 A 
ATOM      6  C7  UNL d   1      -3.204  -1.281   0.035  0.00  0.00     0.076 C 
ATOM      7  C8  UNL d   1      -0.808  -0.548   0.219  0.00  0.00     0.001 A 
ENDROOT
BRANCH   1   8
ATOM      8  C1  UNL d   1       1.610   0.117   0.520  0.00  0.00     0.053 C 
ATOM      9  C   UNL d   1       2.287   1.478   0.533  0.00  0.00     0.018 C 
ENDBRANCH   1   8
TORSDOF 1
ENDMDL
