MODEL 1
REMARK minimizedAffinity -5.38533878
REMARK minimizedRMSD -1
REMARK  1 active torsions:
REMARK  status: ('A' for Active; 'I' for Inactive)
REMARK    1  A    between atoms: C1_2  and  C2_3 
ROOT
ATOM      1  C2  UNL d   1       0.625   0.434   0.296  0.00  0.00    -0.073 A 
ATOM      2  C3  UNL d   1       1.201  -0.535   1.126  0.00  0.00    -0.002 A 
ATOM      3  C4  UNL d   1       0.428  -1.584   1.626  0.00  0.00     0.004 A 
ATOM      4  C5  UNL d   1      -0.924  -1.679   1.298  0.00  0.00    -0.004 A 
ATOM      5  C6  UNL d   1      -1.515  -0.727   0.461  0.00  0.00    -0.075 A 
ATOM      6  C7  UNL d   1      -2.969  -0.813   0.100  0.00  0.00     0.076 C 
ATOM      7  C8  UNL d   1      -0.733   0.325  -0.035  0.00  0.00     0.001 A 
ENDROOT
BRANCH   1   8
ATOM      8  C1  UNL d   1       1.456   1.565  -0.251  0.00  0.00     0.053 C 
ATOM      9  C   UNL d   1       2.168   2.334   0.850  0.00  0.00     0.018 C 
ENDBRANCH   1   8
TORSDOF 1
ENDMDL
