MODEL 1
REMARK minimizedAffinity -0.662191212
REMARK minimizedRMSD -1
REMARK  1 active torsions:
REMARK  status: ('A' for Active; 'I' for Inactive)
REMARK    1  A    between atoms: C1_2  and  C2_3 
ROOT
ATOM      1  C2  UNL d   1       1.002   1.144   0.456  0.00  0.00    -0.073 A 
ATOM      2  C3  UNL d   1       1.193  -0.037   1.182  0.00  0.00    -0.002 A 
ATOM      3  C4  UNL d   1       0.380  -1.147   0.949  0.00  0.00     0.004 A 
ATOM      4  C5  UNL d   1      -0.626  -1.090  -0.015  0.00  0.00    -0.004 A 
ATOM      5  C6  UNL d   1      -0.825   0.077  -0.759  0.00  0.00    -0.075 A 
ATOM      6  C7  UNL d   1      -1.905   0.155  -1.798  0.00  0.00     0.076 C 
ATOM      7  C8  UNL d   1      -0.007   1.189  -0.518  0.00  0.00     0.001 A 
ENDROOT
BRANCH   1   8
ATOM      8  C1  UNL d   1       1.881   2.344   0.699  0.00  0.00     0.053 C 
ATOM      9  C   UNL d   1       1.744   2.873   2.117  0.00  0.00     0.018 C 
ENDBRANCH   1   8
TORSDOF 1
ENDMDL
