MODEL 1
REMARK minimizedAffinity -5.42018557
REMARK minimizedRMSD -1
REMARK  1 active torsions:
REMARK  status: ('A' for Active; 'I' for Inactive)
REMARK    1  A    between atoms: C1_2  and  C2_3 
ROOT
ATOM      1  C2  UNL d   1       0.474  -0.257   0.139  0.00  0.00    -0.073 A 
ATOM      2  C3  UNL d   1      -0.524  -1.027   0.746  0.00  0.00    -0.002 A 
ATOM      3  C4  UNL d   1      -1.822  -1.029   0.234  0.00  0.00     0.004 A 
ATOM      4  C5  UNL d   1      -2.134  -0.267  -0.893  0.00  0.00    -0.004 A 
ATOM      5  C6  UNL d   1      -1.147   0.500  -1.520  0.00  0.00    -0.075 A 
ATOM      6  C7  UNL d   1      -1.466   1.326  -2.731  0.00  0.00     0.076 C 
ATOM      7  C8  UNL d   1       0.154   0.499  -0.998  0.00  0.00     0.001 A 
ENDROOT
BRANCH   1   8
ATOM      8  C1  UNL d   1       1.879  -0.256   0.685  0.00  0.00     0.053 C 
ATOM      9  C   UNL d   1       2.331   1.136   1.095  0.00  0.00     0.018 C 
ENDBRANCH   1   8
TORSDOF 1
ENDMDL
