MODEL 1
REMARK minimizedAffinity -5.51503754
REMARK minimizedRMSD -1
REMARK  1 active torsions:
REMARK  status: ('A' for Active; 'I' for Inactive)
REMARK    1  A    between atoms: C1_2  and  C2_3 
ROOT
ATOM      1  C2  UNL d   1       0.431   0.299   0.252  0.00  0.00    -0.073 A 
ATOM      2  C3  UNL d   1       0.689   0.587  -1.093  0.00  0.00    -0.002 A 
ATOM      3  C4  UNL d   1      -0.294   0.377  -2.060  0.00  0.00     0.004 A 
ATOM      4  C5  UNL d   1      -1.546  -0.116  -1.693  0.00  0.00    -0.004 A 
ATOM      5  C6  UNL d   1      -1.828  -0.399  -0.353  0.00  0.00    -0.075 A 
ATOM      6  C7  UNL d   1      -3.169  -0.933   0.059  0.00  0.00     0.076 C 
ATOM      7  C8  UNL d   1      -0.834  -0.188   0.613  0.00  0.00     0.001 A 
ENDROOT
BRANCH   1   8
ATOM      8  C1  UNL d   1       1.487   0.531   1.301  0.00  0.00     0.053 C 
ATOM      9  C   UNL d   1       2.082   1.927   1.213  0.00  0.00     0.018 C 
ENDBRANCH   1   8
TORSDOF 1
ENDMDL
