MODEL 1
REMARK minimizedAffinity -4.73475885
REMARK minimizedRMSD -1
REMARK  1 active torsions:
REMARK  status: ('A' for Active; 'I' for Inactive)
REMARK    1  A    between atoms: C1_2  and  C2_3 
ROOT
ATOM      1  C2  UNL d   1       0.347   0.146   0.264  0.00  0.00    -0.073 A 
ATOM      2  C3  UNL d   1       0.396   0.373  -1.116  0.00  0.00    -0.002 A 
ATOM      3  C4  UNL d   1      -0.764   0.284  -1.887  0.00  0.00     0.004 A 
ATOM      4  C5  UNL d   1      -1.984  -0.026  -1.286  0.00  0.00    -0.004 A 
ATOM      5  C6  UNL d   1      -2.055  -0.245   0.093  0.00  0.00    -0.075 A 
ATOM      6  C7  UNL d   1      -3.360  -0.582   0.754  0.00  0.00     0.076 C 
ATOM      7  C8  UNL d   1      -0.886  -0.157   0.860  0.00  0.00     0.001 A 
ENDROOT
BRANCH   1   8
ATOM      8  C1  UNL d   1       1.595   0.247   1.101  0.00  0.00     0.053 C 
ATOM      9  C   UNL d   1       2.239   1.621   1.002  0.00  0.00     0.018 C 
ENDBRANCH   1   8
TORSDOF 1
ENDMDL
