MODEL 1
REMARK minimizedAffinity -2.29654288
REMARK minimizedRMSD -1
REMARK  1 active torsions:
REMARK  status: ('A' for Active; 'I' for Inactive)
REMARK    1  A    between atoms: C1_2  and  C2_3 
ROOT
ATOM      1  C2  UNL d   1      -0.484  -0.235   0.094  0.00  0.00    -0.073 A 
ATOM      2  C3  UNL d   1      -1.482  -0.243   1.075  0.00  0.00    -0.002 A 
ATOM      3  C4  UNL d   1      -2.767  -0.693   0.770  0.00  0.00     0.004 A 
ATOM      4  C5  UNL d   1      -3.066  -1.146  -0.515  0.00  0.00    -0.004 A 
ATOM      5  C6  UNL d   1      -2.079  -1.157  -1.506  0.00  0.00    -0.075 A 
ATOM      6  C7  UNL d   1      -2.384  -1.640  -2.894  0.00  0.00     0.076 C 
ATOM      7  C8  UNL d   1      -0.791  -0.701  -1.192  0.00  0.00     0.001 A 
ENDROOT
BRANCH   1   8
ATOM      8  C1  UNL d   1       0.907   0.244   0.421  0.00  0.00     0.053 C 
ATOM      9  C   UNL d   1       1.010   1.760   0.387  0.00  0.00     0.018 C 
ENDBRANCH   1   8
TORSDOF 1
ENDMDL
