MODEL 1
REMARK minimizedAffinity -4.48213387
REMARK minimizedRMSD -1
REMARK  1 active torsions:
REMARK  status: ('A' for Active; 'I' for Inactive)
REMARK    1  A    between atoms: C1_2  and  C2_3 
ROOT
ATOM      1  C2  UNL d   1       0.936   0.461   0.326  0.00  0.00    -0.073 A 
ATOM      2  C3  UNL d   1       0.844  -0.517   1.323  0.00  0.00    -0.002 A 
ATOM      3  C4  UNL d   1      -0.293  -1.321   1.419  0.00  0.00     0.004 A 
ATOM      4  C5  UNL d   1      -1.345  -1.160   0.517  0.00  0.00    -0.004 A 
ATOM      5  C6  UNL d   1      -1.266  -0.197  -0.493  0.00  0.00    -0.075 A 
ATOM      6  C7  UNL d   1      -2.390  -0.010  -1.470  0.00  0.00     0.076 C 
ATOM      7  C8  UNL d   1      -0.123   0.608  -0.582  0.00  0.00     0.001 A 
ENDROOT
BRANCH   1   8
ATOM      8  C1  UNL d   1       2.164   1.327   0.214  0.00  0.00     0.053 C 
ATOM      9  C   UNL d   1       2.261   2.329   1.353  0.00  0.00     0.018 C 
ENDBRANCH   1   8
TORSDOF 1
ENDMDL
