MODEL 1
REMARK minimizedAffinity -4.7705164
REMARK minimizedRMSD -1
REMARK  1 active torsions:
REMARK  status: ('A' for Active; 'I' for Inactive)
REMARK    1  A    between atoms: C1_2  and  C2_3 
ROOT
ATOM      1  C2  UNL d   1       0.173   0.214  -0.139  0.00  0.00    -0.073 A 
ATOM      2  C3  UNL d   1       0.298   0.744  -1.428  0.00  0.00    -0.002 A 
ATOM      3  C4  UNL d   1      -0.755   0.642  -2.338  0.00  0.00     0.004 A 
ATOM      4  C5  UNL d   1      -1.945   0.015  -1.967  0.00  0.00    -0.004 A 
ATOM      5  C6  UNL d   1      -2.094  -0.510  -0.680  0.00  0.00    -0.075 A 
ATOM      6  C7  UNL d   1      -3.366  -1.189  -0.265  0.00  0.00     0.076 C 
ATOM      7  C8  UNL d   1      -1.031  -0.405   0.228  0.00  0.00     0.001 A 
ENDROOT
BRANCH   1   8
ATOM      8  C1  UNL d   1       1.305   0.329   0.849  0.00  0.00     0.053 C 
ATOM      9  C   UNL d   1       2.088   1.620   0.671  0.00  0.00     0.018 C 
ENDBRANCH   1   8
TORSDOF 1
ENDMDL
