MODEL 1
REMARK minimizedAffinity -4.7780757
REMARK minimizedRMSD -1
REMARK  1 active torsions:
REMARK  status: ('A' for Active; 'I' for Inactive)
REMARK    1  A    between atoms: C1_2  and  C2_3 
ROOT
ATOM      1  C2  UNL d   1       0.943   0.533   0.593  0.00  0.00    -0.073 A 
ATOM      2  C3  UNL d   1       1.399  -0.602   1.272  0.00  0.00    -0.002 A 
ATOM      3  C4  UNL d   1       0.539  -1.675   1.510  0.00  0.00     0.004 A 
ATOM      4  C5  UNL d   1      -0.782  -1.627   1.065  0.00  0.00    -0.004 A 
ATOM      5  C6  UNL d   1      -1.254  -0.506   0.374  0.00  0.00    -0.075 A 
ATOM      6  C7  UNL d   1      -2.673  -0.438  -0.109  0.00  0.00     0.076 C 
ATOM      7  C8  UNL d   1      -0.385   0.568   0.142  0.00  0.00     0.001 A 
ENDROOT
BRANCH   1   8
ATOM      8  C1  UNL d   1       1.869   1.691   0.329  0.00  0.00     0.053 C 
ATOM      9  C   UNL d   1       2.288   2.390   1.612  0.00  0.00     0.018 C 
ENDBRANCH   1   8
TORSDOF 1
ENDMDL
