MODEL 1
REMARK minimizedAffinity -5.29543924
REMARK minimizedRMSD -1
REMARK  1 active torsions:
REMARK  status: ('A' for Active; 'I' for Inactive)
REMARK    1  A    between atoms: C1_2  and  C2_3 
ROOT
ATOM      1  C2  UNL d   1       0.182  -0.358  -0.035  0.00  0.00    -0.073 A 
ATOM      2  C3  UNL d   1       0.099  -0.076  -1.403  0.00  0.00    -0.002 A 
ATOM      3  C4  UNL d   1      -1.101  -0.268  -2.090  0.00  0.00     0.004 A 
ATOM      4  C5  UNL d   1      -2.229  -0.735  -1.416  0.00  0.00    -0.004 A 
ATOM      5  C6  UNL d   1      -2.169  -1.010  -0.046  0.00  0.00    -0.075 A 
ATOM      6  C7  UNL d   1      -3.373  -1.515   0.694  0.00  0.00     0.076 C 
ATOM      7  C8  UNL d   1      -0.960  -0.818   0.636  0.00  0.00     0.001 A 
ENDROOT
BRANCH   1   8
ATOM      8  C1  UNL d   1       1.474  -0.146   0.712  0.00  0.00     0.053 C 
ATOM      9  C   UNL d   1       2.127   1.180   0.358  0.00  0.00     0.018 C 
ENDBRANCH   1   8
TORSDOF 1
ENDMDL
