MODEL 1
REMARK minimizedAffinity -4.15568876
REMARK minimizedRMSD -1
REMARK  1 active torsions:
REMARK  status: ('A' for Active; 'I' for Inactive)
REMARK    1  A    between atoms: C1_2  and  C2_3 
ROOT
ATOM      1  C2  UNL d   1       0.301   0.056   0.318  0.00  0.00    -0.073 A 
ATOM      2  C3  UNL d   1       0.621   0.295  -1.023  0.00  0.00    -0.002 A 
ATOM      3  C4  UNL d   1      -0.372   0.258  -2.002  0.00  0.00     0.004 A 
ATOM      4  C5  UNL d   1      -1.695  -0.011  -1.651  0.00  0.00    -0.004 A 
ATOM      5  C6  UNL d   1      -2.037  -0.240  -0.314  0.00  0.00    -0.075 A 
ATOM      6  C7  UNL d   1      -3.455  -0.533   0.080  0.00  0.00     0.076 C 
ATOM      7  C8  UNL d   1      -1.033  -0.204   0.663  0.00  0.00     0.001 A 
ENDROOT
BRANCH   1   8
ATOM      8  C1  UNL d   1       1.369   0.101   1.380  0.00  0.00     0.053 C 
ATOM      9  C   UNL d   1       1.502   1.485   1.996  0.00  0.00     0.018 C 
ENDBRANCH   1   8
TORSDOF 1
ENDMDL
