MODEL 1
REMARK minimizedAffinity -5.18884373
REMARK minimizedRMSD -1
REMARK  1 active torsions:
REMARK  status: ('A' for Active; 'I' for Inactive)
REMARK    1  A    between atoms: C1_2  and  C2_3 
ROOT
ATOM      1  C2  UNL d   1      -1.679  -0.910   0.446  0.00  0.00    -0.073 A 
ATOM      2  C3  UNL d   1      -1.439  -1.763   1.529  0.00  0.00    -0.002 A 
ATOM      3  C4  UNL d   1      -0.192  -1.771   2.156  0.00  0.00     0.004 A 
ATOM      4  C5  UNL d   1       0.823  -0.923   1.712  0.00  0.00    -0.004 A 
ATOM      5  C6  UNL d   1       0.598  -0.055   0.639  0.00  0.00    -0.075 A 
ATOM      6  C7  UNL d   1       1.680   0.861   0.149  0.00  0.00     0.076 C 
ATOM      7  C8  UNL d   1      -0.656  -0.055   0.013  0.00  0.00     0.001 A 
ENDROOT
BRANCH   1   8
ATOM      8  C1  UNL d   1      -3.026  -0.893  -0.231  0.00  0.00     0.053 C 
ATOM      9  C   UNL d   1      -2.997  -1.604  -1.575  0.00  0.00     0.018 C 
ENDBRANCH   1   8
TORSDOF 1
ENDMDL
