MODEL 1
REMARK minimizedAffinity -0.492197275
REMARK minimizedRMSD -1
REMARK  0 active torsions:
REMARK  status: ('A' for Active; 'I' for Inactive)
ROOT
ATOM      1  C   UNL d   1      -0.783   0.250  -0.768  0.00  0.00     0.078 C 
ATOM      2  C1  UNL d   1      -1.010  -1.231  -0.700  0.00  0.00    -0.077 A 
ATOM      3  C2  UNL d   1      -0.787  -2.046  -1.816  0.00  0.00    -0.001 A 
ATOM      4  C3  UNL d   1      -1.012  -3.422  -1.742  0.00  0.00     0.003 A 
ATOM      5  C4  UNL d   1      -1.462  -3.994  -0.553  0.00  0.00    -0.005 A 
ATOM      6  C5  UNL d   1      -1.689  -3.190   0.562  0.00  0.00     0.003 A 
ATOM      7  C6  UNL d   1      -1.464  -1.814   0.489  0.00  0.00    -0.001 A 
ENDROOT
TORSDOF 0
ENDMDL
