MODEL 1
REMARK minimizedAffinity 4.76221609
REMARK minimizedRMSD -1
REMARK  0 active torsions:
REMARK  status: ('A' for Active; 'I' for Inactive)
ROOT
ATOM      1  C   UNL d   1      -1.817   0.923  -0.200  0.00  0.00     0.078 C 
ATOM      2  C1  UNL d   1      -0.684   0.753   0.767  0.00  0.00    -0.077 A 
ATOM      3  C2  UNL d   1       0.066  -0.429   0.798  0.00  0.00    -0.001 A 
ATOM      4  C3  UNL d   1       1.112  -0.578   1.711  0.00  0.00     0.003 A 
ATOM      5  C4  UNL d   1       1.416   0.451   2.600  0.00  0.00    -0.005 A 
ATOM      6  C5  UNL d   1       0.674   1.630   2.578  0.00  0.00     0.003 A 
ATOM      7  C6  UNL d   1      -0.372   1.781   1.666  0.00  0.00    -0.001 A 
ENDROOT
TORSDOF 0
ENDMDL
