MODEL 1
REMARK minimizedAffinity 2.84828377
REMARK minimizedRMSD -1
REMARK  0 active torsions:
REMARK  status: ('A' for Active; 'I' for Inactive)
ROOT
ATOM      1  C   UNL d   1      -0.135   0.104  -0.275  0.00  0.00     0.078 C 
ATOM      2  C1  UNL d   1      -0.586  -1.150  -0.961  0.00  0.00    -0.077 A 
ATOM      3  C2  UNL d   1      -1.310  -1.097  -2.159  0.00  0.00    -0.001 A 
ATOM      4  C3  UNL d   1      -1.732  -2.273  -2.781  0.00  0.00     0.003 A 
ATOM      5  C4  UNL d   1      -1.436  -3.511  -2.213  0.00  0.00    -0.005 A 
ATOM      6  C5  UNL d   1      -0.719  -3.573  -1.020  0.00  0.00     0.003 A 
ATOM      7  C6  UNL d   1      -0.296  -2.399  -0.396  0.00  0.00    -0.001 A 
ENDROOT
TORSDOF 0
ENDMDL
