MODEL 1
REMARK minimizedAffinity 4.3498435
REMARK minimizedRMSD -1
REMARK  0 active torsions:
REMARK  status: ('A' for Active; 'I' for Inactive)
ROOT
ATOM      1  C   UNL d   1      -1.582   1.553   1.720  0.00  0.00     0.078 C 
ATOM      2  C1  UNL d   1      -0.463   0.766   1.105  0.00  0.00    -0.077 A 
ATOM      3  C2  UNL d   1      -0.304   0.705  -0.285  0.00  0.00    -0.001 A 
ATOM      4  C3  UNL d   1       0.735  -0.039  -0.845  0.00  0.00     0.003 A 
ATOM      5  C4  UNL d   1       1.623  -0.730  -0.022  0.00  0.00    -0.005 A 
ATOM      6  C5  UNL d   1       1.471  -0.677   1.362  0.00  0.00     0.003 A 
ATOM      7  C6  UNL d   1       0.432   0.067   1.923  0.00  0.00    -0.001 A 
ENDROOT
TORSDOF 0
ENDMDL
