MODEL 1
REMARK minimizedAffinity -1.76785278
REMARK minimizedRMSD -1
REMARK  0 active torsions:
REMARK  status: ('A' for Active; 'I' for Inactive)
ROOT
ATOM      1  C   UNL d   1      -4.126  -0.751  -5.315  0.00  0.00     0.078 C 
ATOM      2  C1  UNL d   1      -4.775   0.568  -5.018  0.00  0.00    -0.077 A 
ATOM      3  C2  UNL d   1      -5.364   0.818  -3.773  0.00  0.00    -0.001 A 
ATOM      4  C3  UNL d   1      -5.973   2.047  -3.514  0.00  0.00     0.003 A 
ATOM      5  C4  UNL d   1      -6.000   3.035  -4.496  0.00  0.00    -0.005 A 
ATOM      6  C5  UNL d   1      -5.418   2.795  -5.739  0.00  0.00     0.003 A 
ATOM      7  C6  UNL d   1      -4.809   1.566  -6.000  0.00  0.00    -0.001 A 
ENDROOT
TORSDOF 0
ENDMDL
