MODEL 1
REMARK minimizedAffinity 0.52894944
REMARK minimizedRMSD -1
REMARK  0 active torsions:
REMARK  status: ('A' for Active; 'I' for Inactive)
ROOT
ATOM      1  C   UNL d   1       1.945  -0.975   1.862  0.00  0.00     0.078 C 
ATOM      2  C1  UNL d   1       0.756  -0.535   1.060  0.00  0.00    -0.077 A 
ATOM      3  C2  UNL d   1       0.661   0.773   0.570  0.00  0.00    -0.001 A 
ATOM      4  C3  UNL d   1      -0.456   1.170  -0.167  0.00  0.00     0.003 A 
ATOM      5  C4  UNL d   1      -1.486   0.267  -0.418  0.00  0.00    -0.005 A 
ATOM      6  C5  UNL d   1      -1.401  -1.036   0.068  0.00  0.00     0.003 A 
ATOM      7  C6  UNL d   1      -0.285  -1.436   0.804  0.00  0.00    -0.001 A 
ENDROOT
TORSDOF 0
ENDMDL
