MODEL 1
REMARK minimizedAffinity -1.13691068
REMARK minimizedRMSD -1
REMARK  0 active torsions:
REMARK  status: ('A' for Active; 'I' for Inactive)
ROOT
ATOM      1  C   UNL d   1      -5.456   2.658  -1.966  0.00  0.00     0.078 C 
ATOM      2  C1  UNL d   1      -5.631   3.155  -3.369  0.00  0.00    -0.077 A 
ATOM      3  C2  UNL d   1      -5.616   4.526  -3.656  0.00  0.00    -0.001 A 
ATOM      4  C3  UNL d   1      -5.790   4.975  -4.966  0.00  0.00     0.003 A 
ATOM      5  C4  UNL d   1      -5.981   4.060  -6.000  0.00  0.00    -0.005 A 
ATOM      6  C5  UNL d   1      -6.000   2.694  -5.724  0.00  0.00     0.003 A 
ATOM      7  C6  UNL d   1      -5.826   2.243  -4.415  0.00  0.00    -0.001 A 
ENDROOT
TORSDOF 0
ENDMDL
