MODEL 1
REMARK minimizedAffinity 11.4395666
REMARK minimizedRMSD -1
REMARK  0 active torsions:
REMARK  status: ('A' for Active; 'I' for Inactive)
ROOT
ATOM      1  C   UNL d   1       1.919  -0.920   1.097  0.00  0.00     0.078 C 
ATOM      2  C1  UNL d   1       2.263  -1.332   2.497  0.00  0.00    -0.077 A 
ATOM      3  C2  UNL d   1       3.536  -1.823   2.813  0.00  0.00    -0.001 A 
ATOM      4  C3  UNL d   1       3.840  -2.212   4.118  0.00  0.00     0.003 A 
ATOM      5  C4  UNL d   1       2.875  -2.116   5.119  0.00  0.00    -0.005 A 
ATOM      6  C5  UNL d   1       1.605  -1.630   4.815  0.00  0.00     0.003 A 
ATOM      7  C6  UNL d   1       1.300  -1.241   3.510  0.00  0.00    -0.001 A 
ENDROOT
TORSDOF 0
ENDMDL
