MODEL 1
REMARK minimizedAffinity 2.09809232
REMARK minimizedRMSD -1
REMARK  0 active torsions:
REMARK  status: ('A' for Active; 'I' for Inactive)
ROOT
ATOM      1  C   UNL d   1      -2.250  -2.557   0.190  0.00  0.00     0.078 C 
ATOM      2  C1  UNL d   1      -1.310  -1.392   0.101  0.00  0.00    -0.077 A 
ATOM      3  C2  UNL d   1      -0.048  -1.436   0.706  0.00  0.00    -0.001 A 
ATOM      4  C3  UNL d   1       0.814  -0.341   0.623  0.00  0.00     0.003 A 
ATOM      5  C4  UNL d   1       0.422   0.807  -0.063  0.00  0.00    -0.005 A 
ATOM      6  C5  UNL d   1      -0.833   0.861  -0.667  0.00  0.00     0.003 A 
ATOM      7  C6  UNL d   1      -1.696  -0.234  -0.585  0.00  0.00    -0.001 A 
ENDROOT
TORSDOF 0
ENDMDL
