MODEL 1
REMARK minimizedAffinity 3.56888509
REMARK minimizedRMSD -1
REMARK  0 active torsions:
REMARK  status: ('A' for Active; 'I' for Inactive)
ROOT
ATOM      1  N1  IND d   1       4.203  -1.208   5.848  0.00  0.00    -0.196 N 
ATOM      2  C2  IND d   1       2.838  -1.193   5.781  0.00  0.00     0.054 A 
ATOM      3  C3  IND d   1       2.354  -2.456   5.770  0.00  0.00    -0.031 A 
ATOM      4  C4  IND d   1       3.615  -4.692   5.955  0.00  0.00     0.051 A 
ATOM      5  C5  IND d   1       4.876  -5.217   6.000  0.00  0.00    -0.031 A 
ATOM      6  C6  IND d   1       6.000  -4.417   5.999  0.00  0.00     0.015 A 
ATOM      7  C7  IND d   1       5.903  -3.054   5.965  0.00  0.00    -0.016 A 
ATOM      8  C8  IND d   1       4.625  -2.518   5.912  0.00  0.00    -0.047 A 
ATOM      9  C9  IND d   1       3.482  -3.326   5.870  0.00  0.00    -0.096 A 
ATOM     10  HN1 IND d   1       4.713  -0.515   5.850  0.00  0.00     0.298 HD
ENDROOT
TORSDOF 0
ENDMDL
