MODEL 1
REMARK minimizedAffinity 7.15144539
REMARK minimizedRMSD -1
REMARK  0 active torsions:
REMARK  status: ('A' for Active; 'I' for Inactive)
ROOT
ATOM      1  N1  IND d   1       5.210  -2.338   6.000  0.00  0.00    -0.196 N 
ATOM      2  C2  IND d   1       6.000  -3.452   5.938  0.00  0.00     0.054 A 
ATOM      3  C3  IND d   1       5.793  -4.110   4.775  0.00  0.00    -0.031 A 
ATOM      4  C4  IND d   1       4.281  -3.486   2.788  0.00  0.00     0.051 A 
ATOM      5  C5  IND d   1       3.340  -2.576   2.395  0.00  0.00    -0.031 A 
ATOM      6  C6  IND d   1       2.968  -1.518   3.198  0.00  0.00     0.015 A 
ATOM      7  C7  IND d   1       3.535  -1.322   4.426  0.00  0.00    -0.016 A 
ATOM      8  C8  IND d   1       4.486  -2.248   4.831  0.00  0.00    -0.047 A 
ATOM      9  C9  IND d   1       4.836  -3.348   4.038  0.00  0.00    -0.096 A 
ATOM     10  HN1 IND d   1       5.172  -1.786   6.658  0.00  0.00     0.298 HD
ENDROOT
TORSDOF 0
ENDMDL
