MODEL 1
REMARK minimizedAffinity 5.555583
REMARK minimizedRMSD -1
REMARK  0 active torsions:
REMARK  status: ('A' for Active; 'I' for Inactive)
ROOT
ATOM      1  N1  IND d   1       5.997   3.955  -2.651  0.00  0.00    -0.196 N 
ATOM      2  C2  IND d   1       5.960   5.027  -1.803  0.00  0.00     0.054 A 
ATOM      3  C3  IND d   1       5.153   5.991  -2.299  0.00  0.00    -0.031 A 
ATOM      4  C4  IND d   1       3.715   5.982  -4.434  0.00  0.00     0.051 A 
ATOM      5  C5  IND d   1       3.446   5.238  -5.549  0.00  0.00    -0.031 A 
ATOM      6  C6  IND d   1       4.023   4.002  -5.757  0.00  0.00     0.015 A 
ATOM      7  C7  IND d   1       4.886   3.457  -4.849  0.00  0.00    -0.016 A 
ATOM      8  C8  IND d   1       5.167   4.213  -3.720  0.00  0.00    -0.047 A 
ATOM      9  C9  IND d   1       4.617   5.486  -3.523  0.00  0.00    -0.096 A 
ATOM     10  HN1 IND d   1       6.461   3.240  -2.537  0.00  0.00     0.298 HD
ENDROOT
TORSDOF 0
ENDMDL
