MODEL 1
REMARK minimizedAffinity 10.3022642
REMARK minimizedRMSD -1
REMARK  0 active torsions:
REMARK  status: ('A' for Active; 'I' for Inactive)
ROOT
ATOM      1  N1  IND d   1       6.000   4.601  -1.501  0.00  0.00    -0.196 N 
ATOM      2  C2  IND d   1       5.235   5.620  -1.006  0.00  0.00     0.054 A 
ATOM      3  C3  IND d   1       4.310   6.000  -1.917  0.00  0.00    -0.031 A 
ATOM      4  C4  IND d   1       3.807   5.017  -4.243  0.00  0.00     0.051 A 
ATOM      5  C5  IND d   1       4.263   4.099  -5.146  0.00  0.00    -0.031 A 
ATOM      6  C6  IND d   1       5.341   3.282  -4.874  0.00  0.00     0.015 A 
ATOM      7  C7  IND d   1       6.000   3.346  -3.678  0.00  0.00    -0.016 A 
ATOM      8  C8  IND d   1       5.544   4.283  -2.761  0.00  0.00    -0.047 A 
ATOM      9  C9  IND d   1       4.476   5.144  -3.049  0.00  0.00    -0.096 A 
ATOM     10  HN1 IND d   1       6.655   4.222  -1.094  0.00  0.00     0.298 HD
ENDROOT
TORSDOF 0
ENDMDL
