MODEL 1
REMARK minimizedAffinity 3.49561548
REMARK minimizedRMSD -1
REMARK  0 active torsions:
REMARK  status: ('A' for Active; 'I' for Inactive)
ROOT
ATOM      1  N1  IND d   1       3.778   3.420  -4.991  0.00  0.00    -0.196 N 
ATOM      2  C2  IND d   1       4.956   2.877  -5.423  0.00  0.00     0.054 A 
ATOM      3  C3  IND d   1       5.999   3.434  -4.768  0.00  0.00    -0.031 A 
ATOM      4  C4  IND d   1       5.998   5.181  -2.876  0.00  0.00     0.051 A 
ATOM      5  C5  IND d   1       5.165   6.000  -2.167  0.00  0.00    -0.031 A 
ATOM      6  C6  IND d   1       3.799   5.999  -2.365  0.00  0.00     0.015 A 
ATOM      7  C7  IND d   1       3.212   5.167  -3.275  0.00  0.00    -0.016 A 
ATOM      8  C8  IND d   1       4.055   4.339  -4.003  0.00  0.00    -0.047 A 
ATOM      9  C9  IND d   1       5.446   4.366  -3.836  0.00  0.00    -0.096 A 
ATOM     10  HN1 IND d   1       2.996   3.221  -5.287  0.00  0.00     0.298 HD
ENDROOT
TORSDOF 0
ENDMDL
