MODEL 1
REMARK minimizedAffinity 3.28413939
REMARK minimizedRMSD -1
REMARK  0 active torsions:
REMARK  status: ('A' for Active; 'I' for Inactive)
ROOT
ATOM      1  N1  IND d   1       5.465  -3.761   3.780  0.00  0.00    -0.196 N 
ATOM      2  C2  IND d   1       6.000  -4.184   4.965  0.00  0.00     0.054 A 
ATOM      3  C3  IND d   1       5.425  -3.531   6.000  0.00  0.00    -0.031 A 
ATOM      4  C4  IND d   1       3.517  -1.803   5.987  0.00  0.00     0.051 A 
ATOM      5  C5  IND d   1       2.731  -1.073   5.141  0.00  0.00    -0.031 A 
ATOM      6  C6  IND d   1       2.815  -1.206   3.770  0.00  0.00     0.015 A 
ATOM      7  C7  IND d   1       3.686  -2.086   3.192  0.00  0.00    -0.016 A 
ATOM      8  C8  IND d   1       4.491  -2.824   4.048  0.00  0.00    -0.047 A 
ATOM      9  C9  IND d   1       4.439  -2.663   5.439  0.00  0.00    -0.096 A 
ATOM     10  HN1 IND d   1       5.698  -4.033   2.999  0.00  0.00     0.298 HD
ENDROOT
TORSDOF 0
ENDMDL
