MODEL 1
REMARK minimizedAffinity -1.49528432
REMARK minimizedRMSD -1
REMARK  0 active torsions:
REMARK  status: ('A' for Active; 'I' for Inactive)
ROOT
ATOM      1  N1  IND d   1       4.054   3.752  -5.679  0.00  0.00    -0.196 N 
ATOM      2  C2  IND d   1       5.078   2.868  -5.872  0.00  0.00     0.054 A 
ATOM      3  C3  IND d   1       6.000   2.994  -4.891  0.00  0.00    -0.031 A 
ATOM      4  C4  IND d   1       5.979   4.515  -2.814  0.00  0.00     0.051 A 
ATOM      5  C5  IND d   1       5.270   5.523  -2.223  0.00  0.00    -0.031 A 
ATOM      6  C6  IND d   1       4.093   6.000  -2.764  0.00  0.00     0.015 A 
ATOM      7  C7  IND d   1       3.574   5.476  -3.915  0.00  0.00    -0.016 A 
ATOM      8  C8  IND d   1       4.296   4.457  -4.521  0.00  0.00    -0.047 A 
ATOM      9  C9  IND d   1       5.512   3.998  -3.999  0.00  0.00    -0.096 A 
ATOM     10  HN1 IND d   1       3.372   3.850  -6.194  0.00  0.00     0.298 HD
ENDROOT
TORSDOF 0
ENDMDL
