MODEL 1
REMARK minimizedAffinity 21.659626
REMARK minimizedRMSD -1
REMARK  0 active torsions:
REMARK  status: ('A' for Active; 'I' for Inactive)
ROOT
ATOM      1  N1  IND d   1       0.943   6.000   2.242  0.00  0.00    -0.196 N 
ATOM      2  C2  IND d   1       2.065   5.728   1.510  0.00  0.00     0.054 A 
ATOM      3  C3  IND d   1       1.885   4.611   0.770  0.00  0.00    -0.031 A 
ATOM      4  C4  IND d   1      -0.206   3.128   0.531  0.00  0.00     0.051 A 
ATOM      5  C5  IND d   1      -1.466   2.954   1.030  0.00  0.00    -0.031 A 
ATOM      6  C6  IND d   1      -2.000   3.805   1.976  0.00  0.00     0.015 A 
ATOM      7  C7  IND d   1      -1.294   4.874   2.451  0.00  0.00    -0.016 A 
ATOM      8  C8  IND d   1      -0.011   5.049   1.952  0.00  0.00    -0.047 A 
ATOM      9  C9  IND d   1       0.552   4.164   1.024  0.00  0.00    -0.096 A 
ATOM     10  HN1 IND d   1       0.849   6.654   2.792  0.00  0.00     0.298 HD
ENDROOT
TORSDOF 0
ENDMDL
