MODEL 1
REMARK minimizedAffinity 11.8746748
REMARK minimizedRMSD -1
REMARK  0 active torsions:
REMARK  status: ('A' for Active; 'I' for Inactive)
ROOT
ATOM      1  N1  IND d   1       5.279   2.170  -4.341  0.00  0.00    -0.196 N 
ATOM      2  C2  IND d   1       5.103   2.359  -5.684  0.00  0.00     0.054 A 
ATOM      3  C3  IND d   1       5.213   3.670  -5.993  0.00  0.00    -0.031 A 
ATOM      4  C4  IND d   1       5.780   5.668  -4.471  0.00  0.00     0.051 A 
ATOM      5  C5  IND d   1       5.991   5.999  -3.162  0.00  0.00    -0.031 A 
ATOM      6  C6  IND d   1       5.978   5.051  -2.159  0.00  0.00     0.015 A 
ATOM      7  C7  IND d   1       5.764   3.729  -2.431  0.00  0.00    -0.016 A 
ATOM      8  C8  IND d   1       5.542   3.390  -3.758  0.00  0.00    -0.047 A 
ATOM      9  C9  IND d   1       5.512   4.354  -4.775  0.00  0.00    -0.096 A 
ATOM     10  HN1 IND d   1       5.234   1.416  -3.930  0.00  0.00     0.298 HD
ENDROOT
TORSDOF 0
ENDMDL
