MODEL 1
REMARK minimizedAffinity 2.30177331
REMARK minimizedRMSD -1
REMARK  0 active torsions:
REMARK  status: ('A' for Active; 'I' for Inactive)
ROOT
ATOM      1  N1  IND d   1       5.998   3.340  -4.910  0.00  0.00    -0.196 N 
ATOM      2  C2  IND d   1       5.123   3.279  -5.958  0.00  0.00     0.054 A 
ATOM      3  C3  IND d   1       4.052   4.071  -5.724  0.00  0.00    -0.031 A 
ATOM      4  C4  IND d   1       3.579   5.633  -3.733  0.00  0.00     0.051 A 
ATOM      5  C5  IND d   1       4.069   6.000  -2.511  0.00  0.00    -0.031 A 
ATOM      6  C6  IND d   1       5.253   5.491  -2.018  0.00  0.00     0.015 A 
ATOM      7  C7  IND d   1       6.000   4.600  -2.736  0.00  0.00    -0.016 A 
ATOM      8  C8  IND d   1       5.501   4.220  -3.974  0.00  0.00    -0.047 A 
ATOM      9  C9  IND d   1       4.279   4.701  -4.461  0.00  0.00    -0.096 A 
ATOM     10  HN1 IND d   1       6.735   2.901  -4.846  0.00  0.00     0.298 HD
ENDROOT
TORSDOF 0
ENDMDL
