MODEL 1
REMARK minimizedAffinity -2.89757037
REMARK minimizedRMSD -1
REMARK  0 active torsions:
REMARK  status: ('A' for Active; 'I' for Inactive)
ROOT
ATOM      1  N1  IND d   1       5.998  -3.744   4.053  0.00  0.00    -0.196 N 
ATOM      2  C2  IND d   1       5.026  -4.618   3.654  0.00  0.00     0.054 A 
ATOM      3  C3  IND d   1       3.814  -4.204   4.088  0.00  0.00    -0.031 A 
ATOM      4  C4  IND d   1       3.181  -2.070   5.381  0.00  0.00     0.051 A 
ATOM      5  C5  IND d   1       3.731  -0.982   6.000  0.00  0.00    -0.031 A 
ATOM      6  C6  IND d   1       5.092  -0.754   5.999  0.00  0.00     0.015 A 
ATOM      7  C7  IND d   1       5.957  -1.602   5.367  0.00  0.00    -0.016 A 
ATOM      8  C8  IND d   1       5.402  -2.711   4.744  0.00  0.00    -0.047 A 
ATOM      9  C9  IND d   1       4.026  -2.971   4.777  0.00  0.00    -0.096 A 
ATOM     10  HN1 IND d   1       6.840  -3.825   3.899  0.00  0.00     0.298 HD
ENDROOT
TORSDOF 0
ENDMDL
