MODEL 1
REMARK minimizedAffinity 2.05533695
REMARK minimizedRMSD -1
REMARK  0 active torsions:
REMARK  status: ('A' for Active; 'I' for Inactive)
ROOT
ATOM      1  N1  IND d   1       4.195   4.898  -1.794  0.00  0.00    -0.196 N 
ATOM      2  C2  IND d   1       5.132   5.845  -1.491  0.00  0.00     0.054 A 
ATOM      3  C3  IND d   1       5.996   5.999  -2.520  0.00  0.00    -0.031 A 
ATOM      4  C4  IND d   1       5.998   4.874  -4.835  0.00  0.00     0.051 A 
ATOM      5  C5  IND d   1       5.361   3.910  -5.565  0.00  0.00    -0.031 A 
ATOM      6  C6  IND d   1       4.279   3.214  -5.066  0.00  0.00     0.015 A 
ATOM      7  C7  IND d   1       3.784   3.465  -3.817  0.00  0.00    -0.016 A 
ATOM      8  C8  IND d   1       4.434   4.438  -3.071  0.00  0.00    -0.047 A 
ATOM      9  C9  IND d   1       5.559   5.118  -3.555  0.00  0.00    -0.096 A 
ATOM     10  HN1 IND d   1       3.563   4.633  -1.275  0.00  0.00     0.298 HD
ENDROOT
TORSDOF 0
ENDMDL
