MODEL 1
REMARK minimizedAffinity -2.91147065
REMARK minimizedRMSD -1
REMARK  0 active torsions:
REMARK  status: ('A' for Active; 'I' for Inactive)
ROOT
ATOM      1  N1  IND d   1       4.799  -1.823   6.000  0.00  0.00    -0.196 N 
ATOM      2  C2  IND d   1       3.783  -1.184   5.344  0.00  0.00     0.054 A 
ATOM      3  C3  IND d   1       3.377  -1.915   4.281  0.00  0.00    -0.031 A 
ATOM      4  C4  IND d   1       4.169  -4.234   3.492  0.00  0.00     0.051 A 
ATOM      5  C5  IND d   1       5.102  -5.199   3.749  0.00  0.00    -0.031 A 
ATOM      6  C6  IND d   1       5.998  -5.087   4.793  0.00  0.00     0.015 A 
ATOM      7  C7  IND d   1       5.987  -4.006   5.628  0.00  0.00    -0.016 A 
ATOM      8  C8  IND d   1       5.045  -3.021   5.366  0.00  0.00    -0.047 A 
ATOM      9  C9  IND d   1       4.161  -3.109   4.283  0.00  0.00    -0.096 A 
ATOM     10  HN1 IND d   1       5.214  -1.526   6.692  0.00  0.00     0.298 HD
ENDROOT
TORSDOF 0
ENDMDL
