MODEL 1
REMARK minimizedAffinity 1.29447973
REMARK minimizedRMSD -1
REMARK  0 active torsions:
REMARK  status: ('A' for Active; 'I' for Inactive)
ROOT
ATOM      1  N1  IND d   1       5.228  -4.208   3.925  0.00  0.00    -0.196 N 
ATOM      2  C2  IND d   1       5.997  -4.403   5.038  0.00  0.00     0.054 A 
ATOM      3  C3  IND d   1       5.668  -3.512   5.999  0.00  0.00    -0.031 A 
ATOM      4  C4  IND d   1       3.830  -1.709   6.000  0.00  0.00     0.051 A 
ATOM      5  C5  IND d   1       2.892  -1.127   5.194  0.00  0.00    -0.031 A 
ATOM      6  C6  IND d   1       2.679  -1.552   3.898  0.00  0.00     0.015 A 
ATOM      7  C7  IND d   1       3.391  -2.588   3.362  0.00  0.00    -0.016 A 
ATOM      8  C8  IND d   1       4.349  -3.177   4.175  0.00  0.00    -0.047 A 
ATOM      9  C9  IND d   1       4.599  -2.722   5.476  0.00  0.00    -0.096 A 
ATOM     10  HN1 IND d   1       5.283  -4.654   3.192  0.00  0.00     0.298 HD
ENDROOT
TORSDOF 0
ENDMDL
