MODEL 1
REMARK minimizedAffinity -3.60946131
REMARK minimizedRMSD -1
REMARK  0 active torsions:
REMARK  status: ('A' for Active; 'I' for Inactive)
ROOT
ATOM      1  N1  IND d   1       3.794  -1.499   5.558  0.00  0.00    -0.196 N 
ATOM      2  C2  IND d   1       3.028  -1.162   4.476  0.00  0.00     0.054 A 
ATOM      3  C3  IND d   1       3.242  -2.029   3.461  0.00  0.00    -0.031 A 
ATOM      4  C4  IND d   1       4.727  -4.130   3.390  0.00  0.00     0.051 A 
ATOM      5  C5  IND d   1       5.646  -4.826   4.125  0.00  0.00    -0.031 A 
ATOM      6  C6  IND d   1       5.999  -4.441   5.402  0.00  0.00     0.015 A 
ATOM      7  C7  IND d   1       5.436  -3.349   5.999  0.00  0.00    -0.016 A 
ATOM      8  C8  IND d   1       4.508  -2.636   5.252  0.00  0.00    -0.047 A 
ATOM      9  C9  IND d   1       4.177  -2.997   3.940  0.00  0.00    -0.096 A 
ATOM     10  HN1 IND d   1       3.824  -1.071   6.303  0.00  0.00     0.298 HD
ENDROOT
TORSDOF 0
ENDMDL
