MODEL 1
REMARK minimizedAffinity -1.0243386
REMARK minimizedRMSD -1
REMARK  0 active torsions:
REMARK  status: ('A' for Active; 'I' for Inactive)
ROOT
ATOM      1  N1  IND d   1       5.167  -4.104   4.005  0.00  0.00    -0.196 N 
ATOM      2  C2  IND d   1       5.998  -4.271   5.078  0.00  0.00     0.054 A 
ATOM      3  C3  IND d   1       5.777  -3.307   5.999  0.00  0.00    -0.031 A 
ATOM      4  C4  IND d   1       4.029  -1.416   6.000  0.00  0.00     0.051 A 
ATOM      5  C5  IND d   1       3.069  -0.836   5.219  0.00  0.00    -0.031 A 
ATOM      6  C6  IND d   1       2.750  -1.328   3.970  0.00  0.00     0.015 A 
ATOM      7  C7  IND d   1       3.375  -2.430   3.457  0.00  0.00    -0.016 A 
ATOM      8  C8  IND d   1       4.356  -3.016   4.244  0.00  0.00    -0.047 A 
ATOM      9  C9  IND d   1       4.713  -2.496   5.495  0.00  0.00    -0.096 A 
ATOM     10  HN1 IND d   1       5.153  -4.596   3.300  0.00  0.00     0.298 HD
ENDROOT
TORSDOF 0
ENDMDL
