MODEL 1
REMARK minimizedAffinity -2.27425551
REMARK minimizedRMSD -1
REMARK  0 active torsions:
REMARK  status: ('A' for Active; 'I' for Inactive)
ROOT
ATOM      1  N1  IND d   1       5.053  -4.344   5.968  0.00  0.00    -0.196 N 
ATOM      2  C2  IND d   1       6.000  -3.359   5.999  0.00  0.00     0.054 A 
ATOM      3  C3  IND d   1       5.613  -2.310   5.239  0.00  0.00    -0.031 A 
ATOM      4  C4  IND d   1       3.419  -1.953   3.939  0.00  0.00     0.051 A 
ATOM      5  C5  IND d   1       2.263  -2.589   3.582  0.00  0.00    -0.031 A 
ATOM      6  C6  IND d   1       1.971  -3.867   4.013  0.00  0.00     0.015 A 
ATOM      7  C7  IND d   1       2.822  -4.555   4.830  0.00  0.00    -0.016 A 
ATOM      8  C8  IND d   1       4.000  -3.916   5.189  0.00  0.00    -0.047 A 
ATOM      9  C9  IND d   1       4.322  -2.635   4.721  0.00  0.00    -0.096 A 
ATOM     10  HN1 IND d   1       5.105  -5.103   6.368  0.00  0.00     0.298 HD
ENDROOT
TORSDOF 0
ENDMDL
