MODEL 1
REMARK minimizedAffinity 4.05224562
REMARK minimizedRMSD -1
REMARK  0 active torsions:
REMARK  status: ('A' for Active; 'I' for Inactive)
ROOT
ATOM      1  N1  IND d   1       5.211  -4.130   3.943  0.00  0.00    -0.196 N 
ATOM      2  C2  IND d   1       5.999  -4.295   5.047  0.00  0.00     0.054 A 
ATOM      3  C3  IND d   1       5.669  -3.395   6.000  0.00  0.00    -0.031 A 
ATOM      4  C4  IND d   1       3.799  -1.625   6.000  0.00  0.00     0.051 A 
ATOM      5  C5  IND d   1       2.840  -1.072   5.199  0.00  0.00    -0.031 A 
ATOM      6  C6  IND d   1       2.615  -1.521   3.914  0.00  0.00     0.015 A 
ATOM      7  C7  IND d   1       3.337  -2.552   3.383  0.00  0.00    -0.016 A 
ATOM      8  C8  IND d   1       4.317  -3.111   4.191  0.00  0.00    -0.047 A 
ATOM      9  C9  IND d   1       4.578  -2.632   5.481  0.00  0.00    -0.096 A 
ATOM     10  HN1 IND d   1       5.264  -4.586   3.216  0.00  0.00     0.298 HD
ENDROOT
TORSDOF 0
ENDMDL
