MODEL 1
REMARK minimizedAffinity 1.90282798
REMARK minimizedRMSD -1
REMARK  0 active torsions:
REMARK  status: ('A' for Active; 'I' for Inactive)
ROOT
ATOM      1  C1  BNZ d   1       2.398   3.293  -3.987  0.00  0.00     0.000 A 
ATOM      2  C2  BNZ d   1       1.756   3.184  -2.782  0.00  0.00     0.000 A 
ATOM      3  C3  BNZ d   1       1.972   2.107  -1.969  0.00  0.00     0.000 A 
ATOM      4  C4  BNZ d   1       2.798   1.123  -2.378  0.00  0.00     0.000 A 
ATOM      5  C5  BNZ d   1       3.445   1.213  -3.593  0.00  0.00     0.000 A 
ATOM      6  C6  BNZ d   1       3.255   2.317  -4.392  0.00  0.00     0.000 A 
ENDROOT
TORSDOF 0
ENDMDL
