MODEL 1
REMARK minimizedAffinity 2.04247022
REMARK minimizedRMSD -1
REMARK  0 active torsions:
REMARK  status: ('A' for Active; 'I' for Inactive)
ROOT
ATOM      1  C1  BNZ d   1      -5.980   1.185   3.620  0.00  0.00     0.000 A 
ATOM      2  C2  BNZ d   1      -5.999   1.811   4.838  0.00  0.00     0.000 A 
ATOM      3  C3  BNZ d   1      -5.952   1.088   5.998  0.00  0.00     0.000 A 
ATOM      4  C4  BNZ d   1      -5.928  -0.259   5.939  0.00  0.00     0.000 A 
ATOM      5  C5  BNZ d   1      -5.918  -0.905   4.719  0.00  0.00     0.000 A 
ATOM      6  C6  BNZ d   1      -5.925  -0.174   3.553  0.00  0.00     0.000 A 
ENDROOT
TORSDOF 0
ENDMDL
