MODEL 1
REMARK minimizedAffinity 3.21386003
REMARK minimizedRMSD -1
REMARK  0 active torsions:
REMARK  status: ('A' for Active; 'I' for Inactive)
ROOT
ATOM      1  C1  BNZ d   1      -5.794   1.701   3.610  0.00  0.00     0.000 A 
ATOM      2  C2  BNZ d   1      -5.582   2.373   4.784  0.00  0.00     0.000 A 
ATOM      3  C3  BNZ d   1      -5.553   1.705   5.977  0.00  0.00     0.000 A 
ATOM      4  C4  BNZ d   1      -5.775   0.375   5.997  0.00  0.00     0.000 A 
ATOM      5  C5  BNZ d   1      -6.000  -0.315   4.822  0.00  0.00     0.000 A 
ATOM      6  C6  BNZ d   1      -5.990   0.355   3.620  0.00  0.00     0.000 A 
ENDROOT
TORSDOF 0
ENDMDL
