MODEL 1
REMARK minimizedAffinity 4.06606913
REMARK minimizedRMSD -1
REMARK  0 active torsions:
REMARK  status: ('A' for Active; 'I' for Inactive)
ROOT
ATOM      1  C1  BNZ d   1      -5.855   2.016   4.823  0.00  0.00     0.000 A 
ATOM      2  C2  BNZ d   1      -5.923   1.307   5.993  0.00  0.00     0.000 A 
ATOM      3  C3  BNZ d   1      -5.949  -0.060   5.983  0.00  0.00     0.000 A 
ATOM      4  C4  BNZ d   1      -5.948  -0.714   4.803  0.00  0.00     0.000 A 
ATOM      5  C5  BNZ d   1      -5.890  -0.013   3.615  0.00  0.00     0.000 A 
ATOM      6  C6  BNZ d   1      -5.824   1.361   3.631  0.00  0.00     0.000 A 
ENDROOT
TORSDOF 0
ENDMDL
