MODEL 1
REMARK minimizedAffinity -1.37198663
REMARK minimizedRMSD -1
REMARK  0 active torsions:
REMARK  status: ('A' for Active; 'I' for Inactive)
ROOT
ATOM      1  C1  BNZ d   1       3.450   0.245  -4.008  0.00  0.00     0.000 A 
ATOM      2  C2  BNZ d   1       2.733   1.291  -3.491  0.00  0.00     0.000 A 
ATOM      3  C3  BNZ d   1       1.840   1.094  -2.475  0.00  0.00     0.000 A 
ATOM      4  C4  BNZ d   1       1.636  -0.154  -2.005  0.00  0.00     0.000 A 
ATOM      5  C5  BNZ d   1       2.344  -1.220  -2.523  0.00  0.00     0.000 A 
ATOM      6  C6  BNZ d   1       3.270  -1.012  -3.518  0.00  0.00     0.000 A 
ENDROOT
TORSDOF 0
ENDMDL
