MODEL 1
REMARK minimizedAffinity 1.12220156
REMARK minimizedRMSD -1
REMARK  0 active torsions:
REMARK  status: ('A' for Active; 'I' for Inactive)
ROOT
ATOM      1  C1  BNZ d   1      -1.222   1.207  -1.876  0.00  0.00     0.000 A 
ATOM      2  C2  BNZ d   1      -2.277   0.585  -2.488  0.00  0.00     0.000 A 
ATOM      3  C3  BNZ d   1      -2.403   0.598  -3.849  0.00  0.00     0.000 A 
ATOM      4  C4  BNZ d   1      -1.497   1.267  -4.593  0.00  0.00     0.000 A 
ATOM      5  C5  BNZ d   1      -0.434   1.907  -3.989  0.00  0.00     0.000 A 
ATOM      6  C6  BNZ d   1      -0.288   1.859  -2.622  0.00  0.00     0.000 A 
ENDROOT
TORSDOF 0
ENDMDL
