MODEL 1
REMARK minimizedAffinity 3.69952726
REMARK minimizedRMSD -1
REMARK  0 active torsions:
REMARK  status: ('A' for Active; 'I' for Inactive)
ROOT
ATOM      1  C1  BNZ d   1      -3.618   3.906   5.904  0.00  0.00     0.000 A 
ATOM      2  C2  BNZ d   1      -3.589   5.275   5.918  0.00  0.00     0.000 A 
ATOM      3  C3  BNZ d   1      -4.747   6.000   5.971  0.00  0.00     0.000 A 
ATOM      4  C4  BNZ d   1      -5.933   5.356   5.969  0.00  0.00     0.000 A 
ATOM      5  C5  BNZ d   1      -5.979   3.976   5.946  0.00  0.00     0.000 A 
ATOM      6  C6  BNZ d   1      -4.810   3.250   5.932  0.00  0.00     0.000 A 
ENDROOT
TORSDOF 0
ENDMDL
