MODEL 1
REMARK minimizedAffinity 4.02792215
REMARK minimizedRMSD -1
REMARK  0 active torsions:
REMARK  status: ('A' for Active; 'I' for Inactive)
ROOT
ATOM      1  C1  BNZ d   1      -1.063  -5.946   0.387  0.00  0.00     0.000 A 
ATOM      2  C2  BNZ d   1       0.246  -5.953  -0.016  0.00  0.00     0.000 A 
ATOM      3  C3  BNZ d   1       1.259  -6.000   0.900  0.00  0.00     0.000 A 
ATOM      4  C4  BNZ d   1       0.965  -6.000   2.216  0.00  0.00     0.000 A 
ATOM      5  C5  BNZ d   1      -0.350  -5.984   2.638  0.00  0.00     0.000 A 
ATOM      6  C6  BNZ d   1      -1.368  -5.976   1.713  0.00  0.00     0.000 A 
ENDROOT
TORSDOF 0
ENDMDL
