MODEL 1
REMARK minimizedAffinity 0.0658508614
REMARK minimizedRMSD -1
REMARK  0 active torsions:
REMARK  status: ('A' for Active; 'I' for Inactive)
ROOT
ATOM      1  C1  BNZ d   1      -1.693  -0.225  -3.806  0.00  0.00     0.000 A 
ATOM      2  C2  BNZ d   1      -0.903   0.341  -2.841  0.00  0.00     0.000 A 
ATOM      3  C3  BNZ d   1      -0.928   1.689  -2.619  0.00  0.00     0.000 A 
ATOM      4  C4  BNZ d   1      -1.710   2.474  -3.388  0.00  0.00     0.000 A 
ATOM      5  C5  BNZ d   1      -2.505   1.919  -4.371  0.00  0.00     0.000 A 
ATOM      6  C6  BNZ d   1      -2.507   0.557  -4.566  0.00  0.00     0.000 A 
ENDROOT
TORSDOF 0
ENDMDL
