MODEL 1
REMARK minimizedAffinity -3.39636445
REMARK minimizedRMSD -1
REMARK  0 active torsions:
REMARK  status: ('A' for Active; 'I' for Inactive)
ROOT
ATOM      1  C1  BNZ d   1       1.063   1.397  -2.271  0.00  0.00     0.000 A 
ATOM      2  C2  BNZ d   1       2.189   0.620  -2.324  0.00  0.00     0.000 A 
ATOM      3  C3  BNZ d   1       2.207  -0.537  -3.053  0.00  0.00     0.000 A 
ATOM      4  C4  BNZ d   1       1.089  -0.933  -3.695  0.00  0.00     0.000 A 
ATOM      5  C5  BNZ d   1      -0.057  -0.165  -3.643  0.00  0.00     0.000 A 
ATOM      6  C6  BNZ d   1      -0.059   1.018  -2.940  0.00  0.00     0.000 A 
ENDROOT
TORSDOF 0
ENDMDL
