MODEL 1
REMARK minimizedAffinity 5.63949347
REMARK minimizedRMSD -1
REMARK  0 active torsions:
REMARK  status: ('A' for Active; 'I' for Inactive)
ROOT
ATOM      1  C1  BNZ d   1      -1.497   2.537  -4.055  0.00  0.00     0.000 A 
ATOM      2  C2  BNZ d   1      -2.263   1.716  -4.840  0.00  0.00     0.000 A 
ATOM      3  C3  BNZ d   1      -2.323   0.372  -4.596  0.00  0.00     0.000 A 
ATOM      4  C4  BNZ d   1      -1.587  -0.154  -3.596  0.00  0.00     0.000 A 
ATOM      5  C5  BNZ d   1      -0.803   0.660  -2.802  0.00  0.00     0.000 A 
ATOM      6  C6  BNZ d   1      -0.776   2.017  -3.026  0.00  0.00     0.000 A 
ENDROOT
TORSDOF 0
ENDMDL
