MODEL 1
REMARK minimizedAffinity 0.170524538
REMARK minimizedRMSD -1
REMARK  0 active torsions:
REMARK  status: ('A' for Active; 'I' for Inactive)
ROOT
ATOM      1  C1  BNZ d   1      -6.000  -0.901   5.446  0.00  0.00     0.000 A 
ATOM      2  C2  BNZ d   1      -4.853  -1.460   5.946  0.00  0.00     0.000 A 
ATOM      3  C3  BNZ d   1      -3.691  -0.743   5.997  0.00  0.00     0.000 A 
ATOM      4  C4  BNZ d   1      -3.666   0.515   5.512  0.00  0.00     0.000 A 
ATOM      5  C5  BNZ d   1      -4.811   1.089   4.997  0.00  0.00     0.000 A 
ATOM      6  C6  BNZ d   1      -5.989   0.378   4.983  0.00  0.00     0.000 A 
ENDROOT
TORSDOF 0
ENDMDL
