MODEL 1
REMARK minimizedAffinity -4.22603178
REMARK minimizedRMSD -1
REMARK  0 active torsions:
REMARK  status: ('A' for Active; 'I' for Inactive)
ROOT
ATOM      1  C1  BNZ d   1       1.258   1.766  -2.568  0.00  0.00     0.000 A 
ATOM      2  C2  BNZ d   1       2.320   0.942  -2.827  0.00  0.00     0.000 A 
ATOM      3  C3  BNZ d   1       2.135  -0.267  -3.438  0.00  0.00     0.000 A 
ATOM      4  C4  BNZ d   1       0.886  -0.666  -3.753  0.00  0.00     0.000 A 
ATOM      5  C5  BNZ d   1      -0.196   0.150  -3.490  0.00  0.00     0.000 A 
ATOM      6  C6  BNZ d   1      -0.002   1.383  -2.910  0.00  0.00     0.000 A 
ENDROOT
TORSDOF 0
ENDMDL
