MODEL 1
REMARK minimizedAffinity -2.65322685
REMARK minimizedRMSD -1
REMARK  0 active torsions:
REMARK  status: ('A' for Active; 'I' for Inactive)
ROOT
ATOM      1  C1  BNZ d   1       1.095   1.714  -2.264  0.00  0.00     0.000 A 
ATOM      2  C2  BNZ d   1      -0.215   1.558  -2.631  0.00  0.00     0.000 A 
ATOM      3  C3  BNZ d   1      -0.643   0.402  -3.221  0.00  0.00     0.000 A 
ATOM      4  C4  BNZ d   1       0.245  -0.580  -3.479  0.00  0.00     0.000 A 
ATOM      5  C5  BNZ d   1       1.571  -0.433  -3.123  0.00  0.00     0.000 A 
ATOM      6  C6  BNZ d   1       1.991   0.716  -2.494  0.00  0.00     0.000 A 
ENDROOT
TORSDOF 0
ENDMDL
