MODEL 1
REMARK minimizedAffinity 4.18917418
REMARK minimizedRMSD -1
REMARK  0 active torsions:
REMARK  status: ('A' for Active; 'I' for Inactive)
ROOT
ATOM      1  C1  BNZ d   1       2.476   3.538  -4.273  0.00  0.00     0.000 A 
ATOM      2  C2  BNZ d   1       1.848   3.236  -3.095  0.00  0.00     0.000 A 
ATOM      3  C3  BNZ d   1       2.314   2.234  -2.290  0.00  0.00     0.000 A 
ATOM      4  C4  BNZ d   1       3.382   1.510  -2.684  0.00  0.00     0.000 A 
ATOM      5  C5  BNZ d   1       4.021   1.797  -3.873  0.00  0.00     0.000 A 
ATOM      6  C6  BNZ d   1       3.572   2.832  -4.662  0.00  0.00     0.000 A 
ENDROOT
TORSDOF 0
ENDMDL
