MODEL 1
REMARK minimizedAffinity -0.683005571
REMARK minimizedRMSD -1
REMARK  0 active torsions:
REMARK  status: ('A' for Active; 'I' for Inactive)
ROOT
ATOM      1  C1  BNZ d   1      -1.005   1.446  -1.814  0.00  0.00     0.000 A 
ATOM      2  C2  BNZ d   1      -1.404   2.146  -2.922  0.00  0.00     0.000 A 
ATOM      3  C3  BNZ d   1      -2.156   1.549  -3.894  0.00  0.00     0.000 A 
ATOM      4  C4  BNZ d   1      -2.474   0.243  -3.778  0.00  0.00     0.000 A 
ATOM      5  C5  BNZ d   1      -2.071  -0.479  -2.673  0.00  0.00     0.000 A 
ATOM      6  C6  BNZ d   1      -1.347   0.136  -1.677  0.00  0.00     0.000 A 
ENDROOT
TORSDOF 0
ENDMDL
