MODEL 1
REMARK minimizedAffinity -1.13743687
REMARK minimizedRMSD -1
REMARK  0 active torsions:
REMARK  status: ('A' for Active; 'I' for Inactive)
ROOT
ATOM      1  C1  BNZ d   1      -1.045   2.432  -3.349  0.00  0.00     0.000 A 
ATOM      2  C2  BNZ d   1      -2.121   1.786  -3.896  0.00  0.00     0.000 A 
ATOM      3  C3  BNZ d   1      -2.089   0.438  -4.121  0.00  0.00     0.000 A 
ATOM      4  C4  BNZ d   1      -0.967  -0.254  -3.836  0.00  0.00     0.000 A 
ATOM      5  C5  BNZ d   1       0.130   0.385  -3.293  0.00  0.00     0.000 A 
ATOM      6  C6  BNZ d   1       0.079   1.735  -3.032  0.00  0.00     0.000 A 
ENDROOT
TORSDOF 0
ENDMDL
