MODEL 1
REMARK minimizedAffinity -0.356720567
REMARK minimizedRMSD -1
REMARK  0 active torsions:
REMARK  status: ('A' for Active; 'I' for Inactive)
ROOT
ATOM      1  C1  DEN d   1      -2.386   0.520  -4.182  0.00  0.00     0.130 A 
ATOM      2  C2  DEN d   1      -3.555  -0.294  -4.503  0.00  0.00    -0.031 A 
ATOM      3  C3  DEN d   1      -4.497   0.542  -5.273  0.00  0.00     0.027 A 
ATOM      4  C4  DEN d   1      -4.259   3.006  -6.000  0.00  0.00     0.027 A 
ATOM      5  C5  DEN d   1      -3.447   4.117  -5.951  0.00  0.00    -0.003 A 
ATOM      6  C6  DEN d   1      -2.250   4.118  -5.285  0.00  0.00     0.001 A 
ATOM      7  C7  DEN d   1      -1.809   2.971  -4.679  0.00  0.00     0.017 A 
ATOM      8  C8  DEN d   1      -2.626   1.848  -4.719  0.00  0.00    -0.094 A 
ATOM      9  C9  DEN d   1      -3.827   1.864  -5.407  0.00  0.00    -0.072 A 
ENDROOT
TORSDOF 0
ENDMDL
