MODEL 1
REMARK minimizedAffinity -1.21629441
REMARK minimizedRMSD -1
REMARK  0 active torsions:
REMARK  status: ('A' for Active; 'I' for Inactive)
ROOT
ATOM      1  C1  DEN d   1      -2.570   1.204  -5.433  0.00  0.00     0.130 A 
ATOM      2  C2  DEN d   1      -3.551   0.125  -5.515  0.00  0.00    -0.031 A 
ATOM      3  C3  DEN d   1      -4.877   0.730  -5.751  0.00  0.00     0.027 A 
ATOM      4  C4  DEN d   1      -5.503   3.220  -6.000  0.00  0.00     0.027 A 
ATOM      5  C5  DEN d   1      -5.012   4.507  -5.992  0.00  0.00    -0.003 A 
ATOM      6  C6  DEN d   1      -3.690   4.783  -5.766  0.00  0.00     0.001 A 
ATOM      7  C7  DEN d   1      -2.804   3.755  -5.582  0.00  0.00     0.017 A 
ATOM      8  C8  DEN d   1      -3.292   2.455  -5.581  0.00  0.00    -0.094 A 
ATOM      9  C9  DEN d   1      -4.630   2.196  -5.824  0.00  0.00    -0.072 A 
ENDROOT
TORSDOF 0
ENDMDL
