MODEL 1
REMARK minimizedAffinity -4.33168077
REMARK minimizedRMSD -1
REMARK  0 active torsions:
REMARK  status: ('A' for Active; 'I' for Inactive)
ROOT
ATOM      1  C1  DEN d   1       3.385   0.932  -1.164  0.00  0.00     0.130 A 
ATOM      2  C2  DEN d   1       2.001   0.937  -0.699  0.00  0.00    -0.031 A 
ATOM      3  C3  DEN d   1       1.473  -0.437  -0.825  0.00  0.00     0.027 A 
ATOM      4  C4  DEN d   1       2.659  -2.559  -1.685  0.00  0.00     0.027 A 
ATOM      5  C5  DEN d   1       3.836  -3.057  -2.201  0.00  0.00    -0.003 A 
ATOM      6  C6  DEN d   1       4.924  -2.260  -2.437  0.00  0.00     0.001 A 
ATOM      7  C7  DEN d   1       4.874  -0.929  -2.115  0.00  0.00     0.017 A 
ATOM      8  C8  DEN d   1       3.689  -0.419  -1.601  0.00  0.00    -0.094 A 
ATOM      9  C9  DEN d   1       2.603  -1.243  -1.358  0.00  0.00    -0.072 A 
ENDROOT
TORSDOF 0
ENDMDL
