MODEL 1
REMARK minimizedAffinity 3.61959791
REMARK minimizedRMSD -1
REMARK  0 active torsions:
REMARK  status: ('A' for Active; 'I' for Inactive)
ROOT
ATOM      1  C1  DEN d   1       1.667  -1.284  -1.564  0.00  0.00     0.130 A 
ATOM      2  C2  DEN d   1       0.478  -0.435  -1.553  0.00  0.00    -0.031 A 
ATOM      3  C3  DEN d   1       0.922   0.970  -1.462  0.00  0.00     0.027 A 
ATOM      4  C4  DEN d   1       3.321   1.911  -1.345  0.00  0.00     0.027 A 
ATOM      5  C5  DEN d   1       4.657   1.577  -1.313  0.00  0.00    -0.003 A 
ATOM      6  C6  DEN d   1       5.085   0.276  -1.328  0.00  0.00     0.001 A 
ATOM      7  C7  DEN d   1       4.170  -0.739  -1.422  0.00  0.00     0.017 A 
ATOM      8  C8  DEN d   1       2.821  -0.411  -1.447  0.00  0.00    -0.094 A 
ATOM      9  C9  DEN d   1       2.408   0.911  -1.443  0.00  0.00    -0.072 A 
ENDROOT
TORSDOF 0
ENDMDL
