MODEL 1
REMARK minimizedAffinity 0.0737414137
REMARK minimizedRMSD -1
REMARK  0 active torsions:
REMARK  status: ('A' for Active; 'I' for Inactive)
ROOT
ATOM      1  C1  DEN d   1      -5.347   3.209  -5.904  0.00  0.00     0.130 A 
ATOM      2  C2  DEN d   1      -5.999   4.514  -5.965  0.00  0.00    -0.031 A 
ATOM      3  C3  DEN d   1      -4.947   5.549  -6.000  0.00  0.00     0.027 A 
ATOM      4  C4  DEN d   1      -2.384   5.260  -5.968  0.00  0.00     0.027 A 
ATOM      5  C5  DEN d   1      -1.359   4.343  -5.909  0.00  0.00    -0.003 A 
ATOM      6  C6  DEN d   1      -1.589   2.996  -5.809  0.00  0.00     0.001 A 
ATOM      7  C7  DEN d   1      -2.875   2.525  -5.813  0.00  0.00     0.017 A 
ATOM      8  C8  DEN d   1      -3.915   3.445  -5.865  0.00  0.00    -0.094 A 
ATOM      9  C9  DEN d   1      -3.661   4.801  -5.977  0.00  0.00    -0.072 A 
ENDROOT
TORSDOF 0
ENDMDL
