MODEL 1
REMARK minimizedAffinity -3.71939254
REMARK minimizedRMSD -1
REMARK  0 active torsions:
REMARK  status: ('A' for Active; 'I' for Inactive)
ROOT
ATOM      1  C1  DEN d   1      -3.194   4.713  -5.511  0.00  0.00     0.130 A 
ATOM      2  C2  DEN d   1      -1.834   4.302  -5.175  0.00  0.00    -0.031 A 
ATOM      3  C3  DEN d   1      -1.806   2.827  -5.105  0.00  0.00     0.027 A 
ATOM      4  C4  DEN d   1      -3.727   1.149  -5.488  0.00  0.00     0.027 A 
ATOM      5  C5  DEN d   1      -5.067   1.024  -5.784  0.00  0.00    -0.003 A 
ATOM      6  C6  DEN d   1      -5.877   2.112  -5.975  0.00  0.00     0.001 A 
ATOM      7  C7  DEN d   1      -5.345   3.373  -5.916  0.00  0.00     0.017 A 
ATOM      8  C8  DEN d   1      -3.997   3.507  -5.611  0.00  0.00    -0.094 A 
ATOM      9  C9  DEN d   1      -3.192   2.394  -5.433  0.00  0.00    -0.072 A 
ENDROOT
TORSDOF 0
ENDMDL
