MODEL 1
REMARK minimizedAffinity -0.271128893
REMARK minimizedRMSD -1
REMARK  0 active torsions:
REMARK  status: ('A' for Active; 'I' for Inactive)
ROOT
ATOM      1  C1  DEN d   1      -2.784   2.276  -5.641  0.00  0.00     0.130 A 
ATOM      2  C2  DEN d   1      -1.538   2.980  -5.354  0.00  0.00    -0.031 A 
ATOM      3  C3  DEN d   1      -1.843   4.420  -5.240  0.00  0.00     0.027 A 
ATOM      4  C4  DEN d   1      -4.114   5.621  -5.473  0.00  0.00     0.027 A 
ATOM      5  C5  DEN d   1      -5.457   5.444  -5.726  0.00  0.00    -0.003 A 
ATOM      6  C6  DEN d   1      -5.992   4.214  -6.000  0.00  0.00     0.001 A 
ATOM      7  C7  DEN d   1      -5.189   3.104  -5.982  0.00  0.00     0.017 A 
ATOM      8  C8  DEN d   1      -3.833   3.275  -5.735  0.00  0.00    -0.094 A 
ATOM      9  C9  DEN d   1      -3.313   4.526  -5.449  0.00  0.00    -0.072 A 
ENDROOT
TORSDOF 0
ENDMDL
