MODEL 1
REMARK minimizedAffinity 3.77981496
REMARK minimizedRMSD -1
REMARK  0 active torsions:
REMARK  status: ('A' for Active; 'I' for Inactive)
ROOT
ATOM      1  C1  DEN d   1      -5.435   4.197  -5.993  0.00  0.00     0.130 A 
ATOM      2  C2  DEN d   1      -5.474   2.743  -5.858  0.00  0.00    -0.031 A 
ATOM      3  C3  DEN d   1      -4.089   2.264  -5.675  0.00  0.00     0.027 A 
ATOM      4  C4  DEN d   1      -1.901   3.625  -5.584  0.00  0.00     0.027 A 
ATOM      5  C5  DEN d   1      -1.361   4.890  -5.662  0.00  0.00    -0.003 A 
ATOM      6  C6  DEN d   1      -2.132   6.000  -5.888  0.00  0.00     0.001 A 
ATOM      7  C7  DEN d   1      -3.491   5.871  -5.999  0.00  0.00     0.017 A 
ATOM      8  C8  DEN d   1      -4.041   4.598  -5.929  0.00  0.00    -0.094 A 
ATOM      9  C9  DEN d   1      -3.247   3.490  -5.687  0.00  0.00    -0.072 A 
ENDROOT
TORSDOF 0
ENDMDL
