MODEL 1
REMARK minimizedAffinity -0.501696467
REMARK minimizedRMSD -1
REMARK  0 active torsions:
REMARK  status: ('A' for Active; 'I' for Inactive)
ROOT
ATOM      1  C1  DEN d   1      -1.850   4.919  -5.944  0.00  0.00     0.130 A 
ATOM      2  C2  DEN d   1      -1.241   3.594  -5.880  0.00  0.00    -0.031 A 
ATOM      3  C3  DEN d   1      -2.327   2.593  -5.869  0.00  0.00     0.027 A 
ATOM      4  C4  DEN d   1      -4.878   2.965  -5.950  0.00  0.00     0.027 A 
ATOM      5  C5  DEN d   1      -5.872   3.916  -6.000  0.00  0.00    -0.003 A 
ATOM      6  C6  DEN d   1      -5.600   5.258  -6.000  0.00  0.00     0.001 A 
ATOM      7  C7  DEN d   1      -4.298   5.686  -5.995  0.00  0.00     0.017 A 
ATOM      8  C8  DEN d   1      -3.290   4.733  -5.938  0.00  0.00    -0.094 A 
ATOM      9  C9  DEN d   1      -3.586   3.381  -5.951  0.00  0.00    -0.072 A 
ENDROOT
TORSDOF 0
ENDMDL
