MODEL 1
REMARK minimizedAffinity 0.0177769456
REMARK minimizedRMSD -1
REMARK  0 active torsions:
REMARK  status: ('A' for Active; 'I' for Inactive)
ROOT
ATOM      1  C1  DEN d   1      -2.875   0.682  -5.533  0.00  0.00     0.130 A 
ATOM      2  C2  DEN d   1      -4.141   1.369  -5.772  0.00  0.00    -0.031 A 
ATOM      3  C3  DEN d   1      -5.180   0.345  -6.000  0.00  0.00     0.027 A 
ATOM      4  C4  DEN d   1      -4.954  -2.225  -5.998  0.00  0.00     0.027 A 
ATOM      5  C5  DEN d   1      -4.073  -3.274  -5.854  0.00  0.00    -0.003 A 
ATOM      6  C6  DEN d   1      -2.736  -3.079  -5.627  0.00  0.00     0.001 A 
ATOM      7  C7  DEN d   1      -2.249  -1.806  -5.494  0.00  0.00     0.017 A 
ATOM      8  C8  DEN d   1      -3.129  -0.743  -5.646  0.00  0.00    -0.094 A 
ATOM      9  C9  DEN d   1      -4.479  -0.961  -5.863  0.00  0.00    -0.072 A 
ENDROOT
TORSDOF 0
ENDMDL
