MODEL 1
REMARK minimizedAffinity -4.17122746
REMARK minimizedRMSD -1
REMARK  0 active torsions:
REMARK  status: ('A' for Active; 'I' for Inactive)
ROOT
ATOM      1  C1  DEN d   1       2.689  -0.621  -3.339  0.00  0.00     0.130 A 
ATOM      2  C2  DEN d   1       2.698  -1.186  -1.993  0.00  0.00    -0.031 A 
ATOM      3  C3  DEN d   1       3.735  -2.237  -1.946  0.00  0.00     0.027 A 
ATOM      4  C4  DEN d   1       5.321  -3.035  -3.816  0.00  0.00     0.027 A 
ATOM      5  C5  DEN d   1       5.679  -2.862  -5.135  0.00  0.00    -0.003 A 
ATOM      6  C6  DEN d   1       5.047  -1.961  -5.951  0.00  0.00     0.001 A 
ATOM      7  C7  DEN d   1       4.053  -1.166  -5.442  0.00  0.00     0.017 A 
ATOM      8  C8  DEN d   1       3.683  -1.340  -4.116  0.00  0.00    -0.094 A 
ATOM      9  C9  DEN d   1       4.342  -2.248  -3.304  0.00  0.00    -0.072 A 
ENDROOT
TORSDOF 0
ENDMDL
