MODEL 1
REMARK minimizedAffinity 7.54650688
REMARK minimizedRMSD -1
REMARK  0 active torsions:
REMARK  status: ('A' for Active; 'I' for Inactive)
ROOT
ATOM      1  C1  DEN d   1       1.577   1.699  -0.472  0.00  0.00     0.130 A 
ATOM      2  C2  DEN d   1       0.973   0.403  -0.772  0.00  0.00    -0.031 A 
ATOM      3  C3  DEN d   1       2.043  -0.503  -1.236  0.00  0.00     0.027 A 
ATOM      4  C4  DEN d   1       4.564  -0.029  -1.512  0.00  0.00     0.027 A 
ATOM      5  C5  DEN d   1       5.545   0.930  -1.393  0.00  0.00    -0.003 A 
ATOM      6  C6  DEN d   1       5.270   2.211  -0.994  0.00  0.00     0.001 A 
ATOM      7  C7  DEN d   1       3.988   2.556  -0.656  0.00  0.00     0.017 A 
ATOM      8  C8  DEN d   1       2.992   1.597  -0.782  0.00  0.00    -0.094 A 
ATOM      9  C9  DEN d   1       3.292   0.304  -1.175  0.00  0.00    -0.072 A 
ENDROOT
TORSDOF 0
ENDMDL
