MODEL 1
REMARK minimizedAffinity 5.25909615
REMARK minimizedRMSD -1
REMARK  0 active torsions:
REMARK  status: ('A' for Active; 'I' for Inactive)
ROOT
ATOM      1  C1  DEN d   1      -4.580   1.533  -5.268  0.00  0.00     0.130 A 
ATOM      2  C2  DEN d   1      -5.955   1.867  -5.628  0.00  0.00    -0.031 A 
ATOM      3  C3  DEN d   1      -6.000   3.301  -5.977  0.00  0.00     0.027 A 
ATOM      4  C4  DEN d   1      -4.083   5.027  -5.998  0.00  0.00     0.027 A 
ATOM      5  C5  DEN d   1      -2.740   5.216  -5.757  0.00  0.00    -0.003 A 
ATOM      6  C6  DEN d   1      -1.930   4.207  -5.307  0.00  0.00     0.001 A 
ATOM      7  C7  DEN d   1      -2.446   2.951  -5.127  0.00  0.00     0.017 A 
ATOM      8  C8  DEN d   1      -3.801   2.754  -5.361  0.00  0.00    -0.094 A 
ATOM      9  C9  DEN d   1      -4.601   3.784  -5.827  0.00  0.00    -0.072 A 
ENDROOT
TORSDOF 0
ENDMDL
