MODEL 1
REMARK minimizedAffinity -5.77571058
REMARK minimizedRMSD -1
REMARK  0 active torsions:
REMARK  status: ('A' for Active; 'I' for Inactive)
ROOT
ATOM      1  C1  DEN d   1       3.463  -2.432  -2.140  0.00  0.00     0.130 A 
ATOM      2  C2  DEN d   1       2.540  -1.318  -1.941  0.00  0.00    -0.031 A 
ATOM      3  C3  DEN d   1       2.533  -0.505  -3.174  0.00  0.00     0.027 A 
ATOM      4  C4  DEN d   1       3.852  -0.863  -5.361  0.00  0.00     0.027 A 
ATOM      5  C5  DEN d   1       4.772  -1.667  -5.998  0.00  0.00    -0.003 A 
ATOM      6  C6  DEN d   1       5.341  -2.753  -5.387  0.00  0.00     0.001 A 
ATOM      7  C7  DEN d   1       4.961  -3.092  -4.115  0.00  0.00     0.017 A 
ATOM      8  C8  DEN d   1       4.040  -2.283  -3.464  0.00  0.00    -0.094 A 
ATOM      9  C9  DEN d   1       3.467  -1.196  -4.103  0.00  0.00    -0.072 A 
ENDROOT
TORSDOF 0
ENDMDL
