MODEL 1
REMARK minimizedAffinity -0.985756755
REMARK minimizedRMSD -1
REMARK  0 active torsions:
REMARK  status: ('A' for Active; 'I' for Inactive)
ROOT
ATOM      1  C1  DEN d   1      -1.020   0.272  -3.063  0.00  0.00     0.130 A 
ATOM      2  C2  DEN d   1      -1.005  -1.167  -2.813  0.00  0.00    -0.031 A 
ATOM      3  C3  DEN d   1      -2.296  -1.722  -3.266  0.00  0.00     0.027 A 
ATOM      4  C4  DEN d   1      -4.304  -0.502  -4.330  0.00  0.00     0.027 A 
ATOM      5  C5  DEN d   1      -4.788   0.723  -4.732  0.00  0.00    -0.003 A 
ATOM      6  C6  DEN d   1      -4.070   1.879  -4.575  0.00  0.00     0.001 A 
ATOM      7  C7  DEN d   1      -2.809   1.828  -4.044  0.00  0.00     0.017 A 
ATOM      8  C8  DEN d   1      -2.317   0.597  -3.630  0.00  0.00    -0.094 A 
ATOM      9  C9  DEN d   1      -3.053  -0.562  -3.808  0.00  0.00    -0.072 A 
ENDROOT
TORSDOF 0
ENDMDL
