MODEL 1
REMARK minimizedAffinity -4.8495388
REMARK minimizedRMSD -1
REMARK  0 active torsions:
REMARK  status: ('A' for Active; 'I' for Inactive)
ROOT
ATOM      1  C   UNL d   1       2.855   0.333  -2.459  0.00  0.00     0.023 A 
ATOM      2  C1  UNL d   1       2.063   1.470  -2.621  0.00  0.00     0.003 A 
ATOM      3  C2  UNL d   1       0.841   1.571  -1.952  0.00  0.00     0.048 A 
ATOM      4  C3  UNL d   1       0.418   0.533  -1.123  0.00  0.00     0.023 A 
ATOM      5  C4  UNL d   1       1.208  -0.606  -0.957  0.00  0.00     0.048 A 
ATOM      6  C5  UNL d   1       2.429  -0.703  -1.628  0.00  0.00     0.003 A 
ATOM      7  I   UNL d   1      -1.400   0.681  -0.127  0.00  0.00    -0.146 I 
ENDROOT
TORSDOF 0
ENDMDL
