MODEL 1
REMARK minimizedAffinity -4.41073275
REMARK minimizedRMSD -1
REMARK  0 active torsions:
REMARK  status: ('A' for Active; 'I' for Inactive)
ROOT
ATOM      1  C   UNL d   1       2.479  -0.394  -2.142  0.00  0.00     0.023 A 
ATOM      2  C1  UNL d   1       2.039   0.925  -2.032  0.00  0.00     0.003 A 
ATOM      3  C2  UNL d   1       1.073   1.264  -1.083  0.00  0.00     0.048 A 
ATOM      4  C3  UNL d   1       0.552   0.279  -0.245  0.00  0.00     0.023 A 
ATOM      5  C4  UNL d   1       0.989  -1.042  -0.350  0.00  0.00     0.048 A 
ATOM      6  C5  UNL d   1       1.955  -1.377  -1.302  0.00  0.00     0.003 A 
ATOM      7  I   UNL d   1      -0.886   0.781   1.169  0.00  0.00    -0.146 I 
ENDROOT
TORSDOF 0
ENDMDL
