MODEL 1
REMARK minimizedAffinity -0.97421968
REMARK minimizedRMSD -1
REMARK  0 active torsions:
REMARK  status: ('A' for Active; 'I' for Inactive)
ROOT
ATOM      1  C   UNL d   1       0.385  -1.633  -0.673  0.00  0.00     0.023 A 
ATOM      2  C1  UNL d   1       0.734  -1.628   0.678  0.00  0.00     0.003 A 
ATOM      3  C2  UNL d   1       0.066  -0.787   1.570  0.00  0.00     0.048 A 
ATOM      4  C3  UNL d   1      -0.952   0.045   1.105  0.00  0.00     0.023 A 
ATOM      5  C4  UNL d   1      -1.306   0.042  -0.245  0.00  0.00     0.048 A 
ATOM      6  C5  UNL d   1      -0.634  -0.799  -1.134  0.00  0.00     0.003 A 
ATOM      7  I   UNL d   1      -1.949   1.297   2.431  0.00  0.00    -0.146 I 
ENDROOT
TORSDOF 0
ENDMDL
