MODEL 1
REMARK minimizedAffinity -3.21814752
REMARK minimizedRMSD -1
REMARK  0 active torsions:
REMARK  status: ('A' for Active; 'I' for Inactive)
ROOT
ATOM      1  C   UNL d   1       0.458  -1.422  -0.057  0.00  0.00     0.023 A 
ATOM      2  C1  UNL d   1      -0.670  -0.691  -0.430  0.00  0.00     0.003 A 
ATOM      3  C2  UNL d   1      -1.204   0.263   0.439  0.00  0.00     0.048 A 
ATOM      4  C3  UNL d   1      -0.604   0.482   1.678  0.00  0.00     0.023 A 
ATOM      5  C4  UNL d   1       0.526  -0.246   2.055  0.00  0.00     0.048 A 
ATOM      6  C5  UNL d   1       1.055  -1.199   1.184  0.00  0.00     0.003 A 
ATOM      7  I   UNL d   1      -1.396   1.902   2.973  0.00  0.00    -0.146 I 
ENDROOT
TORSDOF 0
ENDMDL
