MODEL 1
REMARK minimizedAffinity -2.77422094
REMARK minimizedRMSD -1
REMARK  0 active torsions:
REMARK  status: ('A' for Active; 'I' for Inactive)
ROOT
ATOM      1  C   UNL d   1       2.776  -0.953  -1.472  0.00  0.00     0.023 A 
ATOM      2  C1  UNL d   1       1.874  -1.928  -1.047  0.00  0.00     0.003 A 
ATOM      3  C2  UNL d   1       0.716  -1.557  -0.359  0.00  0.00     0.048 A 
ATOM      4  C3  UNL d   1       0.468  -0.209  -0.101  0.00  0.00     0.023 A 
ATOM      5  C4  UNL d   1       1.368   0.770  -0.525  0.00  0.00     0.048 A 
ATOM      6  C5  UNL d   1       2.524   0.394  -1.211  0.00  0.00     0.003 A 
ATOM      7  I   UNL d   1      -1.254   0.346   0.923  0.00  0.00    -0.146 I 
ENDROOT
TORSDOF 0
ENDMDL
