MODEL 1
REMARK minimizedAffinity -0.545681059
REMARK minimizedRMSD -1
REMARK  0 active torsions:
REMARK  status: ('A' for Active; 'I' for Inactive)
ROOT
ATOM      1  C   UNL d   1      -2.492   1.127   1.505  0.00  0.00     0.023 A 
ATOM      2  C1  UNL d   1      -1.841   0.126   2.227  0.00  0.00     0.003 A 
ATOM      3  C2  UNL d   1      -0.811  -0.607   1.634  0.00  0.00     0.048 A 
ATOM      4  C3  UNL d   1      -0.436  -0.333   0.319  0.00  0.00     0.023 A 
ATOM      5  C4  UNL d   1      -1.083   0.669  -0.407  0.00  0.00     0.048 A 
ATOM      6  C5  UNL d   1      -2.113   1.398   0.191  0.00  0.00     0.003 A 
ATOM      7  I   UNL d   1       1.097  -1.422  -0.566  0.00  0.00    -0.146 I 
ENDROOT
TORSDOF 0
ENDMDL
