MODEL 1
REMARK minimizedAffinity -4.02100325
REMARK minimizedRMSD -1
REMARK  0 active torsions:
REMARK  status: ('A' for Active; 'I' for Inactive)
ROOT
ATOM      1  C   UNL d   1       1.016   0.296  -0.960  0.00  0.00     0.023 A 
ATOM      2  C1  UNL d   1       0.052   1.298  -1.073  0.00  0.00     0.003 A 
ATOM      3  C2  UNL d   1      -0.841   1.530  -0.024  0.00  0.00     0.048 A 
ATOM      4  C3  UNL d   1      -0.763   0.758   1.134  0.00  0.00     0.023 A 
ATOM      5  C4  UNL d   1       0.202  -0.244   1.252  0.00  0.00     0.048 A 
ATOM      6  C5  UNL d   1       1.091  -0.474   0.200  0.00  0.00     0.003 A 
ATOM      7  I   UNL d   1      -2.090   1.103   2.696  0.00  0.00    -0.146 I 
ENDROOT
TORSDOF 0
ENDMDL
