MODEL 1
REMARK minimizedAffinity -2.68906045
REMARK minimizedRMSD -1
REMARK  0 active torsions:
REMARK  status: ('A' for Active; 'I' for Inactive)
ROOT
ATOM      1  C   UNL d   1       1.775  -1.101  -1.686  0.00  0.00     0.023 A 
ATOM      2  C1  UNL d   1       1.527  -1.784  -0.495  0.00  0.00     0.003 A 
ATOM      3  C2  UNL d   1       0.576  -1.299   0.405  0.00  0.00     0.048 A 
ATOM      4  C3  UNL d   1      -0.125  -0.130   0.108  0.00  0.00     0.023 A 
ATOM      5  C4  UNL d   1       0.119   0.556  -1.083  0.00  0.00     0.048 A 
ATOM      6  C5  UNL d   1       1.071   0.068  -1.980  0.00  0.00     0.003 A 
ATOM      7  I   UNL d   1      -1.541   0.593   1.445  0.00  0.00    -0.146 I 
ENDROOT
TORSDOF 0
ENDMDL
