MODEL 1
REMARK minimizedAffinity -1.9938494
REMARK minimizedRMSD -1
REMARK  0 active torsions:
REMARK  status: ('A' for Active; 'I' for Inactive)
ROOT
ATOM      1  C   UNL d   1       0.809  -0.634  -0.822  0.00  0.00     0.023 A 
ATOM      2  C1  UNL d   1      -0.156   0.367  -0.932  0.00  0.00     0.003 A 
ATOM      3  C2  UNL d   1      -0.772   0.875   0.214  0.00  0.00     0.048 A 
ATOM      4  C3  UNL d   1      -0.417   0.377   1.467  0.00  0.00     0.023 A 
ATOM      5  C4  UNL d   1       0.549  -0.624   1.583  0.00  0.00     0.048 A 
ATOM      6  C5  UNL d   1       1.161  -1.129   0.434  0.00  0.00     0.003 A 
ATOM      7  I   UNL d   1      -1.331   1.132   3.174  0.00  0.00    -0.146 I 
ENDROOT
TORSDOF 0
ENDMDL
