MODEL 1
REMARK minimizedAffinity 3.55898881
REMARK minimizedRMSD -1
REMARK  3 active torsions:
REMARK  status: ('A' for Active; 'I' for Inactive)
REMARK    1  A    between atoms: C3'_2  and  C2'_3 
REMARK    2  A    between atoms: C2'_3  and  C1'_4 
REMARK    3  A    between atoms: C1'_4  and  C1_5 
ROOT
ATOM      1  C1  N4B d   1       3.651  -2.157  -5.988  0.00  0.00    -0.075 A 
ATOM      2  C2  N4B d   1       3.447  -0.760  -5.990  0.00  0.00     0.002 A 
ATOM      3  C3  N4B d   1       4.523   0.091  -5.927  0.00  0.00     0.002 A 
ATOM      4  C4  N4B d   1       5.805  -0.429  -5.843  0.00  0.00    -0.004 A 
ATOM      5  C5  N4B d   1       5.996  -1.780  -5.868  0.00  0.00     0.002 A 
ATOM      6  C6  N4B d   1       4.924  -2.647  -5.935  0.00  0.00     0.002 A 
ENDROOT
BRANCH   1   7
ATOM      7  C1' N4B d   1       2.502  -3.128  -5.969  0.00  0.00     0.057 C 
BRANCH   7   8
ATOM      8  C2' N4B d   1       1.237  -2.397  -5.531  0.00  0.00     0.009 C 
BRANCH   8   9
ATOM      9  C3' N4B d   1       0.631  -3.009  -4.279  0.00  0.00     0.004 C 
ATOM     10  C4' N4B d   1      -0.848  -2.786  -4.181  0.00  0.00     0.003 C 
ENDBRANCH   8   9
ENDBRANCH   7   8
ENDBRANCH   1   7
TORSDOF 3
ENDMDL
