MODEL 1
REMARK minimizedAffinity 1.45118487
REMARK minimizedRMSD -1
REMARK  3 active torsions:
REMARK  status: ('A' for Active; 'I' for Inactive)
REMARK    1  A    between atoms: C3'_2  and  C2'_3 
REMARK    2  A    between atoms: C2'_3  and  C1'_4 
REMARK    3  A    between atoms: C1'_4  and  C1_5 
ROOT
ATOM      1  C1  N4B d   1       5.936   0.048  -3.535  0.00  0.00    -0.075 A 
ATOM      2  C2  N4B d   1       5.910   0.793  -4.734  0.00  0.00     0.002 A 
ATOM      3  C3  N4B d   1       5.932   0.147  -5.945  0.00  0.00     0.002 A 
ATOM      4  C4  N4B d   1       6.000  -1.238  -5.982  0.00  0.00    -0.004 A 
ATOM      5  C5  N4B d   1       5.999  -1.952  -4.820  0.00  0.00     0.002 A 
ATOM      6  C6  N4B d   1       5.973  -1.315  -3.595  0.00  0.00     0.002 A 
ENDROOT
BRANCH   1   7
ATOM      7  C1' N4B d   1       6.000   0.713  -2.187  0.00  0.00     0.057 C 
BRANCH   7   8
ATOM      8  C2' N4B d   1       5.159   1.986  -2.217  0.00  0.00     0.009 C 
BRANCH   8   9
ATOM      9  C3' N4B d   1       3.697   1.708  -1.911  0.00  0.00     0.004 C 
ATOM     10  C4' N4B d   1       2.817   2.899  -2.151  0.00  0.00     0.003 C 
ENDBRANCH   8   9
ENDBRANCH   7   8
ENDBRANCH   1   7
TORSDOF 3
ENDMDL
