MODEL 1
REMARK minimizedAffinity 10.1322184
REMARK minimizedRMSD -1
REMARK  3 active torsions:
REMARK  status: ('A' for Active; 'I' for Inactive)
REMARK    1  A    between atoms: C3'_2  and  C2'_3 
REMARK    2  A    between atoms: C2'_3  and  C1'_4 
REMARK    3  A    between atoms: C1'_4  and  C1_5 
ROOT
ATOM      1  C1  N4B d   1      -0.677  -3.250   0.940  0.00  0.00    -0.075 A 
ATOM      2  C2  N4B d   1       0.407  -2.460   0.499  0.00  0.00     0.002 A 
ATOM      3  C3  N4B d   1       1.672  -2.991   0.459  0.00  0.00     0.002 A 
ATOM      4  C4  N4B d   1       1.880  -4.299   0.870  0.00  0.00    -0.004 A 
ATOM      5  C5  N4B d   1       0.824  -5.064   1.271  0.00  0.00     0.002 A 
ATOM      6  C6  N4B d   1      -0.454  -4.544   1.313  0.00  0.00     0.002 A 
ENDROOT
BRANCH   1   7
ATOM      7  C1' N4B d   1      -2.064  -2.687   1.083  0.00  0.00     0.057 C 
BRANCH   7   8
ATOM      8  C2' N4B d   1      -2.393  -2.534   2.566  0.00  0.00     0.009 C 
BRANCH   8   9
ATOM      9  C3' N4B d   1      -3.494  -1.515   2.802  0.00  0.00     0.004 C 
ATOM     10  C4' N4B d   1      -3.240  -0.652   4.001  0.00  0.00     0.003 C 
ENDBRANCH   8   9
ENDBRANCH   7   8
ENDBRANCH   1   7
TORSDOF 3
ENDMDL
