MODEL 1
REMARK minimizedAffinity 8.99381447
REMARK minimizedRMSD -1
REMARK  3 active torsions:
REMARK  status: ('A' for Active; 'I' for Inactive)
REMARK    1  A    between atoms: C3'_2  and  C2'_3 
REMARK    2  A    between atoms: C2'_3  and  C1'_4 
REMARK    3  A    between atoms: C1'_4  and  C1_5 
ROOT
ATOM      1  C1  N4B d   1       2.669   3.384  -3.252  0.00  0.00    -0.075 A 
ATOM      2  C2  N4B d   1       3.742   2.900  -2.472  0.00  0.00     0.002 A 
ATOM      3  C3  N4B d   1       3.530   2.531  -1.166  0.00  0.00     0.002 A 
ATOM      4  C4  N4B d   1       2.263   2.654  -0.616  0.00  0.00    -0.004 A 
ATOM      5  C5  N4B d   1       1.226   3.099  -1.384  0.00  0.00     0.002 A 
ATOM      6  C6  N4B d   1       1.425   3.470  -2.698  0.00  0.00     0.002 A 
ENDROOT
BRANCH   1   7
ATOM      7  C1' N4B d   1       2.870   3.881  -4.657  0.00  0.00     0.057 C 
BRANCH   7   8
ATOM      8  C2' N4B d   1       4.103   3.210  -5.254  0.00  0.00     0.009 C 
BRANCH   8   9
ATOM      9  C3' N4B d   1       3.754   1.921  -5.979  0.00  0.00     0.004 C 
ATOM     10  C4' N4B d   1       4.888   0.940  -5.999  0.00  0.00     0.003 C 
ENDBRANCH   8   9
ENDBRANCH   7   8
ENDBRANCH   1   7
TORSDOF 3
ENDMDL
