MODEL 1
REMARK minimizedAffinity -0.744012952
REMARK minimizedRMSD -1
REMARK  3 active torsions:
REMARK  status: ('A' for Active; 'I' for Inactive)
REMARK    1  A    between atoms: C3'_2  and  C2'_3 
REMARK    2  A    between atoms: C2'_3  and  C1'_4 
REMARK    3  A    between atoms: C1'_4  and  C1_5 
ROOT
ATOM      1  C1  N4B d   1       1.074   0.885  -1.891  0.00  0.00    -0.075 A 
ATOM      2  C2  N4B d   1       0.960   0.256  -0.632  0.00  0.00     0.002 A 
ATOM      3  C3  N4B d   1       1.055  -1.111  -0.537  0.00  0.00     0.002 A 
ATOM      4  C4  N4B d   1       1.244  -1.867  -1.685  0.00  0.00    -0.004 A 
ATOM      5  C5  N4B d   1       1.378  -1.249  -2.893  0.00  0.00     0.002 A 
ATOM      6  C6  N4B d   1       1.289   0.124  -3.003  0.00  0.00     0.002 A 
ENDROOT
BRANCH   1   7
ATOM      7  C1' N4B d   1       0.891   2.369  -2.056  0.00  0.00     0.057 C 
BRANCH   7   8
ATOM      8  C2' N4B d   1       1.128   2.744  -3.516  0.00  0.00     0.009 C 
BRANCH   8   9
ATOM      9  C3' N4B d   1       2.270   3.734  -3.670  0.00  0.00     0.004 C 
ATOM     10  C4' N4B d   1       2.358   4.308  -5.053  0.00  0.00     0.003 C 
ENDBRANCH   8   9
ENDBRANCH   7   8
ENDBRANCH   1   7
TORSDOF 3
ENDMDL
