MODEL 1
REMARK minimizedAffinity 4.82831001
REMARK minimizedRMSD -1
REMARK  3 active torsions:
REMARK  status: ('A' for Active; 'I' for Inactive)
REMARK    1  A    between atoms: C3'_2  and  C2'_3 
REMARK    2  A    between atoms: C2'_3  and  C1'_4 
REMARK    3  A    between atoms: C1'_4  and  C1_5 
ROOT
ATOM      1  C1  N4B d   1       0.937  -0.301  -1.815  0.00  0.00    -0.075 A 
ATOM      2  C2  N4B d   1       0.348   0.887  -1.329  0.00  0.00     0.002 A 
ATOM      3  C3  N4B d   1       0.196   1.969  -2.161  0.00  0.00     0.002 A 
ATOM      4  C4  N4B d   1       0.641   1.893  -3.473  0.00  0.00    -0.004 A 
ATOM      5  C5  N4B d   1       1.185   0.733  -3.942  0.00  0.00     0.002 A 
ATOM      6  C6  N4B d   1       1.340  -0.363  -3.117  0.00  0.00     0.002 A 
ENDROOT
BRANCH   1   7
ATOM      7  C1' N4B d   1       1.202  -1.480  -0.920  0.00  0.00     0.057 C 
BRANCH   7   8
ATOM      8  C2' N4B d   1       0.485  -1.270   0.411  0.00  0.00     0.009 C 
BRANCH   8   9
ATOM      9  C3' N4B d   1       0.302  -2.573   1.170  0.00  0.00     0.004 C 
ATOM     10  C4' N4B d   1      -1.129  -2.836   1.534  0.00  0.00     0.003 C 
ENDBRANCH   8   9
ENDBRANCH   7   8
ENDBRANCH   1   7
TORSDOF 3
ENDMDL
