MODEL 1
REMARK minimizedAffinity 7.0536747
REMARK minimizedRMSD -1
REMARK  3 active torsions:
REMARK  status: ('A' for Active; 'I' for Inactive)
REMARK    1  A    between atoms: C3'_2  and  C2'_3 
REMARK    2  A    between atoms: C2'_3  and  C1'_4 
REMARK    3  A    between atoms: C1'_4  and  C1_5 
ROOT
ATOM      1  C1  N4B d   1       2.230   1.677  -4.482  0.00  0.00    -0.075 A 
ATOM      2  C2  N4B d   1       3.394   1.400  -5.232  0.00  0.00     0.002 A 
ATOM      3  C3  N4B d   1       3.984   2.393  -5.976  0.00  0.00     0.002 A 
ATOM      4  C4  N4B d   1       3.419   3.659  -6.000  0.00  0.00    -0.004 A 
ATOM      5  C5  N4B d   1       2.309   3.925  -5.253  0.00  0.00     0.002 A 
ATOM      6  C6  N4B d   1       1.708   2.938  -4.497  0.00  0.00     0.002 A 
ENDROOT
BRANCH   1   7
ATOM      7  C1' N4B d   1       1.501   0.603  -3.722  0.00  0.00     0.057 C 
BRANCH   7   8
ATOM      8  C2' N4B d   1       1.068   1.154  -2.367  0.00  0.00     0.009 C 
BRANCH   8   9
ATOM      9  C3' N4B d   1       1.062   0.081  -1.292  0.00  0.00     0.004 C 
ATOM     10  C4' N4B d   1       1.493  -1.260  -1.808  0.00  0.00     0.003 C 
ENDBRANCH   8   9
ENDBRANCH   7   8
ENDBRANCH   1   7
TORSDOF 3
ENDMDL
