MODEL 1
REMARK minimizedAffinity -3.99116039
REMARK minimizedRMSD -1
REMARK  1 active torsions:
REMARK  status: ('A' for Active; 'I' for Inactive)
REMARK    1  A    between atoms: N_2  and  C1_3 
ROOT
ATOM      1  C1  UNL d   1      -0.092  -0.375  -0.074  0.00  0.00     0.143 A 
ATOM      2  C2  UNL d   1      -0.909   0.458   0.698  0.00  0.00    -0.057 A 
ATOM      3  C3  UNL d   1      -0.361   1.420   1.556  0.00  0.00     0.033 A 
ATOM      4  C4  UNL d   1       1.019   1.545   1.679  0.00  0.00    -0.042 A 
ATOM      5  C5  UNL d   1       1.850   0.711   0.940  0.00  0.00     0.033 A 
ATOM      6  C6  UNL d   1       1.297  -0.243   0.080  0.00  0.00    -0.057 A 
ENDROOT
BRANCH   1   7
ATOM      7  N   UNL d   1      -0.575  -1.416  -0.871  0.00  0.00    -0.732 N 
ATOM      8  C   UNL d   1      -1.523  -1.153  -1.933  0.00  0.00     0.284 C 
ATOM      9  H3  UNL d   1       0.151  -2.085  -1.118  0.00  0.00     0.395 HD
ENDBRANCH   1   7
TORSDOF 1
ENDMDL
