MODEL 1
REMARK minimizedAffinity -3.13063502
REMARK minimizedRMSD -1
REMARK  1 active torsions:
REMARK  status: ('A' for Active; 'I' for Inactive)
REMARK    1  A    between atoms: N_2  and  C1_3 
ROOT
ATOM      1  C1  UNL d   1      -1.427  -0.944  -1.160  0.00  0.00     0.143 A 
ATOM      2  C2  UNL d   1      -0.409  -1.307  -0.272  0.00  0.00    -0.057 A 
ATOM      3  C3  UNL d   1       0.110  -0.392   0.652  0.00  0.00     0.033 A 
ATOM      4  C4  UNL d   1      -0.361   0.917   0.683  0.00  0.00    -0.042 A 
ATOM      5  C5  UNL d   1      -1.355   1.307  -0.208  0.00  0.00     0.033 A 
ATOM      6  C6  UNL d   1      -1.874   0.386  -1.123  0.00  0.00    -0.057 A 
ENDROOT
BRANCH   1   7
ATOM      7  N   UNL d   1      -1.916  -1.780  -2.167  0.00  0.00    -0.732 N 
ATOM      8  C   UNL d   1      -2.119  -1.277  -3.509  0.00  0.00     0.284 C 
ATOM      9  H3  UNL d   1      -1.509  -2.712  -2.130  0.00  0.00     0.395 HD
ENDBRANCH   1   7
TORSDOF 1
ENDMDL
