MODEL 1
REMARK minimizedAffinity -3.30042768
REMARK minimizedRMSD -1
REMARK  1 active torsions:
REMARK  status: ('A' for Active; 'I' for Inactive)
REMARK    1  A    between atoms: N_2  and  C1_3 
ROOT
ATOM      1  C1  UNL d   1      -0.863  -0.660  -0.477  0.00  0.00     0.143 A 
ATOM      2  C2  UNL d   1      -0.856   0.586  -1.112  0.00  0.00    -0.057 A 
ATOM      3  C3  UNL d   1      -0.523   1.754  -0.415  0.00  0.00     0.033 A 
ATOM      4  C4  UNL d   1      -0.218   1.699   0.941  0.00  0.00    -0.042 A 
ATOM      5  C5  UNL d   1      -0.243   0.474   1.599  0.00  0.00     0.033 A 
ATOM      6  C6  UNL d   1      -0.570  -0.689   0.896  0.00  0.00    -0.057 A 
ENDROOT
BRANCH   1   7
ATOM      7  N   UNL d   1      -1.281  -1.844  -1.091  0.00  0.00    -0.732 N 
ATOM      8  C   UNL d   1      -2.027  -1.807  -2.331  0.00  0.00     0.284 C 
ATOM      9  H3  UNL d   1      -0.572  -2.572  -1.053  0.00  0.00     0.395 HD
ENDBRANCH   1   7
TORSDOF 1
ENDMDL
