MODEL 1
REMARK minimizedAffinity -3.05320621
REMARK minimizedRMSD -1
REMARK  1 active torsions:
REMARK  status: ('A' for Active; 'I' for Inactive)
REMARK    1  A    between atoms: N_2  and  C1_3 
ROOT
ATOM      1  C1  UNL d   1      -0.659  -1.107  -0.309  0.00  0.00     0.143 A 
ATOM      2  C2  UNL d   1       0.626  -0.802  -0.769  0.00  0.00    -0.057 A 
ATOM      3  C3  UNL d   1       1.443   0.111  -0.090  0.00  0.00     0.033 A 
ATOM      4  C4  UNL d   1       0.975   0.759   1.049  0.00  0.00    -0.042 A 
ATOM      5  C5  UNL d   1      -0.309   0.490   1.509  0.00  0.00     0.033 A 
ATOM      6  C6  UNL d   1      -1.117  -0.428   0.831  0.00  0.00    -0.057 A 
ENDROOT
BRANCH   1   7
ATOM      7  N   UNL d   1      -1.555  -1.931  -0.995  0.00  0.00    -0.732 N 
ATOM      8  C   UNL d   1      -1.971  -1.607  -2.342  0.00  0.00     0.284 C 
ATOM      9  H3  UNL d   1      -1.367  -2.920  -0.844  0.00  0.00     0.395 HD
ENDBRANCH   1   7
TORSDOF 1
ENDMDL
