MODEL 1
REMARK minimizedAffinity 0.493725568
REMARK minimizedRMSD -1
REMARK  1 active torsions:
REMARK  status: ('A' for Active; 'I' for Inactive)
REMARK    1  A    between atoms: N_2  and  C1_3 
ROOT
ATOM      1  C1  UNL d   1      -0.239   0.137  -1.699  0.00  0.00     0.143 A 
ATOM      2  C2  UNL d   1      -0.888   0.424  -0.493  0.00  0.00    -0.057 A 
ATOM      3  C3  UNL d   1      -0.183   0.484   0.715  0.00  0.00     0.033 A 
ATOM      4  C4  UNL d   1       1.184   0.230   0.742  0.00  0.00    -0.042 A 
ATOM      5  C5  UNL d   1       1.846  -0.082  -0.440  0.00  0.00     0.033 A 
ATOM      6  C6  UNL d   1       1.137  -0.134  -1.644  0.00  0.00    -0.057 A 
ENDROOT
BRANCH   1   7
ATOM      7  N   UNL d   1      -0.901  -0.034  -2.917  0.00  0.00    -0.732 N 
ATOM      8  C   UNL d   1      -2.131  -0.793  -2.987  0.00  0.00     0.284 C 
ATOM      9  H3  UNL d   1      -0.902   0.813  -3.481  0.00  0.00     0.395 HD
ENDBRANCH   1   7
TORSDOF 1
ENDMDL
