MODEL 1
REMARK minimizedAffinity -3.05412412
REMARK minimizedRMSD -1
REMARK  1 active torsions:
REMARK  status: ('A' for Active; 'I' for Inactive)
REMARK    1  A    between atoms: N_2  and  C1_3 
ROOT
ATOM      1  C1  UNL d   1      -0.388  -1.850  -1.623  0.00  0.00     0.143 A 
ATOM      2  C2  UNL d   1      -1.689  -2.151  -1.205  0.00  0.00    -0.057 A 
ATOM      3  C3  UNL d   1      -2.764  -2.124  -2.101  0.00  0.00     0.033 A 
ATOM      4  C4  UNL d   1      -2.561  -1.764  -3.430  0.00  0.00    -0.042 A 
ATOM      5  C5  UNL d   1      -1.281  -1.437  -3.861  0.00  0.00     0.033 A 
ATOM      6  C6  UNL d   1      -0.210  -1.473  -2.963  0.00  0.00    -0.057 A 
ENDROOT
BRANCH   1   7
ATOM      7  N   UNL d   1       0.706  -1.764  -0.759  0.00  0.00    -0.732 N 
ATOM      8  C   UNL d   1       1.224  -0.476  -0.352  0.00  0.00     0.284 C 
ATOM      9  H3  UNL d   1       0.664  -2.451  -0.009  0.00  0.00     0.395 HD
ENDBRANCH   1   7
TORSDOF 1
ENDMDL
