MODEL 1
REMARK minimizedAffinity -1.68825114
REMARK minimizedRMSD -1
REMARK  1 active torsions:
REMARK  status: ('A' for Active; 'I' for Inactive)
REMARK    1  A    between atoms: N_2  and  C1_3 
ROOT
ATOM      1  C1  UNL d   1      -0.890  -1.188  -0.545  0.00  0.00     0.143 A 
ATOM      2  C2  UNL d   1       0.482  -1.065  -0.789  0.00  0.00    -0.057 A 
ATOM      3  C3  UNL d   1       1.269  -0.156  -0.070  0.00  0.00     0.033 A 
ATOM      4  C4  UNL d   1       0.690   0.669   0.888  0.00  0.00    -0.042 A 
ATOM      5  C5  UNL d   1      -0.677   0.581   1.129  0.00  0.00     0.033 A 
ATOM      6  C6  UNL d   1      -1.456  -0.332   0.413  0.00  0.00    -0.057 A 
ENDROOT
BRANCH   1   7
ATOM      7  N   UNL d   1      -1.743  -2.002  -1.294  0.00  0.00    -0.732 N 
ATOM      8  C   UNL d   1      -2.249  -1.558  -2.575  0.00  0.00     0.284 C 
ATOM      9  H3  UNL d   1      -1.463  -2.980  -1.274  0.00  0.00     0.395 HD
ENDBRANCH   1   7
TORSDOF 1
ENDMDL
