MODEL 1
REMARK minimizedAffinity -1.93637013
REMARK minimizedRMSD -1
REMARK  1 active torsions:
REMARK  status: ('A' for Active; 'I' for Inactive)
REMARK    1  A    between atoms: N_2  and  C1_3 
ROOT
ATOM      1  C1  UNL d   1      -0.774  -0.921  -0.340  0.00  0.00     0.143 A 
ATOM      2  C2  UNL d   1       0.264  -0.009  -0.560  0.00  0.00    -0.057 A 
ATOM      3  C3  UNL d   1       0.584   0.970   0.388  0.00  0.00     0.033 A 
ATOM      4  C4  UNL d   1      -0.151   1.073   1.565  0.00  0.00    -0.042 A 
ATOM      5  C5  UNL d   1      -1.204   0.194   1.793  0.00  0.00     0.033 A 
ATOM      6  C6  UNL d   1      -1.514  -0.786   0.845  0.00  0.00    -0.057 A 
ENDROOT
BRANCH   1   7
ATOM      7  N   UNL d   1      -1.204  -1.853  -1.288  0.00  0.00    -0.732 N 
ATOM      8  C   UNL d   1      -1.860  -1.421  -2.503  0.00  0.00     0.284 C 
ATOM      9  H3  UNL d   1      -0.534  -2.607  -1.422  0.00  0.00     0.395 HD
ENDBRANCH   1   7
TORSDOF 1
ENDMDL
