MODEL 1
REMARK minimizedAffinity -3.81326485
REMARK minimizedRMSD -1
REMARK  1 active torsions:
REMARK  status: ('A' for Active; 'I' for Inactive)
REMARK    1  A    between atoms: N_2  and  C1_3 
ROOT
ATOM      1  C1  UNL d   1      -1.117  -1.180  -0.772  0.00  0.00     0.143 A 
ATOM      2  C2  UNL d   1      -2.460  -1.469  -0.511  0.00  0.00    -0.057 A 
ATOM      3  C3  UNL d   1      -3.317  -1.915  -1.524  0.00  0.00     0.033 A 
ATOM      4  C4  UNL d   1      -2.851  -2.053  -2.827  0.00  0.00    -0.042 A 
ATOM      5  C5  UNL d   1      -1.526  -1.748  -3.115  0.00  0.00     0.033 A 
ATOM      6  C6  UNL d   1      -0.673  -1.309  -2.098  0.00  0.00    -0.057 A 
ENDROOT
BRANCH   1   7
ATOM      7  N   UNL d   1      -0.240  -0.639   0.171  0.00  0.00    -0.732 N 
ATOM      8  C   UNL d   1      -0.741   0.145   1.279  0.00  0.00     0.284 C 
ATOM      9  H3  UNL d   1       0.507  -1.283   0.422  0.00  0.00     0.395 HD
ENDBRANCH   1   7
TORSDOF 1
ENDMDL
