MODEL 1
REMARK minimizedAffinity -1.16246271
REMARK minimizedRMSD -1
REMARK  1 active torsions:
REMARK  status: ('A' for Active; 'I' for Inactive)
REMARK    1  A    between atoms: N_2  and  C1_3 
ROOT
ATOM      1  C1  UNL d   1       4.376   0.863  -4.467  0.00  0.00     0.143 A 
ATOM      2  C2  UNL d   1       3.183   1.184  -3.812  0.00  0.00    -0.057 A 
ATOM      3  C3  UNL d   1       1.973   0.577  -4.168  0.00  0.00     0.033 A 
ATOM      4  C4  UNL d   1       1.930  -0.346  -5.208  0.00  0.00    -0.042 A 
ATOM      5  C5  UNL d   1       3.100  -0.662  -5.890  0.00  0.00     0.033 A 
ATOM      6  C6  UNL d   1       4.306  -0.057  -5.526  0.00  0.00    -0.057 A 
ENDROOT
BRANCH   1   7
ATOM      7  N   UNL d   1       5.594   1.504  -4.226  0.00  0.00    -0.732 N 
ATOM      8  C   UNL d   1       5.625   2.855  -3.708  0.00  0.00     0.284 C 
ATOM      9  H3  UNL d   1       6.284   0.884  -3.810  0.00  0.00     0.395 HD
ENDBRANCH   1   7
TORSDOF 1
ENDMDL
