MODEL 1
REMARK minimizedAffinity -4.24112225
REMARK minimizedRMSD -1
REMARK  1 active torsions:
REMARK  status: ('A' for Active; 'I' for Inactive)
REMARK    1  A    between atoms: N_2  and  C1_3 
ROOT
ATOM      1  C1  UNL d   1      -0.799   0.380   0.058  0.00  0.00     0.143 A 
ATOM      2  C2  UNL d   1      -0.701  -1.015   0.116  0.00  0.00    -0.057 A 
ATOM      3  C3  UNL d   1      -1.151  -1.818  -0.939  0.00  0.00     0.033 A 
ATOM      4  C4  UNL d   1      -1.733  -1.240  -2.062  0.00  0.00    -0.042 A 
ATOM      5  C5  UNL d   1      -1.863   0.143  -2.130  0.00  0.00     0.033 A 
ATOM      6  C6  UNL d   1      -1.407   0.940  -1.076  0.00  0.00    -0.057 A 
ENDROOT
BRANCH   1   7
ATOM      7  N   UNL d   1      -0.461   1.228   1.116  0.00  0.00    -0.732 N 
ATOM      8  C   UNL d   1       0.886   1.244   1.646  0.00  0.00     0.284 C 
ATOM      9  H3  UNL d   1      -0.883   2.149   1.026  0.00  0.00     0.395 HD
ENDBRANCH   1   7
TORSDOF 1
ENDMDL
