MODEL 1
REMARK minimizedAffinity -1.00383043
REMARK minimizedRMSD -1
REMARK  1 active torsions:
REMARK  status: ('A' for Active; 'I' for Inactive)
REMARK    1  A    between atoms: N_2  and  C1_3 
ROOT
ATOM      1  C1  UNL d   1      -0.968  -1.486  -0.716  0.00  0.00     0.143 A 
ATOM      2  C2  UNL d   1      -2.310  -1.711  -1.038  0.00  0.00    -0.057 A 
ATOM      3  C3  UNL d   1      -2.705  -1.989  -2.353  0.00  0.00     0.033 A 
ATOM      4  C4  UNL d   1      -1.763  -2.018  -3.376  0.00  0.00    -0.042 A 
ATOM      5  C5  UNL d   1      -0.427  -1.773  -3.084  0.00  0.00     0.033 A 
ATOM      6  C6  UNL d   1      -0.038  -1.502  -1.768  0.00  0.00    -0.057 A 
ENDROOT
BRANCH   1   7
ATOM      7  N   UNL d   1      -0.525  -1.107   0.554  0.00  0.00    -0.732 N 
ATOM      8  C   UNL d   1      -0.446   0.290   0.921  0.00  0.00     0.284 C 
ATOM      9  H3  UNL d   1      -0.891  -1.710   1.288  0.00  0.00     0.395 HD
ENDBRANCH   1   7
TORSDOF 1
ENDMDL
