MODEL 1
REMARK minimizedAffinity 1.86968696
REMARK minimizedRMSD -1
REMARK  1 active torsions:
REMARK  status: ('A' for Active; 'I' for Inactive)
REMARK    1  A    between atoms: N_2  and  C1_3 
ROOT
ATOM      1  C1  UNL d   1      -1.959  -1.735  -1.236  0.00  0.00     0.143 A 
ATOM      2  C2  UNL d   1      -1.947  -1.666  -2.633  0.00  0.00    -0.057 A 
ATOM      3  C3  UNL d   1      -0.746  -1.548  -3.343  0.00  0.00     0.033 A 
ATOM      4  C4  UNL d   1       0.465  -1.468  -2.665  0.00  0.00    -0.042 A 
ATOM      5  C5  UNL d   1       0.475  -1.510  -1.275  0.00  0.00     0.033 A 
ATOM      6  C6  UNL d   1      -0.727  -1.634  -0.572  0.00  0.00    -0.057 A 
ENDROOT
BRANCH   1   7
ATOM      7  N   UNL d   1      -3.126  -1.753  -0.468  0.00  0.00    -0.732 N 
ATOM      8  C   UNL d   1      -4.185  -2.697  -0.758  0.00  0.00     0.284 C 
ATOM      9  H3  UNL d   1      -2.940  -1.629   0.525  0.00  0.00     0.395 HD
ENDBRANCH   1   7
TORSDOF 1
ENDMDL
