MODEL 1
REMARK minimizedAffinity 7.05325842
REMARK minimizedRMSD -1
REMARK  0 active torsions:
REMARK  status: ('A' for Active; 'I' for Inactive)
ROOT
ATOM      1  C   UNL d   1       0.368   0.381   3.769  0.00  0.00     0.078 C 
ATOM      2  C1  UNL d   1       0.011   0.741   2.358  0.00  0.00    -0.077 A 
ATOM      3  C2  UNL d   1      -1.253   1.255   2.043  0.00  0.00    -0.001 A 
ATOM      4  C3  UNL d   1      -1.576   1.577   0.724  0.00  0.00     0.003 A 
ATOM      5  C4  UNL d   1      -0.640   1.388  -0.291  0.00  0.00    -0.005 A 
ATOM      6  C5  UNL d   1       0.620   0.875   0.012  0.00  0.00     0.003 A 
ATOM      7  C6  UNL d   1       0.944   0.552   1.331  0.00  0.00    -0.001 A 
ENDROOT
TORSDOF 0
ENDMDL
