MODEL 1
REMARK minimizedAffinity 1.9004395
REMARK minimizedRMSD -1
REMARK  0 active torsions:
REMARK  status: ('A' for Active; 'I' for Inactive)
ROOT
ATOM      1  C   UNL d   1       1.562  -2.772  -1.029  0.00  0.00     0.078 C 
ATOM      2  C1  UNL d   1       2.206  -1.426  -0.880  0.00  0.00    -0.077 A 
ATOM      3  C2  UNL d   1       1.511  -0.354  -0.307  0.00  0.00    -0.001 A 
ATOM      4  C3  UNL d   1       2.119   0.896  -0.184  0.00  0.00     0.003 A 
ATOM      5  C4  UNL d   1       3.424   1.087  -0.633  0.00  0.00    -0.005 A 
ATOM      6  C5  UNL d   1       4.123   0.026  -1.206  0.00  0.00     0.003 A 
ATOM      7  C6  UNL d   1       3.517  -1.225  -1.330  0.00  0.00    -0.001 A 
ENDROOT
TORSDOF 0
ENDMDL
