MODEL 1
REMARK minimizedAffinity -1.05497944
REMARK minimizedRMSD -1
REMARK  0 active torsions:
REMARK  status: ('A' for Active; 'I' for Inactive)
ROOT
ATOM      1  C   UNL d   1       2.347   0.696   0.027  0.00  0.00     0.078 C 
ATOM      2  C1  UNL d   1       1.098   0.716   0.856  0.00  0.00    -0.077 A 
ATOM      3  C2  UNL d   1       1.115   0.306   2.195  0.00  0.00    -0.001 A 
ATOM      4  C3  UNL d   1      -0.057   0.321   2.953  0.00  0.00     0.003 A 
ATOM      5  C4  UNL d   1      -1.255   0.744   2.381  0.00  0.00    -0.005 A 
ATOM      6  C5  UNL d   1      -1.282   1.153   1.049  0.00  0.00     0.003 A 
ATOM      7  C6  UNL d   1      -0.111   1.138   0.289  0.00  0.00    -0.001 A 
ENDROOT
TORSDOF 0
ENDMDL
