MODEL 1
REMARK minimizedAffinity 1.15699232
REMARK minimizedRMSD -1
REMARK  0 active torsions:
REMARK  status: ('A' for Active; 'I' for Inactive)
ROOT
ATOM      1  C   UNL d   1       2.078  -2.929   0.138  0.00  0.00     0.078 C 
ATOM      2  C1  UNL d   1       2.570  -1.523  -0.040  0.00  0.00    -0.077 A 
ATOM      3  C2  UNL d   1       1.759  -0.429   0.281  0.00  0.00    -0.001 A 
ATOM      4  C3  UNL d   1       2.226   0.874   0.101  0.00  0.00     0.003 A 
ATOM      5  C4  UNL d   1       3.507   1.094  -0.403  0.00  0.00    -0.005 A 
ATOM      6  C5  UNL d   1       4.321   0.011  -0.728  0.00  0.00     0.003 A 
ATOM      7  C6  UNL d   1       3.855  -1.292  -0.548  0.00  0.00    -0.001 A 
ENDROOT
TORSDOF 0
ENDMDL
