MODEL 1
REMARK minimizedAffinity 1.42278385
REMARK minimizedRMSD -1
REMARK  0 active torsions:
REMARK  status: ('A' for Active; 'I' for Inactive)
ROOT
ATOM      1  C   UNL d   1       1.268  -2.523   0.419  0.00  0.00     0.078 C 
ATOM      2  C1  UNL d   1       2.387  -1.917  -0.373  0.00  0.00    -0.077 A 
ATOM      3  C2  UNL d   1       2.958  -0.695   0.003  0.00  0.00    -0.001 A 
ATOM      4  C3  UNL d   1       3.993  -0.138  -0.750  0.00  0.00     0.003 A 
ATOM      5  C4  UNL d   1       4.466  -0.795  -1.883  0.00  0.00    -0.005 A 
ATOM      6  C5  UNL d   1       3.904  -2.011  -2.267  0.00  0.00     0.003 A 
ATOM      7  C6  UNL d   1       2.868  -2.569  -1.516  0.00  0.00    -0.001 A 
ENDROOT
TORSDOF 0
ENDMDL
