MODEL 1
REMARK minimizedAffinity 5.33921337
REMARK minimizedRMSD -1
REMARK  0 active torsions:
REMARK  status: ('A' for Active; 'I' for Inactive)
ROOT
ATOM      1  C   UNL d   1       3.736  -3.023  -2.094  0.00  0.00     0.078 C 
ATOM      2  C1  UNL d   1       3.343  -1.973  -1.098  0.00  0.00    -0.077 A 
ATOM      3  C2  UNL d   1       2.182  -2.109  -0.327  0.00  0.00    -0.001 A 
ATOM      4  C3  UNL d   1       1.823  -1.119   0.589  0.00  0.00     0.003 A 
ATOM      5  C4  UNL d   1       2.618   0.014   0.741  0.00  0.00    -0.005 A 
ATOM      6  C5  UNL d   1       3.774   0.159  -0.023  0.00  0.00     0.003 A 
ATOM      7  C6  UNL d   1       4.135  -0.829  -0.939  0.00  0.00    -0.001 A 
ENDROOT
TORSDOF 0
ENDMDL
