MODEL 1
REMARK minimizedAffinity 1.82801163
REMARK minimizedRMSD -1
REMARK  0 active torsions:
REMARK  status: ('A' for Active; 'I' for Inactive)
ROOT
ATOM      1  C1  BNZ d   1       1.984  -3.151   1.341  0.00  0.00     0.000 A 
ATOM      2  C2  BNZ d   1       1.328  -2.002   0.987  0.00  0.00     0.000 A 
ATOM      3  C3  BNZ d   1       1.981  -0.997   0.330  0.00  0.00     0.000 A 
ATOM      4  C4  BNZ d   1       3.297  -1.124   0.064  0.00  0.00     0.000 A 
ATOM      5  C5  BNZ d   1       3.975  -2.273   0.422  0.00  0.00     0.000 A 
ATOM      6  C6  BNZ d   1       3.305  -3.298   1.048  0.00  0.00     0.000 A 
ENDROOT
TORSDOF 0
ENDMDL
