MODEL 1
REMARK minimizedAffinity -3.42121911
REMARK minimizedRMSD -1
REMARK  0 active torsions:
REMARK  status: ('A' for Active; 'I' for Inactive)
ROOT
ATOM      1  C1  BNZ d   1      -3.806   0.584  -5.840  0.00  0.00     0.000 A 
ATOM      2  C2  BNZ d   1      -2.703   0.243  -5.104  0.00  0.00     0.000 A 
ATOM      3  C3  BNZ d   1      -2.808  -0.606  -4.038  0.00  0.00     0.000 A 
ATOM      4  C4  BNZ d   1      -4.020  -1.080  -3.684  0.00  0.00     0.000 A 
ATOM      5  C5  BNZ d   1      -5.143  -0.737  -4.410  0.00  0.00     0.000 A 
ATOM      6  C6  BNZ d   1      -5.028   0.086  -5.507  0.00  0.00     0.000 A 
ENDROOT
TORSDOF 0
ENDMDL
