MODEL 1
REMARK minimizedAffinity 4.33483458
REMARK minimizedRMSD -1
REMARK  0 active torsions:
REMARK  status: ('A' for Active; 'I' for Inactive)
ROOT
ATOM      1  C1  BNZ d   1      -4.666   0.170  -5.474  0.00  0.00     0.000 A 
ATOM      2  C2  BNZ d   1      -5.100  -0.171  -4.221  0.00  0.00     0.000 A 
ATOM      3  C3  BNZ d   1      -4.289  -0.859  -3.362  0.00  0.00     0.000 A 
ATOM      4  C4  BNZ d   1      -3.061  -1.239  -3.771  0.00  0.00     0.000 A 
ATOM      5  C5  BNZ d   1      -2.613  -0.910  -5.034  0.00  0.00     0.000 A 
ATOM      6  C6  BNZ d   1      -3.417  -0.184  -5.882  0.00  0.00     0.000 A 
ENDROOT
TORSDOF 0
ENDMDL
