MODEL 1
REMARK minimizedAffinity -0.87333107
REMARK minimizedRMSD -1
REMARK  0 active torsions:
REMARK  status: ('A' for Active; 'I' for Inactive)
ROOT
ATOM      1  C1  BNZ d   1       3.226  -0.512  -0.166  0.00  0.00     0.000 A 
ATOM      2  C2  BNZ d   1       2.163  -1.373  -0.093  0.00  0.00     0.000 A 
ATOM      3  C3  BNZ d   1       2.325  -2.646   0.378  0.00  0.00     0.000 A 
ATOM      4  C4  BNZ d   1       3.554  -3.069   0.737  0.00  0.00     0.000 A 
ATOM      5  C5  BNZ d   1       4.637  -2.217   0.661  0.00  0.00     0.000 A 
ATOM      6  C6  BNZ d   1       4.464  -0.924   0.223  0.00  0.00     0.000 A 
ENDROOT
TORSDOF 0
ENDMDL
