MODEL 1
REMARK minimizedAffinity -1.18828773
REMARK minimizedRMSD -1
REMARK  0 active torsions:
REMARK  status: ('A' for Active; 'I' for Inactive)
ROOT
ATOM      1  C1  BNZ d   1      -2.683  -1.707  -4.121  0.00  0.00     0.000 A 
ATOM      2  C2  BNZ d   1      -2.341  -0.930  -5.195  0.00  0.00     0.000 A 
ATOM      3  C3  BNZ d   1      -3.099   0.153  -5.545  0.00  0.00     0.000 A 
ATOM      4  C4  BNZ d   1      -4.217   0.433  -4.846  0.00  0.00     0.000 A 
ATOM      5  C5  BNZ d   1      -4.581  -0.346  -3.766  0.00  0.00     0.000 A 
ATOM      6  C6  BNZ d   1      -3.795  -1.412  -3.393  0.00  0.00     0.000 A 
ENDROOT
TORSDOF 0
ENDMDL
