MODEL 1
REMARK minimizedAffinity -4.01587105
REMARK minimizedRMSD -1
REMARK  0 active torsions:
REMARK  status: ('A' for Active; 'I' for Inactive)
ROOT
ATOM      1  C1  BNZ d   1      -4.846   0.174  -5.242  0.00  0.00     0.000 A 
ATOM      2  C2  BNZ d   1      -4.844  -0.486  -4.042  0.00  0.00     0.000 A 
ATOM      3  C3  BNZ d   1      -3.712  -1.100  -3.583  0.00  0.00     0.000 A 
ATOM      4  C4  BNZ d   1      -2.597  -1.088  -4.342  0.00  0.00     0.000 A 
ATOM      5  C5  BNZ d   1      -2.587  -0.436  -5.559  0.00  0.00     0.000 A 
ATOM      6  C6  BNZ d   1      -3.716   0.215  -6.000  0.00  0.00     0.000 A 
ENDROOT
TORSDOF 0
ENDMDL
