MODEL 1
REMARK minimizedAffinity -3.04839325
REMARK minimizedRMSD -1
REMARK  0 active torsions:
REMARK  status: ('A' for Active; 'I' for Inactive)
ROOT
ATOM      1  C   UNL d   1       1.673  -1.995   1.779  0.00  0.00     0.023 A 
ATOM      2  C1  UNL d   1       2.173  -1.446   0.599  0.00  0.00     0.003 A 
ATOM      3  C2  UNL d   1       1.357  -0.642  -0.200  0.00  0.00     0.048 A 
ATOM      4  C3  UNL d   1       0.042  -0.391   0.189  0.00  0.00     0.023 A 
ATOM      5  C4  UNL d   1      -0.463  -0.937   1.370  0.00  0.00     0.048 A 
ATOM      6  C5  UNL d   1       0.357  -1.741   2.165  0.00  0.00     0.003 A 
ATOM      7  I   UNL d   1      -1.175   0.805  -0.998  0.00  0.00    -0.146 I 
ENDROOT
TORSDOF 0
ENDMDL
