MODEL 1
REMARK minimizedAffinity -4.85031128
REMARK minimizedRMSD -1
REMARK  0 active torsions:
REMARK  status: ('A' for Active; 'I' for Inactive)
ROOT
ATOM      1  C   UNL d   1       1.338  -2.256   1.908  0.00  0.00     0.023 A 
ATOM      2  C1  UNL d   1       1.888  -1.871   0.685  0.00  0.00     0.003 A 
ATOM      3  C2  UNL d   1       1.231  -0.932  -0.113  0.00  0.00     0.048 A 
ATOM      4  C3  UNL d   1       0.025  -0.381   0.319  0.00  0.00     0.023 A 
ATOM      5  C4  UNL d   1      -0.529  -0.762   1.542  0.00  0.00     0.048 A 
ATOM      6  C5  UNL d   1       0.131  -1.702   2.336  0.00  0.00     0.003 A 
ATOM      7  I   UNL d   1      -0.954   1.018  -0.866  0.00  0.00    -0.146 I 
ENDROOT
TORSDOF 0
ENDMDL
