MODEL 1
REMARK minimizedAffinity -2.89328218
REMARK minimizedRMSD -1
REMARK  0 active torsions:
REMARK  status: ('A' for Active; 'I' for Inactive)
ROOT
ATOM      1  C   UNL d   1       1.714  -2.604   1.914  0.00  0.00     0.023 A 
ATOM      2  C1  UNL d   1       2.172  -1.999   0.744  0.00  0.00     0.003 A 
ATOM      3  C2  UNL d   1       1.450  -0.951   0.170  0.00  0.00     0.048 A 
ATOM      4  C3  UNL d   1       0.272  -0.511   0.772  0.00  0.00     0.023 A 
ATOM      5  C4  UNL d   1      -0.190  -1.113   1.944  0.00  0.00     0.048 A 
ATOM      6  C5  UNL d   1       0.535  -2.162   2.514  0.00  0.00     0.003 A 
ATOM      7  I   UNL d   1      -0.804   1.049  -0.081  0.00  0.00    -0.146 I 
ENDROOT
TORSDOF 0
ENDMDL
