MODEL 1
REMARK minimizedAffinity -5.81497049
REMARK minimizedRMSD -1
REMARK  0 active torsions:
REMARK  status: ('A' for Active; 'I' for Inactive)
ROOT
ATOM      1  C   UNL d   1       0.865  -2.899   2.275  0.00  0.00     0.023 A 
ATOM      2  C1  UNL d   1      -0.288  -2.220   2.669  0.00  0.00     0.003 A 
ATOM      3  C2  UNL d   1      -0.751  -1.136   1.920  0.00  0.00     0.048 A 
ATOM      4  C3  UNL d   1      -0.057  -0.738   0.778  0.00  0.00     0.023 A 
ATOM      5  C4  UNL d   1       1.096  -1.415   0.380  0.00  0.00     0.048 A 
ATOM      6  C5  UNL d   1       1.556  -2.497   1.132  0.00  0.00     0.003 A 
ATOM      7  I   UNL d   1      -0.746   0.874  -0.339  0.00  0.00    -0.146 I 
ENDROOT
TORSDOF 0
ENDMDL
