MODEL 1
REMARK minimizedAffinity -4.16366625
REMARK minimizedRMSD -1
REMARK  0 active torsions:
REMARK  status: ('A' for Active; 'I' for Inactive)
ROOT
ATOM      1  C   UNL d   1       0.327  -2.396   2.882  0.00  0.00     0.023 A 
ATOM      2  C1  UNL d   1      -0.723  -1.485   2.773  0.00  0.00     0.003 A 
ATOM      3  C2  UNL d   1      -0.852  -0.700   1.625  0.00  0.00     0.048 A 
ATOM      4  C3  UNL d   1       0.072  -0.832   0.590  0.00  0.00     0.023 A 
ATOM      5  C4  UNL d   1       1.125  -1.742   0.694  0.00  0.00     0.048 A 
ATOM      6  C5  UNL d   1       1.250  -2.525   1.844  0.00  0.00     0.003 A 
ATOM      7  I   UNL d   1      -0.118   0.335  -1.119  0.00  0.00    -0.146 I 
ENDROOT
TORSDOF 0
ENDMDL
