MODEL 1
REMARK minimizedAffinity -4.90747929
REMARK minimizedRMSD -1
REMARK  0 active torsions:
REMARK  status: ('A' for Active; 'I' for Inactive)
ROOT
ATOM      1  C   UNL d   1       1.669  -2.909   1.584  0.00  0.00     0.023 A 
ATOM      2  C1  UNL d   1       2.165  -2.278   0.443  0.00  0.00     0.003 A 
ATOM      3  C2  UNL d   1       1.465  -1.212  -0.127  0.00  0.00     0.048 A 
ATOM      4  C3  UNL d   1       0.271  -0.782   0.450  0.00  0.00     0.023 A 
ATOM      5  C4  UNL d   1      -0.229  -1.410   1.592  0.00  0.00     0.048 A 
ATOM      6  C5  UNL d   1       0.474  -2.476   2.158  0.00  0.00     0.003 A 
ATOM      7  I   UNL d   1      -0.772   0.804  -0.396  0.00  0.00    -0.146 I 
ENDROOT
TORSDOF 0
ENDMDL
