MODEL 1
REMARK minimizedAffinity -3.74749422
REMARK minimizedRMSD -1
REMARK  0 active torsions:
REMARK  status: ('A' for Active; 'I' for Inactive)
ROOT
ATOM      1  C   UNL d   1       1.339  -3.049   1.812  0.00  0.00     0.023 A 
ATOM      2  C1  UNL d   1       1.947  -2.525   0.671  0.00  0.00     0.003 A 
ATOM      3  C2  UNL d   1       1.404  -1.403   0.041  0.00  0.00     0.048 A 
ATOM      4  C3  UNL d   1       0.253  -0.810   0.558  0.00  0.00     0.023 A 
ATOM      5  C4  UNL d   1      -0.359  -1.330   1.700  0.00  0.00     0.048 A 
ATOM      6  C5  UNL d   1       0.188  -2.452   2.326  0.00  0.00     0.003 A 
ATOM      7  I   UNL d   1      -0.558   0.860  -0.377  0.00  0.00    -0.146 I 
ENDROOT
TORSDOF 0
ENDMDL
