MODEL 1
REMARK minimizedAffinity -4.51681566
REMARK minimizedRMSD -1
REMARK  0 active torsions:
REMARK  status: ('A' for Active; 'I' for Inactive)
ROOT
ATOM      1  C   UNL d   1       1.287  -1.921   1.422  0.00  0.00     0.023 A 
ATOM      2  C1  UNL d   1       0.002  -1.543   1.811  0.00  0.00     0.003 A 
ATOM      3  C2  UNL d   1      -0.736  -0.659   1.021  0.00  0.00     0.048 A 
ATOM      4  C3  UNL d   1      -0.183  -0.157  -0.156  0.00  0.00     0.023 A 
ATOM      5  C4  UNL d   1       1.103  -0.533  -0.550  0.00  0.00     0.048 A 
ATOM      6  C5  UNL d   1       1.837  -1.417   0.243  0.00  0.00     0.003 A 
ATOM      7  I   UNL d   1      -1.279   1.160  -1.333  0.00  0.00    -0.146 I 
ENDROOT
TORSDOF 0
ENDMDL
