MODEL 1
REMARK minimizedAffinity -4.73154116
REMARK minimizedRMSD -1
REMARK  0 active torsions:
REMARK  status: ('A' for Active; 'I' for Inactive)
ROOT
ATOM      1  C   UNL d   1       1.658  -2.846   1.341  0.00  0.00     0.023 A 
ATOM      2  C1  UNL d   1       0.438  -2.438   1.881  0.00  0.00     0.003 A 
ATOM      3  C2  UNL d   1      -0.283  -1.404   1.278  0.00  0.00     0.048 A 
ATOM      4  C3  UNL d   1       0.222  -0.784   0.136  0.00  0.00     0.023 A 
ATOM      5  C4  UNL d   1       1.442  -1.189  -0.408  0.00  0.00     0.048 A 
ATOM      6  C5  UNL d   1       2.159  -2.222   0.199  0.00  0.00     0.003 A 
ATOM      7  I   UNL d   1      -0.848   0.755  -0.762  0.00  0.00    -0.146 I 
ENDROOT
TORSDOF 0
ENDMDL
