MODEL 1
REMARK minimizedAffinity -2.63700557
REMARK minimizedRMSD -1
REMARK  0 active torsions:
REMARK  status: ('A' for Active; 'I' for Inactive)
ROOT
ATOM      1  C   UNL d   1       1.635  -2.725   0.577  0.00  0.00     0.023 A 
ATOM      2  C1  UNL d   1       2.202  -1.453   0.659  0.00  0.00     0.003 A 
ATOM      3  C2  UNL d   1       1.452  -0.329   0.307  0.00  0.00     0.048 A 
ATOM      4  C3  UNL d   1       0.135  -0.484  -0.123  0.00  0.00     0.023 A 
ATOM      5  C4  UNL d   1      -0.437  -1.755  -0.206  0.00  0.00     0.048 A 
ATOM      6  C5  UNL d   1       0.317  -2.876   0.146  0.00  0.00     0.003 A 
ATOM      7  I   UNL d   1      -0.984   1.188  -0.647  0.00  0.00    -0.146 I 
ENDROOT
TORSDOF 0
ENDMDL
