MODEL 1
REMARK minimizedAffinity -1.62204599
REMARK minimizedRMSD -1
REMARK  0 active torsions:
REMARK  status: ('A' for Active; 'I' for Inactive)
ROOT
ATOM      1  C   UNL d   1       1.431  -2.009   2.381  0.00  0.00     0.023 A 
ATOM      2  C1  UNL d   1       0.144  -1.528   2.623  0.00  0.00     0.003 A 
ATOM      3  C2  UNL d   1      -0.435  -0.608   1.747  0.00  0.00     0.048 A 
ATOM      4  C3  UNL d   1       0.279  -0.172   0.631  0.00  0.00     0.023 A 
ATOM      5  C4  UNL d   1       1.567  -0.651   0.385  0.00  0.00     0.048 A 
ATOM      6  C5  UNL d   1       2.142  -1.570   1.264  0.00  0.00     0.003 A 
ATOM      7  I   UNL d   1      -0.580   1.198  -0.675  0.00  0.00    -0.146 I 
ENDROOT
TORSDOF 0
ENDMDL
