MODEL 1
REMARK minimizedAffinity -5.35591316
REMARK minimizedRMSD -1
REMARK  0 active torsions:
REMARK  status: ('A' for Active; 'I' for Inactive)
ROOT
ATOM      1  C   UNL d   1       1.409  -3.305   1.985  0.00  0.00     0.023 A 
ATOM      2  C1  UNL d   1       0.305  -2.609   2.477  0.00  0.00     0.003 A 
ATOM      3  C2  UNL d   1      -0.203  -1.516   1.773  0.00  0.00     0.048 A 
ATOM      4  C3  UNL d   1       0.397  -1.124   0.577  0.00  0.00     0.023 A 
ATOM      5  C4  UNL d   1       1.502  -1.818   0.080  0.00  0.00     0.048 A 
ATOM      6  C5  UNL d   1       2.007  -2.910   0.788  0.00  0.00     0.003 A 
ATOM      7  I   UNL d   1      -0.357   0.503  -0.473  0.00  0.00    -0.146 I 
ENDROOT
TORSDOF 0
ENDMDL
