MODEL 1
REMARK minimizedAffinity 0.474448174
REMARK minimizedRMSD -1
REMARK  0 active torsions:
REMARK  status: ('A' for Active; 'I' for Inactive)
ROOT
ATOM      1  C   UNL d   1      -3.802   2.718  -3.071  0.00  0.00     0.023 A 
ATOM      2  C1  UNL d   1      -4.179   1.626  -2.290  0.00  0.00     0.003 A 
ATOM      3  C2  UNL d   1      -3.254   1.027  -1.432  0.00  0.00     0.048 A 
ATOM      4  C3  UNL d   1      -1.954   1.526  -1.359  0.00  0.00     0.023 A 
ATOM      5  C4  UNL d   1      -1.572   2.620  -2.138  0.00  0.00     0.048 A 
ATOM      6  C5  UNL d   1      -2.500   3.215  -2.995  0.00  0.00     0.003 A 
ATOM      7  I   UNL d   1      -0.576   0.636  -0.083  0.00  0.00    -0.146 I 
ENDROOT
TORSDOF 0
ENDMDL
