MODEL 1
REMARK minimizedAffinity -2.18305087
REMARK minimizedRMSD -1
REMARK  0 active torsions:
REMARK  status: ('A' for Active; 'I' for Inactive)
ROOT
ATOM      1  C   UNL d   1       2.374  -1.791   0.044  0.00  0.00     0.023 A 
ATOM      2  C1  UNL d   1       1.741  -0.989   0.994  0.00  0.00     0.003 A 
ATOM      3  C2  UNL d   1       0.701  -0.139   0.611  0.00  0.00     0.048 A 
ATOM      4  C3  UNL d   1       0.298  -0.097  -0.723  0.00  0.00     0.023 A 
ATOM      5  C4  UNL d   1       0.928  -0.898  -1.677  0.00  0.00     0.048 A 
ATOM      6  C5  UNL d   1       1.968  -1.745  -1.290  0.00  0.00     0.003 A 
ATOM      7  I   UNL d   1      -1.249   1.167  -1.296  0.00  0.00    -0.146 I 
ENDROOT
TORSDOF 0
ENDMDL
