MODEL 1
REMARK minimizedAffinity -4.38564491
REMARK minimizedRMSD -1
REMARK  0 active torsions:
REMARK  status: ('A' for Active; 'I' for Inactive)
ROOT
ATOM      1  C   UNL d   1       0.408  -2.759   2.622  0.00  0.00     0.023 A 
ATOM      2  C1  UNL d   1      -0.741  -1.989   2.809  0.00  0.00     0.003 A 
ATOM      3  C2  UNL d   1      -1.082  -1.004   1.881  0.00  0.00     0.048 A 
ATOM      4  C3  UNL d   1      -0.271  -0.794   0.766  0.00  0.00     0.023 A 
ATOM      5  C4  UNL d   1       0.879  -1.562   0.574  0.00  0.00     0.048 A 
ATOM      6  C5  UNL d   1       1.216  -2.545   1.505  0.00  0.00     0.003 A 
ATOM      7  I   UNL d   1      -0.776   0.672  -0.618  0.00  0.00    -0.146 I 
ENDROOT
TORSDOF 0
ENDMDL
