MODEL 1
REMARK minimizedAffinity 7.06708765
REMARK minimizedRMSD -1
REMARK  0 active torsions:
REMARK  status: ('A' for Active; 'I' for Inactive)
ROOT
ATOM      1  C1  DEN d   1      -1.767   2.894  -1.841  0.00  0.00     0.130 A 
ATOM      2  C2  DEN d   1      -0.370   2.949  -1.418  0.00  0.00    -0.031 A 
ATOM      3  C3  DEN d   1       0.128   1.564  -1.306  0.00  0.00     0.027 A 
ATOM      4  C4  DEN d   1      -1.119  -0.650  -1.750  0.00  0.00     0.027 A 
ATOM      5  C5  DEN d   1      -2.325  -1.205  -2.118  0.00  0.00    -0.003 A 
ATOM      6  C6  DEN d   1      -3.430  -0.440  -2.384  0.00  0.00     0.001 A 
ATOM      7  C7  DEN d   1      -3.339   0.926  -2.330  0.00  0.00     0.017 A 
ATOM      8  C8  DEN d   1      -2.128   1.492  -1.953  0.00  0.00    -0.094 A 
ATOM      9  C9  DEN d   1      -1.020   0.702  -1.699  0.00  0.00    -0.072 A 
ENDROOT
TORSDOF 0
ENDMDL
