MODEL 1
REMARK minimizedAffinity 15.7964973
REMARK minimizedRMSD -1
REMARK  0 active torsions:
REMARK  status: ('A' for Active; 'I' for Inactive)
ROOT
ATOM      1  C1  DEN d   1      -2.156   1.919   0.041  0.00  0.00     0.130 A 
ATOM      2  C2  DEN d   1      -1.058   2.881   0.005  0.00  0.00    -0.031 A 
ATOM      3  C3  DEN d   1       0.094   2.235  -0.656  0.00  0.00     0.027 A 
ATOM      4  C4  DEN d   1       0.281  -0.147  -1.628  0.00  0.00     0.027 A 
ATOM      5  C5  DEN d   1      -0.387  -1.335  -1.821  0.00  0.00    -0.003 A 
ATOM      6  C6  DEN d   1      -1.669  -1.533  -1.381  0.00  0.00     0.001 A 
ATOM      7  C7  DEN d   1      -2.340  -0.510  -0.765  0.00  0.00     0.017 A 
ATOM      8  C8  DEN d   1      -1.671   0.689  -0.559  0.00  0.00    -0.094 A 
ATOM      9  C9  DEN d   1      -0.379   0.873  -1.023  0.00  0.00    -0.072 A 
ENDROOT
TORSDOF 0
ENDMDL
