MODEL 1
REMARK minimizedAffinity 11.8305531
REMARK minimizedRMSD -1
REMARK  0 active torsions:
REMARK  status: ('A' for Active; 'I' for Inactive)
ROOT
ATOM      1  C1  DEN d   1      -3.170   3.830  -2.258  0.00  0.00     0.130 A 
ATOM      2  C2  DEN d   1      -3.444   5.189  -2.716  0.00  0.00    -0.031 A 
ATOM      3  C3  DEN d   1      -2.227   5.998  -2.502  0.00  0.00     0.027 A 
ATOM      4  C4  DEN d   1       0.045   5.280  -1.513  0.00  0.00     0.027 A 
ATOM      5  C5  DEN d   1       0.751   4.229  -0.972  0.00  0.00    -0.003 A 
ATOM      6  C6  DEN d   1       0.194   2.990  -0.791  0.00  0.00     0.001 A 
ATOM      7  C7  DEN d   1      -1.094   2.760  -1.197  0.00  0.00     0.017 A 
ATOM      8  C8  DEN d   1      -1.815   3.816  -1.737  0.00  0.00    -0.094 A 
ATOM      9  C9  DEN d   1      -1.230   5.057  -1.923  0.00  0.00    -0.072 A 
ENDROOT
TORSDOF 0
ENDMDL
