MODEL 1
REMARK minimizedAffinity 2.89357233
REMARK minimizedRMSD -1
REMARK  0 active torsions:
REMARK  status: ('A' for Active; 'I' for Inactive)
ROOT
ATOM      1  C1  DEN d   1       2.834  -4.793  -1.128  0.00  0.00     0.130 A 
ATOM      2  C2  DEN d   1       3.592  -6.000  -0.812  0.00  0.00    -0.031 A 
ATOM      3  C3  DEN d   1       4.869  -5.945  -1.552  0.00  0.00     0.027 A 
ATOM      4  C4  DEN d   1       5.742  -4.114  -3.146  0.00  0.00     0.027 A 
ATOM      5  C5  DEN d   1       5.447  -2.904  -3.734  0.00  0.00    -0.003 A 
ATOM      6  C6  DEN d   1       4.256  -2.261  -3.524  0.00  0.00     0.001 A 
ATOM      7  C7  DEN d   1       3.334  -2.802  -2.668  0.00  0.00     0.017 A 
ATOM      8  C8  DEN d   1       3.621  -4.026  -2.077  0.00  0.00    -0.094 A 
ATOM      9  C9  DEN d   1       4.835  -4.654  -2.292  0.00  0.00    -0.072 A 
ENDROOT
TORSDOF 0
ENDMDL
