MODEL 1
REMARK minimizedAffinity 1.80799472
REMARK minimizedRMSD -1
REMARK  0 active torsions:
REMARK  status: ('A' for Active; 'I' for Inactive)
ROOT
ATOM      1  C1  DEN d   1       3.168  -5.374  -1.831  0.00  0.00     0.130 A 
ATOM      2  C2  DEN d   1       4.095  -5.414  -2.959  0.00  0.00    -0.031 A 
ATOM      3  C3  DEN d   1       4.496  -4.027  -3.271  0.00  0.00     0.027 A 
ATOM      4  C4  DEN d   1       3.778  -1.833  -2.121  0.00  0.00     0.027 A 
ATOM      5  C5  DEN d   1       2.996  -1.292  -1.124  0.00  0.00    -0.003 A 
ATOM      6  C6  DEN d   1       2.198  -2.064  -0.322  0.00  0.00     0.001 A 
ATOM      7  C7  DEN d   1       2.197  -3.425  -0.473  0.00  0.00     0.017 A 
ATOM      8  C8  DEN d   1       2.977  -3.978  -1.481  0.00  0.00    -0.094 A 
ATOM      9  C9  DEN d   1       3.787  -3.182  -2.273  0.00  0.00    -0.072 A 
ENDROOT
TORSDOF 0
ENDMDL
