MODEL 1
REMARK minimizedAffinity 3.9857285
REMARK minimizedRMSD -1
REMARK  0 active torsions:
REMARK  status: ('A' for Active; 'I' for Inactive)
ROOT
ATOM      1  C1  DEN d   1       3.167  -1.738  -3.533  0.00  0.00     0.130 A 
ATOM      2  C2  DEN d   1       4.295  -1.323  -4.362  0.00  0.00    -0.031 A 
ATOM      3  C3  DEN d   1       5.539  -1.703  -3.663  0.00  0.00     0.027 A 
ATOM      4  C4  DEN d   1       5.826  -2.890  -1.391  0.00  0.00     0.027 A 
ATOM      5  C5  DEN d   1       5.159  -3.428  -0.313  0.00  0.00    -0.003 A 
ATOM      6  C6  DEN d   1       3.792  -3.409  -0.217  0.00  0.00     0.001 A 
ATOM      7  C7  DEN d   1       3.047  -2.882  -1.239  0.00  0.00     0.017 A 
ATOM      8  C8  DEN d   1       3.714  -2.332  -2.326  0.00  0.00    -0.094 A 
ATOM      9  C9  DEN d   1       5.095  -2.371  -2.410  0.00  0.00    -0.072 A 
ENDROOT
TORSDOF 0
ENDMDL
