MODEL 1
REMARK minimizedAffinity 3.22190261
REMARK minimizedRMSD -1
REMARK  0 active torsions:
REMARK  status: ('A' for Active; 'I' for Inactive)
ROOT
ATOM      1  C1  DEN d   1       3.756  -2.169  -1.801  0.00  0.00     0.130 A 
ATOM      2  C2  DEN d   1       3.761  -1.486  -3.092  0.00  0.00    -0.031 A 
ATOM      3  C3  DEN d   1       4.136  -2.470  -4.128  0.00  0.00     0.027 A 
ATOM      4  C4  DEN d   1       4.703  -4.972  -3.859  0.00  0.00     0.027 A 
ATOM      5  C5  DEN d   1       4.845  -6.000  -2.953  0.00  0.00    -0.003 A 
ATOM      6  C6  DEN d   1       4.668  -5.816  -1.607  0.00  0.00     0.001 A 
ATOM      7  C7  DEN d   1       4.296  -4.587  -1.133  0.00  0.00     0.017 A 
ATOM      8  C8  DEN d   1       4.158  -3.544  -2.039  0.00  0.00    -0.094 A 
ATOM      9  C9  DEN d   1       4.329  -3.752  -3.397  0.00  0.00    -0.072 A 
ENDROOT
TORSDOF 0
ENDMDL
