MODEL 1
REMARK minimizedAffinity 4.92908621
REMARK minimizedRMSD -1
REMARK  0 active torsions:
REMARK  status: ('A' for Active; 'I' for Inactive)
ROOT
ATOM      1  C1  DEN d   1       2.095  -4.903  -2.996  0.00  0.00     0.130 A 
ATOM      2  C2  DEN d   1       1.615  -6.000  -2.160  0.00  0.00    -0.031 A 
ATOM      3  C3  DEN d   1       2.287  -5.903  -0.849  0.00  0.00     0.027 A 
ATOM      4  C4  DEN d   1       4.012  -4.167  -0.034  0.00  0.00     0.027 A 
ATOM      5  C5  DEN d   1       4.738  -3.052  -0.392  0.00  0.00    -0.003 A 
ATOM      6  C6  DEN d   1       4.660  -2.501  -1.644  0.00  0.00     0.001 A 
ATOM      7  C7  DEN d   1       3.804  -3.037  -2.569  0.00  0.00     0.017 A 
ATOM      8  C8  DEN d   1       3.074  -4.165  -2.218  0.00  0.00    -0.094 A 
ATOM      9  C9  DEN d   1       3.158  -4.700  -0.944  0.00  0.00    -0.072 A 
ENDROOT
TORSDOF 0
ENDMDL
