MODEL 1
REMARK minimizedAffinity -2.2117641
REMARK minimizedRMSD -1
REMARK  0 active torsions:
REMARK  status: ('A' for Active; 'I' for Inactive)
ROOT
ATOM      1  C1  DEN d   1       3.305  -3.890  -3.878  0.00  0.00     0.130 A 
ATOM      2  C2  DEN d   1       3.798  -5.222  -4.220  0.00  0.00    -0.031 A 
ATOM      3  C3  DEN d   1       4.752  -5.638  -3.172  0.00  0.00     0.027 A 
ATOM      4  C4  DEN d   1       5.505  -4.359  -1.063  0.00  0.00     0.027 A 
ATOM      5  C5  DEN d   1       5.369  -3.186  -0.353  0.00  0.00    -0.003 A 
ATOM      6  C6  DEN d   1       4.568  -2.161  -0.782  0.00  0.00     0.001 A 
ATOM      7  C7  DEN d   1       3.837  -2.307  -1.931  0.00  0.00     0.017 A 
ATOM      8  C8  DEN d   1       3.975  -3.483  -2.656  0.00  0.00    -0.094 A 
ATOM      9  C9  DEN d   1       4.780  -4.512  -2.199  0.00  0.00    -0.072 A 
ENDROOT
TORSDOF 0
ENDMDL
