MODEL 1
REMARK minimizedAffinity 10.2311449
REMARK minimizedRMSD -1
REMARK  0 active torsions:
REMARK  status: ('A' for Active; 'I' for Inactive)
ROOT
ATOM      1  C1  DEN d   1      -3.437   2.015  -2.495  0.00  0.00     0.130 A 
ATOM      2  C2  DEN d   1      -3.957   0.797  -1.880  0.00  0.00    -0.031 A 
ATOM      3  C3  DEN d   1      -3.062   0.431  -0.764  0.00  0.00     0.027 A 
ATOM      4  C4  DEN d   1      -0.936   1.629   0.071  0.00  0.00     0.027 A 
ATOM      5  C5  DEN d   1      -0.092   2.696  -0.143  0.00  0.00    -0.003 A 
ATOM      6  C6  DEN d   1      -0.283   3.585  -1.167  0.00  0.00     0.001 A 
ATOM      7  C7  DEN d   1      -1.370   3.448  -1.991  0.00  0.00     0.017 A 
ATOM      8  C8  DEN d   1      -2.221   2.370  -1.787  0.00  0.00    -0.094 A 
ATOM      9  C9  DEN d   1      -2.017   1.489  -0.738  0.00  0.00    -0.072 A 
ENDROOT
TORSDOF 0
ENDMDL
