MODEL 1
REMARK minimizedAffinity 2.87607384
REMARK minimizedRMSD -1
REMARK  0 active torsions:
REMARK  status: ('A' for Active; 'I' for Inactive)
ROOT
ATOM      1  C2' OXE d   1       0.018  -2.253  -2.769  0.00  0.00     0.078 C 
ATOM      2  C1' OXE d   1       0.056  -2.756  -5.530  0.00  0.00     0.078 C 
ATOM      3  C1  OXE d   1      -0.323  -1.370  -5.073  0.00  0.00    -0.078 A 
ATOM      4  C2  OXE d   1      -0.384  -1.145  -3.719  0.00  0.00    -0.078 A 
ATOM      5  C3  OXE d   1      -0.676   0.130  -3.244  0.00  0.00     0.003 A 
ATOM      6  C4  OXE d   1      -1.057   1.146  -4.129  0.00  0.00    -0.002 A 
ATOM      7  C5  OXE d   1      -1.040   0.927  -5.511  0.00  0.00    -0.002 A 
ATOM      8  C6  OXE d   1      -0.635  -0.310  -6.000  0.00  0.00     0.003 A 
ENDROOT
TORSDOF 0
ENDMDL
