MODEL 1
REMARK minimizedAffinity 2.55969715
REMARK minimizedRMSD -1
REMARK  0 active torsions:
REMARK  status: ('A' for Active; 'I' for Inactive)
ROOT
ATOM      1  C2' OXE d   1      -0.029  -3.572  -4.766  0.00  0.00     0.078 C 
ATOM      2  C1' OXE d   1      -0.373  -2.222  -2.329  0.00  0.00     0.078 C 
ATOM      3  C1  OXE d   1      -0.467  -1.415  -3.600  0.00  0.00    -0.078 A 
ATOM      4  C2  OXE d   1      -0.251  -2.075  -4.785  0.00  0.00    -0.078 A 
ATOM      5  C3  OXE d   1      -0.380  -1.390  -5.990  0.00  0.00     0.003 A 
ATOM      6  C4  OXE d   1      -0.575  -0.003  -5.999  0.00  0.00    -0.002 A 
ATOM      7  C5  OXE d   1      -0.759   0.696  -4.801  0.00  0.00    -0.002 A 
ATOM      8  C6  OXE d   1      -0.750  -0.001  -3.598  0.00  0.00     0.003 A 
ENDROOT
TORSDOF 0
ENDMDL
