MODEL 1
REMARK minimizedAffinity -2.5223496
REMARK minimizedRMSD -1
REMARK  0 active torsions:
REMARK  status: ('A' for Active; 'I' for Inactive)
ROOT
ATOM      1  C2' OXE d   1      -0.311   1.107  -5.999  0.00  0.00     0.078 C 
ATOM      2  C1' OXE d   1       2.270   0.001  -6.000  0.00  0.00     0.078 C 
ATOM      3  C1  OXE d   1       1.291  -0.498  -4.966  0.00  0.00    -0.078 A 
ATOM      4  C2  OXE d   1       0.045   0.082  -4.943  0.00  0.00    -0.078 A 
ATOM      5  C3  OXE d   1      -0.913  -0.379  -4.046  0.00  0.00     0.003 A 
ATOM      6  C4  OXE d   1      -0.573  -1.320  -3.066  0.00  0.00    -0.002 A 
ATOM      7  C5  OXE d   1       0.702  -1.894  -3.046  0.00  0.00    -0.002 A 
ATOM      8  C6  OXE d   1       1.631  -1.526  -4.014  0.00  0.00     0.003 A 
ENDROOT
TORSDOF 0
ENDMDL
