MODEL 1
REMARK minimizedAffinity -0.45506379
REMARK minimizedRMSD -1
REMARK  0 active torsions:
REMARK  status: ('A' for Active; 'I' for Inactive)
ROOT
ATOM      1  C2' OXE d   1       0.261  -1.527  -6.000  0.00  0.00     0.078 C 
ATOM      2  C1' OXE d   1      -1.438   0.366  -4.811  0.00  0.00     0.078 C 
ATOM      3  C1  OXE d   1      -0.691  -0.579  -3.902  0.00  0.00    -0.078 A 
ATOM      4  C2  OXE d   1       0.102  -1.532  -4.495  0.00  0.00    -0.078 A 
ATOM      5  C3  OXE d   1       0.855  -2.392  -3.701  0.00  0.00     0.003 A 
ATOM      6  C4  OXE d   1       0.694  -2.397  -2.310  0.00  0.00    -0.002 A 
ATOM      7  C5  OXE d   1      -0.139  -1.461  -1.689  0.00  0.00    -0.002 A 
ATOM      8  C6  OXE d   1      -0.804  -0.519  -2.466  0.00  0.00     0.003 A 
ENDROOT
TORSDOF 0
ENDMDL
