MODEL 1
REMARK minimizedAffinity 1.21119893
REMARK minimizedRMSD -1
REMARK  0 active torsions:
REMARK  status: ('A' for Active; 'I' for Inactive)
ROOT
ATOM      1  C2' OXE d   1      -3.616  -1.723   4.607  0.00  0.00     0.078 C 
ATOM      2  C1' OXE d   1      -2.831   0.379   2.920  0.00  0.00     0.078 C 
ATOM      3  C1  OXE d   1      -1.764  -0.573   3.401  0.00  0.00    -0.078 A 
ATOM      4  C2  OXE d   1      -2.150  -1.571   4.264  0.00  0.00    -0.078 A 
ATOM      5  C3  OXE d   1      -1.216  -2.509   4.694  0.00  0.00     0.003 A 
ATOM      6  C4  OXE d   1       0.140  -2.355   4.380  0.00  0.00    -0.002 A 
ATOM      7  C5  OXE d   1       0.560  -1.322   3.534  0.00  0.00    -0.002 A 
ATOM      8  C6  OXE d   1      -0.384  -0.450   3.003  0.00  0.00     0.003 A 
ENDROOT
TORSDOF 0
ENDMDL
