MODEL 1
REMARK minimizedAffinity 2.32360029
REMARK minimizedRMSD -1
REMARK  0 active torsions:
REMARK  status: ('A' for Active; 'I' for Inactive)
ROOT
ATOM      1  C2' OXE d   1      -1.398  -2.169  -0.050  0.00  0.00     0.078 C 
ATOM      2  C1' OXE d   1      -0.455  -0.565   2.052  0.00  0.00     0.078 C 
ATOM      3  C1  OXE d   1      -1.779  -0.201   1.428  0.00  0.00    -0.078 A 
ATOM      4  C2  OXE d   1      -2.210  -0.964   0.369  0.00  0.00    -0.078 A 
ATOM      5  C3  OXE d   1      -3.451  -0.705  -0.207  0.00  0.00     0.003 A 
ATOM      6  C4  OXE d   1      -4.192   0.418   0.181  0.00  0.00    -0.002 A 
ATOM      7  C5  OXE d   1      -3.752   1.232   1.231  0.00  0.00    -0.002 A 
ATOM      8  C6  OXE d   1      -2.571   0.912   1.892  0.00  0.00     0.003 A 
ENDROOT
TORSDOF 0
ENDMDL
