MODEL 1
REMARK minimizedAffinity 6.71487236
REMARK minimizedRMSD -1
REMARK  0 active torsions:
REMARK  status: ('A' for Active; 'I' for Inactive)
ROOT
ATOM      1  C2' OXE d   1       5.242   0.482   1.972  0.00  0.00     0.078 C 
ATOM      2  C1' OXE d   1       4.042   2.975   2.443  0.00  0.00     0.078 C 
ATOM      3  C1  OXE d   1       4.732   2.297   3.600  0.00  0.00    -0.078 A 
ATOM      4  C2  OXE d   1       5.276   1.056   3.372  0.00  0.00    -0.078 A 
ATOM      5  C3  OXE d   1       5.972   0.411   4.390  0.00  0.00     0.003 A 
ATOM      6  C4  OXE d   1       5.991   0.944   5.684  0.00  0.00    -0.002 A 
ATOM      7  C5  OXE d   1       5.408   2.188   5.948  0.00  0.00    -0.002 A 
ATOM      8  C6  OXE d   1       4.813   2.896   4.909  0.00  0.00     0.003 A 
ENDROOT
TORSDOF 0
ENDMDL
