MODEL 1
REMARK minimizedAffinity -1.93086207
REMARK minimizedRMSD -1
REMARK  0 active torsions:
REMARK  status: ('A' for Active; 'I' for Inactive)
ROOT
ATOM      1  C   UNL d   1       1.718  -0.535  -0.131  0.00  0.00     0.124 A 
ATOM      2  C1  UNL d   1       0.919  -1.587  -0.558  0.00  0.00     0.062 A 
ATOM      3  C2  UNL d   1      -0.406  -1.359  -0.917  0.00  0.00     0.162 A 
ATOM      4  C3  UNL d   1      -0.941  -0.072  -0.851  0.00  0.00    -0.034 A 
ATOM      5  C4  UNL d   1      -0.132   0.980  -0.419  0.00  0.00     0.162 A 
ATOM      6  C5  UNL d   1       1.192   0.747  -0.062  0.00  0.00     0.062 A 
ATOM      7  F   UNL d   1       1.962   1.764   0.351  0.00  0.00    -0.097 F 
ATOM      8  F1  UNL d   1      -0.615   2.230  -0.344  0.00  0.00    -0.096 F 
ATOM      9  I   UNL d   1      -2.923   0.274  -1.386  0.00  0.00    -0.060 I 
ATOM     10  F2  UNL d   1      -1.155  -2.394  -1.326  0.00  0.00    -0.096 F 
ATOM     11  F3  UNL d   1       1.425  -2.827  -0.625  0.00  0.00    -0.097 F 
ATOM     12  F4  UNL d   1       2.993  -0.758   0.214  0.00  0.00    -0.092 F 
ENDROOT
TORSDOF 0
ENDMDL
