MODEL 1
REMARK minimizedAffinity 1.56100261
REMARK minimizedRMSD -1
REMARK  0 active torsions:
REMARK  status: ('A' for Active; 'I' for Inactive)
ROOT
ATOM      1  C   UNL d   1       2.036  -0.638   0.050  0.00  0.00     0.124 A 
ATOM      2  C1  UNL d   1       1.230  -1.719  -0.279  0.00  0.00     0.062 A 
ATOM      3  C2  UNL d   1      -0.156  -1.590  -0.264  0.00  0.00     0.162 A 
ATOM      4  C3  UNL d   1      -0.745  -0.374   0.082  0.00  0.00    -0.034 A 
ATOM      5  C4  UNL d   1       0.072   0.709   0.413  0.00  0.00     0.162 A 
ATOM      6  C5  UNL d   1       1.456   0.574   0.396  0.00  0.00     0.062 A 
ATOM      7  F   UNL d   1       2.233   1.620   0.715  0.00  0.00    -0.097 F 
ATOM      8  F1  UNL d   1      -0.462   1.892   0.751  0.00  0.00    -0.096 F 
ATOM      9  I   UNL d   1      -2.817  -0.176   0.107  0.00  0.00    -0.060 I 
ATOM     10  F2  UNL d   1      -0.910  -2.651  -0.587  0.00  0.00    -0.096 F 
ATOM     11  F3  UNL d   1       1.788  -2.892  -0.613  0.00  0.00    -0.097 F 
ATOM     12  F4  UNL d   1       3.369  -0.766   0.035  0.00  0.00    -0.092 F 
ENDROOT
TORSDOF 0
ENDMDL
