MODEL 1
REMARK minimizedAffinity 0.280845404
REMARK minimizedRMSD -1
REMARK  0 active torsions:
REMARK  status: ('A' for Active; 'I' for Inactive)
ROOT
ATOM      1  C   UNL d   1       2.215  -0.029  -0.324  0.00  0.00     0.124 A 
ATOM      2  C1  UNL d   1       1.418  -1.162  -0.236  0.00  0.00     0.062 A 
ATOM      3  C2  UNL d   1       0.043  -1.038  -0.058  0.00  0.00     0.162 A 
ATOM      4  C3  UNL d   1      -0.544   0.224   0.032  0.00  0.00    -0.034 A 
ATOM      5  C4  UNL d   1       0.264   1.358  -0.056  0.00  0.00     0.162 A 
ATOM      6  C5  UNL d   1       1.638   1.230  -0.234  0.00  0.00     0.062 A 
ATOM      7  F   UNL d   1       2.407   2.325  -0.318  0.00  0.00    -0.097 F 
ATOM      8  F1  UNL d   1      -0.267   2.587   0.027  0.00  0.00    -0.096 F 
ATOM      9  I   UNL d   1      -2.599   0.413   0.297  0.00  0.00    -0.060 I 
ATOM     10  F2  UNL d   1      -0.703  -2.150   0.023  0.00  0.00    -0.096 F 
ATOM     11  F3  UNL d   1       1.974  -2.379  -0.322  0.00  0.00    -0.097 F 
ATOM     12  F4  UNL d   1       3.538  -0.151  -0.494  0.00  0.00    -0.092 F 
ENDROOT
TORSDOF 0
ENDMDL
