MODEL 1
REMARK minimizedAffinity -2.27189207
REMARK minimizedRMSD -1
REMARK  0 active torsions:
REMARK  status: ('A' for Active; 'I' for Inactive)
ROOT
ATOM      1  C   UNL d   1       2.775   0.083   0.121  0.00  0.00     0.124 A 
ATOM      2  C1  UNL d   1       2.299   1.318  -0.297  0.00  0.00     0.062 A 
ATOM      3  C2  UNL d   1       0.935   1.510  -0.501  0.00  0.00     0.162 A 
ATOM      4  C3  UNL d   1       0.037   0.465  -0.285  0.00  0.00    -0.034 A 
ATOM      5  C4  UNL d   1       0.524  -0.775   0.135  0.00  0.00     0.162 A 
ATOM      6  C5  UNL d   1       1.888  -0.962   0.337  0.00  0.00     0.062 A 
ATOM      7  F   UNL d   1       2.346  -2.155   0.741  0.00  0.00    -0.097 F 
ATOM      8  F1  UNL d   1      -0.311  -1.801   0.352  0.00  0.00    -0.096 F 
ATOM      9  I   UNL d   1      -2.002   0.748  -0.587  0.00  0.00    -0.060 I 
ATOM     10  F2  UNL d   1       0.503   2.714  -0.905  0.00  0.00    -0.096 F 
ATOM     11  F3  UNL d   1       3.154   2.329  -0.508  0.00  0.00    -0.097 F 
ATOM     12  F4  UNL d   1       4.088  -0.099   0.315  0.00  0.00    -0.092 F 
ENDROOT
TORSDOF 0
ENDMDL
