MODEL 1
REMARK minimizedAffinity 4.69187593
REMARK minimizedRMSD -1
REMARK  0 active torsions:
REMARK  status: ('A' for Active; 'I' for Inactive)
ROOT
ATOM      1  C   UNL d   1      -3.100   1.950   1.155  0.00  0.00     0.124 A 
ATOM      2  C1  UNL d   1      -1.986   2.257   0.386  0.00  0.00     0.062 A 
ATOM      3  C2  UNL d   1      -1.159   1.242  -0.085  0.00  0.00     0.162 A 
ATOM      4  C3  UNL d   1      -1.443  -0.092   0.211  0.00  0.00    -0.034 A 
ATOM      5  C4  UNL d   1      -2.564  -0.393   0.986  0.00  0.00     0.162 A 
ATOM      6  C5  UNL d   1      -3.388   0.626   1.455  0.00  0.00     0.062 A 
ATOM      7  F   UNL d   1      -4.463   0.327   2.198  0.00  0.00    -0.097 F 
ATOM      8  F1  UNL d   1      -2.866  -1.664   1.289  0.00  0.00    -0.096 F 
ATOM      9  I   UNL d   1      -0.209  -1.613  -0.492  0.00  0.00    -0.060 I 
ATOM     10  F2  UNL d   1      -0.090   1.568  -0.827  0.00  0.00    -0.096 F 
ATOM     11  F3  UNL d   1      -1.705   3.536   0.096  0.00  0.00    -0.097 F 
ATOM     12  F4  UNL d   1      -3.893   2.929   1.608  0.00  0.00    -0.092 F 
ENDROOT
TORSDOF 0
ENDMDL
