MODEL 1
REMARK minimizedAffinity -3.2914114
REMARK minimizedRMSD -1
REMARK  0 active torsions:
REMARK  status: ('A' for Active; 'I' for Inactive)
ROOT
ATOM      1  C   UNL d   1       3.272  -0.270   0.153  0.00  0.00     0.124 A 
ATOM      2  C1  UNL d   1       2.343  -1.287  -0.019  0.00  0.00     0.062 A 
ATOM      3  C2  UNL d   1       1.011  -0.981  -0.284  0.00  0.00     0.162 A 
ATOM      4  C3  UNL d   1       0.601   0.349  -0.379  0.00  0.00    -0.034 A 
ATOM      5  C4  UNL d   1       1.541   1.366  -0.204  0.00  0.00     0.162 A 
ATOM      6  C5  UNL d   1       2.871   1.055   0.060  0.00  0.00     0.062 A 
ATOM      7  F   UNL d   1       3.767   2.038   0.226  0.00  0.00    -0.097 F 
ATOM      8  F1  UNL d   1       1.180   2.655  -0.289  0.00  0.00    -0.096 F 
ATOM      9  I   UNL d   1      -1.390   0.811  -0.774  0.00  0.00    -0.060 I 
ATOM     10  F2  UNL d   1       0.135  -1.983  -0.445  0.00  0.00    -0.096 F 
ATOM     11  F3  UNL d   1       2.729  -2.568   0.071  0.00  0.00    -0.097 F 
ATOM     12  F4  UNL d   1       4.553  -0.568   0.408  0.00  0.00    -0.092 F 
ENDROOT
TORSDOF 0
ENDMDL
