MODEL 1
REMARK minimizedAffinity -1.9998554
REMARK minimizedRMSD -1
REMARK  0 active torsions:
REMARK  status: ('A' for Active; 'I' for Inactive)
ROOT
ATOM      1  C   UNL d   1       2.624  -0.075  -0.136  0.00  0.00     0.124 A 
ATOM      2  C1  UNL d   1       1.670  -1.074  -0.276  0.00  0.00     0.062 A 
ATOM      3  C2  UNL d   1       0.320  -0.746  -0.352  0.00  0.00     0.162 A 
ATOM      4  C3  UNL d   1      -0.086   0.587  -0.291  0.00  0.00    -0.034 A 
ATOM      5  C4  UNL d   1       0.879   1.586  -0.149  0.00  0.00     0.162 A 
ATOM      6  C5  UNL d   1       2.228   1.254  -0.073  0.00  0.00     0.062 A 
ATOM      7  F   UNL d   1       3.148   2.220   0.062  0.00  0.00    -0.097 F 
ATOM      8  F1  UNL d   1       0.524   2.878  -0.087  0.00  0.00    -0.096 F 
ATOM      9  I   UNL d   1      -2.104   1.081  -0.405  0.00  0.00    -0.060 I 
ATOM     10  F2  UNL d   1      -0.580  -1.732  -0.487  0.00  0.00    -0.096 F 
ATOM     11  F3  UNL d   1       2.051  -2.358  -0.336  0.00  0.00    -0.097 F 
ATOM     12  F4  UNL d   1       3.923  -0.393  -0.061  0.00  0.00    -0.092 F 
ENDROOT
TORSDOF 0
ENDMDL
