MODEL 1
REMARK minimizedAffinity -1.25849104
REMARK minimizedRMSD -1
REMARK  0 active torsions:
REMARK  status: ('A' for Active; 'I' for Inactive)
ROOT
ATOM      1  C1  BNZ d   1      -1.464   2.958  -6.000  0.00  0.00     0.000 A 
ATOM      2  C2  BNZ d   1      -0.206   3.498  -5.971  0.00  0.00     0.000 A 
ATOM      3  C3  BNZ d   1      -0.025   4.852  -5.931  0.00  0.00     0.000 A 
ATOM      4  C4  BNZ d   1      -1.101   5.665  -5.960  0.00  0.00     0.000 A 
ATOM      5  C5  BNZ d   1      -2.376   5.137  -5.998  0.00  0.00     0.000 A 
ATOM      6  C6  BNZ d   1      -2.555   3.773  -5.999  0.00  0.00     0.000 A 
ENDROOT
TORSDOF 0
ENDMDL
