MODEL 1
REMARK minimizedAffinity 2.11867189
REMARK minimizedRMSD -1
REMARK  0 active torsions:
REMARK  status: ('A' for Active; 'I' for Inactive)
ROOT
ATOM      1  C1  BNZ d   1      -0.542  -3.017   0.831  0.00  0.00     0.000 A 
ATOM      2  C2  BNZ d   1      -1.202  -3.837  -0.046  0.00  0.00     0.000 A 
ATOM      3  C3  BNZ d   1      -1.335  -3.492  -1.362  0.00  0.00     0.000 A 
ATOM      4  C4  BNZ d   1      -0.845  -2.311  -1.790  0.00  0.00     0.000 A 
ATOM      5  C5  BNZ d   1      -0.186  -1.469  -0.917  0.00  0.00     0.000 A 
ATOM      6  C6  BNZ d   1      -0.019  -1.838   0.398  0.00  0.00     0.000 A 
ENDROOT
TORSDOF 0
ENDMDL
