MODEL 1
REMARK minimizedAffinity -0.783263147
REMARK minimizedRMSD -1
REMARK  0 active torsions:
REMARK  status: ('A' for Active; 'I' for Inactive)
ROOT
ATOM      1  C1  BNZ d   1       0.982   3.069   1.081  0.00  0.00     0.000 A 
ATOM      2  C2  BNZ d   1       0.256   2.068   1.670  0.00  0.00     0.000 A 
ATOM      3  C3  BNZ d   1      -0.144   0.977   0.950  0.00  0.00     0.000 A 
ATOM      4  C4  BNZ d   1       0.147   0.908  -0.365  0.00  0.00     0.000 A 
ATOM      5  C5  BNZ d   1       0.871   1.913  -0.975  0.00  0.00     0.000 A 
ATOM      6  C6  BNZ d   1       1.306   2.991  -0.238  0.00  0.00     0.000 A 
ENDROOT
TORSDOF 0
ENDMDL
