MODEL 1
REMARK minimizedAffinity -2.46227241
REMARK minimizedRMSD -1
REMARK  0 active torsions:
REMARK  status: ('A' for Active; 'I' for Inactive)
ROOT
ATOM      1  C1  BNZ d   1      -3.858   5.928  -5.939  0.00  0.00     0.000 A 
ATOM      2  C2  BNZ d   1      -2.745   5.130  -5.918  0.00  0.00     0.000 A 
ATOM      3  C3  BNZ d   1      -2.859   3.769  -5.963  0.00  0.00     0.000 A 
ATOM      4  C4  BNZ d   1      -4.085   3.207  -5.988  0.00  0.00     0.000 A 
ATOM      5  C5  BNZ d   1      -5.217   3.998  -6.000  0.00  0.00     0.000 A 
ATOM      6  C6  BNZ d   1      -5.097   5.369  -5.994  0.00  0.00     0.000 A 
ENDROOT
TORSDOF 0
ENDMDL
