MODEL 1
REMARK minimizedAffinity 2.95894051
REMARK minimizedRMSD -1
REMARK  0 active torsions:
REMARK  status: ('A' for Active; 'I' for Inactive)
ROOT
ATOM      1  C1  BNZ d   1       1.913   4.294  -5.999  0.00  0.00     0.000 A 
ATOM      2  C2  BNZ d   1       3.172   4.835  -5.994  0.00  0.00     0.000 A 
ATOM      3  C3  BNZ d   1       4.278   4.033  -6.000  0.00  0.00     0.000 A 
ATOM      4  C4  BNZ d   1       4.126   2.693  -5.971  0.00  0.00     0.000 A 
ATOM      5  C5  BNZ d   1       2.864   2.133  -5.967  0.00  0.00     0.000 A 
ATOM      6  C6  BNZ d   1       1.752   2.943  -6.000  0.00  0.00     0.000 A 
ENDROOT
TORSDOF 0
ENDMDL
