MODEL 1
REMARK minimizedAffinity 3.45280695
REMARK minimizedRMSD -1
REMARK  0 active torsions:
REMARK  status: ('A' for Active; 'I' for Inactive)
ROOT
ATOM      1  C1  BNZ d   1       3.190   4.487  -5.998  0.00  0.00     0.000 A 
ATOM      2  C2  BNZ d   1       1.891   4.055  -5.996  0.00  0.00     0.000 A 
ATOM      3  C3  BNZ d   1       1.597   2.720  -5.971  0.00  0.00     0.000 A 
ATOM      4  C4  BNZ d   1       2.601   1.820  -5.988  0.00  0.00     0.000 A 
ATOM      5  C5  BNZ d   1       3.916   2.239  -6.000  0.00  0.00     0.000 A 
ATOM      6  C6  BNZ d   1       4.209   3.584  -5.985  0.00  0.00     0.000 A 
ENDROOT
TORSDOF 0
ENDMDL
