MODEL 1
REMARK minimizedAffinity 0.709098756
REMARK minimizedRMSD -1
REMARK  0 active torsions:
REMARK  status: ('A' for Active; 'I' for Inactive)
ROOT
ATOM      1  C1  BNZ d   1      -0.805   2.480  -6.000  0.00  0.00     0.000 A 
ATOM      2  C2  BNZ d   1      -2.156   2.260  -6.000  0.00  0.00     0.000 A 
ATOM      3  C3  BNZ d   1      -3.036   3.306  -5.998  0.00  0.00     0.000 A 
ATOM      4  C4  BNZ d   1      -2.564   4.569  -5.956  0.00  0.00     0.000 A 
ATOM      5  C5  BNZ d   1      -1.205   4.807  -5.946  0.00  0.00     0.000 A 
ATOM      6  C6  BNZ d   1      -0.322   3.752  -5.988  0.00  0.00     0.000 A 
ENDROOT
TORSDOF 0
ENDMDL
