MODEL 1
REMARK minimizedAffinity 1.07496977
REMARK minimizedRMSD -1
REMARK  0 active torsions:
REMARK  status: ('A' for Active; 'I' for Inactive)
ROOT
ATOM      1  C1  BNZ d   1       1.315   2.672   0.217  0.00  0.00     0.000 A 
ATOM      2  C2  BNZ d   1       0.686   2.007   1.235  0.00  0.00     0.000 A 
ATOM      3  C3  BNZ d   1       0.068   0.808   1.012  0.00  0.00     0.000 A 
ATOM      4  C4  BNZ d   1       0.045   0.296  -0.235  0.00  0.00     0.000 A 
ATOM      5  C5  BNZ d   1       0.667   0.959  -1.274  0.00  0.00     0.000 A 
ATOM      6  C6  BNZ d   1       1.322   2.146  -1.038  0.00  0.00     0.000 A 
ENDROOT
TORSDOF 0
ENDMDL
