MODEL 1
REMARK minimizedAffinity 0.316935122
REMARK minimizedRMSD -1
REMARK  0 active torsions:
REMARK  status: ('A' for Active; 'I' for Inactive)
ROOT
ATOM      1  C1  BNZ d   1       1.762   3.257  -0.752  0.00  0.00     0.000 A 
ATOM      2  C2  BNZ d   1       0.683   2.497  -0.385  0.00  0.00     0.000 A 
ATOM      3  C3  BNZ d   1       0.527   2.081   0.908  0.00  0.00     0.000 A 
ATOM      4  C4  BNZ d   1       1.469   2.392   1.822  0.00  0.00     0.000 A 
ATOM      5  C5  BNZ d   1       2.567   3.150   1.466  0.00  0.00     0.000 A 
ATOM      6  C6  BNZ d   1       2.700   3.599   0.172  0.00  0.00     0.000 A 
ENDROOT
TORSDOF 0
ENDMDL
