MODEL 1
REMARK minimizedAffinity 5.27962065
REMARK minimizedRMSD -1
REMARK  0 active torsions:
REMARK  status: ('A' for Active; 'I' for Inactive)
ROOT
ATOM      1  C1  BNZ d   1       0.097   3.407  -5.991  0.00  0.00     0.000 A 
ATOM      2  C2  BNZ d   1      -0.696   4.524  -5.998  0.00  0.00     0.000 A 
ATOM      3  C3  BNZ d   1      -2.058   4.415  -5.981  0.00  0.00     0.000 A 
ATOM      4  C4  BNZ d   1      -2.626   3.192  -5.997  0.00  0.00     0.000 A 
ATOM      5  C5  BNZ d   1      -1.840   2.056  -5.999  0.00  0.00     0.000 A 
ATOM      6  C6  BNZ d   1      -0.469   2.170  -5.977  0.00  0.00     0.000 A 
ENDROOT
TORSDOF 0
ENDMDL
