MODEL 1
REMARK minimizedAffinity 4.60629654
REMARK minimizedRMSD -1
REMARK  0 active torsions:
REMARK  status: ('A' for Active; 'I' for Inactive)
ROOT
ATOM      1  C1  BNZ d   1       2.316   3.018   2.152  0.00  0.00     0.000 A 
ATOM      2  C2  BNZ d   1       1.214   2.463   1.559  0.00  0.00     0.000 A 
ATOM      3  C3  BNZ d   1       0.934   2.700   0.242  0.00  0.00     0.000 A 
ATOM      4  C4  BNZ d   1       1.734   3.521  -0.468  0.00  0.00     0.000 A 
ATOM      5  C5  BNZ d   1       2.844   4.096   0.118  0.00  0.00     0.000 A 
ATOM      6  C6  BNZ d   1       3.144   3.825   1.433  0.00  0.00     0.000 A 
ENDROOT
TORSDOF 0
ENDMDL
