MODEL 1
REMARK minimizedAffinity -1.10071063
REMARK minimizedRMSD -1
REMARK  0 active torsions:
REMARK  status: ('A' for Active; 'I' for Inactive)
ROOT
ATOM      1  C1  BNZ d   1       0.218   4.531  -5.995  0.00  0.00     0.000 A 
ATOM      2  C2  BNZ d   1      -0.113   3.202  -5.995  0.00  0.00     0.000 A 
ATOM      3  C3  BNZ d   1       0.857   2.240  -5.971  0.00  0.00     0.000 A 
ATOM      4  C4  BNZ d   1       2.155   2.606  -5.989  0.00  0.00     0.000 A 
ATOM      5  C5  BNZ d   1       2.504   3.942  -5.998  0.00  0.00     0.000 A 
ATOM      6  C6  BNZ d   1       1.525   4.908  -5.982  0.00  0.00     0.000 A 
ENDROOT
TORSDOF 0
ENDMDL
