MODEL 1
REMARK minimizedAffinity 2.12716246
REMARK minimizedRMSD -1
REMARK  0 active torsions:
REMARK  status: ('A' for Active; 'I' for Inactive)
ROOT
ATOM      1  C1  BNZ d   1       1.501   1.598  -3.819  0.00  0.00     0.000 A 
ATOM      2  C2  BNZ d   1       0.549   2.582  -3.831  0.00  0.00     0.000 A 
ATOM      3  C3  BNZ d   1       0.377   3.376  -4.930  0.00  0.00     0.000 A 
ATOM      4  C4  BNZ d   1       1.182   3.212  -6.000  0.00  0.00     0.000 A 
ATOM      5  C5  BNZ d   1       2.152   2.230  -6.000  0.00  0.00     0.000 A 
ATOM      6  C6  BNZ d   1       2.297   1.407  -4.906  0.00  0.00     0.000 A 
ENDROOT
TORSDOF 0
ENDMDL
