MODEL 1
REMARK minimizedAffinity 3.38151073
REMARK minimizedRMSD -1
REMARK  0 active torsions:
REMARK  status: ('A' for Active; 'I' for Inactive)
ROOT
ATOM      1  C1  BNZ d   1      -2.433   4.294  -5.997  0.00  0.00     0.000 A 
ATOM      2  C2  BNZ d   1      -1.082   4.517  -5.984  0.00  0.00     0.000 A 
ATOM      3  C3  BNZ d   1      -0.201   3.472  -5.974  0.00  0.00     0.000 A 
ATOM      4  C4  BNZ d   1      -0.671   2.208  -5.936  0.00  0.00     0.000 A 
ATOM      5  C5  BNZ d   1      -2.031   1.968  -5.940  0.00  0.00     0.000 A 
ATOM      6  C6  BNZ d   1      -2.915   3.021  -5.989  0.00  0.00     0.000 A 
ENDROOT
TORSDOF 0
ENDMDL
