MODEL 1
REMARK minimizedAffinity 6.79041433
REMARK minimizedRMSD -1
REMARK  0 active torsions:
REMARK  status: ('A' for Active; 'I' for Inactive)
ROOT
ATOM      1  C   UNL d   1       0.662  -0.893   0.947  0.00  0.00     0.124 A 
ATOM      2  C1  UNL d   1       1.000  -1.414   2.189  0.00  0.00     0.062 A 
ATOM      3  C2  UNL d   1       2.296  -1.276   2.676  0.00  0.00     0.162 A 
ATOM      4  C3  UNL d   1       3.265  -0.614   1.923  0.00  0.00    -0.034 A 
ATOM      5  C4  UNL d   1       2.918  -0.093   0.675  0.00  0.00     0.162 A 
ATOM      6  C5  UNL d   1       1.621  -0.234   0.191  0.00  0.00     0.062 A 
ATOM      7  F   UNL d   1       1.297   0.270  -1.008  0.00  0.00    -0.097 F 
ATOM      8  F1  UNL d   1       3.825   0.549  -0.076  0.00  0.00    -0.096 F 
ATOM      9  I   UNL d   1       5.204  -0.406   2.649  0.00  0.00    -0.060 I 
ATOM     10  F2  UNL d   1       2.594  -1.789   3.879  0.00  0.00    -0.096 F 
ATOM     11  F3  UNL d   1       0.075  -2.053   2.920  0.00  0.00    -0.097 F 
ATOM     12  F4  UNL d   1      -0.586  -1.028   0.480  0.00  0.00    -0.092 F 
ENDROOT
TORSDOF 0
ENDMDL
