MODEL 1
REMARK minimizedAffinity 4.03141737
REMARK minimizedRMSD -1
REMARK  0 active torsions:
REMARK  status: ('A' for Active; 'I' for Inactive)
ROOT
ATOM      1  C   UNL d   1      -2.541  -1.207   0.594  0.00  0.00     0.124 A 
ATOM      2  C1  UNL d   1      -2.056   0.075   0.815  0.00  0.00     0.062 A 
ATOM      3  C2  UNL d   1      -0.702   0.350   0.645  0.00  0.00     0.162 A 
ATOM      4  C3  UNL d   1       0.177  -0.659   0.250  0.00  0.00    -0.034 A 
ATOM      5  C4  UNL d   1      -0.318  -1.946   0.031  0.00  0.00     0.162 A 
ATOM      6  C5  UNL d   1      -1.672  -2.215   0.202  0.00  0.00     0.062 A 
ATOM      7  F   UNL d   1      -2.138  -3.454  -0.012  0.00  0.00    -0.097 F 
ATOM      8  F1  UNL d   1       0.499  -2.939  -0.349  0.00  0.00    -0.096 F 
ATOM      9  I   UNL d   1       2.202  -0.251  -0.005  0.00  0.00    -0.060 I 
ATOM     10  F2  UNL d   1      -0.261   1.597   0.865  0.00  0.00    -0.096 F 
ATOM     11  F3  UNL d   1      -2.893   1.051   1.194  0.00  0.00    -0.097 F 
ATOM     12  F4  UNL d   1      -3.844  -1.469   0.759  0.00  0.00    -0.092 F 
ENDROOT
TORSDOF 0
ENDMDL
