MODEL 1
REMARK minimizedAffinity 1.02181304
REMARK minimizedRMSD -1
REMARK  0 active torsions:
REMARK  status: ('A' for Active; 'I' for Inactive)
ROOT
ATOM      1  C   UNL d   1       2.428  -0.268  -0.178  0.00  0.00     0.124 A 
ATOM      2  C1  UNL d   1       1.255   0.287   0.314  0.00  0.00     0.062 A 
ATOM      3  C2  UNL d   1       0.751  -0.119   1.546  0.00  0.00     0.162 A 
ATOM      4  C3  UNL d   1       1.422  -1.085   2.296  0.00  0.00    -0.034 A 
ATOM      5  C4  UNL d   1       2.601  -1.640   1.794  0.00  0.00     0.162 A 
ATOM      6  C5  UNL d   1       3.100  -1.230   0.562  0.00  0.00     0.062 A 
ATOM      7  F   UNL d   1       4.233  -1.767   0.088  0.00  0.00    -0.097 F 
ATOM      8  F1  UNL d   1       3.270  -2.571   2.490  0.00  0.00    -0.096 F 
ATOM      9  I   UNL d   1       0.672  -1.696   4.139  0.00  0.00    -0.060 I 
ATOM     10  F2  UNL d   1      -0.385   0.434   1.997  0.00  0.00    -0.096 F 
ATOM     11  F3  UNL d   1       0.603   1.217  -0.400  0.00  0.00    -0.097 F 
ATOM     12  F4  UNL d   1       2.910   0.125  -1.365  0.00  0.00    -0.092 F 
ENDROOT
TORSDOF 0
ENDMDL
