MODEL 1
REMARK minimizedAffinity 2.04691625
REMARK minimizedRMSD -1
REMARK  0 active torsions:
REMARK  status: ('A' for Active; 'I' for Inactive)
ROOT
ATOM      1  C   UNL d   1       2.969  -0.748   1.290  0.00  0.00     0.124 A 
ATOM      2  C1  UNL d   1       3.524  -0.717   2.562  0.00  0.00     0.062 A 
ATOM      3  C2  UNL d   1       2.785  -1.153   3.658  0.00  0.00     0.162 A 
ATOM      4  C3  UNL d   1       1.484  -1.625   3.487  0.00  0.00    -0.034 A 
ATOM      5  C4  UNL d   1       0.933  -1.653   2.205  0.00  0.00     0.162 A 
ATOM      6  C5  UNL d   1       1.675  -1.216   1.112  0.00  0.00     0.062 A 
ATOM      7  F   UNL d   1       1.138  -1.248  -0.116  0.00  0.00    -0.097 F 
ATOM      8  F1  UNL d   1      -0.315  -2.102   2.005  0.00  0.00    -0.096 F 
ATOM      9  I   UNL d   1       0.377  -2.278   5.124  0.00  0.00    -0.060 I 
ATOM     10  F2  UNL d   1       3.346  -1.111   4.876  0.00  0.00    -0.096 F 
ATOM     11  F3  UNL d   1       4.774  -0.264   2.736  0.00  0.00    -0.097 F 
ATOM     12  F4  UNL d   1       3.682  -0.327   0.237  0.00  0.00    -0.092 F 
ENDROOT
TORSDOF 0
ENDMDL
