MODEL 1
REMARK minimizedAffinity -0.221839294
REMARK minimizedRMSD -1
REMARK  0 active torsions:
REMARK  status: ('A' for Active; 'I' for Inactive)
ROOT
ATOM      1  C   UNL d   1       2.801  -1.058   3.470  0.00  0.00     0.124 A 
ATOM      2  C1  UNL d   1       3.657  -1.126   2.379  0.00  0.00     0.062 A 
ATOM      3  C2  UNL d   1       3.183  -0.851   1.100  0.00  0.00     0.162 A 
ATOM      4  C3  UNL d   1       1.846  -0.505   0.903  0.00  0.00    -0.034 A 
ATOM      5  C4  UNL d   1       0.991  -0.440   2.005  0.00  0.00     0.162 A 
ATOM      6  C5  UNL d   1       1.470  -0.715   3.282  0.00  0.00     0.062 A 
ATOM      7  F   UNL d   1       0.641  -0.650   4.335  0.00  0.00    -0.097 F 
ATOM      8  F1  UNL d   1      -0.300  -0.110   1.852  0.00  0.00    -0.096 F 
ATOM      9  I   UNL d   1       1.134  -0.093  -1.008  0.00  0.00    -0.060 I 
ATOM     10  F2  UNL d   1       4.032  -0.924   0.064  0.00  0.00    -0.096 F 
ATOM     11  F3  UNL d   1       4.944  -1.458   2.558  0.00  0.00    -0.097 F 
ATOM     12  F4  UNL d   1       3.259  -1.324   4.700  0.00  0.00    -0.092 F 
ENDROOT
TORSDOF 0
ENDMDL
