MODEL 1
REMARK minimizedAffinity 13.7866726
REMARK minimizedRMSD -1
REMARK  0 active torsions:
REMARK  status: ('A' for Active; 'I' for Inactive)
ROOT
ATOM      1  C   UNL d   1      -2.191  -1.482   0.262  0.00  0.00     0.124 A 
ATOM      2  C1  UNL d   1      -1.809  -0.210   0.665  0.00  0.00     0.062 A 
ATOM      3  C2  UNL d   1      -0.462   0.138   0.701  0.00  0.00     0.162 A 
ATOM      4  C3  UNL d   1       0.514  -0.787   0.332  0.00  0.00    -0.034 A 
ATOM      5  C4  UNL d   1       0.123  -2.065  -0.070  0.00  0.00     0.162 A 
ATOM      6  C5  UNL d   1      -1.225  -2.408  -0.104  0.00  0.00     0.062 A 
ATOM      7  F   UNL d   1      -1.592  -3.638  -0.493  0.00  0.00    -0.097 F 
ATOM      8  F1  UNL d   1       1.035  -2.980  -0.431  0.00  0.00    -0.096 F 
ATOM      9  I   UNL d   1       2.530  -0.271   0.385  0.00  0.00    -0.060 I 
ATOM     10  F2  UNL d   1      -0.122   1.375   1.093  0.00  0.00    -0.096 F 
ATOM     11  F3  UNL d   1      -2.740   0.687   1.020  0.00  0.00    -0.097 F 
ATOM     12  F4  UNL d   1      -3.488  -1.815   0.230  0.00  0.00    -0.092 F 
ENDROOT
TORSDOF 0
ENDMDL
