MODEL 1
REMARK minimizedAffinity 7.69825125
REMARK minimizedRMSD -1
REMARK  0 active torsions:
REMARK  status: ('A' for Active; 'I' for Inactive)
ROOT
ATOM      1  C   UNL d   1       0.043  -4.775  -3.674  0.00  0.00     0.124 A 
ATOM      2  C1  UNL d   1      -0.566  -5.200  -4.847  0.00  0.00     0.062 A 
ATOM      3  C2  UNL d   1      -1.913  -5.551  -4.850  0.00  0.00     0.162 A 
ATOM      4  C3  UNL d   1      -2.662  -5.477  -3.676  0.00  0.00    -0.034 A 
ATOM      5  C4  UNL d   1      -2.043  -5.049  -2.500  0.00  0.00     0.162 A 
ATOM      6  C5  UNL d   1      -0.696  -4.700  -2.502  0.00  0.00     0.062 A 
ATOM      7  F   UNL d   1      -0.110  -4.290  -1.368  0.00  0.00    -0.097 F 
ATOM      8  F1  UNL d   1      -2.733  -4.967  -1.353  0.00  0.00    -0.096 F 
ATOM      9  I   UNL d   1      -4.676  -6.000  -3.676  0.00  0.00    -0.060 I 
ATOM     10  F2  UNL d   1      -2.474  -5.958  -5.998  0.00  0.00    -0.096 F 
ATOM     11  F3  UNL d   1       0.146  -5.275  -5.981  0.00  0.00    -0.097 F 
ATOM     12  F4  UNL d   1       1.339  -4.440  -3.674  0.00  0.00    -0.092 F 
ENDROOT
TORSDOF 0
ENDMDL
