MODEL 1
REMARK minimizedAffinity 8.59818649
REMARK minimizedRMSD -1
REMARK  0 active torsions:
REMARK  status: ('A' for Active; 'I' for Inactive)
ROOT
ATOM      1  C   UNL d   1       2.665  -1.284   2.381  0.00  0.00     0.124 A 
ATOM      2  C1  UNL d   1       1.283  -1.160   2.371  0.00  0.00     0.062 A 
ATOM      3  C2  UNL d   1       0.632  -0.669   1.242  0.00  0.00     0.162 A 
ATOM      4  C3  UNL d   1       1.364  -0.299   0.114  0.00  0.00    -0.034 A 
ATOM      5  C4  UNL d   1       2.754  -0.426   0.132  0.00  0.00     0.162 A 
ATOM      6  C5  UNL d   1       3.399  -0.917   1.262  0.00  0.00     0.062 A 
ATOM      7  F   UNL d   1       4.735  -1.035   1.270  0.00  0.00    -0.097 F 
ATOM      8  F1  UNL d   1       3.488  -0.080  -0.936  0.00  0.00    -0.096 F 
ATOM      9  I   UNL d   1       0.395   0.435  -1.576  0.00  0.00    -0.060 I 
ATOM     10  F2  UNL d   1      -0.704  -0.561   1.260  0.00  0.00    -0.096 F 
ATOM     11  F3  UNL d   1       0.572  -1.513   3.451  0.00  0.00    -0.097 F 
ATOM     12  F4  UNL d   1       3.289  -1.755   3.469  0.00  0.00    -0.092 F 
ENDROOT
TORSDOF 0
ENDMDL
