MODEL 1
REMARK minimizedAffinity 11.5968246
REMARK minimizedRMSD -1
REMARK  0 active torsions:
REMARK  status: ('A' for Active; 'I' for Inactive)
ROOT
ATOM      1  C   UNL d   1       1.193  -0.995   2.204  0.00  0.00     0.124 A 
ATOM      2  C1  UNL d   1       2.553  -1.213   2.377  0.00  0.00     0.062 A 
ATOM      3  C2  UNL d   1       3.438  -0.977   1.330  0.00  0.00     0.162 A 
ATOM      4  C3  UNL d   1       2.967  -0.519   0.099  0.00  0.00    -0.034 A 
ATOM      5  C4  UNL d   1       1.598  -0.302  -0.067  0.00  0.00     0.162 A 
ATOM      6  C5  UNL d   1       0.717  -0.540   0.983  0.00  0.00     0.062 A 
ATOM      7  F   UNL d   1      -0.596  -0.328   0.814  0.00  0.00    -0.097 F 
ATOM      8  F1  UNL d   1       1.112   0.138  -1.237  0.00  0.00    -0.096 F 
ATOM      9  I   UNL d   1       4.289  -0.165  -1.469  0.00  0.00    -0.060 I 
ATOM     10  F2  UNL d   1       4.747  -1.197   1.525  0.00  0.00    -0.096 F 
ATOM     11  F3  UNL d   1       3.015  -1.654   3.556  0.00  0.00    -0.097 F 
ATOM     12  F4  UNL d   1       0.343  -1.223   3.213  0.00  0.00    -0.092 F 
ENDROOT
TORSDOF 0
ENDMDL
