MODEL 1
REMARK minimizedAffinity -1.0103991
REMARK minimizedRMSD -1
REMARK  0 active torsions:
REMARK  status: ('A' for Active; 'I' for Inactive)
ROOT
ATOM      1  C   UNL d   1      -3.625  -5.998  -4.383  0.00  0.00     0.124 A 
ATOM      2  C1  UNL d   1      -4.824  -5.997  -3.683  0.00  0.00     0.062 A 
ATOM      3  C2  UNL d   1      -4.821  -5.998  -2.291  0.00  0.00     0.162 A 
ATOM      4  C3  UNL d   1      -3.616  -5.998  -1.590  0.00  0.00    -0.034 A 
ATOM      5  C4  UNL d   1      -2.414  -5.999  -2.301  0.00  0.00     0.162 A 
ATOM      6  C5  UNL d   1      -2.422  -5.999  -3.692  0.00  0.00     0.062 A 
ATOM      7  F   UNL d   1      -1.263  -5.999  -4.367  0.00  0.00    -0.097 F 
ATOM      8  F1  UNL d   1      -1.237  -5.999  -1.658  0.00  0.00    -0.096 F 
ATOM      9  I   UNL d   1      -3.608  -5.999   0.492  0.00  0.00    -0.060 I 
ATOM     10  F2  UNL d   1      -5.994  -5.998  -1.641  0.00  0.00    -0.096 F 
ATOM     11  F3  UNL d   1      -5.987  -5.997  -4.349  0.00  0.00    -0.097 F 
ATOM     12  F4  UNL d   1      -3.631  -5.998  -5.723  0.00  0.00    -0.092 F 
ENDROOT
TORSDOF 0
ENDMDL
