MODEL 1
REMARK minimizedAffinity 11.6442337
REMARK minimizedRMSD -1
REMARK  0 active torsions:
REMARK  status: ('A' for Active; 'I' for Inactive)
ROOT
ATOM      1  C   UNL d   1      -0.764   4.159  -4.261  0.00  0.00     0.124 A 
ATOM      2  C1  UNL d   1      -2.041   4.036  -4.790  0.00  0.00     0.062 A 
ATOM      3  C2  UNL d   1      -2.881   3.012  -4.360  0.00  0.00     0.162 A 
ATOM      4  C3  UNL d   1      -2.446   2.104  -3.395  0.00  0.00    -0.034 A 
ATOM      5  C4  UNL d   1      -1.160   2.233  -2.869  0.00  0.00     0.162 A 
ATOM      6  C5  UNL d   1      -0.324   3.258  -3.302  0.00  0.00     0.062 A 
ATOM      7  F   UNL d   1       0.910   3.376  -2.790  0.00  0.00    -0.097 F 
ATOM      8  F1  UNL d   1      -0.710   1.377  -1.940  0.00  0.00    -0.096 F 
ATOM      9  I   UNL d   1      -3.699   0.572  -2.750  0.00  0.00    -0.060 I 
ATOM     10  F2  UNL d   1      -4.110   2.917  -4.889  0.00  0.00    -0.096 F 
ATOM     11  F3  UNL d   1      -2.468   4.904  -5.718  0.00  0.00    -0.097 F 
ATOM     12  F4  UNL d   1       0.042   5.144  -4.677  0.00  0.00    -0.092 F 
ENDROOT
TORSDOF 0
ENDMDL
