MODEL 1
REMARK minimizedAffinity 0.772356153
REMARK minimizedRMSD -1
REMARK  0 active torsions:
REMARK  status: ('A' for Active; 'I' for Inactive)
ROOT
ATOM      1  C   UNL d   1      -2.871  -5.914  -2.288  0.00  0.00     0.124 A 
ATOM      2  C1  UNL d   1      -3.335  -5.921  -3.596  0.00  0.00     0.062 A 
ATOM      3  C2  UNL d   1      -2.438  -5.846  -4.658  0.00  0.00     0.162 A 
ATOM      4  C3  UNL d   1      -1.067  -5.764  -4.416  0.00  0.00    -0.034 A 
ATOM      5  C4  UNL d   1      -0.608  -5.756  -3.097  0.00  0.00     0.162 A 
ATOM      6  C5  UNL d   1      -1.508  -5.832  -2.040  0.00  0.00     0.062 A 
ATOM      7  F   UNL d   1      -1.058  -5.824  -0.777  0.00  0.00    -0.097 F 
ATOM      8  F1  UNL d   1       0.704  -5.678  -2.829  0.00  0.00    -0.096 F 
ATOM      9  I   UNL d   1       0.278  -5.652  -6.000  0.00  0.00    -0.060 I 
ATOM     10  F2  UNL d   1      -2.914  -5.855  -5.912  0.00  0.00    -0.096 F 
ATOM     11  F3  UNL d   1      -4.652  -6.000  -3.839  0.00  0.00    -0.097 F 
ATOM     12  F4  UNL d   1      -3.737  -5.985  -1.269  0.00  0.00    -0.092 F 
ENDROOT
TORSDOF 0
ENDMDL
