MODEL 1
REMARK minimizedAffinity 2.83921981
REMARK minimizedRMSD -1
REMARK  0 active torsions:
REMARK  status: ('A' for Active; 'I' for Inactive)
ROOT
ATOM      1  C   UNL d   1       2.980  -1.067   1.260  0.00  0.00     0.124 A 
ATOM      2  C1  UNL d   1       2.153  -1.208   2.366  0.00  0.00     0.062 A 
ATOM      3  C2  UNL d   1       0.788  -0.961   2.255  0.00  0.00     0.162 A 
ATOM      4  C3  UNL d   1       0.240  -0.570   1.033  0.00  0.00    -0.034 A 
ATOM      5  C4  UNL d   1       1.078  -0.429  -0.074  0.00  0.00     0.162 A 
ATOM      6  C5  UNL d   1       2.441  -0.678   0.041  0.00  0.00     0.062 A 
ATOM      7  F   UNL d   1       3.239  -0.541  -1.028  0.00  0.00    -0.097 F 
ATOM      8  F1  UNL d   1       0.584  -0.055  -1.264  0.00  0.00    -0.096 F 
ATOM      9  I   UNL d   1      -1.801  -0.199   0.864  0.00  0.00    -0.060 I 
ATOM     10  F2  UNL d   1       0.013  -1.105   3.340  0.00  0.00    -0.096 F 
ATOM     11  F3  UNL d   1       2.670  -1.583   3.544  0.00  0.00    -0.097 F 
ATOM     12  F4  UNL d   1       4.293  -1.304   1.369  0.00  0.00    -0.092 F 
ENDROOT
TORSDOF 0
ENDMDL
