MODEL 1
REMARK minimizedAffinity 10.0323648
REMARK minimizedRMSD -1
REMARK  0 active torsions:
REMARK  status: ('A' for Active; 'I' for Inactive)
ROOT
ATOM      1  C   UNL d   1       3.648  -1.006   1.840  0.00  0.00     0.124 A 
ATOM      2  C1  UNL d   1       3.245  -0.622   0.568  0.00  0.00     0.062 A 
ATOM      3  C2  UNL d   1       1.891  -0.546   0.256  0.00  0.00     0.162 A 
ATOM      4  C3  UNL d   1       0.929  -0.855   1.217  0.00  0.00    -0.034 A 
ATOM      5  C4  UNL d   1       1.341  -1.242   2.494  0.00  0.00     0.162 A 
ATOM      6  C5  UNL d   1       2.696  -1.316   2.801  0.00  0.00     0.062 A 
ATOM      7  F   UNL d   1       3.083  -1.688   4.030  0.00  0.00    -0.097 F 
ATOM      8  F1  UNL d   1       0.443  -1.546   3.442  0.00  0.00    -0.096 F 
ATOM      9  I   UNL d   1      -1.097  -0.743   0.754  0.00  0.00    -0.060 I 
ATOM     10  F2  UNL d   1       1.531  -0.171  -0.981  0.00  0.00    -0.096 F 
ATOM     11  F3  UNL d   1       4.163  -0.323  -0.362  0.00  0.00    -0.097 F 
ATOM     12  F4  UNL d   1       4.952  -1.079   2.137  0.00  0.00    -0.092 F 
ENDROOT
TORSDOF 0
ENDMDL
