MODEL 1
REMARK minimizedAffinity 7.67294407
REMARK minimizedRMSD -1
REMARK  0 active torsions:
REMARK  status: ('A' for Active; 'I' for Inactive)
ROOT
ATOM      1  C   UNL d   1      -2.211   3.855  -4.632  0.00  0.00     0.124 A 
ATOM      2  C1  UNL d   1      -0.991   4.261  -4.111  0.00  0.00     0.062 A 
ATOM      3  C2  UNL d   1      -0.364   3.504  -3.126  0.00  0.00     0.162 A 
ATOM      4  C3  UNL d   1      -0.956   2.331  -2.656  0.00  0.00    -0.034 A 
ATOM      5  C4  UNL d   1      -2.184   1.930  -3.184  0.00  0.00     0.162 A 
ATOM      6  C5  UNL d   1      -2.807   2.691  -4.169  0.00  0.00     0.062 A 
ATOM      7  F   UNL d   1      -3.986   2.297  -4.671  0.00  0.00    -0.097 F 
ATOM      8  F1  UNL d   1      -2.782   0.809  -2.755  0.00  0.00    -0.096 F 
ATOM      9  I   UNL d   1      -0.022   1.196  -1.182  0.00  0.00    -0.060 I 
ATOM     10  F2  UNL d   1       0.815   3.919  -2.640  0.00  0.00    -0.096 F 
ATOM     11  F3  UNL d   1      -0.414   5.386  -4.557  0.00  0.00    -0.097 F 
ATOM     12  F4  UNL d   1      -2.813   4.586  -5.579  0.00  0.00    -0.092 F 
ENDROOT
TORSDOF 0
ENDMDL
