MODEL 1
REMARK minimizedAffinity 9.43711853
REMARK minimizedRMSD -1
REMARK  0 active torsions:
REMARK  status: ('A' for Active; 'I' for Inactive)
ROOT
ATOM      1  C   UNL d   1       1.200  -0.083  -0.809  0.00  0.00     0.124 A 
ATOM      2  C1  UNL d   1       0.301  -0.325   0.220  0.00  0.00     0.062 A 
ATOM      3  C2  UNL d   1       0.759  -0.748   1.464  0.00  0.00     0.162 A 
ATOM      4  C3  UNL d   1       2.123  -0.931   1.687  0.00  0.00    -0.034 A 
ATOM      5  C4  UNL d   1       3.022  -0.686   0.647  0.00  0.00     0.162 A 
ATOM      6  C5  UNL d   1       2.559  -0.263  -0.595  0.00  0.00     0.062 A 
ATOM      7  F   UNL d   1       3.430  -0.030  -1.588  0.00  0.00    -0.097 F 
ATOM      8  F1  UNL d   1       4.341  -0.852   0.827  0.00  0.00    -0.096 F 
ATOM      9  I   UNL d   1       2.812  -1.564   3.547  0.00  0.00    -0.060 I 
ATOM     10  F2  UNL d   1      -0.133  -0.975   2.441  0.00  0.00    -0.096 F 
ATOM     11  F3  UNL d   1      -1.013  -0.152   0.015  0.00  0.00    -0.097 F 
ATOM     12  F4  UNL d   1       0.757   0.323  -2.006  0.00  0.00    -0.092 F 
ENDROOT
TORSDOF 0
ENDMDL
