MODEL 1
REMARK minimizedAffinity 3.33527851
REMARK minimizedRMSD -1
REMARK  0 active torsions:
REMARK  status: ('A' for Active; 'I' for Inactive)
ROOT
ATOM      1  C   UNL d   1       3.525  -1.532   2.980  0.00  0.00     0.124 A 
ATOM      2  C1  UNL d   1       2.203  -1.607   3.397  0.00  0.00     0.062 A 
ATOM      3  C2  UNL d   1       1.180  -1.162   2.564  0.00  0.00     0.162 A 
ATOM      4  C3  UNL d   1       1.475  -0.639   1.305  0.00  0.00    -0.034 A 
ATOM      5  C4  UNL d   1       2.807  -0.566   0.894  0.00  0.00     0.162 A 
ATOM      6  C5  UNL d   1       3.825  -1.012   1.730  0.00  0.00     0.062 A 
ATOM      7  F   UNL d   1       5.102  -0.939   1.325  0.00  0.00    -0.097 F 
ATOM      8  F1  UNL d   1       3.126  -0.069  -0.311  0.00  0.00    -0.096 F 
ATOM      9  I   UNL d   1      -0.051   0.027   0.057  0.00  0.00    -0.060 I 
ATOM     10  F2  UNL d   1      -0.088  -1.247   2.993  0.00  0.00    -0.096 F 
ATOM     11  F3  UNL d   1       1.910  -2.108   4.606  0.00  0.00    -0.097 F 
ATOM     12  F4  UNL d   1       4.507  -1.960   3.784  0.00  0.00    -0.092 F 
ENDROOT
TORSDOF 0
ENDMDL
