MODEL 1
REMARK minimizedAffinity 14.9359999
REMARK minimizedRMSD -1
REMARK  0 active torsions:
REMARK  status: ('A' for Active; 'I' for Inactive)
ROOT
ATOM      1  C   UNL d   1       0.853   0.004  -0.137  0.00  0.00     0.124 A 
ATOM      2  C1  UNL d   1       1.264  -1.072   0.638  0.00  0.00     0.062 A 
ATOM      3  C2  UNL d   1       0.407  -2.148   0.852  0.00  0.00     0.162 A 
ATOM      4  C3  UNL d   1      -0.869  -2.154   0.290  0.00  0.00    -0.034 A 
ATOM      5  C4  UNL d   1      -1.276  -1.068  -0.487  0.00  0.00     0.162 A 
ATOM      6  C5  UNL d   1      -0.416   0.005  -0.698  0.00  0.00     0.062 A 
ATOM      7  F   UNL d   1      -0.815   1.044  -1.447  0.00  0.00    -0.097 F 
ATOM      8  F1  UNL d   1      -2.497  -1.041  -1.043  0.00  0.00    -0.096 F 
ATOM      9  I   UNL d   1      -2.153  -3.761   0.607  0.00  0.00    -0.060 I 
ATOM     10  F2  UNL d   1       0.831  -3.174   1.604  0.00  0.00    -0.096 F 
ATOM     11  F3  UNL d   1       2.489  -1.075   1.182  0.00  0.00    -0.097 F 
ATOM     12  F4  UNL d   1       1.678   1.038  -0.340  0.00  0.00    -0.092 F 
ENDROOT
TORSDOF 0
ENDMDL
