MODEL 1
REMARK minimizedAffinity 1.07262385
REMARK minimizedRMSD -1
REMARK  2 active torsions:
REMARK  status: ('A' for Active; 'I' for Inactive)
REMARK    1  A    between atoms: C1_2  and  C2_3 
REMARK    2  A    between atoms: C2_3  and  C3_4 
ROOT
ATOM      1  C3  UNL d   1      -5.319   3.049   1.440  0.00  0.00    -0.075 A 
ATOM      2  C4  UNL d   1      -3.997   3.330   1.066  0.00  0.00     0.002 A 
ATOM      3  C5  UNL d   1      -3.364   4.489   1.516  0.00  0.00     0.002 A 
ATOM      4  C6  UNL d   1      -4.047   5.386   2.335  0.00  0.00    -0.004 A 
ATOM      5  C7  UNL d   1      -5.366   5.126   2.699  0.00  0.00     0.002 A 
ATOM      6  C8  UNL d   1      -6.000   3.964   2.255  0.00  0.00     0.002 A 
ENDROOT
BRANCH   1   7
ATOM      7  C2  UNL d   1      -6.000   1.782   0.981  0.00  0.00     0.056 C 
BRANCH   7   8
ATOM      8  C1  UNL d   1      -5.038   0.718   0.441  0.00  0.00     0.007 C 
ATOM      9  C   UNL d   1      -5.276   0.382  -1.025  0.00  0.00     0.009 C 
ENDBRANCH   7   8
ENDBRANCH   1   7
TORSDOF 2
ENDMDL
