MODEL 1
REMARK minimizedAffinity 1.2921989
REMARK minimizedRMSD -1
REMARK  2 active torsions:
REMARK  status: ('A' for Active; 'I' for Inactive)
REMARK    1  A    between atoms: C1_2  and  C2_3 
REMARK    2  A    between atoms: C2_3  and  C3_4 
ROOT
ATOM      1  C3  UNL d   1       3.733   1.037  -0.165  0.00  0.00    -0.075 A 
ATOM      2  C4  UNL d   1       4.820   0.396  -0.776  0.00  0.00     0.002 A 
ATOM      3  C5  UNL d   1       5.947   1.122  -1.159  0.00  0.00     0.002 A 
ATOM      4  C6  UNL d   1       5.998   2.498  -0.946  0.00  0.00    -0.004 A 
ATOM      5  C7  UNL d   1       4.917   3.149  -0.355  0.00  0.00     0.002 A 
ATOM      6  C8  UNL d   1       3.790   2.423   0.033  0.00  0.00     0.002 A 
ENDROOT
BRANCH   1   7
ATOM      7  C2  UNL d   1       2.522   0.252   0.279  0.00  0.00     0.056 C 
BRANCH   7   8
ATOM      8  C1  UNL d   1       1.382   1.118   0.825  0.00  0.00     0.007 C 
ATOM      9  C   UNL d   1       1.267   1.072   2.343  0.00  0.00     0.009 C 
ENDBRANCH   7   8
ENDBRANCH   1   7
TORSDOF 2
ENDMDL
