MODEL 1
REMARK minimizedAffinity 1.89955401
REMARK minimizedRMSD -1
REMARK  2 active torsions:
REMARK  status: ('A' for Active; 'I' for Inactive)
REMARK    1  A    between atoms: C1_2  and  C2_3 
REMARK    2  A    between atoms: C2_3  and  C3_4 
ROOT
ATOM      1  C3  UNL d   1      -5.281   1.666  -2.708  0.00  0.00    -0.075 A 
ATOM      2  C4  UNL d   1      -4.046   2.262  -3.001  0.00  0.00     0.002 A 
ATOM      3  C5  UNL d   1      -3.410   2.013  -4.218  0.00  0.00     0.002 A 
ATOM      4  C6  UNL d   1      -3.993   1.157  -5.150  0.00  0.00    -0.004 A 
ATOM      5  C7  UNL d   1      -5.212   0.546  -4.862  0.00  0.00     0.002 A 
ATOM      6  C8  UNL d   1      -5.853   0.798  -3.648  0.00  0.00     0.002 A 
ENDROOT
BRANCH   1   7
ATOM      7  C2  UNL d   1      -5.989   1.955  -1.406  0.00  0.00     0.056 C 
BRANCH   7   8
ATOM      8  C1  UNL d   1      -5.999   0.777  -0.426  0.00  0.00     0.007 C 
ATOM      9  C   UNL d   1      -4.783  -0.129  -0.565  0.00  0.00     0.009 C 
ENDBRANCH   7   8
ENDBRANCH   1   7
TORSDOF 2
ENDMDL
