MODEL 1
REMARK minimizedAffinity 1.01197958
REMARK minimizedRMSD -1
REMARK  2 active torsions:
REMARK  status: ('A' for Active; 'I' for Inactive)
REMARK    1  A    between atoms: C1_2  and  C2_3 
REMARK    2  A    between atoms: C2_3  and  C3_4 
ROOT
ATOM      1  C3  UNL d   1       2.740  -0.156   0.294  0.00  0.00    -0.075 A 
ATOM      2  C4  UNL d   1       3.549   0.881  -0.194  0.00  0.00     0.002 A 
ATOM      3  C5  UNL d   1       4.073   0.822  -1.486  0.00  0.00     0.002 A 
ATOM      4  C6  UNL d   1       3.805  -0.276  -2.300  0.00  0.00    -0.004 A 
ATOM      5  C7  UNL d   1       3.016  -1.319  -1.820  0.00  0.00     0.002 A 
ATOM      6  C8  UNL d   1       2.486  -1.261  -0.530  0.00  0.00     0.002 A 
ENDROOT
BRANCH   1   7
ATOM      7  C2  UNL d   1       2.145  -0.084   1.680  0.00  0.00     0.056 C 
BRANCH   7   8
ATOM      8  C1  UNL d   1       1.483   1.259   2.006  0.00  0.00     0.007 C 
ATOM      9  C   UNL d   1       0.370   1.145   3.039  0.00  0.00     0.009 C 
ENDBRANCH   7   8
ENDBRANCH   1   7
TORSDOF 2
ENDMDL
