MODEL 1
REMARK minimizedAffinity 4.41453409
REMARK minimizedRMSD -1
REMARK  2 active torsions:
REMARK  status: ('A' for Active; 'I' for Inactive)
REMARK    1  A    between atoms: C1_2  and  C2_3 
REMARK    2  A    between atoms: C2_3  and  C3_4 
ROOT
ATOM      1  C3  UNL d   1      -5.262   1.132  -2.679  0.00  0.00    -0.075 A 
ATOM      2  C4  UNL d   1      -6.000   0.787  -3.821  0.00  0.00     0.002 A 
ATOM      3  C5  UNL d   1      -5.352   0.359  -4.980  0.00  0.00     0.002 A 
ATOM      4  C6  UNL d   1      -3.961   0.280  -5.016  0.00  0.00    -0.004 A 
ATOM      5  C7  UNL d   1      -3.218   0.636  -3.892  0.00  0.00     0.002 A 
ATOM      6  C8  UNL d   1      -3.864   1.060  -2.730  0.00  0.00     0.002 A 
ENDROOT
BRANCH   1   7
ATOM      7  C2  UNL d   1      -5.959   1.568  -1.412  0.00  0.00     0.056 C 
BRANCH   7   8
ATOM      8  C1  UNL d   1      -5.999   0.492  -0.321  0.00  0.00     0.007 C 
ATOM      9  C   UNL d   1      -4.619  -0.014   0.074  0.00  0.00     0.009 C 
ENDBRANCH   7   8
ENDBRANCH   1   7
TORSDOF 2
ENDMDL
