MODEL 1
REMARK minimizedAffinity 1.79430366
REMARK minimizedRMSD -1
REMARK  2 active torsions:
REMARK  status: ('A' for Active; 'I' for Inactive)
REMARK    1  A    between atoms: C1_2  and  C2_3 
REMARK    2  A    between atoms: C2_3  and  C3_4 
ROOT
ATOM      1  C3  UNL d   1      -4.943   1.399  -3.115  0.00  0.00    -0.075 A 
ATOM      2  C4  UNL d   1      -5.372   0.660  -4.227  0.00  0.00     0.002 A 
ATOM      3  C5  UNL d   1      -4.445   0.068  -5.085  0.00  0.00     0.002 A 
ATOM      4  C6  UNL d   1      -3.080   0.217  -4.850  0.00  0.00    -0.004 A 
ATOM      5  C7  UNL d   1      -2.642   0.963  -3.758  0.00  0.00     0.002 A 
ATOM      6  C8  UNL d   1      -3.567   1.552  -2.895  0.00  0.00     0.002 A 
ENDROOT
BRANCH   1   7
ATOM      7  C2  UNL d   1      -5.941   2.017  -2.165  0.00  0.00     0.056 C 
BRANCH   7   8
ATOM      8  C1  UNL d   1      -5.679   1.696  -0.690  0.00  0.00     0.007 C 
ATOM      9  C   UNL d   1      -5.347   0.231  -0.444  0.00  0.00     0.009 C 
ENDBRANCH   7   8
ENDBRANCH   1   7
TORSDOF 2
ENDMDL
