MODEL 1
REMARK minimizedAffinity -4.21469736
REMARK minimizedRMSD -1
REMARK  1 active torsions:
REMARK  status: ('A' for Active; 'I' for Inactive)
REMARK    1  A    between atoms: C1_2  and  C2_3 
ROOT
ATOM      1  C2  UNL d   1       0.769  -0.996  -0.658  0.00  0.00    -0.073 A 
ATOM      2  C3  UNL d   1       1.516   0.110  -1.080  0.00  0.00    -0.002 A 
ATOM      3  C4  UNL d   1       1.215   1.387  -0.606  0.00  0.00     0.004 A 
ATOM      4  C5  UNL d   1       0.169   1.572   0.299  0.00  0.00    -0.004 A 
ATOM      5  C6  UNL d   1      -0.581   0.478   0.742  0.00  0.00    -0.075 A 
ATOM      6  C7  UNL d   1      -1.711   0.659   1.713  0.00  0.00     0.076 C 
ATOM      7  C8  UNL d   1      -0.274  -0.802   0.259  0.00  0.00     0.001 A 
ENDROOT
BRANCH   1   8
ATOM      8  C1  UNL d   1       1.095  -2.378  -1.162  0.00  0.00     0.053 C 
ATOM      9  C   UNL d   1       0.698  -2.562  -2.618  0.00  0.00     0.018 C 
ENDBRANCH   1   8
TORSDOF 1
ENDMDL
