MODEL 1
REMARK minimizedAffinity -2.06956649
REMARK minimizedRMSD -1
REMARK  1 active torsions:
REMARK  status: ('A' for Active; 'I' for Inactive)
REMARK    1  A    between atoms: C1_2  and  C2_3 
ROOT
ATOM      1  C2  UNL d   1       0.524  -0.643   0.480  0.00  0.00    -0.073 A 
ATOM      2  C3  UNL d   1       0.429  -1.534   1.556  0.00  0.00    -0.002 A 
ATOM      3  C4  UNL d   1      -0.366  -1.223   2.660  0.00  0.00     0.004 A 
ATOM      4  C5  UNL d   1      -1.077  -0.024   2.698  0.00  0.00    -0.004 A 
ATOM      5  C6  UNL d   1      -1.004   0.874   1.628  0.00  0.00    -0.075 A 
ATOM      6  C7  UNL d   1      -1.761   2.169   1.654  0.00  0.00     0.076 C 
ATOM      7  C8  UNL d   1      -0.201   0.556   0.524  0.00  0.00     0.001 A 
ENDROOT
BRANCH   1   8
ATOM      8  C1  UNL d   1       1.376  -0.977  -0.717  0.00  0.00     0.053 C 
ATOM      9  C   UNL d   1       0.845  -2.183  -1.475  0.00  0.00     0.018 C 
ENDBRANCH   1   8
TORSDOF 1
ENDMDL
