MODEL 1
REMARK minimizedAffinity -0.792563677
REMARK minimizedRMSD -1
REMARK  1 active torsions:
REMARK  status: ('A' for Active; 'I' for Inactive)
REMARK    1  A    between atoms: C1_2  and  C2_3 
ROOT
ATOM      1  C2  UNL d   1       0.393  -1.166  -0.790  0.00  0.00    -0.073 A 
ATOM      2  C3  UNL d   1       0.798  -0.074  -1.567  0.00  0.00    -0.002 A 
ATOM      3  C4  UNL d   1       0.596   1.229  -1.111  0.00  0.00     0.004 A 
ATOM      4  C5  UNL d   1      -0.005   1.454   0.127  0.00  0.00    -0.004 A 
ATOM      5  C6  UNL d   1      -0.405   0.377   0.924  0.00  0.00    -0.075 A 
ATOM      6  C7  UNL d   1      -1.055   0.602   2.257  0.00  0.00     0.076 C 
ATOM      7  C8  UNL d   1      -0.202  -0.929   0.458  0.00  0.00     0.001 A 
ENDROOT
BRANCH   1   8
ATOM      8  C1  UNL d   1       0.615  -2.575  -1.275  0.00  0.00     0.053 C 
ATOM      9  C   UNL d   1       0.238  -2.740  -2.739  0.00  0.00     0.018 C 
ENDBRANCH   1   8
TORSDOF 1
ENDMDL
