MODEL 1
REMARK minimizedAffinity -4.23703051
REMARK minimizedRMSD -1
REMARK  1 active torsions:
REMARK  status: ('A' for Active; 'I' for Inactive)
REMARK    1  A    between atoms: C1_2  and  C2_3 
ROOT
ATOM      1  C2  UNL d   1       0.610   0.271   0.223  0.00  0.00    -0.073 A 
ATOM      2  C3  UNL d   1       0.068   1.556   0.114  0.00  0.00    -0.002 A 
ATOM      3  C4  UNL d   1      -0.871   2.007   1.043  0.00  0.00     0.004 A 
ATOM      4  C5  UNL d   1      -1.270   1.182   2.094  0.00  0.00    -0.004 A 
ATOM      5  C6  UNL d   1      -0.730  -0.102   2.228  0.00  0.00    -0.075 A 
ATOM      6  C7  UNL d   1      -1.151  -1.003   3.351  0.00  0.00     0.076 C 
ATOM      7  C8  UNL d   1       0.209  -0.548   1.288  0.00  0.00     0.001 A 
ENDROOT
BRANCH   1   8
ATOM      8  C1  UNL d   1       1.628  -0.218  -0.775  0.00  0.00     0.053 C 
ATOM      9  C   UNL d   1       1.423  -1.682  -1.128  0.00  0.00     0.018 C 
ENDBRANCH   1   8
TORSDOF 1
ENDMDL
