MODEL 1
REMARK minimizedAffinity -3.59332609
REMARK minimizedRMSD -1
REMARK  1 active torsions:
REMARK  status: ('A' for Active; 'I' for Inactive)
REMARK    1  A    between atoms: C1_2  and  C2_3 
ROOT
ATOM      1  C2  UNL d   1      -0.788  -0.252   0.436  0.00  0.00    -0.073 A 
ATOM      2  C3  UNL d   1       0.555   0.130   0.345  0.00  0.00    -0.002 A 
ATOM      3  C4  UNL d   1       1.401  -0.482  -0.581  0.00  0.00     0.004 A 
ATOM      4  C5  UNL d   1       0.912  -1.476  -1.429  0.00  0.00    -0.004 A 
ATOM      5  C6  UNL d   1      -0.430  -1.863  -1.362  0.00  0.00    -0.075 A 
ATOM      6  C7  UNL d   1      -0.972  -2.931  -2.266  0.00  0.00     0.076 C 
ATOM      7  C8  UNL d   1      -1.273  -1.246  -0.427  0.00  0.00     0.001 A 
ENDROOT
BRANCH   1   8
ATOM      8  C1  UNL d   1      -1.707   0.410   1.430  0.00  0.00     0.053 C 
ATOM      9  C   UNL d   1      -1.233   1.806   1.802  0.00  0.00     0.018 C 
ENDBRANCH   1   8
TORSDOF 1
ENDMDL
