MODEL 1
REMARK minimizedAffinity -0.369799823
REMARK minimizedRMSD -1
REMARK  1 active torsions:
REMARK  status: ('A' for Active; 'I' for Inactive)
REMARK    1  A    between atoms: C1_2  and  C2_3 
ROOT
ATOM      1  C2  UNL d   1       0.706  -1.554  -1.485  0.00  0.00    -0.073 A 
ATOM      2  C3  UNL d   1       0.256  -1.898  -2.765  0.00  0.00    -0.002 A 
ATOM      3  C4  UNL d   1       0.407  -3.202  -3.239  0.00  0.00     0.004 A 
ATOM      4  C5  UNL d   1       1.002  -4.176  -2.437  0.00  0.00    -0.004 A 
ATOM      5  C6  UNL d   1       1.447  -3.855  -1.151  0.00  0.00    -0.075 A 
ATOM      6  C7  UNL d   1       2.092  -4.891  -0.277  0.00  0.00     0.076 C 
ATOM      7  C8  UNL d   1       1.295  -2.543  -0.683  0.00  0.00     0.001 A 
ENDROOT
BRANCH   1   8
ATOM      8  C1  UNL d   1       0.539  -0.150  -0.966  0.00  0.00     0.053 C 
ATOM      9  C   UNL d   1      -0.498  -0.070   0.142  0.00  0.00     0.018 C 
ENDBRANCH   1   8
TORSDOF 1
ENDMDL
