MODEL 1
REMARK minimizedAffinity -4.46915293
REMARK minimizedRMSD -1
REMARK  1 active torsions:
REMARK  status: ('A' for Active; 'I' for Inactive)
REMARK    1  A    between atoms: C1_2  and  C2_3 
ROOT
ATOM      1  C2  UNL d   1       0.252  -0.404   0.199  0.00  0.00    -0.073 A 
ATOM      2  C3  UNL d   1      -0.683  -0.856   1.138  0.00  0.00    -0.002 A 
ATOM      3  C4  UNL d   1      -1.493   0.053   1.819  0.00  0.00     0.004 A 
ATOM      4  C5  UNL d   1      -1.383   1.420   1.564  0.00  0.00    -0.004 A 
ATOM      5  C6  UNL d   1      -0.463   1.890   0.622  0.00  0.00    -0.075 A 
ATOM      6  C7  UNL d   1      -0.331   3.357   0.338  0.00  0.00     0.076 C 
ATOM      7  C8  UNL d   1       0.349   0.971  -0.056  0.00  0.00     0.001 A 
ENDROOT
BRANCH   1   8
ATOM      8  C1  UNL d   1       1.125  -1.383  -0.543  0.00  0.00     0.053 C 
ATOM      9  C   UNL d   1       0.326  -2.236  -1.515  0.00  0.00     0.018 C 
ENDBRANCH   1   8
TORSDOF 1
ENDMDL
