MODEL 1
REMARK minimizedAffinity -3.24777293
REMARK minimizedRMSD -1
REMARK  1 active torsions:
REMARK  status: ('A' for Active; 'I' for Inactive)
REMARK    1  A    between atoms: C1_2  and  C2_3 
ROOT
ATOM      1  C2  UNL d   1       0.168  -0.586  -0.656  0.00  0.00    -0.073 A 
ATOM      2  C3  UNL d   1       1.449  -1.148  -0.619  0.00  0.00    -0.002 A 
ATOM      3  C4  UNL d   1       1.720  -2.330  -1.310  0.00  0.00     0.004 A 
ATOM      4  C5  UNL d   1       0.718  -2.956  -2.050  0.00  0.00    -0.004 A 
ATOM      5  C6  UNL d   1      -0.566  -2.403  -2.109  0.00  0.00    -0.075 A 
ATOM      6  C7  UNL d   1      -1.656  -3.066  -2.899  0.00  0.00     0.076 C 
ATOM      7  C8  UNL d   1      -0.831  -1.218  -1.410  0.00  0.00     0.001 A 
ENDROOT
BRANCH   1   8
ATOM      8  C1  UNL d   1      -0.128   0.693   0.084  0.00  0.00     0.053 C 
ATOM      9  C   UNL d   1      -0.617   0.433   1.500  0.00  0.00     0.018 C 
ENDBRANCH   1   8
TORSDOF 1
ENDMDL
