MODEL 1
REMARK minimizedAffinity -2.73053145
REMARK minimizedRMSD -1
REMARK  1 active torsions:
REMARK  status: ('A' for Active; 'I' for Inactive)
REMARK    1  A    between atoms: C1_2  and  C2_3 
ROOT
ATOM      1  C2  UNL d   1      -0.078  -1.400  -1.009  0.00  0.00    -0.073 A 
ATOM      2  C3  UNL d   1      -0.868  -1.932   0.016  0.00  0.00    -0.002 A 
ATOM      3  C4  UNL d   1      -1.359  -1.107   1.029  0.00  0.00     0.004 A 
ATOM      4  C5  UNL d   1      -1.072   0.258   1.023  0.00  0.00    -0.004 A 
ATOM      5  C6  UNL d   1      -0.294   0.811   0.000  0.00  0.00    -0.075 A 
ATOM      6  C7  UNL d   1       0.025   2.277  -0.019  0.00  0.00     0.076 C 
ATOM      7  C8  UNL d   1       0.198  -0.025  -1.011  0.00  0.00     0.001 A 
ENDROOT
BRANCH   1   8
ATOM      8  C1  UNL d   1       0.450  -2.286  -2.108  0.00  0.00     0.053 C 
ATOM      9  C   UNL d   1       0.084  -3.745  -1.888  0.00  0.00     0.018 C 
ENDBRANCH   1   8
TORSDOF 1
ENDMDL
