MODEL 1
REMARK minimizedAffinity -3.58571815
REMARK minimizedRMSD -1
REMARK  1 active torsions:
REMARK  status: ('A' for Active; 'I' for Inactive)
REMARK    1  A    between atoms: C1_2  and  C2_3 
ROOT
ATOM      1  C2  UNL d   1      -0.777   1.034   1.159  0.00  0.00    -0.073 A 
ATOM      2  C3  UNL d   1      -1.133   2.278   1.692  0.00  0.00    -0.002 A 
ATOM      3  C4  UNL d   1      -0.676   3.456   1.099  0.00  0.00     0.004 A 
ATOM      4  C5  UNL d   1       0.134   3.402  -0.035  0.00  0.00    -0.004 A 
ATOM      5  C6  UNL d   1       0.491   2.169  -0.590  0.00  0.00    -0.075 A 
ATOM      6  C7  UNL d   1       1.363   2.094  -1.808  0.00  0.00     0.076 C 
ATOM      7  C8  UNL d   1       0.030   0.990   0.013  0.00  0.00     0.001 A 
ENDROOT
BRANCH   1   8
ATOM      8  C1  UNL d   1      -1.273  -0.240   1.793  0.00  0.00     0.053 C 
ATOM      9  C   UNL d   1      -2.128  -1.056   0.837  0.00  0.00     0.018 C 
ENDBRANCH   1   8
TORSDOF 1
ENDMDL
