MODEL 1
REMARK minimizedAffinity -4.43135357
REMARK minimizedRMSD -1
REMARK  1 active torsions:
REMARK  status: ('A' for Active; 'I' for Inactive)
REMARK    1  A    between atoms: C1_2  and  C2_3 
ROOT
ATOM      1  C2  UNL d   1       0.616  -0.003   0.117  0.00  0.00    -0.073 A 
ATOM      2  C3  UNL d   1      -0.306   0.040   1.168  0.00  0.00    -0.002 A 
ATOM      3  C4  UNL d   1      -1.038   1.202   1.417  0.00  0.00     0.004 A 
ATOM      4  C5  UNL d   1      -0.861   2.328   0.614  0.00  0.00    -0.004 A 
ATOM      5  C6  UNL d   1       0.047   2.301  -0.450  0.00  0.00    -0.075 A 
ATOM      6  C7  UNL d   1       0.251   3.505  -1.322  0.00  0.00     0.076 C 
ATOM      7  C8  UNL d   1       0.780   1.131  -0.691  0.00  0.00     0.001 A 
ENDROOT
BRANCH   1   8
ATOM      8  C1  UNL d   1       1.404  -1.258  -0.160  0.00  0.00     0.053 C 
ATOM      9  C   UNL d   1       0.839  -2.038  -1.337  0.00  0.00     0.018 C 
ENDBRANCH   1   8
TORSDOF 1
ENDMDL
