MODEL 1
REMARK minimizedAffinity 10.6410599
REMARK minimizedRMSD -1
REMARK  2 active torsions:
REMARK  status: ('A' for Active; 'I' for Inactive)
REMARK    1  A    between atoms: C1_2  and  C2_3 
REMARK    2  A    between atoms: C2_3  and  C3_4 
ROOT
ATOM      1  C3  UNL d   1      -0.979  -1.424  -5.644  0.00  0.00    -0.075 A 
ATOM      2  C4  UNL d   1      -1.864  -0.567  -4.975  0.00  0.00     0.002 A 
ATOM      3  C5  UNL d   1      -1.490   0.743  -4.674  0.00  0.00     0.002 A 
ATOM      4  C6  UNL d   1      -0.226   1.209  -5.028  0.00  0.00    -0.004 A 
ATOM      5  C7  UNL d   1       0.667   0.361  -5.679  0.00  0.00     0.002 A 
ATOM      6  C8  UNL d   1       0.295  -0.949  -5.985  0.00  0.00     0.002 A 
ENDROOT
BRANCH   1   7
ATOM      7  C2  UNL d   1      -1.388  -2.834  -5.999  0.00  0.00     0.056 C 
BRANCH   7   8
ATOM      8  C1  UNL d   1      -0.358  -3.899  -5.608  0.00  0.00     0.007 C 
ATOM      9  C   UNL d   1      -0.776  -5.310  -5.999  0.00  0.00     0.009 C 
ENDBRANCH   7   8
ENDBRANCH   1   7
TORSDOF 2
ENDMDL
