MODEL 1
REMARK minimizedAffinity -3.14008617
REMARK minimizedRMSD -1
REMARK  2 active torsions:
REMARK  status: ('A' for Active; 'I' for Inactive)
REMARK    1  A    between atoms: C1_2  and  C2_3 
REMARK    2  A    between atoms: C2_3  and  C3_4 
ROOT
ATOM      1  C3  UNL d   1      -0.114  -3.053  -3.246  0.00  0.00    -0.075 A 
ATOM      2  C4  UNL d   1      -0.984  -2.551  -4.224  0.00  0.00     0.002 A 
ATOM      3  C5  UNL d   1      -0.874  -1.231  -4.660  0.00  0.00     0.002 A 
ATOM      4  C6  UNL d   1       0.099  -0.394  -4.118  0.00  0.00    -0.004 A 
ATOM      5  C7  UNL d   1       0.958  -0.877  -3.133  0.00  0.00     0.002 A 
ATOM      6  C8  UNL d   1       0.853  -2.199  -2.698  0.00  0.00     0.002 A 
ENDROOT
BRANCH   1   7
ATOM      7  C2  UNL d   1      -0.209  -4.490  -2.791  0.00  0.00     0.056 C 
BRANCH   7   8
ATOM      8  C1  UNL d   1       0.584  -5.473  -3.659  0.00  0.00     0.007 C 
ATOM      9  C   UNL d   1       2.090  -5.376  -3.453  0.00  0.00     0.009 C 
ENDBRANCH   7   8
ENDBRANCH   1   7
TORSDOF 2
ENDMDL
