MODEL 1
REMARK minimizedAffinity -3.16419792
REMARK minimizedRMSD -1
REMARK  2 active torsions:
REMARK  status: ('A' for Active; 'I' for Inactive)
REMARK    1  A    between atoms: C1_2  and  C2_3 
REMARK    2  A    between atoms: C2_3  and  C3_4 
ROOT
ATOM      1  C3  UNL d   1       0.804  -1.492  -2.354  0.00  0.00    -0.075 A 
ATOM      2  C4  UNL d   1      -0.552  -1.626  -2.021  0.00  0.00     0.002 A 
ATOM      3  C5  UNL d   1      -1.535  -0.999  -2.787  0.00  0.00     0.002 A 
ATOM      4  C6  UNL d   1      -1.176  -0.225  -3.888  0.00  0.00    -0.004 A 
ATOM      5  C7  UNL d   1       0.168  -0.072  -4.219  0.00  0.00     0.002 A 
ATOM      6  C8  UNL d   1       1.154  -0.701  -3.456  0.00  0.00     0.002 A 
ENDROOT
BRANCH   1   7
ATOM      7  C2  UNL d   1       1.870  -2.191  -1.546  0.00  0.00     0.056 C 
BRANCH   7   8
ATOM      8  C1  UNL d   1       2.401  -3.475  -2.193  0.00  0.00     0.007 C 
ATOM      9  C   UNL d   1       1.298  -4.379  -2.726  0.00  0.00     0.009 C 
ENDBRANCH   7   8
ENDBRANCH   1   7
TORSDOF 2
ENDMDL
