MODEL 1
REMARK minimizedAffinity 5.04775476
REMARK minimizedRMSD -1
REMARK  2 active torsions:
REMARK  status: ('A' for Active; 'I' for Inactive)
REMARK    1  A    between atoms: C1_2  and  C2_3 
REMARK    2  A    between atoms: C2_3  and  C3_4 
ROOT
ATOM      1  C3  UNL d   1       2.399  -0.891   4.198  0.00  0.00    -0.075 A 
ATOM      2  C4  UNL d   1       1.430  -1.905   4.201  0.00  0.00     0.002 A 
ATOM      3  C5  UNL d   1       0.754  -2.241   3.028  0.00  0.00     0.002 A 
ATOM      4  C6  UNL d   1       1.029  -1.564   1.842  0.00  0.00    -0.004 A 
ATOM      5  C7  UNL d   1       1.978  -0.544   1.832  0.00  0.00     0.002 A 
ATOM      6  C8  UNL d   1       2.660  -0.208   3.003  0.00  0.00     0.002 A 
ENDROOT
BRANCH   1   7
ATOM      7  C2  UNL d   1       3.155  -0.542   5.458  0.00  0.00     0.056 C 
BRANCH   7   8
ATOM      8  C1  UNL d   1       4.517  -1.236   5.580  0.00  0.00     0.007 C 
ATOM      9  C   UNL d   1       4.631  -2.489   4.722  0.00  0.00     0.009 C 
ENDBRANCH   7   8
ENDBRANCH   1   7
TORSDOF 2
ENDMDL
