MODEL 1
REMARK minimizedAffinity -2.3867743
REMARK minimizedRMSD -1
REMARK  0 active torsions:
REMARK  status: ('A' for Active; 'I' for Inactive)
ROOT
ATOM      1  C   UNL d   1      -1.084   0.163   0.688  0.00  0.00     0.172 C 
ATOM      2  N   UNL d   1      -0.059  -0.535  -0.052  0.00  0.00    -0.070 N 
ATOM      3  C1  UNL d   1       0.494  -0.121  -1.234  0.00  0.00    -0.004 A 
ATOM      4  C2  UNL d   1       1.431  -1.057  -1.613  0.00  0.00    -0.047 A 
ATOM      5  C3  UNL d   1       1.442  -2.070  -0.624  0.00  0.00    -0.047 A 
ATOM      6  C4  UNL d   1       0.510  -1.721   0.330  0.00  0.00    -0.004 A 
ENDROOT
TORSDOF 0
ENDMDL
