MODEL 1
REMARK minimizedAffinity -1.52886951
REMARK minimizedRMSD -1
REMARK  0 active torsions:
REMARK  status: ('A' for Active; 'I' for Inactive)
ROOT
ATOM      1  C   UNL d   1      -0.337   0.297   0.719  0.00  0.00     0.172 C 
ATOM      2  N   UNL d   1      -0.925   0.696   1.976  0.00  0.00    -0.070 N 
ATOM      3  C1  UNL d   1      -2.013   0.113   2.570  0.00  0.00    -0.004 A 
ATOM      4  C2  UNL d   1      -2.257   0.780   3.751  0.00  0.00    -0.047 A 
ATOM      5  C3  UNL d   1      -1.283   1.800   3.871  0.00  0.00    -0.047 A 
ATOM      6  C4  UNL d   1      -0.471   1.725   2.758  0.00  0.00    -0.004 A 
ENDROOT
TORSDOF 0
ENDMDL
