MODEL 1
REMARK minimizedAffinity -1.2017796
REMARK minimizedRMSD -1
REMARK  0 active torsions:
REMARK  status: ('A' for Active; 'I' for Inactive)
ROOT
ATOM      1  C   UNL d   1       1.663  -1.671  -1.353  0.00  0.00     0.172 C 
ATOM      2  N   UNL d   1       0.560  -1.067  -0.642  0.00  0.00    -0.070 N 
ATOM      3  C1  UNL d   1      -0.127  -1.634   0.398  0.00  0.00    -0.004 A 
ATOM      4  C2  UNL d   1      -1.099  -0.744   0.798  0.00  0.00    -0.047 A 
ATOM      5  C3  UNL d   1      -0.994   0.399  -0.031  0.00  0.00    -0.047 A 
ATOM      6  C4  UNL d   1       0.041   0.172  -0.914  0.00  0.00    -0.004 A 
ENDROOT
TORSDOF 0
ENDMDL
