MODEL 1
REMARK minimizedAffinity -1.58706212
REMARK minimizedRMSD -1
REMARK  0 active torsions:
REMARK  status: ('A' for Active; 'I' for Inactive)
ROOT
ATOM      1  C   UNL d   1      -0.878   0.488   1.166  0.00  0.00     0.172 C 
ATOM      2  N   UNL d   1       0.006  -0.302   0.341  0.00  0.00    -0.070 N 
ATOM      3  C1  UNL d   1       0.369  -0.010  -0.946  0.00  0.00    -0.004 A 
ATOM      4  C2  UNL d   1       1.220  -1.004  -1.380  0.00  0.00    -0.047 A 
ATOM      5  C3  UNL d   1       1.372  -1.926  -0.318  0.00  0.00    -0.047 A 
ATOM      6  C4  UNL d   1       0.609  -1.467   0.736  0.00  0.00    -0.004 A 
ENDROOT
TORSDOF 0
ENDMDL
