MODEL 1
REMARK minimizedAffinity -3.8148489
REMARK minimizedRMSD -1
REMARK  0 active torsions:
REMARK  status: ('A' for Active; 'I' for Inactive)
ROOT
ATOM      1  C   UNL d   1       0.011  -1.161  -0.152  0.00  0.00     0.172 C 
ATOM      2  N   UNL d   1       1.093  -0.439  -0.779  0.00  0.00    -0.070 N 
ATOM      3  C1  UNL d   1       2.011  -0.970  -1.646  0.00  0.00    -0.004 A 
ATOM      4  C2  UNL d   1       2.873   0.039  -2.018  0.00  0.00    -0.047 A 
ATOM      5  C3  UNL d   1       2.459   1.217  -1.351  0.00  0.00    -0.047 A 
ATOM      6  C4  UNL d   1       1.356   0.892  -0.590  0.00  0.00    -0.004 A 
ENDROOT
TORSDOF 0
ENDMDL
