MODEL 1
REMARK minimizedAffinity -2.6065464
REMARK minimizedRMSD -1
REMARK  0 active torsions:
REMARK  status: ('A' for Active; 'I' for Inactive)
ROOT
ATOM      1  C   UNL d   1      -1.581   0.200   0.306  0.00  0.00     0.172 C 
ATOM      2  N   UNL d   1      -0.354  -0.556   0.207  0.00  0.00    -0.070 N 
ATOM      3  C1  UNL d   1       0.911  -0.036   0.265  0.00  0.00    -0.004 A 
ATOM      4  C2  UNL d   1       1.803  -1.078   0.134  0.00  0.00    -0.047 A 
ATOM      5  C3  UNL d   1       1.047  -2.266  -0.008  0.00  0.00    -0.047 A 
ATOM      6  C4  UNL d   1      -0.285  -1.914   0.041  0.00  0.00    -0.004 A 
ENDROOT
TORSDOF 0
ENDMDL
