MODEL 1
REMARK minimizedAffinity -2.82483673
REMARK minimizedRMSD -1
REMARK  0 active torsions:
REMARK  status: ('A' for Active; 'I' for Inactive)
ROOT
ATOM      1  C   UNL d   1       2.078  -0.763  -1.485  0.00  0.00     0.172 C 
ATOM      2  N   UNL d   1       0.907  -0.154  -0.900  0.00  0.00    -0.070 N 
ATOM      3  C1  UNL d   1       0.191  -0.651   0.157  0.00  0.00    -0.004 A 
ATOM      4  C2  UNL d   1      -0.846   0.220   0.411  0.00  0.00    -0.047 A 
ATOM      5  C3  UNL d   1      -0.751   1.277  -0.526  0.00  0.00    -0.047 A 
ATOM      6  C4  UNL d   1       0.343   1.020  -1.325  0.00  0.00    -0.004 A 
ENDROOT
TORSDOF 0
ENDMDL
