MODEL 1
REMARK minimizedAffinity 4.03024101
REMARK minimizedRMSD -1
REMARK  0 active torsions:
REMARK  status: ('A' for Active; 'I' for Inactive)
ROOT
ATOM      1  C   UNL d   1      -5.358  -2.829   3.418  0.00  0.00     0.172 C 
ATOM      2  N   UNL d   1      -4.222  -1.948   3.549  0.00  0.00    -0.070 N 
ATOM      3  C1  UNL d   1      -3.542  -1.690   4.709  0.00  0.00    -0.004 A 
ATOM      4  C2  UNL d   1      -2.528  -0.803   4.416  0.00  0.00    -0.047 A 
ATOM      5  C3  UNL d   1      -2.602  -0.518   3.032  0.00  0.00    -0.047 A 
ATOM      6  C4  UNL d   1      -3.659  -1.240   2.520  0.00  0.00    -0.004 A 
ENDROOT
TORSDOF 0
ENDMDL
