MODEL 1
REMARK minimizedAffinity -2.80843639
REMARK minimizedRMSD -1
REMARK  0 active torsions:
REMARK  status: ('A' for Active; 'I' for Inactive)
ROOT
ATOM      1  C   UNL d   1      -1.482   1.069   3.329  0.00  0.00     0.172 C 
ATOM      2  N   UNL d   1      -1.047   0.716   1.998  0.00  0.00    -0.070 N 
ATOM      3  C1  UNL d   1       0.114   0.062   1.685  0.00  0.00    -0.004 A 
ATOM      4  C2  UNL d   1       0.160  -0.085   0.315  0.00  0.00    -0.047 A 
ATOM      5  C3  UNL d   1      -1.014   0.503  -0.213  0.00  0.00    -0.047 A 
ATOM      6  C4  UNL d   1      -1.743   0.991   0.850  0.00  0.00    -0.004 A 
ENDROOT
TORSDOF 0
ENDMDL
