MODEL 1
REMARK minimizedAffinity -3.04899096
REMARK minimizedRMSD -1
REMARK  0 active torsions:
REMARK  status: ('A' for Active; 'I' for Inactive)
ROOT
ATOM      1  C   UNL d   1       2.002  -0.914  -1.319  0.00  0.00     0.172 C 
ATOM      2  N   UNL d   1       0.762  -0.289  -0.922  0.00  0.00    -0.070 N 
ATOM      3  C1  UNL d   1       0.337   0.955  -1.305  0.00  0.00    -0.004 A 
ATOM      4  C2  UNL d   1      -0.888   1.182  -0.716  0.00  0.00    -0.047 A 
ATOM      5  C3  UNL d   1      -1.210   0.036   0.049  0.00  0.00    -0.047 A 
ATOM      6  C4  UNL d   1      -0.171  -0.859  -0.096  0.00  0.00    -0.004 A 
ENDROOT
TORSDOF 0
ENDMDL
