MODEL 1
REMARK minimizedAffinity -3.03340888
REMARK minimizedRMSD -1
REMARK  0 active torsions:
REMARK  status: ('A' for Active; 'I' for Inactive)
ROOT
ATOM      1  C   UNL d   1       1.784  -1.237  -1.123  0.00  0.00     0.172 C 
ATOM      2  N   UNL d   1       0.571  -0.558  -0.731  0.00  0.00    -0.070 N 
ATOM      3  C1  UNL d   1      -0.537  -1.152  -0.190  0.00  0.00    -0.004 A 
ATOM      4  C2  UNL d   1      -1.472  -0.167   0.045  0.00  0.00    -0.047 A 
ATOM      5  C3  UNL d   1      -0.907   1.061  -0.371  0.00  0.00    -0.047 A 
ATOM      6  C4  UNL d   1       0.359   0.791  -0.847  0.00  0.00    -0.004 A 
ENDROOT
TORSDOF 0
ENDMDL
