MODEL 1
REMARK minimizedAffinity -1.64752901
REMARK minimizedRMSD -1
REMARK  0 active torsions:
REMARK  status: ('A' for Active; 'I' for Inactive)
ROOT
ATOM      1  C   UNL d   1      -0.214   2.153  -1.714  0.00  0.00     0.172 C 
ATOM      2  N   UNL d   1       0.276   0.807  -1.537  0.00  0.00    -0.070 N 
ATOM      3  C1  UNL d   1      -0.108  -0.060  -0.548  0.00  0.00    -0.004 A 
ATOM      4  C2  UNL d   1       0.585  -1.237  -0.726  0.00  0.00    -0.047 A 
ATOM      5  C3  UNL d   1       1.416  -1.073  -1.860  0.00  0.00    -0.047 A 
ATOM      6  C4  UNL d   1       1.205   0.202  -2.342  0.00  0.00    -0.004 A 
ENDROOT
TORSDOF 0
ENDMDL
