MODEL 1
REMARK minimizedAffinity -3.71742678
REMARK minimizedRMSD -1
REMARK  0 active torsions:
REMARK  status: ('A' for Active; 'I' for Inactive)
ROOT
ATOM      1  C   UNL d   1       1.872  -0.702  -1.663  0.00  0.00     0.172 C 
ATOM      2  N   UNL d   1       0.713  -0.157  -0.996  0.00  0.00    -0.070 N 
ATOM      3  C1  UNL d   1      -0.135  -0.852  -0.175  0.00  0.00    -0.004 A 
ATOM      4  C2  UNL d   1      -1.110   0.021   0.260  0.00  0.00    -0.047 A 
ATOM      5  C3  UNL d   1      -0.838   1.282  -0.321  0.00  0.00    -0.047 A 
ATOM      6  C4  UNL d   1       0.295   1.144  -1.094  0.00  0.00    -0.004 A 
ENDROOT
TORSDOF 0
ENDMDL
