MODEL 1
REMARK minimizedAffinity -3.23339462
REMARK minimizedRMSD -1
REMARK  0 active torsions:
REMARK  status: ('A' for Active; 'I' for Inactive)
ROOT
ATOM      1  C   UNL d   1       1.345   0.492  -1.095  0.00  0.00     0.172 C 
ATOM      2  N   UNL d   1       2.236   0.432  -2.229  0.00  0.00    -0.070 N 
ATOM      3  C1  UNL d   1       3.039  -0.628  -2.559  0.00  0.00    -0.004 A 
ATOM      4  C2  UNL d   1       3.731  -0.294  -3.703  0.00  0.00    -0.047 A 
ATOM      5  C3  UNL d   1       3.331   1.012  -4.073  0.00  0.00    -0.047 A 
ATOM      6  C4  UNL d   1       2.406   1.438  -3.144  0.00  0.00    -0.004 A 
ENDROOT
TORSDOF 0
ENDMDL
