MODEL 1
REMARK minimizedAffinity 7.08252239
REMARK minimizedRMSD -1
REMARK  0 active torsions:
REMARK  status: ('A' for Active; 'I' for Inactive)
ROOT
ATOM      1  C   UNL d   1       5.998   6.000   2.978  0.00  0.00     0.078 C 
ATOM      2  C1  UNL d   1       5.199   4.783   3.338  0.00  0.00    -0.077 A 
ATOM      3  C2  UNL d   1       3.804   4.776   3.221  0.00  0.00    -0.001 A 
ATOM      4  C3  UNL d   1       3.072   3.640   3.569  0.00  0.00     0.003 A 
ATOM      5  C4  UNL d   1       3.727   2.502   4.036  0.00  0.00    -0.005 A 
ATOM      6  C5  UNL d   1       5.115   2.500   4.158  0.00  0.00     0.003 A 
ATOM      7  C6  UNL d   1       5.848   3.636   3.811  0.00  0.00    -0.001 A 
ENDROOT
TORSDOF 0
ENDMDL
