MODEL 1
REMARK minimizedAffinity 0.901758432
REMARK minimizedRMSD -1
REMARK  0 active torsions:
REMARK  status: ('A' for Active; 'I' for Inactive)
ROOT
ATOM      1  C   UNL d   1       1.149   2.133   1.315  0.00  0.00     0.078 C 
ATOM      2  C1  UNL d   1       1.107   0.965   0.376  0.00  0.00    -0.077 A 
ATOM      3  C2  UNL d   1       2.274   0.486  -0.232  0.00  0.00    -0.001 A 
ATOM      4  C3  UNL d   1       2.218  -0.596  -1.112  0.00  0.00     0.003 A 
ATOM      5  C4  UNL d   1       0.998  -1.207  -1.393  0.00  0.00    -0.005 A 
ATOM      6  C5  UNL d   1      -0.169  -0.736  -0.794  0.00  0.00     0.003 A 
ATOM      7  C6  UNL d   1      -0.115   0.346   0.086  0.00  0.00    -0.001 A 
ENDROOT
TORSDOF 0
ENDMDL
