MODEL 1
REMARK minimizedAffinity 6.69216108
REMARK minimizedRMSD -1
REMARK  0 active torsions:
REMARK  status: ('A' for Active; 'I' for Inactive)
ROOT
ATOM      1  C   UNL d   1      -0.010  -0.359  -0.736  0.00  0.00     0.078 C 
ATOM      2  C1  UNL d   1       0.687   0.676   0.096  0.00  0.00    -0.077 A 
ATOM      3  C2  UNL d   1       0.016   1.345   1.127  0.00  0.00    -0.001 A 
ATOM      4  C3  UNL d   1       0.675   2.313   1.887  0.00  0.00     0.003 A 
ATOM      5  C4  UNL d   1       2.009   2.621   1.623  0.00  0.00    -0.005 A 
ATOM      6  C5  UNL d   1       2.684   1.961   0.598  0.00  0.00     0.003 A 
ATOM      7  C6  UNL d   1       2.026   0.994  -0.163  0.00  0.00    -0.001 A 
ENDROOT
TORSDOF 0
ENDMDL
