MODEL 1
REMARK minimizedAffinity 1.71577883
REMARK minimizedRMSD -1
REMARK  0 active torsions:
REMARK  status: ('A' for Active; 'I' for Inactive)
ROOT
ATOM      1  C   UNL d   1       5.988   1.984   5.940  0.00  0.00     0.078 C 
ATOM      2  C1  UNL d   1       5.992   3.200   5.061  0.00  0.00    -0.077 A 
ATOM      3  C2  UNL d   1       5.989   4.487   5.612  0.00  0.00    -0.001 A 
ATOM      4  C3  UNL d   1       5.983   5.609   4.782  0.00  0.00     0.003 A 
ATOM      5  C4  UNL d   1       5.979   5.456   3.397  0.00  0.00    -0.005 A 
ATOM      6  C5  UNL d   1       5.980   4.178   2.840  0.00  0.00     0.003 A 
ATOM      7  C6  UNL d   1       5.985   3.055   3.668  0.00  0.00    -0.001 A 
ENDROOT
TORSDOF 0
ENDMDL
