MODEL 1
REMARK minimizedAffinity 3.36546683
REMARK minimizedRMSD -1
REMARK  0 active torsions:
REMARK  status: ('A' for Active; 'I' for Inactive)
ROOT
ATOM      1  C   UNL d   1       5.964   2.233   2.028  0.00  0.00     0.078 C 
ATOM      2  C1  UNL d   1       5.983   3.538   2.765  0.00  0.00    -0.077 A 
ATOM      3  C2  UNL d   1       5.991   3.576   4.165  0.00  0.00    -0.001 A 
ATOM      4  C3  UNL d   1       5.998   4.799   4.838  0.00  0.00     0.003 A 
ATOM      5  C4  UNL d   1       5.996   5.993   4.119  0.00  0.00    -0.005 A 
ATOM      6  C5  UNL d   1       5.986   5.966   2.726  0.00  0.00     0.003 A 
ATOM      7  C6  UNL d   1       5.979   4.744   2.051  0.00  0.00    -0.001 A 
ENDROOT
TORSDOF 0
ENDMDL
