MODEL 1
REMARK minimizedAffinity 0.513450921
REMARK minimizedRMSD -1
REMARK  0 active torsions:
REMARK  status: ('A' for Active; 'I' for Inactive)
ROOT
ATOM      1  C   UNL d   1       5.999   5.996   3.452  0.00  0.00     0.078 C 
ATOM      2  C1  UNL d   1       5.999   4.497   3.505  0.00  0.00    -0.077 A 
ATOM      3  C2  UNL d   1       6.000   3.735   2.331  0.00  0.00    -0.001 A 
ATOM      4  C3  UNL d   1       5.989   2.340   2.395  0.00  0.00     0.003 A 
ATOM      5  C4  UNL d   1       5.976   1.697   3.630  0.00  0.00    -0.005 A 
ATOM      6  C5  UNL d   1       5.972   2.447   4.804  0.00  0.00     0.003 A 
ATOM      7  C6  UNL d   1       5.983   3.842   4.742  0.00  0.00    -0.001 A 
ENDROOT
TORSDOF 0
ENDMDL
