MODEL 1
REMARK minimizedAffinity 3.21971941
REMARK minimizedRMSD -1
REMARK  0 active torsions:
REMARK  status: ('A' for Active; 'I' for Inactive)
ROOT
ATOM      1  C   UNL d   1       5.992   5.989   0.879  0.00  0.00     0.078 C 
ATOM      2  C1  UNL d   1       6.000   5.247   2.182  0.00  0.00    -0.077 A 
ATOM      3  C2  UNL d   1       5.999   3.847   2.215  0.00  0.00    -0.001 A 
ATOM      4  C3  UNL d   1       5.997   3.169   3.435  0.00  0.00     0.003 A 
ATOM      5  C4  UNL d   1       5.994   3.883   4.632  0.00  0.00    -0.005 A 
ATOM      6  C5  UNL d   1       5.992   5.276   4.609  0.00  0.00     0.003 A 
ATOM      7  C6  UNL d   1       5.994   5.955   3.390  0.00  0.00    -0.001 A 
ENDROOT
TORSDOF 0
ENDMDL
