MODEL 1
REMARK minimizedAffinity 2.0978775
REMARK minimizedRMSD -1
REMARK  0 active torsions:
REMARK  status: ('A' for Active; 'I' for Inactive)
ROOT
ATOM      1  C   UNL d   1       3.112   2.132  -0.450  0.00  0.00     0.078 C 
ATOM      2  C1  UNL d   1       3.886   3.216  -1.139  0.00  0.00    -0.077 A 
ATOM      3  C2  UNL d   1       3.418   4.535  -1.161  0.00  0.00    -0.001 A 
ATOM      4  C3  UNL d   1       4.145   5.531  -1.815  0.00  0.00     0.003 A 
ATOM      5  C4  UNL d   1       5.343   5.219  -2.453  0.00  0.00    -0.005 A 
ATOM      6  C5  UNL d   1       5.816   3.908  -2.438  0.00  0.00     0.003 A 
ATOM      7  C6  UNL d   1       5.091   2.911  -1.785  0.00  0.00    -0.001 A 
ENDROOT
TORSDOF 0
ENDMDL
