MODEL 1
REMARK minimizedAffinity 8.94628716
REMARK minimizedRMSD -1
REMARK  0 active torsions:
REMARK  status: ('A' for Active; 'I' for Inactive)
ROOT
ATOM      1  C   UNL d   1      -0.352  -0.042   0.778  0.00  0.00     0.078 C 
ATOM      2  C1  UNL d   1       0.199   1.328   1.040  0.00  0.00    -0.077 A 
ATOM      3  C2  UNL d   1      -0.641   2.381   1.423  0.00  0.00    -0.001 A 
ATOM      4  C3  UNL d   1      -0.116   3.653   1.654  0.00  0.00     0.003 A 
ATOM      5  C4  UNL d   1       1.250   3.885   1.504  0.00  0.00    -0.005 A 
ATOM      6  C5  UNL d   1       2.093   2.843   1.122  0.00  0.00     0.003 A 
ATOM      7  C6  UNL d   1       1.570   1.570   0.890  0.00  0.00    -0.001 A 
ENDROOT
TORSDOF 0
ENDMDL
