MODEL 1
REMARK minimizedAffinity 1.04312122
REMARK minimizedRMSD -1
REMARK  0 active torsions:
REMARK  status: ('A' for Active; 'I' for Inactive)
ROOT
ATOM      1  C   UNL d   1       0.295  -2.350  -0.869  0.00  0.00     0.078 C 
ATOM      2  C1  UNL d   1       1.119  -1.139  -0.548  0.00  0.00    -0.077 A 
ATOM      3  C2  UNL d   1       2.282  -0.846  -1.269  0.00  0.00    -0.001 A 
ATOM      4  C3  UNL d   1       3.044   0.280  -0.953  0.00  0.00     0.003 A 
ATOM      5  C4  UNL d   1       2.652   1.121   0.086  0.00  0.00    -0.005 A 
ATOM      6  C5  UNL d   1       1.497   0.836   0.811  0.00  0.00     0.003 A 
ATOM      7  C6  UNL d   1       0.733  -0.289   0.496  0.00  0.00    -0.001 A 
ENDROOT
TORSDOF 0
ENDMDL
