MODEL 1
REMARK minimizedAffinity 7.40430927
REMARK minimizedRMSD -1
REMARK  0 active torsions:
REMARK  status: ('A' for Active; 'I' for Inactive)
ROOT
ATOM      1  C   UNL d   1       2.244  -0.249   4.525  0.00  0.00     0.078 C 
ATOM      2  C1  UNL d   1       3.557   0.319   4.075  0.00  0.00    -0.077 A 
ATOM      3  C2  UNL d   1       4.649   0.391   4.948  0.00  0.00    -0.001 A 
ATOM      4  C3  UNL d   1       5.862   0.931   4.519  0.00  0.00     0.003 A 
ATOM      5  C4  UNL d   1       5.994   1.404   3.215  0.00  0.00    -0.005 A 
ATOM      6  C5  UNL d   1       4.913   1.338   2.339  0.00  0.00     0.003 A 
ATOM      7  C6  UNL d   1       3.699   0.799   2.767  0.00  0.00    -0.001 A 
ENDROOT
TORSDOF 0
ENDMDL
