MODEL 1
REMARK minimizedAffinity -2.51519489
REMARK minimizedRMSD -1
REMARK  0 active torsions:
REMARK  status: ('A' for Active; 'I' for Inactive)
ROOT
ATOM      1  C   UNL d   1       0.492  -1.021  -0.635  0.00  0.00     0.078 C 
ATOM      2  C1  UNL d   1      -0.600  -2.032  -0.455  0.00  0.00    -0.077 A 
ATOM      3  C2  UNL d   1      -0.308  -3.397  -0.345  0.00  0.00    -0.001 A 
ATOM      4  C3  UNL d   1      -1.336  -4.328  -0.187  0.00  0.00     0.003 A 
ATOM      5  C4  UNL d   1      -2.663  -3.904  -0.138  0.00  0.00    -0.005 A 
ATOM      6  C5  UNL d   1      -2.963  -2.548  -0.249  0.00  0.00     0.003 A 
ATOM      7  C6  UNL d   1      -1.937  -1.615  -0.407  0.00  0.00    -0.001 A 
ENDROOT
TORSDOF 0
ENDMDL
