MODEL 1
REMARK minimizedAffinity -0.161376819
REMARK minimizedRMSD -1
REMARK  0 active torsions:
REMARK  status: ('A' for Active; 'I' for Inactive)
ROOT
ATOM      1  C   UNL d   1       5.998   2.283   3.123  0.00  0.00     0.078 C 
ATOM      2  C1  UNL d   1       5.978   3.569   3.895  0.00  0.00    -0.077 A 
ATOM      3  C2  UNL d   1       5.923   3.570   5.294  0.00  0.00    -0.001 A 
ATOM      4  C3  UNL d   1       5.894   4.774   5.998  0.00  0.00     0.003 A 
ATOM      5  C4  UNL d   1       5.919   5.987   5.312  0.00  0.00    -0.005 A 
ATOM      6  C5  UNL d   1       5.971   5.996   3.920  0.00  0.00     0.003 A 
ATOM      7  C6  UNL d   1       6.000   4.792   3.214  0.00  0.00    -0.001 A 
ENDROOT
TORSDOF 0
ENDMDL
