MODEL 1
REMARK minimizedAffinity 6.73074055
REMARK minimizedRMSD -1
REMARK  0 active torsions:
REMARK  status: ('A' for Active; 'I' for Inactive)
ROOT
ATOM      1  C   UNL d   1       2.165   2.621  -5.910  0.00  0.00     0.078 C 
ATOM      2  C1  UNL d   1       3.504   2.440  -5.262  0.00  0.00    -0.077 A 
ATOM      3  C2  UNL d   1       4.687   2.573  -5.999  0.00  0.00    -0.001 A 
ATOM      4  C3  UNL d   1       5.927   2.392  -5.385  0.00  0.00     0.003 A 
ATOM      5  C4  UNL d   1       5.996   2.076  -4.029  0.00  0.00    -0.005 A 
ATOM      6  C5  UNL d   1       4.825   1.939  -3.287  0.00  0.00     0.003 A 
ATOM      7  C6  UNL d   1       3.584   2.119  -3.901  0.00  0.00    -0.001 A 
ENDROOT
TORSDOF 0
ENDMDL
