MODEL 1
REMARK minimizedAffinity 0.739208162
REMARK minimizedRMSD -1
REMARK  0 active torsions:
REMARK  status: ('A' for Active; 'I' for Inactive)
ROOT
ATOM      1  C   UNL d   1       1.464  -2.330   1.168  0.00  0.00     0.078 C 
ATOM      2  C1  UNL d   1       1.871  -3.605   1.846  0.00  0.00    -0.077 A 
ATOM      3  C2  UNL d   1       2.270  -3.613   3.188  0.00  0.00    -0.001 A 
ATOM      4  C3  UNL d   1       2.655  -4.805   3.802  0.00  0.00     0.003 A 
ATOM      5  C4  UNL d   1       2.646  -5.998   3.082  0.00  0.00    -0.005 A 
ATOM      6  C5  UNL d   1       2.253  -6.000   1.746  0.00  0.00     0.003 A 
ATOM      7  C6  UNL d   1       1.867  -4.808   1.129  0.00  0.00    -0.001 A 
ENDROOT
TORSDOF 0
ENDMDL
