MODEL 1
REMARK minimizedAffinity 1.14882863
REMARK minimizedRMSD -1
REMARK  0 active torsions:
REMARK  status: ('A' for Active; 'I' for Inactive)
ROOT
ATOM      1  C   UNL d   1      -1.039  -1.432  -0.217  0.00  0.00     0.078 C 
ATOM      2  C1  UNL d   1      -1.580  -2.794   0.102  0.00  0.00    -0.077 A 
ATOM      3  C2  UNL d   1      -2.933  -3.097  -0.098  0.00  0.00    -0.001 A 
ATOM      4  C3  UNL d   1      -3.425  -4.366   0.212  0.00  0.00     0.003 A 
ATOM      5  C4  UNL d   1      -2.572  -5.341   0.725  0.00  0.00    -0.005 A 
ATOM      6  C5  UNL d   1      -1.225  -5.048   0.929  0.00  0.00     0.003 A 
ATOM      7  C6  UNL d   1      -0.731  -3.780   0.619  0.00  0.00    -0.001 A 
ENDROOT
TORSDOF 0
ENDMDL
