MODEL 1
REMARK minimizedAffinity 6.92253542
REMARK minimizedRMSD -1
REMARK  0 active torsions:
REMARK  status: ('A' for Active; 'I' for Inactive)
ROOT
ATOM      1  C   UNL d   1      -4.058   2.265   6.000  0.00  0.00     0.078 C 
ATOM      2  C1  UNL d   1      -4.105   0.838   5.539  0.00  0.00    -0.077 A 
ATOM      3  C2  UNL d   1      -5.131   0.384   4.702  0.00  0.00    -0.001 A 
ATOM      4  C3  UNL d   1      -5.167  -0.949   4.289  0.00  0.00     0.003 A 
ATOM      5  C4  UNL d   1      -4.180  -1.838   4.709  0.00  0.00    -0.005 A 
ATOM      6  C5  UNL d   1      -3.156  -1.396   5.543  0.00  0.00     0.003 A 
ATOM      7  C6  UNL d   1      -3.118  -0.063   5.957  0.00  0.00    -0.001 A 
ENDROOT
TORSDOF 0
ENDMDL
