MODEL 1
REMARK minimizedAffinity 11.7514601
REMARK minimizedRMSD -1
REMARK  0 active torsions:
REMARK  status: ('A' for Active; 'I' for Inactive)
ROOT
ATOM      1  C   UNL d   1       2.663   3.642  -5.983  0.00  0.00     0.078 C 
ATOM      2  C1  UNL d   1       3.813   2.980  -5.285  0.00  0.00    -0.077 A 
ATOM      3  C2  UNL d   1       4.941   2.554  -5.998  0.00  0.00    -0.001 A 
ATOM      4  C3  UNL d   1       6.000   1.930  -5.336  0.00  0.00     0.003 A 
ATOM      5  C4  UNL d   1       5.941   1.725  -3.959  0.00  0.00    -0.005 A 
ATOM      6  C5  UNL d   1       4.822   2.143  -3.242  0.00  0.00     0.003 A 
ATOM      7  C6  UNL d   1       3.762   2.767  -3.902  0.00  0.00    -0.001 A 
ENDROOT
TORSDOF 0
ENDMDL
