MODEL 1
REMARK minimizedAffinity -2.24786472
REMARK minimizedRMSD -1
REMARK  0 active torsions:
REMARK  status: ('A' for Active; 'I' for Inactive)
ROOT
ATOM      1  C   UNL d   1       3.619   4.739  -3.684  0.00  0.00     0.172 C 
ATOM      2  N   UNL d   1       4.355   3.497  -3.718  0.00  0.00    -0.070 N 
ATOM      3  C1  UNL d   1       5.615   3.302  -3.217  0.00  0.00    -0.004 A 
ATOM      4  C2  UNL d   1       5.960   1.987  -3.444  0.00  0.00    -0.047 A 
ATOM      5  C3  UNL d   1       4.871   1.372  -4.105  0.00  0.00    -0.047 A 
ATOM      6  C4  UNL d   1       3.891   2.329  -4.262  0.00  0.00    -0.004 A 
ENDROOT
TORSDOF 0
ENDMDL
