MODEL 1
REMARK minimizedAffinity 4.12140799
REMARK minimizedRMSD -1
REMARK  0 active torsions:
REMARK  status: ('A' for Active; 'I' for Inactive)
ROOT
ATOM      1  C   UNL d   1      -2.765  -3.377  -1.117  0.00  0.00     0.172 C 
ATOM      2  N   UNL d   1      -3.955  -4.187  -1.232  0.00  0.00    -0.070 N 
ATOM      3  C1  UNL d   1      -5.106  -3.827  -1.881  0.00  0.00    -0.004 A 
ATOM      4  C2  UNL d   1      -6.000  -4.869  -1.764  0.00  0.00    -0.047 A 
ATOM      5  C3  UNL d   1      -5.364  -5.890  -1.018  0.00  0.00    -0.047 A 
ATOM      6  C4  UNL d   1      -4.099  -5.441  -0.702  0.00  0.00    -0.004 A 
ENDROOT
TORSDOF 0
ENDMDL
