MODEL 1
REMARK minimizedAffinity 6.76902199
REMARK minimizedRMSD -1
REMARK  0 active torsions:
REMARK  status: ('A' for Active; 'I' for Inactive)
ROOT
ATOM      1  C   UNL d   1       0.303   5.861   0.323  0.00  0.00     0.172 C 
ATOM      2  N   UNL d   1       0.757   4.526   0.633  0.00  0.00    -0.070 N 
ATOM      3  C1  UNL d   1       1.461   4.160   1.749  0.00  0.00    -0.004 A 
ATOM      4  C2  UNL d   1       1.701   2.806   1.672  0.00  0.00    -0.047 A 
ATOM      5  C3  UNL d   1       1.122   2.341   0.467  0.00  0.00    -0.047 A 
ATOM      6  C4  UNL d   1       0.544   3.426  -0.157  0.00  0.00    -0.004 A 
ENDROOT
TORSDOF 0
ENDMDL
