MODEL 1
REMARK minimizedAffinity 2.20781374
REMARK minimizedRMSD -1
REMARK  0 active torsions:
REMARK  status: ('A' for Active; 'I' for Inactive)
ROOT
ATOM      1  C   UNL d   1       1.581   0.991  -4.491  0.00  0.00     0.172 C 
ATOM      2  N   UNL d   1       1.245   0.413  -3.210  0.00  0.00    -0.070 N 
ATOM      3  C1  UNL d   1       1.506  -0.873  -2.822  0.00  0.00    -0.004 A 
ATOM      4  C2  UNL d   1       1.033  -1.031  -1.538  0.00  0.00    -0.047 A 
ATOM      5  C3  UNL d   1       0.466   0.204  -1.141  0.00  0.00    -0.047 A 
ATOM      6  C4  UNL d   1       0.611   1.080  -2.195  0.00  0.00    -0.004 A 
ENDROOT
TORSDOF 0
ENDMDL
