MODEL 1
REMARK minimizedAffinity -2.89621067
REMARK minimizedRMSD -1
REMARK  0 active torsions:
REMARK  status: ('A' for Active; 'I' for Inactive)
ROOT
ATOM      1  C   UNL d   1      -0.501  -0.713  -0.470  0.00  0.00     0.172 C 
ATOM      2  N   UNL d   1       0.623  -0.679  -1.376  0.00  0.00    -0.070 N 
ATOM      3  C1  UNL d   1       0.607  -0.173  -2.648  0.00  0.00    -0.004 A 
ATOM      4  C2  UNL d   1       1.870  -0.327  -3.179  0.00  0.00    -0.047 A 
ATOM      5  C3  UNL d   1       2.672  -0.947  -2.191  0.00  0.00    -0.047 A 
ATOM      6  C4  UNL d   1       1.874  -1.154  -1.086  0.00  0.00    -0.004 A 
ENDROOT
TORSDOF 0
ENDMDL
