MODEL 1
REMARK minimizedAffinity -2.97749877
REMARK minimizedRMSD -1
REMARK  0 active torsions:
REMARK  status: ('A' for Active; 'I' for Inactive)
ROOT
ATOM      1  C   UNL d   1       5.586   2.239   4.422  0.00  0.00     0.172 C 
ATOM      2  N   UNL d   1       5.525   0.805   4.586  0.00  0.00    -0.070 N 
ATOM      3  C1  UNL d   1       5.529  -0.115   3.572  0.00  0.00    -0.004 A 
ATOM      4  C2  UNL d   1       5.460  -1.369   4.141  0.00  0.00    -0.047 A 
ATOM      5  C3  UNL d   1       5.412  -1.196   5.544  0.00  0.00    -0.047 A 
ATOM      6  C4  UNL d   1       5.453   0.160   5.792  0.00  0.00    -0.004 A 
ENDROOT
TORSDOF 0
ENDMDL
