MODEL 1
REMARK minimizedAffinity -2.37284899
REMARK minimizedRMSD -1
REMARK  0 active torsions:
REMARK  status: ('A' for Active; 'I' for Inactive)
ROOT
ATOM      1  C   UNL d   1       0.051   1.003  -1.665  0.00  0.00     0.172 C 
ATOM      2  N   UNL d   1      -0.045  -0.006  -0.637  0.00  0.00    -0.070 N 
ATOM      3  C1  UNL d   1      -0.152  -1.355  -0.850  0.00  0.00    -0.004 A 
ATOM      4  C2  UNL d   1      -0.219  -1.972   0.381  0.00  0.00    -0.047 A 
ATOM      5  C3  UNL d   1      -0.152  -0.959   1.367  0.00  0.00    -0.047 A 
ATOM      6  C4  UNL d   1      -0.045   0.248   0.709  0.00  0.00    -0.004 A 
ENDROOT
TORSDOF 0
ENDMDL
