MODEL 1
REMARK minimizedAffinity -2.74347639
REMARK minimizedRMSD -1
REMARK  0 active torsions:
REMARK  status: ('A' for Active; 'I' for Inactive)
ROOT
ATOM      1  C   UNL d   1       0.782  -1.384  -0.113  0.00  0.00     0.172 C 
ATOM      2  N   UNL d   1      -0.003  -0.215  -0.432  0.00  0.00    -0.070 N 
ATOM      3  C1  UNL d   1       0.457   0.905  -1.072  0.00  0.00    -0.004 A 
ATOM      4  C2  UNL d   1      -0.596   1.788  -1.186  0.00  0.00    -0.047 A 
ATOM      5  C3  UNL d   1      -1.727   1.178  -0.593  0.00  0.00    -0.047 A 
ATOM      6  C4  UNL d   1      -1.332  -0.061  -0.135  0.00  0.00    -0.004 A 
ENDROOT
TORSDOF 0
ENDMDL
