MODEL 1
REMARK minimizedAffinity -3.49822164
REMARK minimizedRMSD -1
REMARK  0 active torsions:
REMARK  status: ('A' for Active; 'I' for Inactive)
ROOT
ATOM      1  C   UNL d   1       1.560  -2.626  -4.926  0.00  0.00     0.172 C 
ATOM      2  N   UNL d   1       1.631  -1.724  -3.801  0.00  0.00    -0.070 N 
ATOM      3  C1  UNL d   1       1.856  -2.087  -2.500  0.00  0.00    -0.004 A 
ATOM      4  C2  UNL d   1       1.851  -0.941  -1.735  0.00  0.00    -0.047 A 
ATOM      5  C3  UNL d   1       1.613   0.148  -2.606  0.00  0.00    -0.047 A 
ATOM      6  C4  UNL d   1       1.481  -0.365  -3.879  0.00  0.00    -0.004 A 
ENDROOT
TORSDOF 0
ENDMDL
