MODEL 1
REMARK minimizedAffinity 0.395528436
REMARK minimizedRMSD -1
REMARK  0 active torsions:
REMARK  status: ('A' for Active; 'I' for Inactive)
ROOT
ATOM      1  C   UNL d   1       1.437   0.061  -3.712  0.00  0.00     0.172 C 
ATOM      2  N   UNL d   1       1.229  -0.653  -2.474  0.00  0.00    -0.070 N 
ATOM      3  C1  UNL d   1       1.767  -1.872  -2.156  0.00  0.00    -0.004 A 
ATOM      4  C2  UNL d   1       1.331  -2.208  -0.892  0.00  0.00    -0.047 A 
ATOM      5  C3  UNL d   1       0.503  -1.155  -0.435  0.00  0.00    -0.047 A 
ATOM      6  C4  UNL d   1       0.457  -0.206  -1.435  0.00  0.00    -0.004 A 
ENDROOT
TORSDOF 0
ENDMDL
