MODEL 1
REMARK minimizedAffinity -3.0484612
REMARK minimizedRMSD -1
REMARK  0 active torsions:
REMARK  status: ('A' for Active; 'I' for Inactive)
ROOT
ATOM      1  C   UNL d   1      -1.195   0.447  -0.636  0.00  0.00     0.172 C 
ATOM      2  N   UNL d   1      -0.138  -0.522  -0.806  0.00  0.00    -0.070 N 
ATOM      3  C1  UNL d   1      -0.156  -1.812  -0.349  0.00  0.00    -0.004 A 
ATOM      4  C2  UNL d   1       1.034  -2.406  -0.713  0.00  0.00    -0.047 A 
ATOM      5  C3  UNL d   1       1.793  -1.438  -1.413  0.00  0.00    -0.047 A 
ATOM      6  C4  UNL d   1       1.044  -0.281  -1.457  0.00  0.00    -0.004 A 
ENDROOT
TORSDOF 0
ENDMDL
