MODEL 1
REMARK minimizedAffinity -2.6254096
REMARK minimizedRMSD -1
REMARK  0 active torsions:
REMARK  status: ('A' for Active; 'I' for Inactive)
ROOT
ATOM      1  C   UNL d   1       0.072   1.295   0.758  0.00  0.00     0.172 C 
ATOM      2  N   UNL d   1       0.287   0.080   0.008  0.00  0.00    -0.070 N 
ATOM      3  C1  UNL d   1       0.843  -1.072   0.496  0.00  0.00    -0.004 A 
ATOM      4  C2  UNL d   1       0.872  -1.994  -0.528  0.00  0.00    -0.047 A 
ATOM      5  C3  UNL d   1       0.314  -1.374  -1.672  0.00  0.00    -0.047 A 
ATOM      6  C4  UNL d   1      -0.040  -0.091  -1.312  0.00  0.00    -0.004 A 
ENDROOT
TORSDOF 0
ENDMDL
