MODEL 1
REMARK minimizedAffinity -3.2387991
REMARK minimizedRMSD -1
REMARK  0 active torsions:
REMARK  status: ('A' for Active; 'I' for Inactive)
ROOT
ATOM      1  C   UNL d   1       1.881  -1.504  -1.465  0.00  0.00     0.172 C 
ATOM      2  N   UNL d   1       0.778  -0.779  -0.879  0.00  0.00    -0.070 N 
ATOM      3  C1  UNL d   1      -0.223  -1.325  -0.120  0.00  0.00    -0.004 A 
ATOM      4  C2  UNL d   1      -1.077  -0.307   0.247  0.00  0.00    -0.047 A 
ATOM      5  C3  UNL d   1      -0.572   0.891  -0.311  0.00  0.00    -0.047 A 
ATOM      6  C4  UNL d   1       0.576   0.570  -1.004  0.00  0.00    -0.004 A 
ENDROOT
TORSDOF 0
ENDMDL
