MODEL 1
REMARK minimizedAffinity -2.46755362
REMARK minimizedRMSD -1
REMARK  0 active torsions:
REMARK  status: ('A' for Active; 'I' for Inactive)
ROOT
ATOM      1  C   UNL d   1       0.313   1.790   0.344  0.00  0.00     0.172 C 
ATOM      2  N   UNL d   1       0.025   0.387   0.159  0.00  0.00    -0.070 N 
ATOM      3  C1  UNL d   1      -1.191  -0.140  -0.186  0.00  0.00    -0.004 A 
ATOM      4  C2  UNL d   1      -1.052  -1.509  -0.262  0.00  0.00    -0.047 A 
ATOM      5  C3  UNL d   1       0.294  -1.815   0.049  0.00  0.00    -0.047 A 
ATOM      6  C4  UNL d   1       0.938  -0.624   0.306  0.00  0.00    -0.004 A 
ENDROOT
TORSDOF 0
ENDMDL
