MODEL 1
REMARK minimizedAffinity -2.75626993
REMARK minimizedRMSD -1
REMARK  0 active torsions:
REMARK  status: ('A' for Active; 'I' for Inactive)
ROOT
ATOM      1  C   UNL d   1       1.307  -1.476  -1.503  0.00  0.00     0.172 C 
ATOM      2  N   UNL d   1       0.356  -0.404  -1.323  0.00  0.00    -0.070 N 
ATOM      3  C1  UNL d   1       0.418   0.826  -1.920  0.00  0.00    -0.004 A 
ATOM      4  C2  UNL d   1      -0.669   1.558  -1.493  0.00  0.00    -0.047 A 
ATOM      5  C3  UNL d   1      -1.410   0.738  -0.609  0.00  0.00    -0.047 A 
ATOM      6  C4  UNL d   1      -0.753  -0.471  -0.521  0.00  0.00    -0.004 A 
ENDROOT
TORSDOF 0
ENDMDL
