MODEL 1
REMARK minimizedAffinity -2.17493606
REMARK minimizedRMSD -1
REMARK  0 active torsions:
REMARK  status: ('A' for Active; 'I' for Inactive)
ROOT
ATOM      1  C   UNL d   1      -0.550   1.780  -0.826  0.00  0.00     0.172 C 
ATOM      2  N   UNL d   1      -0.509   3.011  -0.073  0.00  0.00    -0.070 N 
ATOM      3  C1  UNL d   1      -0.784   4.259  -0.567  0.00  0.00    -0.004 A 
ATOM      4  C2  UNL d   1      -0.634   5.163   0.462  0.00  0.00    -0.047 A 
ATOM      5  C3  UNL d   1      -0.254   4.434   1.614  0.00  0.00    -0.047 A 
ATOM      6  C4  UNL d   1      -0.184   3.104   1.254  0.00  0.00    -0.004 A 
ENDROOT
TORSDOF 0
ENDMDL
