MODEL 1
REMARK minimizedAffinity -1.78365397
REMARK minimizedRMSD -1
REMARK  0 active torsions:
REMARK  status: ('A' for Active; 'I' for Inactive)
ROOT
ATOM      1  C   UNL d   1       1.327   0.769  -3.825  0.00  0.00     0.172 C 
ATOM      2  N   UNL d   1       1.193   0.038  -2.587  0.00  0.00    -0.070 N 
ATOM      3  C1  UNL d   1       1.847  -1.123  -2.270  0.00  0.00    -0.004 A 
ATOM      4  C2  UNL d   1       1.449  -1.500  -1.006  0.00  0.00    -0.047 A 
ATOM      5  C3  UNL d   1       0.523  -0.533  -0.547  0.00  0.00    -0.047 A 
ATOM      6  C4  UNL d   1       0.383   0.407  -1.546  0.00  0.00    -0.004 A 
ENDROOT
TORSDOF 0
ENDMDL
