MODEL 1
REMARK minimizedAffinity 0.677148283
REMARK minimizedRMSD -1
REMARK  0 active torsions:
REMARK  status: ('A' for Active; 'I' for Inactive)
ROOT
ATOM      1  C   UNL d   1       5.970  -3.278   5.229  0.00  0.00     0.172 C 
ATOM      2  N   UNL d   1       5.982  -2.093   4.403  0.00  0.00    -0.070 N 
ATOM      3  C1  UNL d   1       5.989  -2.075   3.033  0.00  0.00    -0.004 A 
ATOM      4  C2  UNL d   1       5.999  -0.758   2.629  0.00  0.00    -0.047 A 
ATOM      5  C3  UNL d   1       5.999   0.044   3.796  0.00  0.00    -0.047 A 
ATOM      6  C4  UNL d   1       5.989  -0.809   4.879  0.00  0.00    -0.004 A 
ENDROOT
TORSDOF 0
ENDMDL
