MODEL 1
REMARK minimizedAffinity -0.010579084
REMARK minimizedRMSD -1
REMARK  0 active torsions:
REMARK  status: ('A' for Active; 'I' for Inactive)
ROOT
ATOM      1  C   UNL d   1       1.654  -1.770  -1.763  0.00  0.00     0.172 C 
ATOM      2  N   UNL d   1       0.659  -0.899  -1.183  0.00  0.00    -0.070 N 
ATOM      3  C1  UNL d   1      -0.211  -1.237  -0.181  0.00  0.00    -0.004 A 
ATOM      4  C2  UNL d   1      -0.993  -0.134   0.089  0.00  0.00    -0.047 A 
ATOM      5  C3  UNL d   1      -0.580   0.901  -0.783  0.00  0.00    -0.047 A 
ATOM      6  C4  UNL d   1       0.444   0.401  -1.559  0.00  0.00    -0.004 A 
ENDROOT
TORSDOF 0
ENDMDL
