MODEL 1
REMARK minimizedAffinity 2.32470322
REMARK minimizedRMSD -1
REMARK  0 active torsions:
REMARK  status: ('A' for Active; 'I' for Inactive)
ROOT
ATOM      1  C1  BNZ d   1      -2.257  -3.729  -5.996  0.00  0.00     0.000 A 
ATOM      2  C2  BNZ d   1      -2.647  -4.401  -4.868  0.00  0.00     0.000 A 
ATOM      3  C3  BNZ d   1      -2.314  -3.936  -3.626  0.00  0.00     0.000 A 
ATOM      4  C4  BNZ d   1      -1.560  -2.824  -3.515  0.00  0.00     0.000 A 
ATOM      5  C5  BNZ d   1      -1.150  -2.141  -4.642  0.00  0.00     0.000 A 
ATOM      6  C6  BNZ d   1      -1.520  -2.590  -5.889  0.00  0.00     0.000 A 
ENDROOT
TORSDOF 0
ENDMDL
