MODEL 1
REMARK minimizedAffinity 3.09542131
REMARK minimizedRMSD -1
REMARK  0 active torsions:
REMARK  status: ('A' for Active; 'I' for Inactive)
ROOT
ATOM      1  C1  BNZ d   1      -2.978  -4.132  -4.833  0.00  0.00     0.000 A 
ATOM      2  C2  BNZ d   1      -2.487  -3.611  -6.000  0.00  0.00     0.000 A 
ATOM      3  C3  BNZ d   1      -1.445  -2.726  -5.987  0.00  0.00     0.000 A 
ATOM      4  C4  BNZ d   1      -0.923  -2.333  -4.807  0.00  0.00     0.000 A 
ATOM      5  C5  BNZ d   1      -1.413  -2.843  -3.621  0.00  0.00     0.000 A 
ATOM      6  C6  BNZ d   1      -2.436  -3.763  -3.640  0.00  0.00     0.000 A 
ENDROOT
TORSDOF 0
ENDMDL
