MODEL 1
REMARK minimizedAffinity 6.69434357
REMARK minimizedRMSD -1
REMARK  0 active torsions:
REMARK  status: ('A' for Active; 'I' for Inactive)
ROOT
ATOM      1  C1  BNZ d   1      -1.893  -2.215  -3.636  0.00  0.00     0.000 A 
ATOM      2  C2  BNZ d   1      -1.544  -1.791  -4.890  0.00  0.00     0.000 A 
ATOM      3  C3  BNZ d   1      -1.964  -2.470  -6.000  0.00  0.00     0.000 A 
ATOM      4  C4  BNZ d   1      -2.696  -3.593  -5.853  0.00  0.00     0.000 A 
ATOM      5  C5  BNZ d   1      -3.048  -4.038  -4.594  0.00  0.00     0.000 A 
ATOM      6  C6  BNZ d   1      -2.657  -3.330  -3.481  0.00  0.00     0.000 A 
ENDROOT
TORSDOF 0
ENDMDL
