MODEL 1
REMARK minimizedAffinity 0.15601939
REMARK minimizedRMSD -1
REMARK  0 active torsions:
REMARK  status: ('A' for Active; 'I' for Inactive)
ROOT
ATOM      1  C1  BNZ d   1       3.853   2.417  -5.971  0.00  0.00     0.000 A 
ATOM      2  C2  BNZ d   1       3.970   3.781  -5.999  0.00  0.00     0.000 A 
ATOM      3  C3  BNZ d   1       2.861   4.580  -5.992  0.00  0.00     0.000 A 
ATOM      4  C4  BNZ d   1       1.637   4.014  -5.998  0.00  0.00     0.000 A 
ATOM      5  C5  BNZ d   1       1.502   2.640  -5.980  0.00  0.00     0.000 A 
ATOM      6  C6  BNZ d   1       2.620   1.840  -5.947  0.00  0.00     0.000 A 
ENDROOT
TORSDOF 0
ENDMDL
