MODEL 1
REMARK minimizedAffinity 2.14037013
REMARK minimizedRMSD -1
REMARK  0 active torsions:
REMARK  status: ('A' for Active; 'I' for Inactive)
ROOT
ATOM      1  C1  BNZ d   1       0.226  -2.813   0.535  0.00  0.00     0.000 A 
ATOM      2  C2  BNZ d   1       0.114  -2.525  -0.799  0.00  0.00     0.000 A 
ATOM      3  C3  BNZ d   1      -0.976  -1.856  -1.281  0.00  0.00     0.000 A 
ATOM      4  C4  BNZ d   1      -1.969  -1.511  -0.436  0.00  0.00     0.000 A 
ATOM      5  C5  BNZ d   1      -1.875  -1.802   0.910  0.00  0.00     0.000 A 
ATOM      6  C6  BNZ d   1      -0.759  -2.442   1.398  0.00  0.00     0.000 A 
ENDROOT
TORSDOF 0
ENDMDL
