MODEL 1
REMARK minimizedAffinity 5.08315563
REMARK minimizedRMSD -1
REMARK  0 active torsions:
REMARK  status: ('A' for Active; 'I' for Inactive)
ROOT
ATOM      1  C1  BNZ d   1       3.555   1.943  -5.999  0.00  0.00     0.000 A 
ATOM      2  C2  BNZ d   1       4.766   2.583  -5.993  0.00  0.00     0.000 A 
ATOM      3  C3  BNZ d   1       5.933   1.873  -5.976  0.00  0.00     0.000 A 
ATOM      4  C4  BNZ d   1       5.889   0.526  -5.924  0.00  0.00     0.000 A 
ATOM      5  C5  BNZ d   1       4.676  -0.134  -5.921  0.00  0.00     0.000 A 
ATOM      6  C6  BNZ d   1       3.503   0.583  -5.977  0.00  0.00     0.000 A 
ENDROOT
TORSDOF 0
ENDMDL
