MODEL 1
REMARK minimizedAffinity -1.15828562
REMARK minimizedRMSD -1
REMARK  0 active torsions:
REMARK  status: ('A' for Active; 'I' for Inactive)
ROOT
ATOM      1  C1  BNZ d   1       6.000   0.159  -4.883  0.00  0.00     0.000 A 
ATOM      2  C2  BNZ d   1       5.292   0.516  -6.000  0.00  0.00     0.000 A 
ATOM      3  C3  BNZ d   1       4.490   1.623  -5.996  0.00  0.00     0.000 A 
ATOM      4  C4  BNZ d   1       4.365   2.347  -4.865  0.00  0.00     0.000 A 
ATOM      5  C5  BNZ d   1       5.065   1.994  -3.728  0.00  0.00     0.000 A 
ATOM      6  C6  BNZ d   1       5.902   0.902  -3.748  0.00  0.00     0.000 A 
ENDROOT
TORSDOF 0
ENDMDL
