MODEL 1
REMARK minimizedAffinity 6.53746462
REMARK minimizedRMSD -1
REMARK  0 active torsions:
REMARK  status: ('A' for Active; 'I' for Inactive)
ROOT
ATOM      1  C1  BNZ d   1       1.449   5.493  -5.999  0.00  0.00     0.000 A 
ATOM      2  C2  BNZ d   1       1.157   4.155  -5.999  0.00  0.00     0.000 A 
ATOM      3  C3  BNZ d   1       1.726   3.315  -5.084  0.00  0.00     0.000 A 
ATOM      4  C4  BNZ d   1       2.615   3.805  -4.196  0.00  0.00     0.000 A 
ATOM      5  C5  BNZ d   1       2.927   5.150  -4.189  0.00  0.00     0.000 A 
ATOM      6  C6  BNZ d   1       2.323   6.000  -5.088  0.00  0.00     0.000 A 
ENDROOT
TORSDOF 0
ENDMDL
