MODEL 1
REMARK minimizedAffinity -3.4144001
REMARK minimizedRMSD -1
REMARK  0 active torsions:
REMARK  status: ('A' for Active; 'I' for Inactive)
ROOT
ATOM      1  C1  BNZ d   1       3.273   3.396  -5.770  0.00  0.00     0.000 A 
ATOM      2  C2  BNZ d   1       4.533   3.882  -6.000  0.00  0.00     0.000 A 
ATOM      3  C3  BNZ d   1       4.860   5.166  -5.663  0.00  0.00     0.000 A 
ATOM      4  C4  BNZ d   1       3.918   5.973  -5.135  0.00  0.00     0.000 A 
ATOM      5  C5  BNZ d   1       2.641   5.501  -4.905  0.00  0.00     0.000 A 
ATOM      6  C6  BNZ d   1       2.326   4.197  -5.209  0.00  0.00     0.000 A 
ENDROOT
TORSDOF 0
ENDMDL
