MODEL 1
REMARK minimizedAffinity 1.51101089
REMARK minimizedRMSD -1
REMARK  0 active torsions:
REMARK  status: ('A' for Active; 'I' for Inactive)
ROOT
ATOM      1  C1  BNZ d   1       2.268   3.749  -3.638  0.00  0.00     0.000 A 
ATOM      2  C2  BNZ d   1       2.251   5.118  -3.655  0.00  0.00     0.000 A 
ATOM      3  C3  BNZ d   1       2.216   5.803  -4.837  0.00  0.00     0.000 A 
ATOM      4  C4  BNZ d   1       2.241   5.121  -6.000  0.00  0.00     0.000 A 
ATOM      5  C5  BNZ d   1       2.268   3.740  -6.000  0.00  0.00     0.000 A 
ATOM      6  C6  BNZ d   1       2.263   3.053  -4.808  0.00  0.00     0.000 A 
ENDROOT
TORSDOF 0
ENDMDL
