MODEL 1
REMARK minimizedAffinity 5.26476955
REMARK minimizedRMSD -1
REMARK  0 active torsions:
REMARK  status: ('A' for Active; 'I' for Inactive)
ROOT
ATOM      1  C1  BNZ d   1      -1.123  -2.235  -3.963  0.00  0.00     0.000 A 
ATOM      2  C2  BNZ d   1      -1.192  -2.225  -5.331  0.00  0.00     0.000 A 
ATOM      3  C3  BNZ d   1      -2.103  -3.001  -5.992  0.00  0.00     0.000 A 
ATOM      4  C4  BNZ d   1      -2.915  -3.816  -5.287  0.00  0.00     0.000 A 
ATOM      5  C5  BNZ d   1      -2.851  -3.844  -3.908  0.00  0.00     0.000 A 
ATOM      6  C6  BNZ d   1      -1.959  -3.033  -3.245  0.00  0.00     0.000 A 
ENDROOT
TORSDOF 0
ENDMDL
