MODEL 1
REMARK minimizedAffinity -2.25211716
REMARK minimizedRMSD -1
REMARK  0 active torsions:
REMARK  status: ('A' for Active; 'I' for Inactive)
ROOT
ATOM      1  C1  BNZ d   1       3.424   3.745  -5.996  0.00  0.00     0.000 A 
ATOM      2  C2  BNZ d   1       4.178   4.878  -5.845  0.00  0.00     0.000 A 
ATOM      3  C3  BNZ d   1       3.648   6.000  -5.270  0.00  0.00     0.000 A 
ATOM      4  C4  BNZ d   1       2.356   6.000  -4.886  0.00  0.00     0.000 A 
ATOM      5  C5  BNZ d   1       1.580   4.868  -5.040  0.00  0.00     0.000 A 
ATOM      6  C6  BNZ d   1       2.128   3.729  -5.583  0.00  0.00     0.000 A 
ENDROOT
TORSDOF 0
ENDMDL
