MODEL 1
REMARK minimizedAffinity -4.21501541
REMARK minimizedRMSD -1
REMARK  0 active torsions:
REMARK  status: ('A' for Active; 'I' for Inactive)
ROOT
ATOM      1  C1  BNZ d   1       4.183  -0.158   2.439  0.00  0.00     0.000 A 
ATOM      2  C2  BNZ d   1       3.300   0.579   1.695  0.00  0.00     0.000 A 
ATOM      3  C3  BNZ d   1       3.718   1.682   1.005  0.00  0.00     0.000 A 
ATOM      4  C4  BNZ d   1       5.006   2.070   1.091  0.00  0.00     0.000 A 
ATOM      5  C5  BNZ d   1       5.906   1.343   1.845  0.00  0.00     0.000 A 
ATOM      6  C6  BNZ d   1       5.491   0.210   2.507  0.00  0.00     0.000 A 
ENDROOT
TORSDOF 0
ENDMDL
