MODEL 1
REMARK minimizedAffinity -3.00583982
REMARK minimizedRMSD -1
REMARK  0 active torsions:
REMARK  status: ('A' for Active; 'I' for Inactive)
ROOT
ATOM      1  C1  BNZ d   1       4.165   3.612  -6.000  0.00  0.00     0.000 A 
ATOM      2  C2  BNZ d   1       4.486   4.695  -5.226  0.00  0.00     0.000 A 
ATOM      3  C3  BNZ d   1       3.545   5.294  -4.436  0.00  0.00     0.000 A 
ATOM      4  C4  BNZ d   1       2.277   4.836  -4.452  0.00  0.00     0.000 A 
ATOM      5  C5  BNZ d   1       1.935   3.751  -5.235  0.00  0.00     0.000 A 
ATOM      6  C6  BNZ d   1       2.894   3.125  -5.998  0.00  0.00     0.000 A 
ENDROOT
TORSDOF 0
ENDMDL
