MODEL 1
REMARK minimizedAffinity -2.42301464
REMARK minimizedRMSD -1
REMARK  0 active torsions:
REMARK  status: ('A' for Active; 'I' for Inactive)
ROOT
ATOM      1  C1  BNZ d   1       6.000   2.725  -3.770  0.00  0.00     0.000 A 
ATOM      2  C2  BNZ d   1       5.976   3.512  -4.891  0.00  0.00     0.000 A 
ATOM      3  C3  BNZ d   1       5.273   3.129  -5.999  0.00  0.00     0.000 A 
ATOM      4  C4  BNZ d   1       4.629   1.944  -6.000  0.00  0.00     0.000 A 
ATOM      5  C5  BNZ d   1       4.651   1.136  -4.881  0.00  0.00     0.000 A 
ATOM      6  C6  BNZ d   1       5.328   1.542  -3.753  0.00  0.00     0.000 A 
ENDROOT
TORSDOF 0
ENDMDL
