MODEL 1
REMARK minimizedAffinity -4.00341034
REMARK minimizedRMSD -1
REMARK  0 active torsions:
REMARK  status: ('A' for Active; 'I' for Inactive)
ROOT
ATOM      1  C1  BNZ d   1       2.653   1.085   1.613  0.00  0.00     0.000 A 
ATOM      2  C2  BNZ d   1       2.983   2.317   1.112  0.00  0.00     0.000 A 
ATOM      3  C3  BNZ d   1       4.282   2.742   1.101  0.00  0.00     0.000 A 
ATOM      4  C4  BNZ d   1       5.242   1.955   1.627  0.00  0.00     0.000 A 
ATOM      5  C5  BNZ d   1       4.924   0.715   2.144  0.00  0.00     0.000 A 
ATOM      6  C6  BNZ d   1       3.621   0.273   2.118  0.00  0.00     0.000 A 
ENDROOT
TORSDOF 0
ENDMDL
