MODEL 1
REMARK minimizedAffinity -3.22836637
REMARK minimizedRMSD -1
REMARK  0 active torsions:
REMARK  status: ('A' for Active; 'I' for Inactive)
ROOT
ATOM      1  C1  BNZ d   1       5.357   3.147  -4.733  0.00  0.00     0.000 A 
ATOM      2  C2  BNZ d   1       4.166   3.310  -5.390  0.00  0.00     0.000 A 
ATOM      3  C3  BNZ d   1       3.533   2.244  -5.967  0.00  0.00     0.000 A 
ATOM      4  C4  BNZ d   1       4.110   1.026  -5.920  0.00  0.00     0.000 A 
ATOM      5  C5  BNZ d   1       5.314   0.847  -5.268  0.00  0.00     0.000 A 
ATOM      6  C6  BNZ d   1       5.929   1.915  -4.656  0.00  0.00     0.000 A 
ENDROOT
TORSDOF 0
ENDMDL
