MODEL 1
REMARK minimizedAffinity -2.86076951
REMARK minimizedRMSD -1
REMARK  0 active torsions:
REMARK  status: ('A' for Active; 'I' for Inactive)
ROOT
ATOM      1  C1  BNZ d   1       2.737   5.262  -5.323  0.00  0.00     0.000 A 
ATOM      2  C2  BNZ d   1       2.681   3.901  -5.187  0.00  0.00     0.000 A 
ATOM      3  C3  BNZ d   1       3.824   3.151  -5.181  0.00  0.00     0.000 A 
ATOM      4  C4  BNZ d   1       5.016   3.758  -5.350  0.00  0.00     0.000 A 
ATOM      5  C5  BNZ d   1       5.088   5.129  -5.498  0.00  0.00     0.000 A 
ATOM      6  C6  BNZ d   1       3.939   5.884  -5.464  0.00  0.00     0.000 A 
ENDROOT
TORSDOF 0
ENDMDL
