MODEL 1
REMARK minimizedAffinity -2.39031744
REMARK minimizedRMSD -1
REMARK  0 active torsions:
REMARK  status: ('A' for Active; 'I' for Inactive)
ROOT
ATOM      1  C2' OXE d   1      -3.264  -1.228   0.274  0.00  0.00     0.078 C 
ATOM      2  C1' OXE d   1      -1.516  -2.752   1.855  0.00  0.00     0.078 C 
ATOM      3  C1  OXE d   1      -0.946  -1.564   1.121  0.00  0.00    -0.078 A 
ATOM      4  C2  OXE d   1      -1.799  -0.851   0.313  0.00  0.00    -0.078 A 
ATOM      5  C3  OXE d   1      -1.338   0.286  -0.343  0.00  0.00     0.003 A 
ATOM      6  C4  OXE d   1       0.021   0.622  -0.310  0.00  0.00    -0.002 A 
ATOM      7  C5  OXE d   1       0.915  -0.114   0.476  0.00  0.00    -0.002 A 
ATOM      8  C6  OXE d   1       0.440  -1.182   1.229  0.00  0.00     0.003 A 
ENDROOT
TORSDOF 0
ENDMDL
