MODEL 1
REMARK minimizedAffinity -5.71655178
REMARK minimizedRMSD -1
REMARK  0 active torsions:
REMARK  status: ('A' for Active; 'I' for Inactive)
ROOT
ATOM      1  C2' OXE d   1      -0.694   0.807  -1.590  0.00  0.00     0.078 C 
ATOM      2  C1' OXE d   1       1.042  -0.087   0.426  0.00  0.00     0.078 C 
ATOM      3  C1  OXE d   1      -0.323  -0.722   0.341  0.00  0.00    -0.078 A 
ATOM      4  C2  OXE d   1      -1.183  -0.246  -0.619  0.00  0.00    -0.078 A 
ATOM      5  C3  OXE d   1      -2.435  -0.834  -0.776  0.00  0.00     0.003 A 
ATOM      6  C4  OXE d   1      -2.883  -1.801   0.133  0.00  0.00    -0.002 A 
ATOM      7  C5  OXE d   1      -2.037  -2.272   1.142  0.00  0.00    -0.002 A 
ATOM      8  C6  OXE d   1      -0.742  -1.775   1.234  0.00  0.00     0.003 A 
ENDROOT
TORSDOF 0
ENDMDL
