MODEL 1
REMARK minimizedAffinity -2.58993316
REMARK minimizedRMSD -1
REMARK  0 active torsions:
REMARK  status: ('A' for Active; 'I' for Inactive)
ROOT
ATOM      1  C2' OXE d   1       1.245   0.409  -0.024  0.00  0.00     0.078 C 
ATOM      2  C1' OXE d   1       0.180   0.071  -2.599  0.00  0.00     0.078 C 
ATOM      3  C1  OXE d   1      -0.747  -0.117  -1.424  0.00  0.00    -0.078 A 
ATOM      4  C2  OXE d   1      -0.206   0.005  -0.166  0.00  0.00    -0.078 A 
ATOM      5  C3  OXE d   1      -1.029  -0.105   0.951  0.00  0.00     0.003 A 
ATOM      6  C4  OXE d   1      -2.368  -0.489   0.810  0.00  0.00    -0.002 A 
ATOM      7  C5  OXE d   1      -2.929  -0.657  -0.460  0.00  0.00    -0.002 A 
ATOM      8  C6  OXE d   1      -2.144  -0.433  -1.586  0.00  0.00     0.003 A 
ENDROOT
TORSDOF 0
ENDMDL
