MODEL 1
REMARK minimizedAffinity 0.559130967
REMARK minimizedRMSD -1
REMARK  0 active torsions:
REMARK  status: ('A' for Active; 'I' for Inactive)
ROOT
ATOM      1  C2' OXE d   1      -2.230  -1.407  -2.867  0.00  0.00     0.078 C 
ATOM      2  C1' OXE d   1      -0.246   0.300  -1.852  0.00  0.00     0.078 C 
ATOM      3  C1  OXE d   1      -1.128  -0.420  -0.863  0.00  0.00    -0.078 A 
ATOM      4  C2  OXE d   1      -2.127  -1.217  -1.369  0.00  0.00    -0.078 A 
ATOM      5  C3  OXE d   1      -2.933  -1.946  -0.501  0.00  0.00     0.003 A 
ATOM      6  C4  OXE d   1      -2.837  -1.757   0.883  0.00  0.00    -0.002 A 
ATOM      7  C5  OXE d   1      -1.853  -0.919   1.419  0.00  0.00    -0.002 A 
ATOM      8  C6  OXE d   1      -0.965  -0.278   0.563  0.00  0.00     0.003 A 
ENDROOT
TORSDOF 0
ENDMDL
