MODEL 1
REMARK minimizedAffinity -5.60460234
REMARK minimizedRMSD -1
REMARK  0 active torsions:
REMARK  status: ('A' for Active; 'I' for Inactive)
ROOT
ATOM      1  C2' OXE d   1       0.734  -0.494   0.207  0.00  0.00     0.078 C 
ATOM      2  C1' OXE d   1      -0.436  -2.521   1.756  0.00  0.00     0.078 C 
ATOM      3  C1  OXE d   1      -1.334  -1.729   0.839  0.00  0.00    -0.078 A 
ATOM      4  C2  OXE d   1      -0.762  -0.708   0.120  0.00  0.00    -0.078 A 
ATOM      5  C3  OXE d   1      -1.534   0.018  -0.782  0.00  0.00     0.003 A 
ATOM      6  C4  OXE d   1      -2.919  -0.181  -0.849  0.00  0.00    -0.002 A 
ATOM      7  C5  OXE d   1      -3.529  -1.189  -0.095  0.00  0.00    -0.002 A 
ATOM      8  C6  OXE d   1      -2.746  -1.998   0.720  0.00  0.00     0.003 A 
ENDROOT
TORSDOF 0
ENDMDL
