MODEL 1
REMARK minimizedAffinity -3.48377919
REMARK minimizedRMSD -1
REMARK  0 active torsions:
REMARK  status: ('A' for Active; 'I' for Inactive)
ROOT
ATOM      1  C2' OXE d   1      -2.957  -1.399   0.003  0.00  0.00     0.078 C 
ATOM      2  C1' OXE d   1      -0.937  -1.906   1.885  0.00  0.00     0.078 C 
ATOM      3  C1  OXE d   1      -0.621  -0.966   0.750  0.00  0.00    -0.078 A 
ATOM      4  C2  OXE d   1      -1.600  -0.760  -0.192  0.00  0.00    -0.078 A 
ATOM      5  C3  OXE d   1      -1.379   0.141  -1.230  0.00  0.00     0.003 A 
ATOM      6  C4  OXE d   1      -0.117   0.721  -1.409  0.00  0.00    -0.002 A 
ATOM      7  C5  OXE d   1       0.906   0.493  -0.484  0.00  0.00    -0.002 A 
ATOM      8  C6  OXE d   1       0.658  -0.312   0.623  0.00  0.00     0.003 A 
ENDROOT
TORSDOF 0
ENDMDL
