MODEL 1
REMARK minimizedAffinity -3.30801392
REMARK minimizedRMSD -1
REMARK  0 active torsions:
REMARK  status: ('A' for Active; 'I' for Inactive)
ROOT
ATOM      1  C2' OXE d   1      -1.241  -2.004   1.834  0.00  0.00     0.078 C 
ATOM      2  C1' OXE d   1      -2.831  -1.054  -0.276  0.00  0.00     0.078 C 
ATOM      3  C1  OXE d   1      -1.380  -0.647  -0.251  0.00  0.00    -0.078 A 
ATOM      4  C2  OXE d   1      -0.620  -1.078   0.810  0.00  0.00    -0.078 A 
ATOM      5  C3  OXE d   1       0.738  -0.776   0.853  0.00  0.00     0.003 A 
ATOM      6  C4  OXE d   1       1.302   0.090  -0.092  0.00  0.00    -0.002 A 
ATOM      7  C5  OXE d   1       0.537   0.572  -1.159  0.00  0.00    -0.002 A 
ATOM      8  C6  OXE d   1      -0.792   0.180  -1.276  0.00  0.00     0.003 A 
ENDROOT
TORSDOF 0
ENDMDL
