MODEL 1
REMARK minimizedAffinity -1.51446891
REMARK minimizedRMSD -1
REMARK  0 active torsions:
REMARK  status: ('A' for Active; 'I' for Inactive)
ROOT
ATOM      1  C2' OXE d   1      -0.558  -1.072   0.830  0.00  0.00     0.078 C 
ATOM      2  C1' OXE d   1       0.356   0.102  -1.551  0.00  0.00     0.078 C 
ATOM      3  C1  OXE d   1       0.949   0.590  -0.253  0.00  0.00    -0.078 A 
ATOM      4  C2  OXE d   1       0.462   0.043   0.910  0.00  0.00    -0.078 A 
ATOM      5  C3  OXE d   1       1.013   0.418   2.132  0.00  0.00     0.003 A 
ATOM      6  C4  OXE d   1       1.949   1.457   2.198  0.00  0.00    -0.002 A 
ATOM      7  C5  OXE d   1       2.430   2.055   1.029  0.00  0.00    -0.002 A 
ATOM      8  C6  OXE d   1       1.972   1.605  -0.205  0.00  0.00     0.003 A 
ENDROOT
TORSDOF 0
ENDMDL
