MODEL 1
REMARK minimizedAffinity -3.29482937
REMARK minimizedRMSD -1
REMARK  0 active torsions:
REMARK  status: ('A' for Active; 'I' for Inactive)
ROOT
ATOM      1  C2' OXE d   1      -1.763   0.641  -1.607  0.00  0.00     0.078 C 
ATOM      2  C1' OXE d   1       0.499   0.211  -0.002  0.00  0.00     0.078 C 
ATOM      3  C1  OXE d   1      -0.673  -0.724   0.169  0.00  0.00    -0.078 A 
ATOM      4  C2  OXE d   1      -1.793  -0.477  -0.588  0.00  0.00    -0.078 A 
ATOM      5  C3  OXE d   1      -2.882  -1.341  -0.510  0.00  0.00     0.003 A 
ATOM      6  C4  OXE d   1      -2.905  -2.367   0.443  0.00  0.00    -0.002 A 
ATOM      7  C5  OXE d   1      -1.790  -2.611   1.251  0.00  0.00    -0.002 A 
ATOM      8  C6  OXE d   1      -0.652  -1.827   1.097  0.00  0.00     0.003 A 
ENDROOT
TORSDOF 0
ENDMDL
