MODEL 1
REMARK minimizedAffinity -4.82488918
REMARK minimizedRMSD -1
REMARK  0 active torsions:
REMARK  status: ('A' for Active; 'I' for Inactive)
ROOT
ATOM      1  C2' OXE d   1      -2.465  -0.150  -1.184  0.00  0.00     0.078 C 
ATOM      2  C1' OXE d   1      -0.177   0.327   0.372  0.00  0.00     0.078 C 
ATOM      3  C1  OXE d   1      -1.013  -0.884   0.703  0.00  0.00    -0.078 A 
ATOM      4  C2  OXE d   1      -2.155  -1.084  -0.034  0.00  0.00    -0.078 A 
ATOM      5  C3  OXE d   1      -2.933  -2.217   0.193  0.00  0.00     0.003 A 
ATOM      6  C4  OXE d   1      -2.645  -3.070   1.266  0.00  0.00    -0.002 A 
ATOM      7  C5  OXE d   1      -1.508  -2.862   2.053  0.00  0.00    -0.002 A 
ATOM      8  C6  OXE d   1      -0.660  -1.801   1.759  0.00  0.00     0.003 A 
ENDROOT
TORSDOF 0
ENDMDL
