MODEL 1
REMARK minimizedAffinity -3.83775449
REMARK minimizedRMSD -1
REMARK  0 active torsions:
REMARK  status: ('A' for Active; 'I' for Inactive)
ROOT
ATOM      1  C2' OXE d   1      -0.050  -0.130   0.750  0.00  0.00     0.078 C 
ATOM      2  C1' OXE d   1      -0.766  -2.434   2.184  0.00  0.00     0.078 C 
ATOM      3  C1  OXE d   1      -1.639  -2.029   1.024  0.00  0.00    -0.078 A 
ATOM      4  C2  OXE d   1      -1.308  -0.874   0.356  0.00  0.00    -0.078 A 
ATOM      5  C3  OXE d   1      -2.048  -0.484  -0.756  0.00  0.00     0.003 A 
ATOM      6  C4  OXE d   1      -3.216  -1.172  -1.107  0.00  0.00    -0.002 A 
ATOM      7  C5  OXE d   1      -3.594  -2.328  -0.416  0.00  0.00    -0.002 A 
ATOM      8  C6  OXE d   1      -2.795  -2.793   0.623  0.00  0.00     0.003 A 
ENDROOT
TORSDOF 0
ENDMDL
