MODEL 1
REMARK minimizedAffinity -5.86425591
REMARK minimizedRMSD -1
REMARK  0 active torsions:
REMARK  status: ('A' for Active; 'I' for Inactive)
ROOT
ATOM      1  C2' OXE d   1       1.081  -0.852   0.430  0.00  0.00     0.078 C 
ATOM      2  C1' OXE d   1      -0.763   0.462  -1.229  0.00  0.00     0.078 C 
ATOM      3  C1  OXE d   1      -1.280  -0.637  -0.335  0.00  0.00    -0.078 A 
ATOM      4  C2  OXE d   1      -0.363  -1.306   0.440  0.00  0.00    -0.078 A 
ATOM      5  C3  OXE d   1      -0.794  -2.291   1.323  0.00  0.00     0.003 A 
ATOM      6  C4  OXE d   1      -2.130  -2.712   1.318  0.00  0.00    -0.002 A 
ATOM      7  C5  OXE d   1      -3.073  -2.071   0.508  0.00  0.00    -0.002 A 
ATOM      8  C6  OXE d   1      -2.673  -1.005  -0.291  0.00  0.00     0.003 A 
ENDROOT
TORSDOF 0
ENDMDL
