MODEL 1
REMARK minimizedAffinity -6.10824394
REMARK minimizedRMSD -1
REMARK  0 active torsions:
REMARK  status: ('A' for Active; 'I' for Inactive)
ROOT
ATOM      1  C2' OXE d   1      -0.690   0.627  -1.753  0.00  0.00     0.078 C 
ATOM      2  C1' OXE d   1       0.938  -0.060   0.428  0.00  0.00     0.078 C 
ATOM      3  C1  OXE d   1      -0.398  -0.750   0.303  0.00  0.00    -0.078 A 
ATOM      4  C2  OXE d   1      -1.208  -0.373  -0.742  0.00  0.00    -0.078 A 
ATOM      5  C3  OXE d   1      -2.427  -1.017  -0.935  0.00  0.00     0.003 A 
ATOM      6  C4  OXE d   1      -2.902  -1.934   0.010  0.00  0.00    -0.002 A 
ATOM      7  C5  OXE d   1      -2.110  -2.302   1.103  0.00  0.00    -0.002 A 
ATOM      8  C6  OXE d   1      -0.840  -1.752   1.240  0.00  0.00     0.003 A 
ENDROOT
TORSDOF 0
ENDMDL
