MODEL 1
REMARK minimizedAffinity -2.54679179
REMARK minimizedRMSD -1
REMARK  0 active torsions:
REMARK  status: ('A' for Active; 'I' for Inactive)
ROOT
ATOM      1  C2' OXE d   1       1.020   0.749   0.174  0.00  0.00     0.078 C 
ATOM      2  C1' OXE d   1       0.094   0.464  -2.460  0.00  0.00     0.078 C 
ATOM      3  C1  OXE d   1      -0.860   0.134  -1.340  0.00  0.00    -0.078 A 
ATOM      4  C2  OXE d   1      -0.384   0.231  -0.055  0.00  0.00    -0.078 A 
ATOM      5  C3  OXE d   1      -1.238  -0.009   1.017  0.00  0.00     0.003 A 
ATOM      6  C4  OXE d   1      -2.532  -0.497   0.797  0.00  0.00    -0.002 A 
ATOM      7  C5  OXE d   1      -3.024  -0.642  -0.505  0.00  0.00    -0.002 A 
ATOM      8  C6  OXE d   1      -2.217  -0.291  -1.581  0.00  0.00     0.003 A 
ENDROOT
TORSDOF 0
ENDMDL
