MODEL 1
REMARK minimizedAffinity -4.93625402
REMARK minimizedRMSD -1
REMARK  0 active torsions:
REMARK  status: ('A' for Active; 'I' for Inactive)
ROOT
ATOM      1  C2' OXE d   1       0.903   0.066   0.405  0.00  0.00     0.078 C 
ATOM      2  C1' OXE d   1      -1.042   0.688  -1.521  0.00  0.00     0.078 C 
ATOM      3  C1  OXE d   1      -1.350  -0.416  -0.541  0.00  0.00    -0.078 A 
ATOM      4  C2  OXE d   1      -0.374  -0.745   0.368  0.00  0.00    -0.078 A 
ATOM      5  C3  OXE d   1      -0.628  -1.719   1.330  0.00  0.00     0.003 A 
ATOM      6  C4  OXE d   1      -1.808  -2.471   1.282  0.00  0.00    -0.002 A 
ATOM      7  C5  OXE d   1      -2.799  -2.179   0.339  0.00  0.00    -0.002 A 
ATOM      8  C6  OXE d   1      -2.604  -1.128  -0.551  0.00  0.00     0.003 A 
ENDROOT
TORSDOF 0
ENDMDL
