MODEL 1
REMARK minimizedAffinity -6.00232792
REMARK minimizedRMSD -1
REMARK  0 active torsions:
REMARK  status: ('A' for Active; 'I' for Inactive)
ROOT
ATOM      1  C2' OXE d   1       1.123  -1.547   0.967  0.00  0.00     0.078 C 
ATOM      2  C1' OXE d   1      -0.167   0.210  -0.801  0.00  0.00     0.078 C 
ATOM      3  C1  OXE d   1      -0.995  -0.873  -0.157  0.00  0.00    -0.078 A 
ATOM      4  C2  OXE d   1      -0.346  -1.757   0.671  0.00  0.00    -0.078 A 
ATOM      5  C3  OXE d   1      -1.073  -2.742   1.333  0.00  0.00     0.003 A 
ATOM      6  C4  OXE d   1      -2.430  -2.936   1.046  0.00  0.00    -0.002 A 
ATOM      7  C5  OXE d   1      -3.101  -2.071   0.175  0.00  0.00    -0.002 A 
ATOM      8  C6  OXE d   1      -2.410  -1.011  -0.400  0.00  0.00     0.003 A 
ENDROOT
TORSDOF 0
ENDMDL
