MODEL 1
REMARK minimizedAffinity -3.77970576
REMARK minimizedRMSD -1
REMARK  0 active torsions:
REMARK  status: ('A' for Active; 'I' for Inactive)
ROOT
ATOM      1  C2' OXE d   1       0.007   0.823  -2.135  0.00  0.00     0.078 C 
ATOM      2  C1' OXE d   1       1.012   0.044   0.368  0.00  0.00     0.078 C 
ATOM      3  C1  OXE d   1      -0.360  -0.446  -0.023  0.00  0.00    -0.078 A 
ATOM      4  C2  OXE d   1      -0.863  -0.022  -1.229  0.00  0.00    -0.078 A 
ATOM      5  C3  OXE d   1      -2.101  -0.489  -1.663  0.00  0.00     0.003 A 
ATOM      6  C4  OXE d   1      -2.903  -1.262  -0.815  0.00  0.00    -0.002 A 
ATOM      7  C5  OXE d   1      -2.427  -1.672   0.435  0.00  0.00    -0.002 A 
ATOM      8  C6  OXE d   1      -1.143  -1.309   0.827  0.00  0.00     0.003 A 
ENDROOT
TORSDOF 0
ENDMDL
