MODEL 1
REMARK minimizedAffinity -1.49891639
REMARK minimizedRMSD -1
REMARK  0 active torsions:
REMARK  status: ('A' for Active; 'I' for Inactive)
ROOT
ATOM      1  C1  BNZ d   1       0.135   2.987  -5.998  0.00  0.00     0.000 A 
ATOM      2  C2  BNZ d   1      -1.234   2.988  -5.993  0.00  0.00     0.000 A 
ATOM      3  C3  BNZ d   1      -1.933   4.163  -5.999  0.00  0.00     0.000 A 
ATOM      4  C4  BNZ d   1      -1.263   5.333  -5.971  0.00  0.00     0.000 A 
ATOM      5  C5  BNZ d   1       0.117   5.349  -5.967  0.00  0.00     0.000 A 
ATOM      6  C6  BNZ d   1       0.818   4.165  -6.000  0.00  0.00     0.000 A 
ENDROOT
TORSDOF 0
ENDMDL
