MODEL 1
REMARK minimizedAffinity -1.63546443
REMARK minimizedRMSD -1
REMARK  0 active torsions:
REMARK  status: ('A' for Active; 'I' for Inactive)
ROOT
ATOM      1  C1  BNZ d   1      -1.566   2.853  -5.838  0.00  0.00     0.000 A 
ATOM      2  C2  BNZ d   1      -0.372   3.497  -5.651  0.00  0.00     0.000 A 
ATOM      3  C3  BNZ d   1      -0.312   4.862  -5.611  0.00  0.00     0.000 A 
ATOM      4  C4  BNZ d   1      -1.437   5.581  -5.799  0.00  0.00     0.000 A 
ATOM      5  C5  BNZ d   1      -2.647   4.947  -5.999  0.00  0.00     0.000 A 
ATOM      6  C6  BNZ d   1      -2.710   3.572  -5.999  0.00  0.00     0.000 A 
ENDROOT
TORSDOF 0
ENDMDL
