MODEL 1
REMARK minimizedAffinity -2.22118497
REMARK minimizedRMSD -1
REMARK  0 active torsions:
REMARK  status: ('A' for Active; 'I' for Inactive)
ROOT
ATOM      1  C1  BNZ d   1       0.388   3.703  -5.991  0.00  0.00     0.000 A 
ATOM      2  C2  BNZ d   1      -0.940   3.370  -5.996  0.00  0.00     0.000 A 
ATOM      3  C3  BNZ d   1      -1.904   4.340  -6.000  0.00  0.00     0.000 A 
ATOM      4  C4  BNZ d   1      -1.539   5.638  -5.958  0.00  0.00     0.000 A 
ATOM      5  C5  BNZ d   1      -0.204   5.988  -5.943  0.00  0.00     0.000 A 
ATOM      6  C6  BNZ d   1       0.764   5.010  -5.979  0.00  0.00     0.000 A 
ENDROOT
TORSDOF 0
ENDMDL
