MODEL 1
REMARK minimizedAffinity -2.45800352
REMARK minimizedRMSD -1
REMARK  0 active torsions:
REMARK  status: ('A' for Active; 'I' for Inactive)
ROOT
ATOM      1  C1  BNZ d   1      -2.373   5.639  -4.990  0.00  0.00     0.000 A 
ATOM      2  C2  BNZ d   1      -1.446   5.434  -4.003  0.00  0.00     0.000 A 
ATOM      3  C3  BNZ d   1      -0.651   4.321  -4.010  0.00  0.00     0.000 A 
ATOM      4  C4  BNZ d   1      -0.813   3.398  -4.980  0.00  0.00     0.000 A 
ATOM      5  C5  BNZ d   1      -1.750   3.586  -5.976  0.00  0.00     0.000 A 
ATOM      6  C6  BNZ d   1      -2.521   4.726  -5.987  0.00  0.00     0.000 A 
ENDROOT
TORSDOF 0
ENDMDL
