MODEL 1
REMARK minimizedAffinity -2.27043581
REMARK minimizedRMSD -1
REMARK  0 active torsions:
REMARK  status: ('A' for Active; 'I' for Inactive)
ROOT
ATOM      1  C1  BNZ d   1      -3.794   4.074  -5.906  0.00  0.00     0.000 A 
ATOM      2  C2  BNZ d   1      -2.673   3.292  -5.994  0.00  0.00     0.000 A 
ATOM      3  C3  BNZ d   1      -1.427   3.853  -5.999  0.00  0.00     0.000 A 
ATOM      4  C4  BNZ d   1      -1.304   5.195  -5.958  0.00  0.00     0.000 A 
ATOM      5  C5  BNZ d   1      -2.424   5.998  -5.879  0.00  0.00     0.000 A 
ATOM      6  C6  BNZ d   1      -3.676   5.428  -5.834  0.00  0.00     0.000 A 
ENDROOT
TORSDOF 0
ENDMDL
