MODEL 1
REMARK minimizedAffinity -1.8313179
REMARK minimizedRMSD -1
REMARK  0 active torsions:
REMARK  status: ('A' for Active; 'I' for Inactive)
ROOT
ATOM      1  C1  BNZ d   1      -3.747   3.793  -5.971  0.00  0.00     0.000 A 
ATOM      2  C2  BNZ d   1      -3.473   5.135  -5.966  0.00  0.00     0.000 A 
ATOM      3  C3  BNZ d   1      -2.184   5.586  -6.000  0.00  0.00     0.000 A 
ATOM      4  C4  BNZ d   1      -1.170   4.697  -5.999  0.00  0.00     0.000 A 
ATOM      5  C5  BNZ d   1      -1.429   3.341  -5.995  0.00  0.00     0.000 A 
ATOM      6  C6  BNZ d   1      -2.730   2.890  -6.000  0.00  0.00     0.000 A 
ENDROOT
TORSDOF 0
ENDMDL
