MODEL 1
REMARK minimizedAffinity -0.642457485
REMARK minimizedRMSD -1
REMARK  0 active torsions:
REMARK  status: ('A' for Active; 'I' for Inactive)
ROOT
ATOM      1  C1  BNZ d   1       0.367   4.224  -5.994  0.00  0.00     0.000 A 
ATOM      2  C2  BNZ d   1      -0.064   2.924  -5.988  0.00  0.00     0.000 A 
ATOM      3  C3  BNZ d   1      -1.399   2.629  -5.999  0.00  0.00     0.000 A 
ATOM      4  C4  BNZ d   1      -2.300   3.633  -5.975  0.00  0.00     0.000 A 
ATOM      5  C5  BNZ d   1      -1.881   4.948  -5.971  0.00  0.00     0.000 A 
ATOM      6  C6  BNZ d   1      -0.537   5.242  -6.000  0.00  0.00     0.000 A 
ENDROOT
TORSDOF 0
ENDMDL
