MODEL 1
REMARK minimizedAffinity -0.57698369
REMARK minimizedRMSD -1
REMARK  0 active torsions:
REMARK  status: ('A' for Active; 'I' for Inactive)
ROOT
ATOM      1  C1  BNZ d   1      -0.577   2.241   0.393  0.00  0.00     0.000 A 
ATOM      2  C2  BNZ d   1      -1.874   1.806   0.325  0.00  0.00     0.000 A 
ATOM      3  C3  BNZ d   1      -2.202   0.523   0.664  0.00  0.00     0.000 A 
ATOM      4  C4  BNZ d   1      -1.228  -0.334   1.031  0.00  0.00     0.000 A 
ATOM      5  C5  BNZ d   1       0.086   0.086   1.097  0.00  0.00     0.000 A 
ATOM      6  C6  BNZ d   1       0.406   1.389   0.792  0.00  0.00     0.000 A 
ENDROOT
TORSDOF 0
ENDMDL
