MODEL 1
REMARK minimizedAffinity -2.82429814
REMARK minimizedRMSD -1
REMARK  0 active torsions:
REMARK  status: ('A' for Active; 'I' for Inactive)
ROOT
ATOM      1  C1  BNZ d   1       0.083   4.410  -5.939  0.00  0.00     0.000 A 
ATOM      2  C2  BNZ d   1       1.374   4.864  -6.000  0.00  0.00     0.000 A 
ATOM      3  C3  BNZ d   1       2.424   3.989  -5.995  0.00  0.00     0.000 A 
ATOM      4  C4  BNZ d   1       2.185   2.666  -5.890  0.00  0.00     0.000 A 
ATOM      5  C5  BNZ d   1       0.889   2.194  -5.819  0.00  0.00     0.000 A 
ATOM      6  C6  BNZ d   1      -0.167   3.075  -5.863  0.00  0.00     0.000 A 
ENDROOT
TORSDOF 0
ENDMDL
