MODEL 1
REMARK minimizedAffinity -1.49695015
REMARK minimizedRMSD -1
REMARK  0 active torsions:
REMARK  status: ('A' for Active; 'I' for Inactive)
ROOT
ATOM      1  C1  BNZ d   1      -3.011   3.310  -5.951  0.00  0.00     0.000 A 
ATOM      2  C2  BNZ d   1      -1.727   3.783  -5.998  0.00  0.00     0.000 A 
ATOM      3  C3  BNZ d   1      -1.475   5.127  -5.998  0.00  0.00     0.000 A 
ATOM      4  C4  BNZ d   1      -2.508   5.995  -5.992  0.00  0.00     0.000 A 
ATOM      5  C5  BNZ d   1      -3.808   5.534  -5.954  0.00  0.00     0.000 A 
ATOM      6  C6  BNZ d   1      -4.057   4.181  -5.914  0.00  0.00     0.000 A 
ENDROOT
TORSDOF 0
ENDMDL
