MODEL 1
REMARK minimizedAffinity -2.63651848
REMARK minimizedRMSD -1
REMARK  0 active torsions:
REMARK  status: ('A' for Active; 'I' for Inactive)
ROOT
ATOM      1  C1  BNZ d   1      -1.789   5.744  -5.963  0.00  0.00     0.000 A 
ATOM      2  C2  BNZ d   1      -0.688   4.930  -5.963  0.00  0.00     0.000 A 
ATOM      3  C3  BNZ d   1      -0.823   3.570  -6.000  0.00  0.00     0.000 A 
ATOM      4  C4  BNZ d   1      -2.058   3.026  -5.997  0.00  0.00     0.000 A 
ATOM      5  C5  BNZ d   1      -3.177   3.834  -5.987  0.00  0.00     0.000 A 
ATOM      6  C6  BNZ d   1      -3.037   5.203  -5.989  0.00  0.00     0.000 A 
ENDROOT
TORSDOF 0
ENDMDL
