MODEL 1
REMARK minimizedAffinity 0.927197218
REMARK minimizedRMSD -1
REMARK  0 active torsions:
REMARK  status: ('A' for Active; 'I' for Inactive)
ROOT
ATOM      1  C1  BNZ d   1      -0.152   3.519  -5.959  0.00  0.00     0.000 A 
ATOM      2  C2  BNZ d   1      -1.519   3.441  -5.952  0.00  0.00     0.000 A 
ATOM      3  C3  BNZ d   1      -2.285   4.573  -5.992  0.00  0.00     0.000 A 
ATOM      4  C4  BNZ d   1      -1.684   5.780  -6.000  0.00  0.00     0.000 A 
ATOM      5  C5  BNZ d   1      -0.306   5.875  -5.998  0.00  0.00     0.000 A 
ATOM      6  C6  BNZ d   1       0.461   4.733  -5.997  0.00  0.00     0.000 A 
ENDROOT
TORSDOF 0
ENDMDL
