MODEL 1
REMARK minimizedAffinity -0.0163714886
REMARK minimizedRMSD -1
REMARK  0 active torsions:
REMARK  status: ('A' for Active; 'I' for Inactive)
ROOT
ATOM      1  C1  BNZ d   1      -1.718   3.377  -5.998  0.00  0.00     0.000 A 
ATOM      2  C2  BNZ d   1      -0.355   3.508  -5.998  0.00  0.00     0.000 A 
ATOM      3  C3  BNZ d   1       0.261   4.424  -5.191  0.00  0.00     0.000 A 
ATOM      4  C4  BNZ d   1      -0.489   5.234  -4.416  0.00  0.00     0.000 A 
ATOM      5  C5  BNZ d   1      -1.865   5.121  -4.412  0.00  0.00     0.000 A 
ATOM      6  C6  BNZ d   1      -2.478   4.171  -5.196  0.00  0.00     0.000 A 
ENDROOT
TORSDOF 0
ENDMDL
