MODEL 1
REMARK minimizedAffinity -2.2758863
REMARK minimizedRMSD -1
REMARK  0 active torsions:
REMARK  status: ('A' for Active; 'I' for Inactive)
ROOT
ATOM      1  C1  BNZ d   1       0.003   4.786  -5.960  0.00  0.00     0.000 A 
ATOM      2  C2  BNZ d   1       0.154   3.424  -5.960  0.00  0.00     0.000 A 
ATOM      3  C3  BNZ d   1      -0.936   2.600  -6.000  0.00  0.00     0.000 A 
ATOM      4  C4  BNZ d   1      -2.173   3.135  -6.000  0.00  0.00     0.000 A 
ATOM      5  C5  BNZ d   1      -2.342   4.506  -5.991  0.00  0.00     0.000 A 
ATOM      6  C6  BNZ d   1      -1.242   5.333  -5.990  0.00  0.00     0.000 A 
ENDROOT
TORSDOF 0
ENDMDL
