MODEL 1
REMARK minimizedAffinity -2.1339848
REMARK minimizedRMSD -1
REMARK  0 active torsions:
REMARK  status: ('A' for Active; 'I' for Inactive)
ROOT
ATOM      1  C1  BNZ d   1      -2.162   4.301  -5.991  0.00  0.00     0.000 A 
ATOM      2  C2  BNZ d   1      -2.163   2.932  -5.999  0.00  0.00     0.000 A 
ATOM      3  C3  BNZ d   1      -0.990   2.231  -5.981  0.00  0.00     0.000 A 
ATOM      4  C4  BNZ d   1       0.182   2.898  -5.996  0.00  0.00     0.000 A 
ATOM      5  C5  BNZ d   1       0.200   4.279  -5.997  0.00  0.00     0.000 A 
ATOM      6  C6  BNZ d   1      -0.983   4.982  -5.976  0.00  0.00     0.000 A 
ENDROOT
TORSDOF 0
ENDMDL
