MODEL 1
REMARK minimizedAffinity -2.63386083
REMARK minimizedRMSD -1
REMARK  0 active torsions:
REMARK  status: ('A' for Active; 'I' for Inactive)
ROOT
ATOM      1  C1  BNZ d   1      -0.778   2.871  -5.981  0.00  0.00     0.000 A 
ATOM      2  C2  BNZ d   1       0.009   3.992  -5.993  0.00  0.00     0.000 A 
ATOM      3  C3  BNZ d   1      -0.550   5.239  -5.982  0.00  0.00     0.000 A 
ATOM      4  C4  BNZ d   1      -1.893   5.364  -6.000  0.00  0.00     0.000 A 
ATOM      5  C5  BNZ d   1      -2.699   4.244  -5.997  0.00  0.00     0.000 A 
ATOM      6  C6  BNZ d   1      -2.133   2.990  -5.969  0.00  0.00     0.000 A 
ENDROOT
TORSDOF 0
ENDMDL
