MODEL 1
REMARK minimizedAffinity -3.33989072
REMARK minimizedRMSD -1
REMARK  1 active torsions:
REMARK  status: ('A' for Active; 'I' for Inactive)
REMARK    1  A    between atoms: C1_2  and  C2_3 
ROOT
ATOM      1  C2  UNL d   1      -0.567   0.964  -0.188  0.00  0.00    -0.073 A 
ATOM      2  C3  UNL d   1       0.110   1.969  -0.888  0.00  0.00    -0.002 A 
ATOM      3  C4  UNL d   1       1.295   1.681  -1.566  0.00  0.00     0.004 A 
ATOM      4  C5  UNL d   1       1.812   0.385  -1.557  0.00  0.00    -0.004 A 
ATOM      5  C6  UNL d   1       1.143  -0.636  -0.873  0.00  0.00    -0.075 A 
ATOM      6  C7  UNL d   1       1.687  -2.035  -0.852  0.00  0.00     0.076 C 
ATOM      7  C8  UNL d   1      -0.045  -0.338  -0.193  0.00  0.00     0.001 A 
ENDROOT
BRANCH   1   8
ATOM      8  C1  UNL d   1      -1.851   1.269   0.539  0.00  0.00     0.053 C 
ATOM      9  C   UNL d   1      -1.599   1.768   1.953  0.00  0.00     0.018 C 
ENDBRANCH   1   8
TORSDOF 1
ENDMDL
