MODEL 1
REMARK minimizedAffinity -1.13186312
REMARK minimizedRMSD -1
REMARK  1 active torsions:
REMARK  status: ('A' for Active; 'I' for Inactive)
REMARK    1  A    between atoms: C1_2  and  C2_3 
ROOT
ATOM      1  C2  UNL d   1       0.069  -0.163  -0.318  0.00  0.00    -0.073 A 
ATOM      2  C3  UNL d   1       0.726   0.669  -1.232  0.00  0.00    -0.002 A 
ATOM      3  C4  UNL d   1       0.602   2.056  -1.137  0.00  0.00     0.004 A 
ATOM      4  C5  UNL d   1      -0.173   2.625  -0.127  0.00  0.00    -0.004 A 
ATOM      5  C6  UNL d   1      -0.828   1.810   0.803  0.00  0.00    -0.075 A 
ATOM      6  C7  UNL d   1      -1.667   2.406   1.895  0.00  0.00     0.076 C 
ATOM      7  C8  UNL d   1      -0.701   0.418   0.700  0.00  0.00     0.001 A 
ENDROOT
BRANCH   1   8
ATOM      8  C1  UNL d   1       0.205  -1.661  -0.412  0.00  0.00     0.053 C 
ATOM      9  C   UNL d   1       0.939  -2.088  -1.673  0.00  0.00     0.018 C 
ENDBRANCH   1   8
TORSDOF 1
ENDMDL
