MODEL 1
REMARK minimizedAffinity -0.525550187
REMARK minimizedRMSD -1
REMARK  1 active torsions:
REMARK  status: ('A' for Active; 'I' for Inactive)
REMARK    1  A    between atoms: C1_2  and  C2_3 
ROOT
ATOM      1  C2  UNL d   1       0.075   0.085   2.168  0.00  0.00    -0.073 A 
ATOM      2  C3  UNL d   1       0.582  -0.398   0.956  0.00  0.00    -0.002 A 
ATOM      3  C4  UNL d   1       0.043   0.034  -0.256  0.00  0.00     0.004 A 
ATOM      4  C5  UNL d   1      -1.003   0.957  -0.270  0.00  0.00    -0.004 A 
ATOM      5  C6  UNL d   1      -1.516   1.461   0.930  0.00  0.00    -0.075 A 
ATOM      6  C7  UNL d   1      -2.642   2.452   0.932  0.00  0.00     0.076 C 
ATOM      7  C8  UNL d   1      -0.971   1.020   2.143  0.00  0.00     0.001 A 
ENDROOT
BRANCH   1   8
ATOM      8  C1  UNL d   1       0.658  -0.373   3.479  0.00  0.00     0.053 C 
ATOM      9  C   UNL d   1      -0.226  -1.401   4.168  0.00  0.00     0.018 C 
ENDBRANCH   1   8
TORSDOF 1
ENDMDL
