MODEL 1
REMARK minimizedAffinity -2.58245611
REMARK minimizedRMSD -1
REMARK  1 active torsions:
REMARK  status: ('A' for Active; 'I' for Inactive)
REMARK    1  A    between atoms: C1_2  and  C2_3 
ROOT
ATOM      1  C2  UNL d   1       0.614  -0.660  -0.735  0.00  0.00    -0.073 A 
ATOM      2  C3  UNL d   1       1.171   0.260  -1.631  0.00  0.00    -0.002 A 
ATOM      3  C4  UNL d   1       0.846   1.614  -1.543  0.00  0.00     0.004 A 
ATOM      4  C5  UNL d   1      -0.032   2.063  -0.557  0.00  0.00    -0.004 A 
ATOM      5  C6  UNL d   1      -0.590   1.161   0.355  0.00  0.00    -0.075 A 
ATOM      6  C7  UNL d   1      -1.537   1.628   1.421  0.00  0.00     0.076 C 
ATOM      7  C8  UNL d   1      -0.261  -0.198   0.259  0.00  0.00     0.001 A 
ENDROOT
BRANCH   1   8
ATOM      8  C1  UNL d   1       0.967  -2.122  -0.822  0.00  0.00     0.053 C 
ATOM      9  C   UNL d   1       0.535  -2.735  -2.144  0.00  0.00     0.018 C 
ENDBRANCH   1   8
TORSDOF 1
ENDMDL
