MODEL 1
REMARK minimizedAffinity -3.43274832
REMARK minimizedRMSD -1
REMARK  1 active torsions:
REMARK  status: ('A' for Active; 'I' for Inactive)
REMARK    1  A    between atoms: C1_2  and  C2_3 
ROOT
ATOM      1  C2  UNL d   1       0.315  -0.236  -0.331  0.00  0.00    -0.073 A 
ATOM      2  C3  UNL d   1       0.727   0.587  -1.386  0.00  0.00    -0.002 A 
ATOM      3  C4  UNL d   1       0.172   1.856  -1.547  0.00  0.00     0.004 A 
ATOM      4  C5  UNL d   1      -0.795   2.319  -0.654  0.00  0.00    -0.004 A 
ATOM      5  C6  UNL d   1      -1.211   1.516   0.413  0.00  0.00    -0.075 A 
ATOM      6  C7  UNL d   1      -2.251   1.997   1.382  0.00  0.00     0.076 C 
ATOM      7  C8  UNL d   1      -0.650   0.241   0.567  0.00  0.00     0.001 A 
ENDROOT
BRANCH   1   8
ATOM      8  C1  UNL d   1       0.917  -1.606  -0.149  0.00  0.00     0.053 C 
ATOM      9  C   UNL d   1       0.846  -2.434  -1.423  0.00  0.00     0.018 C 
ENDBRANCH   1   8
TORSDOF 1
ENDMDL
