MODEL 1
REMARK minimizedAffinity -4.41974878
REMARK minimizedRMSD -1
REMARK  1 active torsions:
REMARK  status: ('A' for Active; 'I' for Inactive)
REMARK    1  A    between atoms: C1_2  and  C2_3 
ROOT
ATOM      1  C2  UNL d   1       0.073  -0.334   0.259  0.00  0.00    -0.073 A 
ATOM      2  C3  UNL d   1       0.478  -0.662   1.557  0.00  0.00    -0.002 A 
ATOM      3  C4  UNL d   1      -0.016   0.050   2.651  0.00  0.00     0.004 A 
ATOM      4  C5  UNL d   1      -0.924   1.091   2.458  0.00  0.00    -0.004 A 
ATOM      5  C6  UNL d   1      -1.349   1.427   1.169  0.00  0.00    -0.075 A 
ATOM      6  C7  UNL d   1      -2.323   2.546   0.945  0.00  0.00     0.076 C 
ATOM      7  C8  UNL d   1      -0.846   0.709   0.076  0.00  0.00     0.001 A 
ENDROOT
BRANCH   1   8
ATOM      8  C1  UNL d   1       0.600  -1.104  -0.925  0.00  0.00     0.053 C 
ATOM      9  C   UNL d   1      -0.302  -2.272  -1.291  0.00  0.00     0.018 C 
ENDBRANCH   1   8
TORSDOF 1
ENDMDL
