MODEL 1
REMARK minimizedAffinity 10.1018152
REMARK minimizedRMSD -1
REMARK  0 active torsions:
REMARK  status: ('A' for Active; 'I' for Inactive)
ROOT
ATOM      1  C1  DEN d   1      -3.850  -2.362  -4.404  0.00  0.00     0.130 A 
ATOM      2  C2  DEN d   1      -4.978  -1.494  -4.734  0.00  0.00    -0.031 A 
ATOM      3  C3  DEN d   1      -5.999  -2.313  -5.417  0.00  0.00     0.027 A 
ATOM      4  C4  DEN d   1      -5.947  -4.828  -5.987  0.00  0.00     0.027 A 
ATOM      5  C5  DEN d   1      -5.195  -5.980  -5.916  0.00  0.00    -0.003 A 
ATOM      6  C6  DEN d   1      -3.939  -5.999  -5.371  0.00  0.00     0.001 A 
ATOM      7  C7  DEN d   1      -3.414  -4.853  -4.834  0.00  0.00     0.017 A 
ATOM      8  C8  DEN d   1      -4.163  -3.686  -4.909  0.00  0.00    -0.094 A 
ATOM      9  C9  DEN d   1      -5.436  -3.690  -5.453  0.00  0.00    -0.072 A 
ENDROOT
TORSDOF 0
ENDMDL
