MODEL 1
REMARK minimizedAffinity 12.7119932
REMARK minimizedRMSD -1
REMARK  0 active torsions:
REMARK  status: ('A' for Active; 'I' for Inactive)
ROOT
ATOM      1  C1  DEN d   1       3.445   1.732  -3.899  0.00  0.00     0.130 A 
ATOM      2  C2  DEN d   1       3.584   2.741  -4.945  0.00  0.00    -0.031 A 
ATOM      3  C3  DEN d   1       4.531   2.226  -5.954  0.00  0.00     0.027 A 
ATOM      4  C4  DEN d   1       5.787  -0.026  -6.000  0.00  0.00     0.027 A 
ATOM      5  C5  DEN d   1       6.000  -1.207  -5.323  0.00  0.00    -0.003 A 
ATOM      6  C6  DEN d   1       5.408  -1.474  -4.117  0.00  0.00     0.001 A 
ATOM      7  C7  DEN d   1       4.537  -0.567  -3.572  0.00  0.00     0.017 A 
ATOM      8  C8  DEN d   1       4.323   0.629  -4.245  0.00  0.00    -0.094 A 
ATOM      9  C9  DEN d   1       4.922   0.875  -5.469  0.00  0.00    -0.072 A 
ENDROOT
TORSDOF 0
ENDMDL
