MODEL 1
REMARK minimizedAffinity 12.1752577
REMARK minimizedRMSD -1
REMARK  0 active torsions:
REMARK  status: ('A' for Active; 'I' for Inactive)
ROOT
ATOM      1  C1  DEN d   1       4.631  -1.627  -3.307  0.00  0.00     0.130 A 
ATOM      2  C2  DEN d   1       3.405  -1.259  -2.605  0.00  0.00    -0.031 A 
ATOM      3  C3  DEN d   1       2.921   0.017  -3.170  0.00  0.00     0.027 A 
ATOM      4  C4  DEN d   1       3.944   1.447  -5.057  0.00  0.00     0.027 A 
ATOM      5  C5  DEN d   1       4.988   1.548  -5.949  0.00  0.00    -0.003 A 
ATOM      6  C6  DEN d   1       5.997   0.623  -5.999  0.00  0.00     0.001 A 
ATOM      7  C7  DEN d   1       5.959  -0.469  -5.172  0.00  0.00     0.017 A 
ATOM      8  C8  DEN d   1       4.912  -0.573  -4.265  0.00  0.00    -0.094 A 
ATOM      9  C9  DEN d   1       3.896   0.366  -4.238  0.00  0.00    -0.072 A 
ENDROOT
TORSDOF 0
ENDMDL
