MODEL 1
REMARK minimizedAffinity 6.32299376
REMARK minimizedRMSD -1
REMARK  0 active torsions:
REMARK  status: ('A' for Active; 'I' for Inactive)
ROOT
ATOM      1  C1  DEN d   1       4.925  -1.521  -2.134  0.00  0.00     0.130 A 
ATOM      2  C2  DEN d   1       3.832  -0.739  -1.561  0.00  0.00    -0.031 A 
ATOM      3  C3  DEN d   1       3.316   0.162  -2.611  0.00  0.00     0.027 A 
ATOM      4  C4  DEN d   1       4.096   0.419  -5.056  0.00  0.00     0.027 A 
ATOM      5  C5  DEN d   1       4.999  -0.022  -5.998  0.00  0.00    -0.003 A 
ATOM      6  C6  DEN d   1       5.954  -0.961  -5.712  0.00  0.00     0.001 A 
ATOM      7  C7  DEN d   1       6.000  -1.523  -4.463  0.00  0.00     0.017 A 
ATOM      8  C8  DEN d   1       5.098  -1.078  -3.505  0.00  0.00    -0.094 A 
ATOM      9  C9  DEN d   1       4.132  -0.137  -3.818  0.00  0.00    -0.072 A 
ENDROOT
TORSDOF 0
ENDMDL
