MODEL 1
REMARK minimizedAffinity 12.317873
REMARK minimizedRMSD -1
REMARK  0 active torsions:
REMARK  status: ('A' for Active; 'I' for Inactive)
ROOT
ATOM      1  C1  DEN d   1       3.140  -2.027   1.900  0.00  0.00     0.130 A 
ATOM      2  C2  DEN d   1       1.703  -2.018   2.159  0.00  0.00    -0.031 A 
ATOM      3  C3  DEN d   1       1.444  -2.880   3.329  0.00  0.00     0.027 A 
ATOM      4  C4  DEN d   1       3.121  -4.217   4.762  0.00  0.00     0.027 A 
ATOM      5  C5  DEN d   1       4.449  -4.546   4.922  0.00  0.00    -0.003 A 
ATOM      6  C6  DEN d   1       5.421  -4.089   4.072  0.00  0.00     0.001 A 
ATOM      7  C7  DEN d   1       5.086  -3.240   3.050  0.00  0.00     0.017 A 
ATOM      8  C8  DEN d   1       3.748  -2.911   2.878  0.00  0.00    -0.094 A 
ATOM      9  C9  DEN d   1       2.781  -3.373   3.755  0.00  0.00    -0.072 A 
ENDROOT
TORSDOF 0
ENDMDL
