MODEL 1
REMARK minimizedAffinity 1.41716111
REMARK minimizedRMSD -1
REMARK  0 active torsions:
REMARK  status: ('A' for Active; 'I' for Inactive)
ROOT
ATOM      1  C1  DEN d   1       4.141  -2.661  -3.902  0.00  0.00     0.130 A 
ATOM      2  C2  DEN d   1       2.977  -2.595  -3.023  0.00  0.00    -0.031 A 
ATOM      3  C3  DEN d   1       2.361  -1.262  -3.180  0.00  0.00     0.027 A 
ATOM      4  C4  DEN d   1       3.090   0.694  -4.695  0.00  0.00     0.027 A 
ATOM      5  C5  DEN d   1       4.026   1.113  -5.614  0.00  0.00    -0.003 A 
ATOM      6  C6  DEN d   1       5.077   0.323  -5.998  0.00  0.00     0.001 A 
ATOM      7  C7  DEN d   1       5.192  -0.945  -5.495  0.00  0.00     0.017 A 
ATOM      8  C8  DEN d   1       4.256  -1.373  -4.562  0.00  0.00    -0.094 A 
ATOM      9  C9  DEN d   1       3.194  -0.563  -4.196  0.00  0.00    -0.072 A 
ENDROOT
TORSDOF 0
ENDMDL
