MODEL 1
REMARK minimizedAffinity 2.25015354
REMARK minimizedRMSD -1
REMARK  0 active torsions:
REMARK  status: ('A' for Active; 'I' for Inactive)
ROOT
ATOM      1  C1  DEN d   1       3.086  -1.484  -3.103  0.00  0.00     0.130 A 
ATOM      2  C2  DEN d   1       3.598  -2.747  -2.580  0.00  0.00    -0.031 A 
ATOM      3  C3  DEN d   1       4.832  -3.081  -3.318  0.00  0.00     0.027 A 
ATOM      4  C4  DEN d   1       5.998  -1.768  -5.207  0.00  0.00     0.027 A 
ATOM      5  C5  DEN d   1       5.931  -0.643  -5.999  0.00  0.00    -0.003 A 
ATOM      6  C6  DEN d   1       4.902   0.256  -5.906  0.00  0.00     0.001 A 
ATOM      7  C7  DEN d   1       3.920   0.068  -4.969  0.00  0.00     0.017 A 
ATOM      8  C8  DEN d   1       3.977  -1.067  -4.172  0.00  0.00    -0.094 A 
ATOM      9  C9  DEN d   1       5.032  -1.958  -4.273  0.00  0.00    -0.072 A 
ENDROOT
TORSDOF 0
ENDMDL
