MODEL 1
REMARK minimizedAffinity 2.99489999
REMARK minimizedRMSD -1
REMARK  0 active torsions:
REMARK  status: ('A' for Active; 'I' for Inactive)
ROOT
ATOM      1  C   UNL d   1       1.650   0.405   2.353  0.00  0.00     0.124 A 
ATOM      2  C1  UNL d   1       2.351  -0.440   1.504  0.00  0.00     0.062 A 
ATOM      3  C2  UNL d   1       1.944  -0.600   0.183  0.00  0.00     0.162 A 
ATOM      4  C3  UNL d   1       0.829   0.087  -0.298  0.00  0.00    -0.034 A 
ATOM      5  C4  UNL d   1       0.128   0.934   0.563  0.00  0.00     0.162 A 
ATOM      6  C5  UNL d   1       0.540   1.091   1.882  0.00  0.00     0.062 A 
ATOM      7  F   UNL d   1      -0.139   1.907   2.701  0.00  0.00    -0.097 F 
ATOM      8  F1  UNL d   1      -0.948   1.610   0.133  0.00  0.00    -0.096 F 
ATOM      9  I   UNL d   1       0.217  -0.149  -2.273  0.00  0.00    -0.060 I 
ATOM     10  F2  UNL d   1       2.641  -1.422  -0.616  0.00  0.00    -0.096 F 
ATOM     11  F3  UNL d   1       3.424  -1.104   1.957  0.00  0.00    -0.097 F 
ATOM     12  F4  UNL d   1       2.044   0.556   3.624  0.00  0.00    -0.092 F 
ENDROOT
TORSDOF 0
ENDMDL
