MODEL 1
REMARK minimizedAffinity 0.449619681
REMARK minimizedRMSD -1
REMARK  0 active torsions:
REMARK  status: ('A' for Active; 'I' for Inactive)
ROOT
ATOM      1  C   UNL d   1      -0.340   1.046   3.276  0.00  0.00     0.124 A 
ATOM      2  C1  UNL d   1      -1.334   0.782   2.344  0.00  0.00     0.062 A 
ATOM      3  C2  UNL d   1      -0.996   0.458   1.033  0.00  0.00     0.162 A 
ATOM      4  C3  UNL d   1       0.343   0.396   0.647  0.00  0.00    -0.034 A 
ATOM      5  C4  UNL d   1       1.337   0.663   1.589  0.00  0.00     0.162 A 
ATOM      6  C5  UNL d   1       0.994   0.987   2.898  0.00  0.00     0.062 A 
ATOM      7  F   UNL d   1       1.956   1.242   3.797  0.00  0.00    -0.097 F 
ATOM      8  F1  UNL d   1       2.634   0.612   1.251  0.00  0.00    -0.096 F 
ATOM      9  I   UNL d   1       0.852  -0.088  -1.312  0.00  0.00    -0.060 I 
ATOM     10  F2  UNL d   1      -1.977   0.208   0.154  0.00  0.00    -0.096 F 
ATOM     11  F3  UNL d   1      -2.624   0.839   2.707  0.00  0.00    -0.097 F 
ATOM     12  F4  UNL d   1      -0.668   1.358   4.537  0.00  0.00    -0.092 F 
ENDROOT
TORSDOF 0
ENDMDL
