MODEL 1
REMARK minimizedAffinity 4.3170495
REMARK minimizedRMSD -1
REMARK  0 active torsions:
REMARK  status: ('A' for Active; 'I' for Inactive)
ROOT
ATOM      1  C   UNL d   1       0.440   1.059   2.529  0.00  0.00     0.124 A 
ATOM      2  C1  UNL d   1      -0.749   1.363   1.880  0.00  0.00     0.062 A 
ATOM      3  C2  UNL d   1      -1.066   0.745   0.674  0.00  0.00     0.162 A 
ATOM      4  C3  UNL d   1      -0.194  -0.186   0.109  0.00  0.00    -0.034 A 
ATOM      5  C4  UNL d   1       1.000  -0.486   0.768  0.00  0.00     0.162 A 
ATOM      6  C5  UNL d   1       1.313   0.135   1.973  0.00  0.00     0.062 A 
ATOM      7  F   UNL d   1       2.462  -0.160   2.598  0.00  0.00    -0.097 F 
ATOM      8  F1  UNL d   1       1.862  -1.376   0.253  0.00  0.00    -0.096 F 
ATOM      9  I   UNL d   1      -0.664  -1.113  -1.693  0.00  0.00    -0.060 I 
ATOM     10  F2  UNL d   1      -2.222   1.058   0.069  0.00  0.00    -0.096 F 
ATOM     11  F3  UNL d   1      -1.594   2.256   2.415  0.00  0.00    -0.097 F 
ATOM     12  F4  UNL d   1       0.743   1.656   3.688  0.00  0.00    -0.092 F 
ENDROOT
TORSDOF 0
ENDMDL
