MODEL 1
REMARK minimizedAffinity -2.51521659
REMARK minimizedRMSD -1
REMARK  0 active torsions:
REMARK  status: ('A' for Active; 'I' for Inactive)
ROOT
ATOM      1  C   UNL d   1       1.003  -0.463   1.067  0.00  0.00     0.124 A 
ATOM      2  C1  UNL d   1      -0.207   0.085   0.664  0.00  0.00     0.062 A 
ATOM      3  C2  UNL d   1      -0.514   0.185  -0.690  0.00  0.00     0.162 A 
ATOM      4  C3  UNL d   1       0.390  -0.266  -1.652  0.00  0.00    -0.034 A 
ATOM      5  C4  UNL d   1       1.605  -0.816  -1.239  0.00  0.00     0.162 A 
ATOM      6  C5  UNL d   1       1.908  -0.913   0.115  0.00  0.00     0.062 A 
ATOM      7  F   UNL d   1       3.077  -1.443   0.503  0.00  0.00    -0.097 F 
ATOM      8  F1  UNL d   1       2.497  -1.259  -2.137  0.00  0.00    -0.096 F 
ATOM      9  I   UNL d   1      -0.066  -0.119  -3.677  0.00  0.00    -0.060 I 
ATOM     10  F2  UNL d   1      -1.690   0.719  -1.050  0.00  0.00    -0.096 F 
ATOM     11  F3  UNL d   1      -1.082   0.521   1.582  0.00  0.00    -0.097 F 
ATOM     12  F4  UNL d   1       1.297  -0.557   2.370  0.00  0.00    -0.092 F 
ENDROOT
TORSDOF 0
ENDMDL
