MODEL 1
REMARK minimizedAffinity 3.14773488
REMARK minimizedRMSD -1
REMARK  0 active torsions:
REMARK  status: ('A' for Active; 'I' for Inactive)
ROOT
ATOM      1  C   UNL d   1       2.350   0.182  -3.677  0.00  0.00     0.124 A 
ATOM      2  C1  UNL d   1       2.954  -0.320  -2.532  0.00  0.00     0.062 A 
ATOM      3  C2  UNL d   1       2.262  -0.333  -1.325  0.00  0.00     0.162 A 
ATOM      4  C3  UNL d   1       0.957   0.156  -1.256  0.00  0.00    -0.034 A 
ATOM      5  C4  UNL d   1       0.357   0.659  -2.412  0.00  0.00     0.162 A 
ATOM      6  C5  UNL d   1       1.053   0.671  -3.616  0.00  0.00     0.062 A 
ATOM      7  F   UNL d   1       0.468   1.155  -4.721  0.00  0.00    -0.097 F 
ATOM      8  F1  UNL d   1      -0.896   1.137  -2.381  0.00  0.00    -0.096 F 
ATOM      9  I   UNL d   1      -0.081   0.137   0.548  0.00  0.00    -0.060 I 
ATOM     10  F2  UNL d   1       2.870  -0.823  -0.234  0.00  0.00    -0.096 F 
ATOM     11  F3  UNL d   1       4.208  -0.792  -2.589  0.00  0.00    -0.097 F 
ATOM     12  F4  UNL d   1       3.019   0.195  -4.838  0.00  0.00    -0.092 F 
ENDROOT
TORSDOF 0
ENDMDL
