MODEL 1
REMARK minimizedAffinity -1.50303614
REMARK minimizedRMSD -1
REMARK  0 active torsions:
REMARK  status: ('A' for Active; 'I' for Inactive)
ROOT
ATOM      1  C   UNL d   1      -0.275  -0.365  -4.711  0.00  0.00     0.124 A 
ATOM      2  C1  UNL d   1      -1.009  -1.082  -3.777  0.00  0.00     0.062 A 
ATOM      3  C2  UNL d   1      -0.629  -1.080  -2.438  0.00  0.00     0.162 A 
ATOM      4  C3  UNL d   1       0.490  -0.358  -2.025  0.00  0.00    -0.034 A 
ATOM      5  C4  UNL d   1       1.224   0.360  -2.971  0.00  0.00     0.162 A 
ATOM      6  C5  UNL d   1       0.841   0.355  -4.308  0.00  0.00     0.062 A 
ATOM      7  F   UNL d   1       1.551   1.047  -5.210  0.00  0.00    -0.097 F 
ATOM      8  F1  UNL d   1       2.306   1.065  -2.608  0.00  0.00    -0.096 F 
ATOM      9  I   UNL d   1       1.061  -0.352  -0.023  0.00  0.00    -0.060 I 
ATOM     10  F2  UNL d   1      -1.357  -1.781  -1.556  0.00  0.00    -0.096 F 
ATOM     11  F3  UNL d   1      -2.087  -1.779  -4.164  0.00  0.00    -0.097 F 
ATOM     12  F4  UNL d   1      -0.642  -0.370  -5.999  0.00  0.00    -0.092 F 
ENDROOT
TORSDOF 0
ENDMDL
