MODEL 1
REMARK minimizedAffinity 8.91020203
REMARK minimizedRMSD -1
REMARK  0 active torsions:
REMARK  status: ('A' for Active; 'I' for Inactive)
ROOT
ATOM      1  O1  BZF d   1      -5.491   4.312  -0.753  0.00  0.00    -0.204 OA
ATOM      2  C2  BZF d   1      -5.998   4.947  -1.870  0.00  0.00     0.174 A 
ATOM      3  C3  BZF d   1      -5.384   4.511  -2.989  0.00  0.00    -0.012 A 
ATOM      4  C3A BZF d   1      -4.498   3.476  -2.552  0.00  0.00    -0.107 A 
ATOM      5  C4  BZF d   1      -3.627   2.650  -3.203  0.00  0.00     0.055 A 
ATOM      6  C5  BZF d   1      -2.856   1.798  -2.477  0.00  0.00    -0.016 A 
ATOM      7  C6  BZF d   1      -2.927   1.750  -1.100  0.00  0.00     0.022 A 
ATOM      8  C7  BZF d   1      -3.780   2.546  -0.410  0.00  0.00     0.029 A 
ATOM      9  C7A BZF d   1      -4.584   3.385  -1.144  0.00  0.00     0.058 A 
ENDROOT
TORSDOF 0
ENDMDL
