MODEL 1
REMARK minimizedAffinity 6.61330462
REMARK minimizedRMSD -1
REMARK  0 active torsions:
REMARK  status: ('A' for Active; 'I' for Inactive)
ROOT
ATOM      1  O1  BZF d   1      -5.325  -2.555  -3.775  0.00  0.00    -0.204 OA
ATOM      2  C2  BZF d   1      -4.319  -1.742  -4.259  0.00  0.00     0.174 A 
ATOM      3  C3  BZF d   1      -3.535  -2.415  -5.126  0.00  0.00    -0.012 A 
ATOM      4  C3A BZF d   1      -4.141  -3.704  -5.258  0.00  0.00    -0.107 A 
ATOM      5  C4  BZF d   1      -3.835  -4.815  -5.991  0.00  0.00     0.055 A 
ATOM      6  C5  BZF d   1      -4.587  -5.936  -5.837  0.00  0.00    -0.016 A 
ATOM      7  C6  BZF d   1      -5.648  -5.983  -4.957  0.00  0.00     0.022 A 
ATOM      8  C7  BZF d   1      -5.993  -4.905  -4.212  0.00  0.00     0.029 A 
ATOM      9  C7A BZF d   1      -5.255  -3.760  -4.389  0.00  0.00     0.058 A 
ENDROOT
TORSDOF 0
ENDMDL
