MODEL 1
REMARK minimizedAffinity -0.605404437
REMARK minimizedRMSD -1
REMARK  0 active torsions:
REMARK  status: ('A' for Active; 'I' for Inactive)
ROOT
ATOM      1  O1  BZF d   1       3.344   3.406  -4.768  0.00  0.00    -0.204 OA
ATOM      2  C2  BZF d   1       3.984   3.441  -5.992  0.00  0.00     0.174 A 
ATOM      3  C3  BZF d   1       5.046   4.272  -5.953  0.00  0.00    -0.012 A 
ATOM      4  C3A BZF d   1       5.127   4.716  -4.595  0.00  0.00    -0.107 A 
ATOM      5  C4  BZF d   1       5.982   5.544  -3.928  0.00  0.00     0.055 A 
ATOM      6  C5  BZF d   1       5.741   5.829  -2.621  0.00  0.00    -0.016 A 
ATOM      7  C6  BZF d   1       4.653   5.308  -1.953  0.00  0.00     0.022 A 
ATOM      8  C7  BZF d   1       3.779   4.477  -2.572  0.00  0.00     0.029 A 
ATOM      9  C7A BZF d   1       4.038   4.161  -3.883  0.00  0.00     0.058 A 
ENDROOT
TORSDOF 0
ENDMDL
