MODEL 1
REMARK minimizedAffinity 19.6941547
REMARK minimizedRMSD -1
REMARK  0 active torsions:
REMARK  status: ('A' for Active; 'I' for Inactive)
ROOT
ATOM      1  O1  BZF d   1      -2.825   3.314   2.287  0.00  0.00    -0.204 OA
ATOM      2  C2  BZF d   1      -2.137   2.990   1.133  0.00  0.00     0.174 A 
ATOM      3  C3  BZF d   1      -2.819   3.393   0.041  0.00  0.00    -0.012 A 
ATOM      4  C3A BZF d   1      -3.962   4.088   0.546  0.00  0.00    -0.107 A 
ATOM      5  C4  BZF d   1      -5.009   4.732  -0.050  0.00  0.00     0.055 A 
ATOM      6  C5  BZF d   1      -5.999   5.244   0.728  0.00  0.00    -0.016 A 
ATOM      7  C6  BZF d   1      -5.977   5.125   2.102  0.00  0.00     0.022 A 
ATOM      8  C7  BZF d   1      -4.958   4.500   2.739  0.00  0.00     0.029 A 
ATOM      9  C7A BZF d   1      -3.939   4.010   1.958  0.00  0.00     0.058 A 
ENDROOT
TORSDOF 0
ENDMDL
