MODEL 1
REMARK minimizedAffinity 19.1773643
REMARK minimizedRMSD -1
REMARK  0 active torsions:
REMARK  status: ('A' for Active; 'I' for Inactive)
ROOT
ATOM      1  O1  BZF d   1      -0.145  -1.383   4.426  0.00  0.00    -0.204 OA
ATOM      2  C2  BZF d   1      -0.079  -2.620   5.038  0.00  0.00     0.174 A 
ATOM      3  C3  BZF d   1       0.478  -3.532   4.215  0.00  0.00    -0.012 A 
ATOM      4  C3A BZF d   1       0.863  -2.799   3.048  0.00  0.00    -0.107 A 
ATOM      5  C4  BZF d   1       1.482  -3.150   1.882  0.00  0.00     0.055 A 
ATOM      6  C5  BZF d   1       1.646  -2.210   0.914  0.00  0.00    -0.016 A 
ATOM      7  C6  BZF d   1       1.201  -0.915   1.076  0.00  0.00     0.022 A 
ATOM      8  C7  BZF d   1       0.587  -0.519   2.217  0.00  0.00     0.029 A 
ATOM      9  C7A BZF d   1       0.448  -1.457   3.211  0.00  0.00     0.058 A 
ENDROOT
TORSDOF 0
ENDMDL
