MODEL 1
REMARK minimizedAffinity 12.8969364
REMARK minimizedRMSD -1
REMARK  0 active torsions:
REMARK  status: ('A' for Active; 'I' for Inactive)
ROOT
ATOM      1  O1  BZF d   1      -2.428   3.534   1.914  0.00  0.00    -0.204 OA
ATOM      2  C2  BZF d   1      -1.633   3.413   0.790  0.00  0.00     0.174 A 
ATOM      3  C3  BZF d   1      -2.371   3.536  -0.333  0.00  0.00    -0.012 A 
ATOM      4  C3A BZF d   1      -3.694   3.839   0.118  0.00  0.00    -0.107 A 
ATOM      5  C4  BZF d   1      -4.872   4.089  -0.527  0.00  0.00     0.055 A 
ATOM      6  C5  BZF d   1      -6.000   4.278   0.206  0.00  0.00    -0.016 A 
ATOM      7  C6  BZF d   1      -5.988   4.218   1.584  0.00  0.00     0.022 A 
ATOM      8  C7  BZF d   1      -4.844   3.978   2.269  0.00  0.00     0.029 A 
ATOM      9  C7A BZF d   1      -3.695   3.820   1.532  0.00  0.00     0.058 A 
ENDROOT
TORSDOF 0
ENDMDL
