MODEL 1
REMARK minimizedAffinity 14.0752468
REMARK minimizedRMSD -1
REMARK  0 active torsions:
REMARK  status: ('A' for Active; 'I' for Inactive)
ROOT
ATOM      1  O1  BZF d   1       5.040   5.701  -2.006  0.00  0.00    -0.204 OA
ATOM      2  C2  BZF d   1       3.881   5.122  -1.527  0.00  0.00     0.174 A 
ATOM      3  C3  BZF d   1       3.121   4.662  -2.542  0.00  0.00    -0.012 A 
ATOM      4  C3A BZF d   1       3.894   4.890  -3.724  0.00  0.00    -0.107 A 
ATOM      5  C4  BZF d   1       3.683   4.632  -5.048  0.00  0.00     0.055 A 
ATOM      6  C5  BZF d   1       4.604   5.047  -5.957  0.00  0.00    -0.016 A 
ATOM      7  C6  BZF d   1       5.744   5.725  -5.578  0.00  0.00     0.022 A 
ATOM      8  C7  BZF d   1       6.000   5.999  -4.276  0.00  0.00     0.029 A 
ATOM      9  C7A BZF d   1       5.087   5.553  -3.352  0.00  0.00     0.058 A 
ENDROOT
TORSDOF 0
ENDMDL
