MODEL 1
REMARK minimizedAffinity 10.2739916
REMARK minimizedRMSD -1
REMARK  0 active torsions:
REMARK  status: ('A' for Active; 'I' for Inactive)
ROOT
ATOM      1  O1  BZF d   1       4.747   5.326  -1.832  0.00  0.00    -0.204 OA
ATOM      2  C2  BZF d   1       3.460   4.887  -1.587  0.00  0.00     0.174 A 
ATOM      3  C3  BZF d   1       2.753   4.815  -2.734  0.00  0.00    -0.012 A 
ATOM      4  C3A BZF d   1       3.683   5.146  -3.770  0.00  0.00    -0.107 A 
ATOM      5  C4  BZF d   1       3.583   5.231  -5.130  0.00  0.00     0.055 A 
ATOM      6  C5  BZF d   1       4.658   5.651  -5.846  0.00  0.00    -0.016 A 
ATOM      7  C6  BZF d   1       5.845   5.999  -5.237  0.00  0.00     0.022 A 
ATOM      8  C7  BZF d   1       5.994   5.926  -3.892  0.00  0.00     0.029 A 
ATOM      9  C7A BZF d   1       4.920   5.470  -3.168  0.00  0.00     0.058 A 
ENDROOT
TORSDOF 0
ENDMDL
