MODEL 1
REMARK minimizedAffinity -1.9835155
REMARK minimizedRMSD -1
REMARK  0 active torsions:
REMARK  status: ('A' for Active; 'I' for Inactive)
ROOT
ATOM      1  C   UNL d   1       3.474   3.436   0.750  0.00  0.00     0.023 A 
ATOM      2  C1  UNL d   1       3.534   2.605  -0.368  0.00  0.00     0.003 A 
ATOM      3  C2  UNL d   1       2.814   1.408  -0.389  0.00  0.00     0.048 A 
ATOM      4  C3  UNL d   1       2.036   1.050   0.711  0.00  0.00     0.023 A 
ATOM      5  C4  UNL d   1       1.973   1.879   1.832  0.00  0.00     0.048 A 
ATOM      6  C5  UNL d   1       2.695   3.074   1.849  0.00  0.00     0.003 A 
ATOM      7  I   UNL d   1       0.965  -0.731   0.682  0.00  0.00    -0.146 I 
ENDROOT
TORSDOF 0
ENDMDL
