MODEL 1
REMARK minimizedAffinity -0.972463667
REMARK minimizedRMSD -1
REMARK  0 active torsions:
REMARK  status: ('A' for Active; 'I' for Inactive)
ROOT
ATOM      1  C   UNL d   1      -2.137  -0.787  -1.361  0.00  0.00     0.023 A 
ATOM      2  C1  UNL d   1      -1.370  -1.433  -0.391  0.00  0.00     0.003 A 
ATOM      3  C2  UNL d   1      -0.245  -0.802   0.145  0.00  0.00     0.048 A 
ATOM      4  C3  UNL d   1       0.106   0.474  -0.293  0.00  0.00     0.023 A 
ATOM      5  C4  UNL d   1      -0.659   1.125  -1.262  0.00  0.00     0.048 A 
ATOM      6  C5  UNL d   1      -1.782   0.490  -1.796  0.00  0.00     0.003 A 
ATOM      7  I   UNL d   1       1.780   1.415   0.504  0.00  0.00    -0.146 I 
ENDROOT
TORSDOF 0
ENDMDL
