MODEL 1
REMARK minimizedAffinity -2.67131639
REMARK minimizedRMSD -1
REMARK  0 active torsions:
REMARK  status: ('A' for Active; 'I' for Inactive)
ROOT
ATOM      1  C   UNL d   1       3.076   1.384   1.591  0.00  0.00     0.023 A 
ATOM      2  C1  UNL d   1       1.977   2.244   1.565  0.00  0.00     0.003 A 
ATOM      3  C2  UNL d   1       0.838   1.900   0.835  0.00  0.00     0.048 A 
ATOM      4  C3  UNL d   1       0.803   0.695   0.134  0.00  0.00     0.023 A 
ATOM      5  C4  UNL d   1       1.899  -0.168   0.158  0.00  0.00     0.048 A 
ATOM      6  C5  UNL d   1       3.037   0.180   0.889  0.00  0.00     0.003 A 
ATOM      7  I   UNL d   1      -0.893   0.182  -0.953  0.00  0.00    -0.146 I 
ENDROOT
TORSDOF 0
ENDMDL
