MODEL 1
REMARK minimizedAffinity -2.28589272
REMARK minimizedRMSD -1
REMARK  0 active torsions:
REMARK  status: ('A' for Active; 'I' for Inactive)
ROOT
ATOM      1  C   UNL d   1      -1.174  -0.746  -0.711  0.00  0.00     0.023 A 
ATOM      2  C1  UNL d   1      -0.305  -1.164   0.297  0.00  0.00     0.003 A 
ATOM      3  C2  UNL d   1       0.788  -0.370   0.651  0.00  0.00     0.048 A 
ATOM      4  C3  UNL d   1       1.005   0.840  -0.005  0.00  0.00     0.023 A 
ATOM      5  C4  UNL d   1       0.138   1.263  -1.014  0.00  0.00     0.048 A 
ATOM      6  C5  UNL d   1      -0.953   0.466  -1.366  0.00  0.00     0.003 A 
ATOM      7  I   UNL d   1       2.631   2.023   0.522  0.00  0.00    -0.146 I 
ENDROOT
TORSDOF 0
ENDMDL
