MODEL 1
REMARK minimizedAffinity -2.28862524
REMARK minimizedRMSD -1
REMARK  0 active torsions:
REMARK  status: ('A' for Active; 'I' for Inactive)
ROOT
ATOM      1  C   UNL d   1       3.016   1.750   1.503  0.00  0.00     0.023 A 
ATOM      2  C1  UNL d   1       2.980   0.447   1.007  0.00  0.00     0.003 A 
ATOM      3  C2  UNL d   1       1.895   0.021   0.238  0.00  0.00     0.048 A 
ATOM      4  C3  UNL d   1       0.851   0.905  -0.033  0.00  0.00     0.023 A 
ATOM      5  C4  UNL d   1       0.883   2.210   0.460  0.00  0.00     0.048 A 
ATOM      6  C5  UNL d   1       1.969   2.631   1.230  0.00  0.00     0.003 A 
ATOM      7  I   UNL d   1      -0.765   0.274  -1.178  0.00  0.00    -0.146 I 
ENDROOT
TORSDOF 0
ENDMDL
