MODEL 1
REMARK minimizedAffinity 0.52255857
REMARK minimizedRMSD -1
REMARK  0 active torsions:
REMARK  status: ('A' for Active; 'I' for Inactive)
ROOT
ATOM      1  C   UNL d   1       3.076   2.814   1.329  0.00  0.00     0.023 A 
ATOM      2  C1  UNL d   1       2.982   2.657  -0.054  0.00  0.00     0.003 A 
ATOM      3  C2  UNL d   1       1.999   1.829  -0.599  0.00  0.00     0.048 A 
ATOM      4  C3  UNL d   1       1.112   1.161   0.244  0.00  0.00     0.023 A 
ATOM      5  C4  UNL d   1       1.201   1.315   1.629  0.00  0.00     0.048 A 
ATOM      6  C5  UNL d   1       2.186   2.144   2.169  0.00  0.00     0.003 A 
ATOM      7  I   UNL d   1      -0.352  -0.073  -0.565  0.00  0.00    -0.146 I 
ENDROOT
TORSDOF 0
ENDMDL
