MODEL 1
REMARK minimizedAffinity -2.61939001
REMARK minimizedRMSD -1
REMARK  0 active torsions:
REMARK  status: ('A' for Active; 'I' for Inactive)
ROOT
ATOM      1  C   UNL d   1       3.198   3.120   1.499  0.00  0.00     0.023 A 
ATOM      2  C1  UNL d   1       1.900   3.038   2.004  0.00  0.00     0.003 A 
ATOM      3  C2  UNL d   1       0.977   2.167   1.423  0.00  0.00     0.048 A 
ATOM      4  C3  UNL d   1       1.358   1.378   0.338  0.00  0.00     0.023 A 
ATOM      5  C4  UNL d   1       2.656   1.456  -0.171  0.00  0.00     0.048 A 
ATOM      6  C5  UNL d   1       3.575   2.330   0.413  0.00  0.00     0.003 A 
ATOM      7  I   UNL d   1      -0.014   0.080  -0.529  0.00  0.00    -0.146 I 
ENDROOT
TORSDOF 0
ENDMDL
