MODEL 1
REMARK minimizedAffinity -0.879276872
REMARK minimizedRMSD -1
REMARK  0 active torsions:
REMARK  status: ('A' for Active; 'I' for Inactive)
ROOT
ATOM      1  C   UNL d   1      -1.329  -1.437  -0.729  0.00  0.00     0.023 A 
ATOM      2  C1  UNL d   1      -1.104  -0.281  -1.476  0.00  0.00     0.003 A 
ATOM      3  C2  UNL d   1      -0.067   0.587  -1.126  0.00  0.00     0.048 A 
ATOM      4  C3  UNL d   1       0.741   0.292  -0.028  0.00  0.00     0.023 A 
ATOM      5  C4  UNL d   1       0.520  -0.865   0.721  0.00  0.00     0.048 A 
ATOM      6  C5  UNL d   1      -0.518  -1.729   0.368  0.00  0.00     0.003 A 
ATOM      7  I   UNL d   1       2.285   1.582   0.494  0.00  0.00    -0.146 I 
ENDROOT
TORSDOF 0
ENDMDL
