MODEL 1
REMARK minimizedAffinity -1.54297006
REMARK minimizedRMSD -1
REMARK  0 active torsions:
REMARK  status: ('A' for Active; 'I' for Inactive)
ROOT
ATOM      1  C   UNL d   1      -2.132  -0.432  -1.364  0.00  0.00     0.023 A 
ATOM      2  C1  UNL d   1      -1.560  -1.127  -0.299  0.00  0.00     0.003 A 
ATOM      3  C2  UNL d   1      -0.290  -0.776   0.163  0.00  0.00     0.048 A 
ATOM      4  C3  UNL d   1       0.402   0.271  -0.444  0.00  0.00     0.023 A 
ATOM      5  C4  UNL d   1      -0.167   0.970  -1.510  0.00  0.00     0.048 A 
ATOM      6  C5  UNL d   1      -1.437   0.616  -1.969  0.00  0.00     0.003 A 
ATOM      7  I   UNL d   1       2.293   0.795   0.242  0.00  0.00    -0.146 I 
ENDROOT
TORSDOF 0
ENDMDL
