MODEL 1
REMARK minimizedAffinity -1.58499551
REMARK minimizedRMSD -1
REMARK  0 active torsions:
REMARK  status: ('A' for Active; 'I' for Inactive)
ROOT
ATOM      1  C   UNL d   1      -2.401  -1.267  -1.003  0.00  0.00     0.023 A 
ATOM      2  C1  UNL d   1      -2.298   0.062  -1.415  0.00  0.00     0.003 A 
ATOM      3  C2  UNL d   1      -1.233   0.850  -0.974  0.00  0.00     0.048 A 
ATOM      4  C3  UNL d   1      -0.273   0.303  -0.123  0.00  0.00     0.023 A 
ATOM      5  C4  UNL d   1      -0.371  -1.027   0.290  0.00  0.00     0.048 A 
ATOM      6  C5  UNL d   1      -1.439  -1.811  -0.152  0.00  0.00     0.003 A 
ATOM      7  I   UNL d   1       1.313   1.474   0.534  0.00  0.00    -0.146 I 
ENDROOT
TORSDOF 0
ENDMDL
