MODEL 1
REMARK minimizedAffinity -3.56851745
REMARK minimizedRMSD -1
REMARK  0 active torsions:
REMARK  status: ('A' for Active; 'I' for Inactive)
ROOT
ATOM      1  C   UNL d   1      -2.611  -2.099   0.079  0.00  0.00     0.023 A 
ATOM      2  C1  UNL d   1      -1.635  -2.549   0.969  0.00  0.00     0.003 A 
ATOM      3  C2  UNL d   1      -0.425  -1.861   1.085  0.00  0.00     0.048 A 
ATOM      4  C3  UNL d   1      -0.198  -0.725   0.309  0.00  0.00     0.023 A 
ATOM      5  C4  UNL d   1      -1.172  -0.272  -0.581  0.00  0.00     0.048 A 
ATOM      6  C5  UNL d   1      -2.380  -0.962  -0.695  0.00  0.00     0.003 A 
ATOM      7  I   UNL d   1       1.603   0.300   0.481  0.00  0.00    -0.146 I 
ENDROOT
TORSDOF 0
ENDMDL
