MODEL 1
REMARK minimizedAffinity -2.8399961
REMARK minimizedRMSD -1
REMARK  0 active torsions:
REMARK  status: ('A' for Active; 'I' for Inactive)
ROOT
ATOM      1  C   UNL d   1      -2.188  -1.252  -0.904  0.00  0.00     0.023 A 
ATOM      2  C1  UNL d   1      -1.228  -1.806  -0.058  0.00  0.00     0.003 A 
ATOM      3  C2  UNL d   1      -0.078  -1.082   0.264  0.00  0.00     0.048 A 
ATOM      4  C3  UNL d   1       0.106   0.195  -0.264  0.00  0.00     0.023 A 
ATOM      5  C4  UNL d   1      -0.853   0.754  -1.111  0.00  0.00     0.048 A 
ATOM      6  C5  UNL d   1      -2.001   0.027  -1.430  0.00  0.00     0.003 A 
ATOM      7  I   UNL d   1       1.817   1.275   0.213  0.00  0.00    -0.146 I 
ENDROOT
TORSDOF 0
ENDMDL
