MODEL 1
REMARK minimizedAffinity -2.50282359
REMARK minimizedRMSD -1
REMARK  0 active torsions:
REMARK  status: ('A' for Active; 'I' for Inactive)
ROOT
ATOM      1  C   UNL d   1       1.918   0.964   0.562  0.00  0.00     0.023 A 
ATOM      2  C1  UNL d   1       1.406  -0.225   1.083  0.00  0.00     0.003 A 
ATOM      3  C2  UNL d   1       0.237  -0.774   0.553  0.00  0.00     0.048 A 
ATOM      4  C3  UNL d   1      -0.414  -0.131  -0.500  0.00  0.00     0.023 A 
ATOM      5  C4  UNL d   1       0.095   1.057  -1.025  0.00  0.00     0.048 A 
ATOM      6  C5  UNL d   1       1.264   1.604  -0.491  0.00  0.00     0.003 A 
ATOM      7  I   UNL d   1      -2.154  -0.948  -1.291  0.00  0.00    -0.146 I 
ENDROOT
TORSDOF 0
ENDMDL
