MODEL 1
REMARK minimizedAffinity 0.551853299
REMARK minimizedRMSD -1
REMARK  0 active torsions:
REMARK  status: ('A' for Active; 'I' for Inactive)
ROOT
ATOM      1  C   UNL d   1      -2.475  -1.791   0.677  0.00  0.00     0.023 A 
ATOM      2  C1  UNL d   1      -1.211  -1.671   0.099  0.00  0.00     0.003 A 
ATOM      3  C2  UNL d   1      -1.002  -0.766  -0.944  0.00  0.00     0.048 A 
ATOM      4  C3  UNL d   1      -2.061   0.017  -1.403  0.00  0.00     0.023 A 
ATOM      5  C4  UNL d   1      -3.327  -0.099  -0.827  0.00  0.00     0.048 A 
ATOM      6  C5  UNL d   1      -3.531  -1.006   0.215  0.00  0.00     0.003 A 
ATOM      7  I   UNL d   1      -1.752   1.365  -2.954  0.00  0.00    -0.146 I 
ENDROOT
TORSDOF 0
ENDMDL
