MODEL 1
REMARK minimizedAffinity 0.832006633
REMARK minimizedRMSD -1
REMARK  0 active torsions:
REMARK  status: ('A' for Active; 'I' for Inactive)
ROOT
ATOM      1  C   UNL d   1       1.977   1.717  -0.658  0.00  0.00     0.023 A 
ATOM      2  C1  UNL d   1       2.356   1.318   0.624  0.00  0.00     0.003 A 
ATOM      3  C2  UNL d   1       1.643   0.315   1.283  0.00  0.00     0.048 A 
ATOM      4  C3  UNL d   1       0.552  -0.286   0.654  0.00  0.00     0.023 A 
ATOM      5  C4  UNL d   1       0.171   0.110  -0.629  0.00  0.00     0.048 A 
ATOM      6  C5  UNL d   1       0.886   1.114  -1.284  0.00  0.00     0.003 A 
ATOM      7  I   UNL d   1      -0.510  -1.780   1.633  0.00  0.00    -0.146 I 
ENDROOT
TORSDOF 0
ENDMDL
