MODEL 1
REMARK minimizedAffinity -3.69872737
REMARK minimizedRMSD -1
REMARK  0 active torsions:
REMARK  status: ('A' for Active; 'I' for Inactive)
ROOT
ATOM      1  C   UNL d   1      -0.721   0.010  -1.149  0.00  0.00     0.023 A 
ATOM      2  C1  UNL d   1       0.585  -0.376  -0.848  0.00  0.00     0.003 A 
ATOM      3  C2  UNL d   1       1.421   0.483  -0.131  0.00  0.00     0.048 A 
ATOM      4  C3  UNL d   1       0.943   1.726   0.282  0.00  0.00     0.023 A 
ATOM      5  C4  UNL d   1      -0.364   2.116  -0.016  0.00  0.00     0.048 A 
ATOM      6  C5  UNL d   1      -1.195   1.254  -0.734  0.00  0.00     0.003 A 
ATOM      7  I   UNL d   1       2.184   3.007   1.350  0.00  0.00    -0.146 I 
ENDROOT
TORSDOF 0
ENDMDL
