MODEL 1
REMARK minimizedAffinity -0.0504243188
REMARK minimizedRMSD -1
REMARK  0 active torsions:
REMARK  status: ('A' for Active; 'I' for Inactive)
ROOT
ATOM      1  C   UNL d   1      -1.970  -0.886  -0.860  0.00  0.00     0.023 A 
ATOM      2  C1  UNL d   1      -1.399  -1.117   0.391  0.00  0.00     0.003 A 
ATOM      3  C2  UNL d   1      -0.232  -0.445   0.761  0.00  0.00     0.048 A 
ATOM      4  C3  UNL d   1       0.358   0.456  -0.124  0.00  0.00     0.023 A 
ATOM      5  C4  UNL d   1      -0.211   0.691  -1.377  0.00  0.00     0.048 A 
ATOM      6  C5  UNL d   1      -1.377   0.016  -1.743  0.00  0.00     0.003 A 
ATOM      7  I   UNL d   1       2.095   1.458   0.424  0.00  0.00    -0.146 I 
ENDROOT
TORSDOF 0
ENDMDL
