MODEL 1
REMARK minimizedAffinity 2.77853441
REMARK minimizedRMSD -1
REMARK  1 active torsions:
REMARK  status: ('A' for Active; 'I' for Inactive)
REMARK    1  A    between atoms: C1_2  and  C2_3 
ROOT
ATOM      1  C2  UNL d   1       3.583  -3.035   3.642  0.00  0.00    -0.077 A 
ATOM      2  C3  UNL d   1       3.099  -1.885   3.002  0.00  0.00     0.002 A 
ATOM      3  C4  UNL d   1       1.774  -1.825   2.566  0.00  0.00     0.002 A 
ATOM      4  C5  UNL d   1       0.922  -2.909   2.768  0.00  0.00    -0.004 A 
ATOM      5  C6  UNL d   1       1.395  -4.058   3.401  0.00  0.00     0.002 A 
ATOM      6  C7  UNL d   1       2.719  -4.120   3.837  0.00  0.00     0.002 A 
ENDROOT
BRANCH   1   7
ATOM      7  C1  UNL d   1       4.998  -3.083   4.157  0.00  0.00     0.055 C 
ATOM      8  C   UNL d   1       5.999  -2.768   3.055  0.00  0.00     0.019 C 
ENDBRANCH   1   7
TORSDOF 1
ENDMDL
