MODEL 1
REMARK minimizedAffinity 10.4332552
REMARK minimizedRMSD -1
REMARK  1 active torsions:
REMARK  status: ('A' for Active; 'I' for Inactive)
REMARK    1  A    between atoms: C1_2  and  C2_3 
ROOT
ATOM      1  C2  UNL d   1       2.235  -2.169   3.208  0.00  0.00    -0.077 A 
ATOM      2  C3  UNL d   1       1.478  -3.329   2.989  0.00  0.00     0.002 A 
ATOM      3  C4  UNL d   1       1.919  -4.562   3.473  0.00  0.00     0.002 A 
ATOM      4  C5  UNL d   1       3.116  -4.647   4.181  0.00  0.00    -0.004 A 
ATOM      5  C6  UNL d   1       3.877  -3.500   4.402  0.00  0.00     0.002 A 
ATOM      6  C7  UNL d   1       3.438  -2.266   3.918  0.00  0.00     0.002 A 
ENDROOT
BRANCH   1   7
ATOM      7  C1  UNL d   1       1.736  -0.831   2.730  0.00  0.00     0.055 C 
ATOM      8  C   UNL d   1       2.506  -0.359   1.505  0.00  0.00     0.019 C 
ENDBRANCH   1   7
TORSDOF 1
ENDMDL
