MODEL 1
REMARK minimizedAffinity 1.841488
REMARK minimizedRMSD -1
REMARK  1 active torsions:
REMARK  status: ('A' for Active; 'I' for Inactive)
REMARK    1  A    between atoms: C1_2  and  C2_3 
ROOT
ATOM      1  C2  UNL d   1       2.227  -4.394   4.774  0.00  0.00    -0.077 A 
ATOM      2  C3  UNL d   1       3.305  -3.505   4.885  0.00  0.00     0.002 A 
ATOM      3  C4  UNL d   1       3.330  -2.328   4.133  0.00  0.00     0.002 A 
ATOM      4  C5  UNL d   1       2.279  -2.028   3.270  0.00  0.00    -0.004 A 
ATOM      5  C6  UNL d   1       1.203  -2.907   3.152  0.00  0.00     0.002 A 
ATOM      6  C7  UNL d   1       1.176  -4.084   3.901  0.00  0.00     0.002 A 
ENDROOT
BRANCH   1   7
ATOM      7  C1  UNL d   1       2.174  -5.639   5.620  0.00  0.00     0.055 C 
ATOM      8  C   UNL d   1       0.742  -5.992   5.997  0.00  0.00     0.019 C 
ENDBRANCH   1   7
TORSDOF 1
ENDMDL
