MODEL 1
REMARK minimizedAffinity -2.95737553
REMARK minimizedRMSD -1
REMARK  0 active torsions:
REMARK  status: ('A' for Active; 'I' for Inactive)
ROOT
ATOM      1  C   UNL d   1      -1.221   2.742   1.681  0.00  0.00    -0.002 A 
ATOM      2  C1  UNL d   1      -1.573   3.035   0.371  0.00  0.00     0.010 A 
ATOM      3  C2  UNL d   1      -1.304   2.129  -0.656  0.00  0.00     0.041 A 
ATOM      4  C3  UNL d   1      -0.670   0.910  -0.342  0.00  0.00    -0.075 A 
ATOM      5  S   UNL d   1      -0.243  -0.352  -1.436  0.00  0.00     0.015 SA
ATOM      6  C4  UNL d   1       0.417  -1.309  -0.190  0.00  0.00     0.022 A 
ATOM      7  C5  UNL d   1       0.322  -0.697   1.037  0.00  0.00     0.026 A 
ATOM      8  C6  UNL d   1      -0.307   0.593   0.970  0.00  0.00    -0.082 A 
ATOM      9  C7  UNL d   1      -0.592   1.533   1.989  0.00  0.00     0.045 A 
ENDROOT
TORSDOF 0
ENDMDL
