MODEL 1
REMARK minimizedAffinity 8.87894726
REMARK minimizedRMSD -1
REMARK  0 active torsions:
REMARK  status: ('A' for Active; 'I' for Inactive)
ROOT
ATOM      1  C   UNL d   1      -0.021   1.679  -1.855  0.00  0.00    -0.002 A 
ATOM      2  C1  UNL d   1      -1.224   1.969  -1.225  0.00  0.00     0.010 A 
ATOM      3  C2  UNL d   1      -2.162   0.962  -0.989  0.00  0.00     0.041 A 
ATOM      4  C3  UNL d   1      -1.867  -0.354  -1.398  0.00  0.00    -0.075 A 
ATOM      5  S   UNL d   1      -2.865  -1.748  -1.212  0.00  0.00     0.015 SA
ATOM      6  C4  UNL d   1      -1.718  -2.760  -1.963  0.00  0.00     0.022 A 
ATOM      7  C5  UNL d   1      -0.595  -2.068  -2.353  0.00  0.00     0.026 A 
ATOM      8  C6  UNL d   1      -0.663  -0.670  -2.033  0.00  0.00    -0.082 A 
ATOM      9  C7  UNL d   1       0.267   0.373  -2.259  0.00  0.00     0.045 A 
ENDROOT
TORSDOF 0
ENDMDL
