MODEL 1
REMARK minimizedAffinity -2.94402146
REMARK minimizedRMSD -1
REMARK  0 active torsions:
REMARK  status: ('A' for Active; 'I' for Inactive)
ROOT
ATOM      1  C   UNL d   1       0.039   1.199   2.261  0.00  0.00    -0.002 A 
ATOM      2  C1  UNL d   1      -0.907   1.773   1.424  0.00  0.00     0.010 A 
ATOM      3  C2  UNL d   1      -1.162   1.229   0.163  0.00  0.00     0.041 A 
ATOM      4  C3  UNL d   1      -0.445   0.087  -0.245  0.00  0.00    -0.075 A 
ATOM      5  S   UNL d   1      -0.591  -0.751  -1.744  0.00  0.00     0.015 SA
ATOM      6  C4  UNL d   1       0.598  -1.891  -1.308  0.00  0.00     0.022 A 
ATOM      7  C5  UNL d   1       1.105  -1.653  -0.052  0.00  0.00     0.026 A 
ATOM      8  C6  UNL d   1       0.511  -0.509   0.581  0.00  0.00    -0.082 A 
ATOM      9  C7  UNL d   1       0.748   0.066   1.853  0.00  0.00     0.045 A 
ENDROOT
TORSDOF 0
ENDMDL
