MODEL 1
REMARK minimizedAffinity -1.55433011
REMARK minimizedRMSD -1
REMARK  0 active torsions:
REMARK  status: ('A' for Active; 'I' for Inactive)
ROOT
ATOM      1  C   UNL d   1       0.092   1.778   2.188  0.00  0.00    -0.002 A 
ATOM      2  C1  UNL d   1      -0.884   2.311   1.358  0.00  0.00     0.010 A 
ATOM      3  C2  UNL d   1      -1.259   1.650   0.186  0.00  0.00     0.041 A 
ATOM      4  C3  UNL d   1      -0.632   0.430  -0.138  0.00  0.00    -0.075 A 
ATOM      5  S   UNL d   1      -0.931  -0.556  -1.520  0.00  0.00     0.015 SA
ATOM      6  C4  UNL d   1       0.229  -1.709  -1.041  0.00  0.00     0.022 A 
ATOM      7  C5  UNL d   1       0.839  -1.365   0.142  0.00  0.00     0.026 A 
ATOM      8  C6  UNL d   1       0.353  -0.127   0.682  0.00  0.00    -0.082 A 
ATOM      9  C7  UNL d   1       0.712   0.568   1.862  0.00  0.00     0.045 A 
ENDROOT
TORSDOF 0
ENDMDL
