MODEL 1
REMARK minimizedAffinity -4.31205654
REMARK minimizedRMSD -1
REMARK  0 active torsions:
REMARK  status: ('A' for Active; 'I' for Inactive)
ROOT
ATOM      1  C   UNL d   1      -1.334   2.148   1.920  0.00  0.00    -0.002 A 
ATOM      2  C1  UNL d   1      -2.269   1.899   0.925  0.00  0.00     0.010 A 
ATOM      3  C2  UNL d   1      -2.023   0.937  -0.056  0.00  0.00     0.041 A 
ATOM      4  C3  UNL d   1      -0.810   0.221  -0.019  0.00  0.00    -0.075 A 
ATOM      5  S   UNL d   1      -0.293  -1.005  -1.115  0.00  0.00     0.015 SA
ATOM      6  C4  UNL d   1       1.180  -1.228  -0.288  0.00  0.00     0.022 A 
ATOM      7  C5  UNL d   1       1.292  -0.396   0.800  0.00  0.00     0.026 A 
ATOM      8  C6  UNL d   1       0.146   0.453   0.973  0.00  0.00    -0.082 A 
ATOM      9  C7  UNL d   1      -0.132   1.436   1.953  0.00  0.00     0.045 A 
ENDROOT
TORSDOF 0
ENDMDL
