MODEL 1
REMARK minimizedAffinity -1.55150282
REMARK minimizedRMSD -1
REMARK  0 active torsions:
REMARK  status: ('A' for Active; 'I' for Inactive)
ROOT
ATOM      1  C   UNL d   1       0.092   1.201   1.588  0.00  0.00    -0.002 A 
ATOM      2  C1  UNL d   1      -0.575   1.753   0.504  0.00  0.00     0.010 A 
ATOM      3  C2  UNL d   1      -0.833   0.988  -0.635  0.00  0.00     0.041 A 
ATOM      4  C3  UNL d   1      -0.408  -0.355  -0.666  0.00  0.00    -0.075 A 
ATOM      5  S   UNL d   1      -0.615  -1.483  -1.953  0.00  0.00     0.015 SA
ATOM      6  C4  UNL d   1       0.176  -2.724  -1.093  0.00  0.00     0.022 A 
ATOM      7  C5  UNL d   1       0.595  -2.305   0.147  0.00  0.00     0.026 A 
ATOM      8  C6  UNL d   1       0.265  -0.933   0.415  0.00  0.00    -0.082 A 
ATOM      9  C7  UNL d   1       0.513  -0.131   1.555  0.00  0.00     0.045 A 
ENDROOT
TORSDOF 0
ENDMDL
