MODEL 1
REMARK minimizedAffinity -0.391130805
REMARK minimizedRMSD -1
REMARK  1 active torsions:
REMARK  status: ('A' for Active; 'I' for Inactive)
REMARK    1  A    between atoms: N_2  and  C1_3 
ROOT
ATOM      1  C1  UNL d   1       5.278  -0.281  -5.138  0.00  0.00     0.143 A 
ATOM      2  C2  UNL d   1       4.271  -0.845  -4.347  0.00  0.00    -0.057 A 
ATOM      3  C3  UNL d   1       4.024  -2.223  -4.360  0.00  0.00     0.033 A 
ATOM      4  C4  UNL d   1       4.765  -3.061  -5.187  0.00  0.00    -0.042 A 
ATOM      5  C5  UNL d   1       5.754  -2.519  -6.000  0.00  0.00     0.033 A 
ATOM      6  C6  UNL d   1       6.000  -1.143  -5.978  0.00  0.00    -0.057 A 
ENDROOT
BRANCH   1   7
ATOM      7  N   UNL d   1       5.506   1.093  -5.243  0.00  0.00    -0.732 N 
ATOM      8  C   UNL d   1       4.556   1.948  -5.923  0.00  0.00     0.284 C 
ATOM      9  H3  UNL d   1       5.885   1.491  -4.387  0.00  0.00     0.395 HD
ENDBRANCH   1   7
TORSDOF 1
ENDMDL
