MODEL 1
REMARK minimizedAffinity 2.46449375
REMARK minimizedRMSD -1
REMARK  1 active torsions:
REMARK  status: ('A' for Active; 'I' for Inactive)
REMARK    1  A    between atoms: N_2  and  C1_3 
ROOT
ATOM      1  C1  UNL d   1       0.922  -0.585   1.640  0.00  0.00     0.143 A 
ATOM      2  C2  UNL d   1       2.096  -0.029   2.160  0.00  0.00    -0.057 A 
ATOM      3  C3  UNL d   1       2.588   1.196   1.691  0.00  0.00     0.033 A 
ATOM      4  C4  UNL d   1       1.928   1.873   0.671  0.00  0.00    -0.042 A 
ATOM      5  C5  UNL d   1       0.773   1.326   0.123  0.00  0.00     0.033 A 
ATOM      6  C6  UNL d   1       0.283   0.107   0.599  0.00  0.00    -0.057 A 
ENDROOT
BRANCH   1   7
ATOM      7  N   UNL d   1       0.436  -1.846   1.995  0.00  0.00    -0.732 N 
ATOM      8  C   UNL d   1       0.027  -2.791   0.978  0.00  0.00     0.284 C 
ATOM      9  H3  UNL d   1       0.958  -2.262   2.763  0.00  0.00     0.395 HD
ENDBRANCH   1   7
TORSDOF 1
ENDMDL
