MODEL 1
REMARK minimizedAffinity -2.00776196
REMARK minimizedRMSD -1
REMARK  1 active torsions:
REMARK  status: ('A' for Active; 'I' for Inactive)
REMARK    1  A    between atoms: N_2  and  C1_3 
ROOT
ATOM      1  C1  UNL d   1       1.947  -0.052   2.023  0.00  0.00     0.143 A 
ATOM      2  C2  UNL d   1       0.850  -0.779   1.548  0.00  0.00    -0.057 A 
ATOM      3  C3  UNL d   1       0.015  -0.263   0.550  0.00  0.00     0.033 A 
ATOM      4  C4  UNL d   1       0.245   1.005   0.029  0.00  0.00    -0.042 A 
ATOM      5  C5  UNL d   1       1.314   1.756   0.504  0.00  0.00     0.033 A 
ATOM      6  C6  UNL d   1       2.149   1.233   1.496  0.00  0.00    -0.057 A 
ENDROOT
BRANCH   1   7
ATOM      7  N   UNL d   1       2.756  -0.469   3.083  0.00  0.00    -0.732 N 
ATOM      8  C   UNL d   1       2.427  -0.113   4.446  0.00  0.00     0.284 C 
ATOM      9  H3  UNL d   1       3.082  -1.426   2.970  0.00  0.00     0.395 HD
ENDBRANCH   1   7
TORSDOF 1
ENDMDL
