MODEL 1
REMARK minimizedAffinity -3.66423583
REMARK minimizedRMSD -1
REMARK  1 active torsions:
REMARK  status: ('A' for Active; 'I' for Inactive)
REMARK    1  A    between atoms: N_2  and  C1_3 
ROOT
ATOM      1  C1  UNL d   1       1.910   0.109   1.005  0.00  0.00     0.143 A 
ATOM      2  C2  UNL d   1       0.716  -0.616   1.087  0.00  0.00    -0.057 A 
ATOM      3  C3  UNL d   1      -0.510  -0.036   0.739  0.00  0.00     0.033 A 
ATOM      4  C4  UNL d   1      -0.567   1.292   0.329  0.00  0.00    -0.042 A 
ATOM      5  C5  UNL d   1       0.604   2.038   0.264  0.00  0.00     0.033 A 
ATOM      6  C6  UNL d   1       1.826   1.452   0.607  0.00  0.00    -0.057 A 
ENDROOT
BRANCH   1   7
ATOM      7  N   UNL d   1       3.147  -0.381   1.431  0.00  0.00    -0.732 N 
ATOM      8  C   UNL d   1       3.226  -1.360   2.494  0.00  0.00     0.284 C 
ATOM      9  H3  UNL d   1       3.783  -0.556   0.656  0.00  0.00     0.395 HD
ENDBRANCH   1   7
TORSDOF 1
ENDMDL
