MODEL 1
REMARK minimizedAffinity 2.78733015
REMARK minimizedRMSD -1
REMARK  1 active torsions:
REMARK  status: ('A' for Active; 'I' for Inactive)
REMARK    1  A    between atoms: N_2  and  C1_3 
ROOT
ATOM      1  C1  UNL d   1       0.938  -1.233   1.558  0.00  0.00     0.143 A 
ATOM      2  C2  UNL d   1      -0.172  -0.917   0.767  0.00  0.00    -0.057 A 
ATOM      3  C3  UNL d   1      -0.196   0.240  -0.021  0.00  0.00     0.033 A 
ATOM      4  C4  UNL d   1       0.881   1.119  -0.010  0.00  0.00    -0.042 A 
ATOM      5  C5  UNL d   1       1.985   0.839   0.788  0.00  0.00     0.033 A 
ATOM      6  C6  UNL d   1       2.006  -0.322   1.568  0.00  0.00    -0.057 A 
ENDROOT
BRANCH   1   7
ATOM      7  N   UNL d   1       0.982  -2.317   2.438  0.00  0.00    -0.732 N 
ATOM      8  C   UNL d   1       1.477  -2.150   3.788  0.00  0.00     0.284 C 
ATOM      9  H3  UNL d   1       0.158  -2.909   2.368  0.00  0.00     0.395 HD
ENDBRANCH   1   7
TORSDOF 1
ENDMDL
