MODEL 1
REMARK minimizedAffinity 8.42620087
REMARK minimizedRMSD -1
REMARK  1 active torsions:
REMARK  status: ('A' for Active; 'I' for Inactive)
REMARK    1  A    between atoms: N_2  and  C1_3 
ROOT
ATOM      1  C1  UNL d   1      -2.947   0.039  -3.683  0.00  0.00     0.143 A 
ATOM      2  C2  UNL d   1      -3.034   1.078  -2.750  0.00  0.00    -0.057 A 
ATOM      3  C3  UNL d   1      -3.737   2.254  -3.036  0.00  0.00     0.033 A 
ATOM      4  C4  UNL d   1      -4.344   2.425  -4.276  0.00  0.00    -0.042 A 
ATOM      5  C5  UNL d   1      -4.249   1.416  -5.228  0.00  0.00     0.033 A 
ATOM      6  C6  UNL d   1      -3.551   0.241  -4.934  0.00  0.00    -0.057 A 
ENDROOT
BRANCH   1   7
ATOM      7  N   UNL d   1      -2.180  -1.113  -3.495  0.00  0.00    -0.732 N 
ATOM      8  C   UNL d   1      -2.670  -2.199  -2.675  0.00  0.00     0.284 C 
ATOM      9  H3  UNL d   1      -1.716  -1.414  -4.349  0.00  0.00     0.395 HD
ENDBRANCH   1   7
TORSDOF 1
ENDMDL
