MODEL 1
REMARK minimizedAffinity 0.457150698
REMARK minimizedRMSD -1
REMARK  1 active torsions:
REMARK  status: ('A' for Active; 'I' for Inactive)
REMARK    1  A    between atoms: N_2  and  C1_3 
ROOT
ATOM      1  C1  UNL d   1      -2.267  -1.544  -1.397  0.00  0.00     0.143 A 
ATOM      2  C2  UNL d   1      -2.631  -0.196  -1.469  0.00  0.00    -0.057 A 
ATOM      3  C3  UNL d   1      -3.090   0.370  -2.665  0.00  0.00     0.033 A 
ATOM      4  C4  UNL d   1      -3.165  -0.399  -3.821  0.00  0.00    -0.042 A 
ATOM      5  C5  UNL d   1      -2.785  -1.736  -3.779  0.00  0.00     0.033 A 
ATOM      6  C6  UNL d   1      -2.334  -2.297  -2.580  0.00  0.00    -0.057 A 
ENDROOT
BRANCH   1   7
ATOM      7  N   UNL d   1      -1.711  -2.141  -0.263  0.00  0.00    -0.732 N 
ATOM      8  C   UNL d   1      -1.345  -1.340   0.886  0.00  0.00     0.284 C 
ATOM      9  H3  UNL d   1      -2.158  -3.024  -0.029  0.00  0.00     0.395 HD
ENDBRANCH   1   7
TORSDOF 1
ENDMDL
