MODEL 1
REMARK minimizedAffinity 3.64460182
REMARK minimizedRMSD -1
REMARK  1 active torsions:
REMARK  status: ('A' for Active; 'I' for Inactive)
REMARK    1  A    between atoms: N_2  and  C1_3 
ROOT
ATOM      1  C1  UNL d   1       0.815  -0.111   0.677  0.00  0.00     0.143 A 
ATOM      2  C2  UNL d   1       0.977  -0.867   1.843  0.00  0.00    -0.057 A 
ATOM      3  C3  UNL d   1       1.862  -0.466   2.851  0.00  0.00     0.033 A 
ATOM      4  C4  UNL d   1       2.624   0.687   2.697  0.00  0.00    -0.042 A 
ATOM      5  C5  UNL d   1       2.498   1.441   1.536  0.00  0.00     0.033 A 
ATOM      6  C6  UNL d   1       1.608   1.039   0.536  0.00  0.00    -0.057 A 
ENDROOT
BRANCH   1   7
ATOM      7  N   UNL d   1       0.024  -0.508  -0.404  0.00  0.00    -0.732 N 
ATOM      8  C   UNL d   1       0.026  -1.884  -0.852  0.00  0.00     0.284 C 
ATOM      9  H3  UNL d   1      -0.897  -0.077  -0.391  0.00  0.00     0.395 HD
ENDBRANCH   1   7
TORSDOF 1
ENDMDL
