MODEL 1
REMARK minimizedAffinity 2.87692189
REMARK minimizedRMSD -1
REMARK  1 active torsions:
REMARK  status: ('A' for Active; 'I' for Inactive)
REMARK    1  A    between atoms: N_2  and  C1_3 
ROOT
ATOM      1  C1  UNL d   1       0.359   3.191   0.686  0.00  0.00     0.143 A 
ATOM      2  C2  UNL d   1       1.479   2.689   1.358  0.00  0.00    -0.057 A 
ATOM      3  C3  UNL d   1       1.967   1.403   1.095  0.00  0.00     0.033 A 
ATOM      4  C4  UNL d   1       1.325   0.584   0.173  0.00  0.00    -0.042 A 
ATOM      5  C5  UNL d   1       0.195   1.052  -0.488  0.00  0.00     0.033 A 
ATOM      6  C6  UNL d   1      -0.284   2.340  -0.227  0.00  0.00    -0.057 A 
ENDROOT
BRANCH   1   7
ATOM      7  N   UNL d   1      -0.233   4.423   0.974  0.00  0.00    -0.732 N 
ATOM      8  C   UNL d   1       0.124   5.606   0.221  0.00  0.00     0.284 C 
ATOM      9  H3  UNL d   1      -1.228   4.339   1.170  0.00  0.00     0.395 HD
ENDBRANCH   1   7
TORSDOF 1
ENDMDL
