MODEL 1
REMARK minimizedAffinity 5.54301739
REMARK minimizedRMSD -1
REMARK  2 active torsions:
REMARK  status: ('A' for Active; 'I' for Inactive)
REMARK    1  A    between atoms: C2'_3  and  C1'_4 
REMARK    2  A    between atoms: C1'_4  and  C1_5 
ROOT
ATOM      1  C1  I4B d   1       4.143  -1.471  -3.743  0.00  0.00    -0.075 A 
ATOM      2  C2  I4B d   1       3.794  -0.147  -3.847  0.00  0.00     0.003 A 
ATOM      3  C3  I4B d   1       4.145   0.594  -5.001  0.00  0.00     0.002 A 
ATOM      4  C4  I4B d   1       4.883  -0.011  -5.999  0.00  0.00    -0.004 A 
ATOM      5  C5  I4B d   1       5.215  -1.359  -5.902  0.00  0.00     0.002 A 
ATOM      6  C6  I4B d   1       4.833  -2.097  -4.773  0.00  0.00     0.003 A 
ENDROOT
BRANCH   1   7
ATOM      7  C1' I4B d   1       3.785  -2.214  -2.495  0.00  0.00     0.060 C 
BRANCH   7   8
ATOM      8  C2' I4B d   1       2.454  -2.899  -2.725  0.00  0.00    -0.013 C 
ATOM      9  C4' I4B d   1       2.495  -3.775  -3.950  0.00  0.00     0.013 C 
ATOM     10  C3' I4B d   1       2.126  -3.698  -1.499  0.00  0.00     0.013 C 
ENDBRANCH   7   8
ENDBRANCH   1   7
TORSDOF 2
ENDMDL
