MODEL 1
REMARK minimizedAffinity 3.69513726
REMARK minimizedRMSD -1
REMARK  2 active torsions:
REMARK  status: ('A' for Active; 'I' for Inactive)
REMARK    1  A    between atoms: C2'_3  and  C1'_4 
REMARK    2  A    between atoms: C1'_4  and  C1_5 
ROOT
ATOM      1  C1  I4B d   1      -5.519  -3.608  -3.444  0.00  0.00    -0.075 A 
ATOM      2  C2  I4B d   1      -5.608  -4.785  -4.145  0.00  0.00     0.003 A 
ATOM      3  C3  I4B d   1      -5.173  -5.998  -3.560  0.00  0.00     0.002 A 
ATOM      4  C4  I4B d   1      -4.613  -5.982  -2.299  0.00  0.00    -0.004 A 
ATOM      5  C5  I4B d   1      -4.544  -4.792  -1.580  0.00  0.00     0.002 A 
ATOM      6  C6  I4B d   1      -5.012  -3.599  -2.151  0.00  0.00     0.003 A 
ENDROOT
BRANCH   1   7
ATOM      7  C1' I4B d   1      -5.957  -2.340  -4.105  0.00  0.00     0.060 C 
BRANCH   7   8
ATOM      8  C2' I4B d   1      -5.721  -2.484  -5.594  0.00  0.00    -0.013 C 
ATOM      9  C4' I4B d   1      -4.315  -2.089  -5.964  0.00  0.00     0.013 C 
ATOM     10  C3' I4B d   1      -6.000  -3.908  -5.972  0.00  0.00     0.013 C 
ENDBRANCH   7   8
ENDBRANCH   1   7
TORSDOF 2
ENDMDL
