MODEL 1
REMARK minimizedAffinity 1.13348138
REMARK minimizedRMSD -1
REMARK  2 active torsions:
REMARK  status: ('A' for Active; 'I' for Inactive)
REMARK    1  A    between atoms: C2'_3  and  C1'_4 
REMARK    2  A    between atoms: C1'_4  and  C1_5 
ROOT
ATOM      1  C1  I4B d   1       3.916  -2.157  -2.480  0.00  0.00    -0.075 A 
ATOM      2  C2  I4B d   1       3.138  -3.131  -3.054  0.00  0.00     0.003 A 
ATOM      3  C3  I4B d   1       2.091  -3.735  -2.316  0.00  0.00     0.002 A 
ATOM      4  C4  I4B d   1       1.891  -3.372  -0.999  0.00  0.00    -0.004 A 
ATOM      5  C5  I4B d   1       2.666  -2.367  -0.426  0.00  0.00     0.002 A 
ATOM      6  C6  I4B d   1       3.677  -1.747  -1.175  0.00  0.00     0.003 A 
ENDROOT
BRANCH   1   7
ATOM      7  C1' I4B d   1       5.034  -1.564  -3.278  0.00  0.00     0.060 C 
BRANCH   7   8
ATOM      8  C2' I4B d   1       4.486  -1.184  -4.638  0.00  0.00    -0.013 C 
ATOM      9  C4' I4B d   1       4.292   0.305  -4.751  0.00  0.00     0.013 C 
ATOM     10  C3' I4B d   1       5.442  -1.686  -5.679  0.00  0.00     0.013 C 
ENDBRANCH   7   8
ENDBRANCH   1   7
TORSDOF 2
ENDMDL
