MODEL 1
REMARK minimizedAffinity 6.12928581
REMARK minimizedRMSD -1
REMARK  2 active torsions:
REMARK  status: ('A' for Active; 'I' for Inactive)
REMARK    1  A    between atoms: C2'_3  and  C1'_4 
REMARK    2  A    between atoms: C1'_4  and  C1_5 
ROOT
ATOM      1  C1  I4B d   1      -5.606  -5.292  -3.596  0.00  0.00    -0.075 A 
ATOM      2  C2  I4B d   1      -5.988  -3.986  -3.417  0.00  0.00     0.003 A 
ATOM      3  C3  I4B d   1      -5.661  -3.305  -2.219  0.00  0.00     0.002 A 
ATOM      4  C4  I4B d   1      -4.999  -3.979  -1.214  0.00  0.00    -0.004 A 
ATOM      5  C5  I4B d   1      -4.592  -5.296  -1.406  0.00  0.00     0.002 A 
ATOM      6  C6  I4B d   1      -4.886  -5.953  -2.609  0.00  0.00     0.003 A 
ENDROOT
BRANCH   1   7
ATOM      7  C1' I4B d   1      -5.997  -5.991  -4.859  0.00  0.00     0.060 C 
BRANCH   7   8
ATOM      8  C2' I4B d   1      -5.211  -5.373  -5.997  0.00  0.00    -0.013 C 
ATOM      9  C4' I4B d   1      -5.145  -3.874  -5.864  0.00  0.00     0.013 C 
ATOM     10  C3' I4B d   1      -3.839  -5.977  -5.994  0.00  0.00     0.013 C 
ENDBRANCH   7   8
ENDBRANCH   1   7
TORSDOF 2
ENDMDL
