MODEL 1
REMARK minimizedAffinity -0.706743956
REMARK minimizedRMSD -1
REMARK  2 active torsions:
REMARK  status: ('A' for Active; 'I' for Inactive)
REMARK    1  A    between atoms: C2'_3  and  C1'_4 
REMARK    2  A    between atoms: C1'_4  and  C1_5 
ROOT
ATOM      1  C1  I4B d   1       4.714  -0.456  -4.116  0.00  0.00    -0.075 A 
ATOM      2  C2  I4B d   1       3.670   0.412  -4.318  0.00  0.00     0.003 A 
ATOM      3  C3  I4B d   1       3.773   1.436  -5.291  0.00  0.00     0.002 A 
ATOM      4  C4  I4B d   1       4.948   1.586  -5.998  0.00  0.00    -0.004 A 
ATOM      5  C5  I4B d   1       5.997   0.690  -5.808  0.00  0.00     0.002 A 
ATOM      6  C6  I4B d   1       5.875  -0.345  -4.870  0.00  0.00     0.003 A 
ENDROOT
BRANCH   1   7
ATOM      7  C1' I4B d   1       4.585  -1.505  -3.057  0.00  0.00     0.060 C 
BRANCH   7   8
ATOM      8  C2' I4B d   1       3.119  -1.622  -2.693  0.00  0.00    -0.013 C 
ATOM      9  C4' I4B d   1       2.628  -3.037  -2.855  0.00  0.00     0.013 C 
ATOM     10  C3' I4B d   1       2.954  -1.150  -1.279  0.00  0.00     0.013 C 
ENDBRANCH   7   8
ENDBRANCH   1   7
TORSDOF 2
ENDMDL
