MODEL 1
REMARK minimizedAffinity 7.39570665
REMARK minimizedRMSD -1
REMARK  2 active torsions:
REMARK  status: ('A' for Active; 'I' for Inactive)
REMARK    1  A    between atoms: C2'_3  and  C1'_4 
REMARK    2  A    between atoms: C1'_4  and  C1_5 
ROOT
ATOM      1  C1  I4B d   1       4.865   0.276  -3.190  0.00  0.00    -0.075 A 
ATOM      2  C2  I4B d   1       5.595  -0.764  -3.709  0.00  0.00     0.003 A 
ATOM      3  C3  I4B d   1       6.000  -0.744  -5.065  0.00  0.00     0.002 A 
ATOM      4  C4  I4B d   1       5.612   0.304  -5.875  0.00  0.00    -0.004 A 
ATOM      5  C5  I4B d   1       4.892   1.369  -5.342  0.00  0.00     0.002 A 
ATOM      6  C6  I4B d   1       4.526   1.361  -3.988  0.00  0.00     0.003 A 
ENDROOT
BRANCH   1   7
ATOM      7  C1' I4B d   1       4.427   0.207  -1.761  0.00  0.00     0.060 C 
BRANCH   7   8
ATOM      8  C2' I4B d   1       3.552  -1.020  -1.601  0.00  0.00    -0.013 C 
ATOM      9  C4' I4B d   1       2.947  -1.081  -0.223  0.00  0.00     0.013 C 
ATOM     10  C3' I4B d   1       2.489  -0.973  -2.657  0.00  0.00     0.013 C 
ENDBRANCH   7   8
ENDBRANCH   1   7
TORSDOF 2
ENDMDL
