MODEL 1
REMARK minimizedAffinity -2.64745069
REMARK minimizedRMSD -1
REMARK  1 active torsions:
REMARK  status: ('A' for Active; 'I' for Inactive)
REMARK    1  A    between atoms: C3_4  and  O_7 
ROOT
ATOM      1  C   UNL d   1       0.766  -1.946  -2.773  0.00  0.00    -0.033 A 
ATOM      2  C1  UNL d   1       0.863  -3.189  -3.402  0.00  0.00     0.039 A 
ATOM      3  C2  UNL d   1       0.871  -4.359  -2.641  0.00  0.00    -0.080 A 
ATOM      4  C3  UNL d   1       0.780  -4.274  -1.255  0.00  0.00     0.150 A 
ATOM      5  C4  UNL d   1       0.679  -3.040  -0.622  0.00  0.00    -0.007 A 
ATOM      6  C5  UNL d   1       0.672  -1.872  -1.383  0.00  0.00     0.039 A 
ENDROOT
BRANCH   4   7
ATOM      7  O   UNL d   1       0.789  -5.389  -0.470  0.00  0.00    -0.526 OA
ATOM      8  H5  UNL d   1       0.893  -6.167  -1.042  0.00  0.00     0.418 HD
ENDBRANCH   4   7
TORSDOF 1
ENDMDL
