MODEL 1
REMARK minimizedAffinity -3.14227271
REMARK minimizedRMSD -1
REMARK  1 active torsions:
REMARK  status: ('A' for Active; 'I' for Inactive)
REMARK    1  A    between atoms: C3_4  and  O_7 
ROOT
ATOM      1  C   UNL d   1       0.372  -0.774   0.850  0.00  0.00    -0.033 A 
ATOM      2  C1  UNL d   1       0.776   0.138  -0.127  0.00  0.00     0.039 A 
ATOM      3  C2  UNL d   1       0.523   1.501   0.040  0.00  0.00    -0.080 A 
ATOM      4  C3  UNL d   1      -0.132   1.939   1.188  0.00  0.00     0.150 A 
ATOM      5  C4  UNL d   1      -0.533   1.037   2.167  0.00  0.00    -0.007 A 
ATOM      6  C5  UNL d   1      -0.281  -0.324   1.998  0.00  0.00     0.039 A 
ENDROOT
BRANCH   4   7
ATOM      7  O   UNL d   1      -0.404   3.259   1.393  0.00  0.00    -0.526 OA
ATOM      8  H5  UNL d   1      -0.095   3.761   0.620  0.00  0.00     0.418 HD
ENDBRANCH   4   7
TORSDOF 1
ENDMDL
