MODEL 1
REMARK minimizedAffinity -2.3688066
REMARK minimizedRMSD -1
REMARK  1 active torsions:
REMARK  status: ('A' for Active; 'I' for Inactive)
REMARK    1  A    between atoms: C3_4  and  O_7 
ROOT
ATOM      1  C   UNL d   1       0.366   0.108  -0.298  0.00  0.00    -0.033 A 
ATOM      2  C1  UNL d   1      -0.486  -0.937   0.063  0.00  0.00     0.039 A 
ATOM      3  C2  UNL d   1      -0.431  -2.153  -0.621  0.00  0.00    -0.080 A 
ATOM      4  C3  UNL d   1       0.480  -2.311  -1.662  0.00  0.00     0.150 A 
ATOM      5  C4  UNL d   1       1.335  -1.275  -2.024  0.00  0.00    -0.007 A 
ATOM      6  C5  UNL d   1       1.278  -0.061  -1.341  0.00  0.00     0.039 A 
ENDROOT
BRANCH   4   7
ATOM      7  O   UNL d   1       0.567  -3.478  -2.362  0.00  0.00    -0.526 OA
ATOM      8  H5  UNL d   1      -0.104  -4.092  -2.020  0.00  0.00     0.418 HD
ENDBRANCH   4   7
TORSDOF 1
ENDMDL
