MODEL 1
REMARK minimizedAffinity 0.0500096418
REMARK minimizedRMSD -1
REMARK  1 active torsions:
REMARK  status: ('A' for Active; 'I' for Inactive)
REMARK    1  A    between atoms: C3_4  and  O_7 
ROOT
ATOM      1  C   UNL d   1       1.045  -3.970  -2.790  0.00  0.00    -0.033 A 
ATOM      2  C1  UNL d   1       1.354  -4.084  -1.433  0.00  0.00     0.039 A 
ATOM      3  C2  UNL d   1       1.405  -2.945  -0.628  0.00  0.00    -0.080 A 
ATOM      4  C3  UNL d   1       1.144  -1.698  -1.191  0.00  0.00     0.150 A 
ATOM      5  C4  UNL d   1       0.832  -1.577  -2.541  0.00  0.00    -0.007 A 
ATOM      6  C5  UNL d   1       0.783  -2.716  -3.344  0.00  0.00     0.039 A 
ENDROOT
BRANCH   4   7
ATOM      7  O   UNL d   1       1.187  -0.557  -0.446  0.00  0.00    -0.526 OA
ATOM      8  H5  UNL d   1       1.443  -0.791   0.461  0.00  0.00     0.418 HD
ENDBRANCH   4   7
TORSDOF 1
ENDMDL
