MODEL 1
REMARK minimizedAffinity -0.358677655
REMARK minimizedRMSD -1
REMARK  1 active torsions:
REMARK  status: ('A' for Active; 'I' for Inactive)
REMARK    1  A    between atoms: C3_4  and  O_7 
ROOT
ATOM      1  C   UNL d   1      -1.049   0.724   1.821  0.00  0.00    -0.033 A 
ATOM      2  C1  UNL d   1       0.116   1.115   1.157  0.00  0.00     0.039 A 
ATOM      3  C2  UNL d   1       0.656   0.305   0.157  0.00  0.00    -0.080 A 
ATOM      4  C3  UNL d   1       0.023  -0.891  -0.171  0.00  0.00     0.150 A 
ATOM      5  C4  UNL d   1      -1.139  -1.285   0.484  0.00  0.00    -0.007 A 
ATOM      6  C5  UNL d   1      -1.677  -0.475   1.483  0.00  0.00     0.039 A 
ENDROOT
BRANCH   4   7
ATOM      7  O   UNL d   1       0.516  -1.717  -1.137  0.00  0.00    -0.526 OA
ATOM      8  H5  UNL d   1       1.338  -1.330  -1.482  0.00  0.00     0.418 HD
ENDBRANCH   4   7
TORSDOF 1
ENDMDL
