MODEL 1
REMARK minimizedAffinity -0.910287321
REMARK minimizedRMSD -1
REMARK  1 active torsions:
REMARK  status: ('A' for Active; 'I' for Inactive)
REMARK    1  A    between atoms: C3_4  and  O_7 
ROOT
ATOM      1  C   UNL d   1       0.759  -0.775   0.398  0.00  0.00    -0.033 A 
ATOM      2  C1  UNL d   1       0.022  -1.182   1.512  0.00  0.00     0.039 A 
ATOM      3  C2  UNL d   1      -0.901  -0.311   2.097  0.00  0.00    -0.080 A 
ATOM      4  C3  UNL d   1      -1.077   0.960   1.559  0.00  0.00     0.150 A 
ATOM      5  C4  UNL d   1      -0.348   1.371   0.447  0.00  0.00    -0.007 A 
ATOM      6  C5  UNL d   1       0.573   0.501  -0.135  0.00  0.00     0.039 A 
ENDROOT
BRANCH   4   7
ATOM      7  O   UNL d   1      -1.962   1.846   2.098  0.00  0.00    -0.526 OA
ATOM      8  H5  UNL d   1      -2.371   1.436   2.877  0.00  0.00     0.418 HD
ENDBRANCH   4   7
TORSDOF 1
ENDMDL
