MODEL 1
REMARK minimizedAffinity -1.3618679
REMARK minimizedRMSD -1
REMARK  1 active torsions:
REMARK  status: ('A' for Active; 'I' for Inactive)
REMARK    1  A    between atoms: C3_4  and  O_7 
ROOT
ATOM      1  C   UNL d   1       0.706  -0.407  -0.509  0.00  0.00    -0.033 A 
ATOM      2  C1  UNL d   1       1.125  -0.698   0.791  0.00  0.00     0.039 A 
ATOM      3  C2  UNL d   1       0.557  -0.028   1.876  0.00  0.00    -0.080 A 
ATOM      4  C3  UNL d   1      -0.429   0.929   1.648  0.00  0.00     0.150 A 
ATOM      5  C4  UNL d   1      -0.854   1.221   0.356  0.00  0.00    -0.007 A 
ATOM      6  C5  UNL d   1      -0.285   0.551  -0.726  0.00  0.00     0.039 A 
ENDROOT
BRANCH   4   7
ATOM      7  O   UNL d   1      -1.009   1.612   2.675  0.00  0.00    -0.526 OA
ATOM      8  H5  UNL d   1      -0.596   1.326   3.507  0.00  0.00     0.418 HD
ENDBRANCH   4   7
TORSDOF 1
ENDMDL
