MODEL 1
REMARK minimizedAffinity -3.77158833
REMARK minimizedRMSD -1
REMARK  1 active torsions:
REMARK  status: ('A' for Active; 'I' for Inactive)
REMARK    1  A    between atoms: C3_4  and  O_7 
ROOT
ATOM      1  C   UNL d   1      -1.470   2.884   1.840  0.00  0.00    -0.033 A 
ATOM      2  C1  UNL d   1      -0.786   3.196   0.664  0.00  0.00     0.039 A 
ATOM      3  C2  UNL d   1      -0.215   2.179  -0.104  0.00  0.00    -0.080 A 
ATOM      4  C3  UNL d   1      -0.336   0.857   0.313  0.00  0.00     0.150 A 
ATOM      5  C4  UNL d   1      -1.020   0.538   1.482  0.00  0.00    -0.007 A 
ATOM      6  C5  UNL d   1      -1.588   1.555   2.249  0.00  0.00     0.039 A 
ENDROOT
BRANCH   4   7
ATOM      7  O   UNL d   1       0.208  -0.169  -0.401  0.00  0.00    -0.526 OA
ATOM      8  H5  UNL d   1       0.674   0.204  -1.168  0.00  0.00     0.418 HD
ENDBRANCH   4   7
TORSDOF 1
ENDMDL
