MODEL 1
REMARK minimizedAffinity -2.6009984
REMARK minimizedRMSD -1
REMARK  1 active torsions:
REMARK  status: ('A' for Active; 'I' for Inactive)
REMARK    1  A    between atoms: C3_4  and  O_7 
ROOT
ATOM      1  C   UNL d   1      -0.927   3.335   1.632  0.00  0.00    -0.033 A 
ATOM      2  C1  UNL d   1      -1.084   2.058   2.173  0.00  0.00     0.039 A 
ATOM      3  C2  UNL d   1      -0.655   0.938   1.458  0.00  0.00    -0.080 A 
ATOM      4  C3  UNL d   1      -0.070   1.109   0.207  0.00  0.00     0.150 A 
ATOM      5  C4  UNL d   1       0.093   2.379  -0.336  0.00  0.00    -0.007 A 
ATOM      6  C5  UNL d   1      -0.337   3.496   0.378  0.00  0.00     0.039 A 
ENDROOT
BRANCH   4   7
ATOM      7  O   UNL d   1       0.361   0.045  -0.530  0.00  0.00    -0.526 OA
ATOM      8  H5  UNL d   1       0.157  -0.770  -0.042  0.00  0.00     0.418 HD
ENDBRANCH   4   7
TORSDOF 1
ENDMDL
