MODEL 1
REMARK minimizedAffinity -3.92813802
REMARK minimizedRMSD -1
REMARK  1 active torsions:
REMARK  status: ('A' for Active; 'I' for Inactive)
REMARK    1  A    between atoms: C3_4  and  O_7 
ROOT
ATOM      1  C   UNL d   1      -1.213   2.988   1.247  0.00  0.00    -0.033 A 
ATOM      2  C1  UNL d   1      -0.524   3.114   0.039  0.00  0.00     0.039 A 
ATOM      3  C2  UNL d   1      -0.030   1.979  -0.606  0.00  0.00    -0.080 A 
ATOM      4  C3  UNL d   1      -0.232   0.726  -0.035  0.00  0.00     0.150 A 
ATOM      5  C4  UNL d   1      -0.922   0.593   1.166  0.00  0.00    -0.007 A 
ATOM      6  C5  UNL d   1      -1.413   1.727   1.810  0.00  0.00     0.039 A 
ENDROOT
BRANCH   4   7
ATOM      7  O   UNL d   1       0.235  -0.411  -0.625  0.00  0.00    -0.526 OA
ATOM      8  H5  UNL d   1       0.716  -0.162  -1.433  0.00  0.00     0.418 HD
ENDBRANCH   4   7
TORSDOF 1
ENDMDL
