MODEL 1
REMARK minimizedAffinity -4.05721045
REMARK minimizedRMSD -1
REMARK  1 active torsions:
REMARK  status: ('A' for Active; 'I' for Inactive)
REMARK    1  A    between atoms: C3_4  and  O_7 
ROOT
ATOM      1  C   UNL d   1      -1.202   2.938   0.677  0.00  0.00    -0.033 A 
ATOM      2  C1  UNL d   1      -1.731   2.408   1.855  0.00  0.00     0.039 A 
ATOM      3  C2  UNL d   1      -1.435   1.096   2.228  0.00  0.00    -0.080 A 
ATOM      4  C3  UNL d   1      -0.609   0.325   1.414  0.00  0.00     0.150 A 
ATOM      5  C4  UNL d   1      -0.075   0.847   0.241  0.00  0.00    -0.007 A 
ATOM      6  C5  UNL d   1      -0.373   2.158  -0.130  0.00  0.00     0.039 A 
ENDROOT
BRANCH   4   7
ATOM      7  O   UNL d   1      -0.296  -0.963   1.734  0.00  0.00    -0.526 OA
ATOM      8  H5  UNL d   1      -0.759  -1.198   2.555  0.00  0.00     0.418 HD
ENDBRANCH   4   7
TORSDOF 1
ENDMDL
