MODEL 1
REMARK minimizedAffinity -2.31895471
REMARK minimizedRMSD -1
REMARK  1 active torsions:
REMARK  status: ('A' for Active; 'I' for Inactive)
REMARK    1  A    between atoms: C3_4  and  O_7 
ROOT
ATOM      1  C   UNL d   1       0.179   0.642   1.384  0.00  0.00    -0.033 A 
ATOM      2  C1  UNL d   1       0.785   1.168   0.242  0.00  0.00     0.039 A 
ATOM      3  C2  UNL d   1       1.047   0.344  -0.854  0.00  0.00    -0.080 A 
ATOM      4  C3  UNL d   1       0.698  -1.003  -0.795  0.00  0.00     0.150 A 
ATOM      5  C4  UNL d   1       0.091  -1.533   0.338  0.00  0.00    -0.007 A 
ATOM      6  C5  UNL d   1      -0.169  -0.708   1.432  0.00  0.00     0.039 A 
ENDROOT
BRANCH   4   7
ATOM      7  O   UNL d   1       0.938  -1.848  -1.838  0.00  0.00    -0.526 OA
ATOM      8  H5  UNL d   1       1.387  -1.349  -2.541  0.00  0.00     0.418 HD
ENDBRANCH   4   7
TORSDOF 1
ENDMDL
