MODEL 1
REMARK minimizedAffinity -4.16531944
REMARK minimizedRMSD -1
REMARK  1 active torsions:
REMARK  status: ('A' for Active; 'I' for Inactive)
REMARK    1  A    between atoms: C3_4  and  O_7 
ROOT
ATOM      1  C   UNL d   1      -0.964   2.203   1.525  0.00  0.00    -0.033 A 
ATOM      2  C1  UNL d   1      -1.349   0.913   1.894  0.00  0.00     0.039 A 
ATOM      3  C2  UNL d   1      -0.886  -0.189   1.173  0.00  0.00    -0.080 A 
ATOM      4  C3  UNL d   1      -0.039   0.012   0.087  0.00  0.00     0.150 A 
ATOM      5  C4  UNL d   1       0.352   1.295  -0.285  0.00  0.00    -0.007 A 
ATOM      6  C5  UNL d   1      -0.113   2.394   0.436  0.00  0.00     0.039 A 
ENDROOT
BRANCH   4   7
ATOM      7  O   UNL d   1       0.435  -1.032  -0.651  0.00  0.00    -0.526 OA
ATOM      8  H5  UNL d   1       0.059  -1.855  -0.296  0.00  0.00     0.418 HD
ENDBRANCH   4   7
TORSDOF 1
ENDMDL
