MODEL 1
REMARK minimizedAffinity -2.21797752
REMARK minimizedRMSD -1
REMARK  1 active torsions:
REMARK  status: ('A' for Active; 'I' for Inactive)
REMARK    1  A    between atoms: C3_4  and  O_7 
ROOT
ATOM      1  C   UNL d   1      -0.311   4.080   0.220  0.00  0.00    -0.033 A 
ATOM      2  C1  UNL d   1      -0.947   3.581   1.358  0.00  0.00     0.039 A 
ATOM      3  C2  UNL d   1      -1.037   2.203   1.561  0.00  0.00    -0.080 A 
ATOM      4  C3  UNL d   1      -0.487   1.336   0.621  0.00  0.00     0.150 A 
ATOM      5  C4  UNL d   1       0.152   1.826  -0.513  0.00  0.00    -0.007 A 
ATOM      6  C5  UNL d   1       0.240   3.203  -0.715  0.00  0.00     0.039 A 
ENDROOT
BRANCH   4   7
ATOM      7  O   UNL d   1      -0.554  -0.017   0.774  0.00  0.00    -0.526 OA
ATOM      8  H5  UNL d   1      -1.049  -0.211   1.588  0.00  0.00     0.418 HD
ENDBRANCH   4   7
TORSDOF 1
ENDMDL
