MODEL 1
REMARK minimizedAffinity -2.19128418
REMARK minimizedRMSD -1
REMARK  1 active torsions:
REMARK  status: ('A' for Active; 'I' for Inactive)
REMARK    1  A    between atoms: C3_4  and  O_7 
ROOT
ATOM      1  C   UNL d   1       0.637  -0.782   0.156  0.00  0.00    -0.033 A 
ATOM      2  C1  UNL d   1       1.010   0.544  -0.071  0.00  0.00     0.039 A 
ATOM      3  C2  UNL d   1       0.368   1.579   0.613  0.00  0.00    -0.080 A 
ATOM      4  C3  UNL d   1      -0.643   1.274   1.520  0.00  0.00     0.150 A 
ATOM      5  C4  UNL d   1      -1.018  -0.045   1.753  0.00  0.00    -0.007 A 
ATOM      6  C5  UNL d   1      -0.376  -1.077   1.069  0.00  0.00     0.039 A 
ENDROOT
BRANCH   4   7
ATOM      7  O   UNL d   1      -1.302   2.250   2.207  0.00  0.00    -0.526 OA
ATOM      8  H5  UNL d   1      -0.957   3.113   1.923  0.00  0.00     0.418 HD
ENDBRANCH   4   7
TORSDOF 1
ENDMDL
