MODEL 1
REMARK minimizedAffinity -4.34706783
REMARK minimizedRMSD -1
REMARK  1 active torsions:
REMARK  status: ('A' for Active; 'I' for Inactive)
REMARK    1  A    between atoms: C3_4  and  O_7 
ROOT
ATOM      1  C   UNL d   1      -0.859   1.568   1.859  0.00  0.00    -0.033 A 
ATOM      2  C1  UNL d   1      -1.008   0.224   2.207  0.00  0.00     0.039 A 
ATOM      3  C2  UNL d   1      -0.364  -0.767   1.463  0.00  0.00    -0.080 A 
ATOM      4  C3  UNL d   1       0.426  -0.401   0.377  0.00  0.00     0.150 A 
ATOM      5  C4  UNL d   1       0.582   0.936   0.028  0.00  0.00    -0.007 A 
ATOM      6  C5  UNL d   1      -0.063   1.924   0.771  0.00  0.00     0.039 A 
ENDROOT
BRANCH   4   7
ATOM      7  O   UNL d   1       1.070  -1.333  -0.381  0.00  0.00    -0.526 OA
ATOM      8  H5  UNL d   1       0.848  -2.215  -0.040  0.00  0.00     0.418 HD
ENDBRANCH   4   7
TORSDOF 1
ENDMDL
