MODEL 1
REMARK minimizedAffinity 3.22627997
REMARK minimizedRMSD -1
REMARK  3 active torsions:
REMARK  status: ('A' for Active; 'I' for Inactive)
REMARK    1  A    between atoms: C3'_2  and  C2'_3 
REMARK    2  A    between atoms: C2'_3  and  C1'_4 
REMARK    3  A    between atoms: C1'_4  and  C1_5 
ROOT
ATOM      1  C1  N4B d   1      -5.547   4.643   3.282  0.00  0.00    -0.075 A 
ATOM      2  C2  N4B d   1      -5.878   5.766   4.072  0.00  0.00     0.002 A 
ATOM      3  C3  N4B d   1      -5.610   5.761   5.419  0.00  0.00     0.002 A 
ATOM      4  C4  N4B d   1      -5.033   4.642   5.999  0.00  0.00    -0.004 A 
ATOM      5  C5  N4B d   1      -4.693   3.571   5.225  0.00  0.00     0.002 A 
ATOM      6  C6  N4B d   1      -4.952   3.564   3.870  0.00  0.00     0.002 A 
ENDROOT
BRANCH   1   7
ATOM      7  C1' N4B d   1      -5.898   4.568   1.821  0.00  0.00     0.057 C 
BRANCH   7   8
ATOM      8  C2' N4B d   1      -5.974   5.981   1.251  0.00  0.00     0.009 C 
BRANCH   8   9
ATOM      9  C3' N4B d   1      -5.777   5.997  -0.255  0.00  0.00     0.004 C 
ATOM     10  C4' N4B d   1      -4.725   5.031  -0.713  0.00  0.00     0.003 C 
ENDBRANCH   8   9
ENDBRANCH   7   8
ENDBRANCH   1   7
TORSDOF 3
ENDMDL
