MODEL 1
REMARK minimizedAffinity 5.48377037
REMARK minimizedRMSD -1
REMARK  3 active torsions:
REMARK  status: ('A' for Active; 'I' for Inactive)
REMARK    1  A    between atoms: C3'_2  and  C2'_3 
REMARK    2  A    between atoms: C2'_3  and  C1'_4 
REMARK    3  A    between atoms: C1'_4  and  C1_5 
ROOT
ATOM      1  C1  N4B d   1       2.849   3.330   1.862  0.00  0.00    -0.075 A 
ATOM      2  C2  N4B d   1       1.517   3.056   2.243  0.00  0.00     0.002 A 
ATOM      3  C3  N4B d   1       1.002   1.794   2.078  0.00  0.00     0.002 A 
ATOM      4  C4  N4B d   1       1.789   0.799   1.518  0.00  0.00    -0.004 A 
ATOM      5  C5  N4B d   1       3.083   1.066   1.175  0.00  0.00     0.002 A 
ATOM      6  C6  N4B d   1       3.615   2.328   1.339  0.00  0.00     0.002 A 
ENDROOT
BRANCH   1   7
ATOM      7  C1' N4B d   1       3.429   4.715   1.944  0.00  0.00     0.057 C 
BRANCH   7   8
ATOM      8  C2' N4B d   1       4.808   4.643   2.595  0.00  0.00     0.009 C 
BRANCH   8   9
ATOM      9  C3' N4B d   1       5.268   5.999   3.103  0.00  0.00     0.004 C 
ATOM     10  C4' N4B d   1       6.000   5.911   4.409  0.00  0.00     0.003 C 
ENDBRANCH   8   9
ENDBRANCH   7   8
ENDBRANCH   1   7
TORSDOF 3
ENDMDL
