MODEL 1
REMARK minimizedAffinity 3.72655416
REMARK minimizedRMSD -1
REMARK  3 active torsions:
REMARK  status: ('A' for Active; 'I' for Inactive)
REMARK    1  A    between atoms: C3'_2  and  C2'_3 
REMARK    2  A    between atoms: C2'_3  and  C1'_4 
REMARK    3  A    between atoms: C1'_4  and  C1_5 
ROOT
ATOM      1  C1  N4B d   1       2.636   2.730   1.233  0.00  0.00    -0.075 A 
ATOM      2  C2  N4B d   1       1.499   1.980   0.859  0.00  0.00     0.002 A 
ATOM      3  C3  N4B d   1       1.573   0.610   0.792  0.00  0.00     0.002 A 
ATOM      4  C4  N4B d   1       2.771  -0.027   1.075  0.00  0.00    -0.004 A 
ATOM      5  C5  N4B d   1       3.857   0.703   1.460  0.00  0.00     0.002 A 
ATOM      6  C6  N4B d   1       3.797   2.080   1.536  0.00  0.00     0.002 A 
ENDROOT
BRANCH   1   7
ATOM      7  C1' N4B d   1       2.628   4.234   1.238  0.00  0.00     0.057 C 
BRANCH   7   8
ATOM      8  C2' N4B d   1       4.055   4.742   1.420  0.00  0.00     0.009 C 
BRANCH   8   9
ATOM      9  C3' N4B d   1       4.107   6.000   2.270  0.00  0.00     0.004 C 
ATOM     10  C4' N4B d   1       5.245   5.995   3.246  0.00  0.00     0.003 C 
ENDBRANCH   8   9
ENDBRANCH   7   8
ENDBRANCH   1   7
TORSDOF 3
ENDMDL
