MODEL 1
REMARK minimizedAffinity 22.102478
REMARK minimizedRMSD -1
REMARK  3 active torsions:
REMARK  status: ('A' for Active; 'I' for Inactive)
REMARK    1  A    between atoms: C3'_2  and  C2'_3 
REMARK    2  A    between atoms: C2'_3  and  C1'_4 
REMARK    3  A    between atoms: C1'_4  and  C1_5 
ROOT
ATOM      1  C1  N4B d   1      -1.277   1.086   3.678  0.00  0.00    -0.075 A 
ATOM      2  C2  N4B d   1      -1.948  -0.123   3.389  0.00  0.00     0.002 A 
ATOM      3  C3  N4B d   1      -3.239  -0.096   2.921  0.00  0.00     0.002 A 
ATOM      4  C4  N4B d   1      -3.883   1.120   2.753  0.00  0.00    -0.004 A 
ATOM      5  C5  N4B d   1      -3.219   2.284   3.011  0.00  0.00     0.002 A 
ATOM      6  C6  N4B d   1      -1.920   2.273   3.477  0.00  0.00     0.002 A 
ENDROOT
BRANCH   1   7
ATOM      7  C1' N4B d   1       0.104   1.104   4.273  0.00  0.00     0.057 C 
BRANCH   7   8
ATOM      8  C2' N4B d   1       1.087   0.497   3.275  0.00  0.00     0.009 C 
BRANCH   8   9
ATOM      9  C3' N4B d   1       1.393   1.446   2.130  0.00  0.00     0.004 C 
ATOM     10  C4' N4B d   1       2.046   0.761   0.967  0.00  0.00     0.003 C 
ENDBRANCH   8   9
ENDBRANCH   7   8
ENDBRANCH   1   7
TORSDOF 3
ENDMDL
