MODEL 1
REMARK minimizedAffinity 18.6834469
REMARK minimizedRMSD -1
REMARK  3 active torsions:
REMARK  status: ('A' for Active; 'I' for Inactive)
REMARK    1  A    between atoms: C3'_2  and  C2'_3 
REMARK    2  A    between atoms: C2'_3  and  C1'_4 
REMARK    3  A    between atoms: C1'_4  and  C1_5 
ROOT
ATOM      1  C1  N4B d   1      -3.232  -5.114  -2.620  0.00  0.00    -0.075 A 
ATOM      2  C2  N4B d   1      -3.507  -3.732  -2.705  0.00  0.00     0.002 A 
ATOM      3  C3  N4B d   1      -4.807  -3.290  -2.720  0.00  0.00     0.002 A 
ATOM      4  C4  N4B d   1      -5.844  -4.209  -2.672  0.00  0.00    -0.004 A 
ATOM      5  C5  N4B d   1      -5.570  -5.541  -2.565  0.00  0.00     0.002 A 
ATOM      6  C6  N4B d   1      -4.268  -5.999  -2.544  0.00  0.00     0.002 A 
ENDROOT
BRANCH   1   7
ATOM      7  C1' N4B d   1      -1.828  -5.650  -2.687  0.00  0.00     0.057 C 
BRANCH   7   8
ATOM      8  C2' N4B d   1      -1.401  -5.757  -4.148  0.00  0.00     0.009 C 
BRANCH   8   9
ATOM      9  C3' N4B d   1      -0.377  -4.697  -4.519  0.00  0.00     0.004 C 
ATOM     10  C4' N4B d   1       1.030  -5.117  -4.215  0.00  0.00     0.003 C 
ENDBRANCH   8   9
ENDBRANCH   7   8
ENDBRANCH   1   7
TORSDOF 3
ENDMDL
