MODEL 1
REMARK minimizedAffinity 9.39422989
REMARK minimizedRMSD -1
REMARK  3 active torsions:
REMARK  status: ('A' for Active; 'I' for Inactive)
REMARK    1  A    between atoms: C3'_2  and  C2'_3 
REMARK    2  A    between atoms: C2'_3  and  C1'_4 
REMARK    3  A    between atoms: C1'_4  and  C1_5 
ROOT
ATOM      1  C1  N4B d   1       3.857   4.681  -3.893  0.00  0.00    -0.075 A 
ATOM      2  C2  N4B d   1       4.609   5.273  -4.932  0.00  0.00     0.002 A 
ATOM      3  C3  N4B d   1       3.969   5.934  -5.951  0.00  0.00     0.002 A 
ATOM      4  C4  N4B d   1       2.584   6.000  -5.964  0.00  0.00    -0.004 A 
ATOM      5  C5  N4B d   1       1.866   5.447  -4.943  0.00  0.00     0.002 A 
ATOM      6  C6  N4B d   1       2.496   4.783  -3.910  0.00  0.00     0.002 A 
ENDROOT
BRANCH   1   7
ATOM      7  C1' N4B d   1       4.507   3.874  -2.803  0.00  0.00     0.057 C 
BRANCH   7   8
ATOM      8  C2' N4B d   1       3.587   2.719  -2.418  0.00  0.00     0.009 C 
BRANCH   8   9
ATOM      9  C3' N4B d   1       4.194   1.847  -1.332  0.00  0.00     0.004 C 
ATOM     10  C4' N4B d   1       3.264   1.629  -0.175  0.00  0.00     0.003 C 
ENDBRANCH   8   9
ENDBRANCH   7   8
ENDBRANCH   1   7
TORSDOF 3
ENDMDL
