MODEL 1
REMARK minimizedAffinity 5.41177177
REMARK minimizedRMSD -1
REMARK  3 active torsions:
REMARK  status: ('A' for Active; 'I' for Inactive)
REMARK    1  A    between atoms: C3'_2  and  C2'_3 
REMARK    2  A    between atoms: C2'_3  and  C1'_4 
REMARK    3  A    between atoms: C1'_4  and  C1_5 
ROOT
ATOM      1  C1  N4B d   1       2.561   4.788   1.714  0.00  0.00    -0.075 A 
ATOM      2  C2  N4B d   1       1.196   5.108   1.887  0.00  0.00     0.002 A 
ATOM      3  C3  N4B d   1       0.236   4.144   1.699  0.00  0.00     0.002 A 
ATOM      4  C4  N4B d   1       0.614   2.864   1.321  0.00  0.00    -0.004 A 
ATOM      5  C5  N4B d   1       1.936   2.557   1.181  0.00  0.00     0.002 A 
ATOM      6  C6  N4B d   1       2.912   3.514   1.370  0.00  0.00     0.002 A 
ENDROOT
BRANCH   1   7
ATOM      7  C1' N4B d   1       3.641   5.829   1.824  0.00  0.00     0.057 C 
BRANCH   7   8
ATOM      8  C2' N4B d   1       4.992   5.136   1.971  0.00  0.00     0.009 C 
BRANCH   8   9
ATOM      9  C3' N4B d   1       5.997   6.000   2.714  0.00  0.00     0.004 C 
ATOM     10  C4' N4B d   1       5.923   5.827   4.202  0.00  0.00     0.003 C 
ENDBRANCH   8   9
ENDBRANCH   7   8
ENDBRANCH   1   7
TORSDOF 3
ENDMDL
