MODEL 1
REMARK minimizedAffinity 9.35338116
REMARK minimizedRMSD -1
REMARK  3 active torsions:
REMARK  status: ('A' for Active; 'I' for Inactive)
REMARK    1  A    between atoms: C3'_2  and  C2'_3 
REMARK    2  A    between atoms: C2'_3  and  C1'_4 
REMARK    3  A    between atoms: C1'_4  and  C1_5 
ROOT
ATOM      1  C1  N4B d   1       0.726  -0.496   1.037  0.00  0.00    -0.075 A 
ATOM      2  C2  N4B d   1       0.383   0.211   2.211  0.00  0.00     0.002 A 
ATOM      3  C3  N4B d   1       1.151   1.272   2.623  0.00  0.00     0.002 A 
ATOM      4  C4  N4B d   1       2.274   1.631   1.891  0.00  0.00    -0.004 A 
ATOM      5  C5  N4B d   1       2.584   0.959   0.745  0.00  0.00     0.002 A 
ATOM      6  C6  N4B d   1       1.818  -0.107   0.317  0.00  0.00     0.002 A 
ENDROOT
BRANCH   1   7
ATOM      7  C1' N4B d   1      -0.034  -1.716   0.594  0.00  0.00     0.057 C 
BRANCH   7   8
ATOM      8  C2' N4B d   1      -1.081  -2.064   1.648  0.00  0.00     0.009 C 
BRANCH   8   9
ATOM      9  C3' N4B d   1      -2.078  -3.092   1.141  0.00  0.00     0.004 C 
ATOM     10  C4' N4B d   1      -2.828  -2.625  -0.071  0.00  0.00     0.003 C 
ENDBRANCH   8   9
ENDBRANCH   7   8
ENDBRANCH   1   7
TORSDOF 3
ENDMDL
