MODEL 1
REMARK minimizedAffinity 9.83538818
REMARK minimizedRMSD -1
REMARK  3 active torsions:
REMARK  status: ('A' for Active; 'I' for Inactive)
REMARK    1  A    between atoms: C3'_2  and  C2'_3 
REMARK    2  A    between atoms: C2'_3  and  C1'_4 
REMARK    3  A    between atoms: C1'_4  and  C1_5 
ROOT
ATOM      1  C1  N4B d   1       2.551   0.794   0.729  0.00  0.00    -0.075 A 
ATOM      2  C2  N4B d   1       2.929   1.419  -0.479  0.00  0.00     0.002 A 
ATOM      3  C3  N4B d   1       3.986   0.927  -1.205  0.00  0.00     0.002 A 
ATOM      4  C4  N4B d   1       4.688  -0.173  -0.735  0.00  0.00    -0.004 A 
ATOM      5  C5  N4B d   1       4.300  -0.786   0.420  0.00  0.00     0.002 A 
ATOM      6  C6  N4B d   1       3.237  -0.304   1.158  0.00  0.00     0.002 A 
ENDROOT
BRANCH   1   7
ATOM      7  C1' N4B d   1       1.457   1.348   1.601  0.00  0.00     0.057 C 
BRANCH   7   8
ATOM      8  C2' N4B d   1       1.505   0.661   2.962  0.00  0.00     0.009 C 
BRANCH   8   9
ATOM      9  C3' N4B d   1       0.355   1.091   3.857  0.00  0.00     0.004 C 
ATOM     10  C4' N4B d   1       0.413   0.465   5.218  0.00  0.00     0.003 C 
ENDBRANCH   8   9
ENDBRANCH   7   8
ENDBRANCH   1   7
TORSDOF 3
ENDMDL
