MODEL 1
REMARK minimizedAffinity 4.41923094
REMARK minimizedRMSD -1
REMARK  3 active torsions:
REMARK  status: ('A' for Active; 'I' for Inactive)
REMARK    1  A    between atoms: C3'_2  and  C2'_3 
REMARK    2  A    between atoms: C2'_3  and  C1'_4 
REMARK    3  A    between atoms: C1'_4  and  C1_5 
ROOT
ATOM      1  C1  N4B d   1      -1.838  -2.789  -2.533  0.00  0.00    -0.075 A 
ATOM      2  C2  N4B d   1      -1.889  -2.000  -1.363  0.00  0.00     0.002 A 
ATOM      3  C3  N4B d   1      -0.820  -1.980  -0.502  0.00  0.00     0.002 A 
ATOM      4  C4  N4B d   1       0.298  -2.753  -0.779  0.00  0.00    -0.004 A 
ATOM      5  C5  N4B d   1       0.349  -3.492  -1.924  0.00  0.00     0.002 A 
ATOM      6  C6  N4B d   1      -0.716  -3.518  -2.801  0.00  0.00     0.002 A 
ENDROOT
BRANCH   1   7
ATOM      7  C1' N4B d   1      -3.016  -2.909  -3.461  0.00  0.00     0.057 C 
BRANCH   7   8
ATOM      8  C2' N4B d   1      -4.219  -3.429  -2.679  0.00  0.00     0.009 C 
BRANCH   8   9
ATOM      9  C3' N4B d   1      -5.529  -3.136  -3.391  0.00  0.00     0.004 C 
ATOM     10  C4' N4B d   1      -5.388  -3.121  -4.884  0.00  0.00     0.003 C 
ENDBRANCH   8   9
ENDBRANCH   7   8
ENDBRANCH   1   7
TORSDOF 3
ENDMDL
