MODEL 1
REMARK minimizedAffinity 15.0420799
REMARK minimizedRMSD -1
REMARK  3 active torsions:
REMARK  status: ('A' for Active; 'I' for Inactive)
REMARK    1  A    between atoms: C3'_2  and  C2'_3 
REMARK    2  A    between atoms: C2'_3  and  C1'_4 
REMARK    3  A    between atoms: C1'_4  and  C1_5 
ROOT
ATOM      1  C1  N4B d   1      -2.426  -3.758  -3.210  0.00  0.00    -0.075 A 
ATOM      2  C2  N4B d   1      -1.810  -3.415  -4.434  0.00  0.00     0.002 A 
ATOM      3  C3  N4B d   1      -0.727  -4.130  -4.882  0.00  0.00     0.002 A 
ATOM      4  C4  N4B d   1      -0.231  -5.176  -4.118  0.00  0.00    -0.004 A 
ATOM      5  C5  N4B d   1      -0.847  -5.517  -2.949  0.00  0.00     0.002 A 
ATOM      6  C6  N4B d   1      -1.939  -4.810  -2.489  0.00  0.00     0.002 A 
ENDROOT
BRANCH   1   7
ATOM      7  C1' N4B d   1      -3.559  -2.952  -2.637  0.00  0.00     0.057 C 
BRANCH   7   8
ATOM      8  C2' N4B d   1      -4.835  -3.788  -2.669  0.00  0.00     0.009 C 
BRANCH   8   9
ATOM      9  C3' N4B d   1      -5.997  -3.029  -3.285  0.00  0.00     0.004 C 
ATOM     10  C4' N4B d   1      -5.973  -3.045  -4.784  0.00  0.00     0.003 C 
ENDBRANCH   8   9
ENDBRANCH   7   8
ENDBRANCH   1   7
TORSDOF 3
ENDMDL
