MODEL 1
REMARK minimizedAffinity 8.39731312
REMARK minimizedRMSD -1
REMARK  3 active torsions:
REMARK  status: ('A' for Active; 'I' for Inactive)
REMARK    1  A    between atoms: C3'_2  and  C2'_3 
REMARK    2  A    between atoms: C2'_3  and  C1'_4 
REMARK    3  A    between atoms: C1'_4  and  C1_5 
ROOT
ATOM      1  C1  N4B d   1      -3.664  -3.724  -2.466  0.00  0.00    -0.075 A 
ATOM      2  C2  N4B d   1      -3.107  -2.975  -1.406  0.00  0.00     0.002 A 
ATOM      3  C3  N4B d   1      -1.949  -2.263  -1.603  0.00  0.00     0.002 A 
ATOM      4  C4  N4B d   1      -1.323  -2.301  -2.840  0.00  0.00    -0.004 A 
ATOM      5  C5  N4B d   1      -1.881  -3.006  -3.865  0.00  0.00     0.002 A 
ATOM      6  C6  N4B d   1      -3.047  -3.723  -3.683  0.00  0.00     0.002 A 
ENDROOT
BRANCH   1   7
ATOM      7  C1' N4B d   1      -4.882  -4.586  -2.274  0.00  0.00     0.057 C 
BRANCH   7   8
ATOM      8  C2' N4B d   1      -4.442  -5.995  -1.886  0.00  0.00     0.009 C 
BRANCH   8   9
ATOM      9  C3' N4B d   1      -3.462  -5.984  -0.725  0.00  0.00     0.004 C 
ATOM     10  C4' N4B d   1      -4.143  -6.000   0.610  0.00  0.00     0.003 C 
ENDBRANCH   8   9
ENDBRANCH   7   8
ENDBRANCH   1   7
TORSDOF 3
ENDMDL
