MODEL 1
REMARK minimizedAffinity 18.2819958
REMARK minimizedRMSD -1
REMARK  3 active torsions:
REMARK  status: ('A' for Active; 'I' for Inactive)
REMARK    1  A    between atoms: C3'_2  and  C2'_3 
REMARK    2  A    between atoms: C2'_3  and  C1'_4 
REMARK    3  A    between atoms: C1'_4  and  C1_5 
ROOT
ATOM      1  C1  N4B d   1      -2.913  -3.044  -1.103  0.00  0.00    -0.075 A 
ATOM      2  C2  N4B d   1      -2.649  -3.392   0.240  0.00  0.00     0.002 A 
ATOM      3  C3  N4B d   1      -1.487  -2.976   0.842  0.00  0.00     0.002 A 
ATOM      4  C4  N4B d   1      -0.569  -2.230   0.117  0.00  0.00    -0.004 A 
ATOM      5  C5  N4B d   1      -0.843  -1.877  -1.172  0.00  0.00     0.002 A 
ATOM      6  C6  N4B d   1      -2.009  -2.285  -1.788  0.00  0.00     0.002 A 
ENDROOT
BRANCH   1   7
ATOM      7  C1' N4B d   1      -4.130  -3.548  -1.829  0.00  0.00     0.057 C 
BRANCH   7   8
ATOM      8  C2' N4B d   1      -3.881  -4.982  -2.288  0.00  0.00     0.009 C 
BRANCH   8   9
ATOM      9  C3' N4B d   1      -4.622  -5.990  -1.426  0.00  0.00     0.004 C 
ATOM     10  C4' N4B d   1      -4.146  -6.000  -0.004  0.00  0.00     0.003 C 
ENDBRANCH   8   9
ENDBRANCH   7   8
ENDBRANCH   1   7
TORSDOF 3
ENDMDL
