MODEL 1
REMARK minimizedAffinity 10.8748627
REMARK minimizedRMSD -1
REMARK  3 active torsions:
REMARK  status: ('A' for Active; 'I' for Inactive)
REMARK    1  A    between atoms: C3'_2  and  C2'_3 
REMARK    2  A    between atoms: C2'_3  and  C1'_4 
REMARK    3  A    between atoms: C1'_4  and  C1_5 
ROOT
ATOM      1  C1  N4B d   1      -2.226  -2.949  -3.689  0.00  0.00    -0.075 A 
ATOM      2  C2  N4B d   1      -2.432  -3.656  -4.894  0.00  0.00     0.002 A 
ATOM      3  C3  N4B d   1      -1.662  -3.374  -5.995  0.00  0.00     0.002 A 
ATOM      4  C4  N4B d   1      -0.697  -2.381  -5.922  0.00  0.00    -0.004 A 
ATOM      5  C5  N4B d   1      -0.487  -1.720  -4.747  0.00  0.00     0.002 A 
ATOM      6  C6  N4B d   1      -1.251  -1.996  -3.630  0.00  0.00     0.002 A 
ENDROOT
BRANCH   1   7
ATOM      7  C1' N4B d   1      -3.101  -3.162  -2.483  0.00  0.00     0.057 C 
BRANCH   7   8
ATOM      8  C2' N4B d   1      -4.006  -4.366  -2.728  0.00  0.00     0.009 C 
BRANCH   8   9
ATOM      9  C3' N4B d   1      -5.475  -3.980  -2.739  0.00  0.00     0.004 C 
ATOM     10  C4' N4B d   1      -6.000  -3.734  -4.122  0.00  0.00     0.003 C 
ENDBRANCH   8   9
ENDBRANCH   7   8
ENDBRANCH   1   7
TORSDOF 3
ENDMDL
