MODEL 1
REMARK minimizedAffinity -4.5420599
REMARK minimizedRMSD -1
REMARK  1 active torsions:
REMARK  status: ('A' for Active; 'I' for Inactive)
REMARK    1  A    between atoms: N_2  and  C1_3 
ROOT
ATOM      1  C1  UNL d   1       0.091   0.041  -0.383  0.00  0.00     0.143 A 
ATOM      2  C2  UNL d   1       1.020   1.059  -0.626  0.00  0.00    -0.057 A 
ATOM      3  C3  UNL d   1       2.337   0.766  -1.000  0.00  0.00     0.033 A 
ATOM      4  C4  UNL d   1       2.757  -0.555  -1.111  0.00  0.00    -0.042 A 
ATOM      5  C5  UNL d   1       1.858  -1.583  -0.850  0.00  0.00     0.033 A 
ATOM      6  C6  UNL d   1       0.542  -1.284  -0.483  0.00  0.00    -0.057 A 
ENDROOT
BRANCH   1   7
ATOM      7  N   UNL d   1      -1.205   0.267   0.087  0.00  0.00    -0.732 N 
ATOM      8  C   UNL d   1      -1.436   0.615   1.473  0.00  0.00     0.284 C 
ATOM      9  H3  UNL d   1      -1.772   0.792  -0.574  0.00  0.00     0.395 HD
ENDBRANCH   1   7
TORSDOF 1
ENDMDL
