MODEL 1
REMARK minimizedAffinity 1.81270385
REMARK minimizedRMSD -1
REMARK  1 active torsions:
REMARK  status: ('A' for Active; 'I' for Inactive)
REMARK    1  A    between atoms: N_2  and  C1_3 
ROOT
ATOM      1  C1  UNL d   1      -0.748   0.529   1.489  0.00  0.00     0.143 A 
ATOM      2  C2  UNL d   1      -1.603  -0.245   2.280  0.00  0.00    -0.057 A 
ATOM      3  C3  UNL d   1      -2.005   0.186   3.550  0.00  0.00     0.033 A 
ATOM      4  C4  UNL d   1      -1.535   1.390   4.064  0.00  0.00    -0.042 A 
ATOM      5  C5  UNL d   1      -0.665   2.164   3.305  0.00  0.00     0.033 A 
ATOM      6  C6  UNL d   1      -0.272   1.731   2.035  0.00  0.00    -0.057 A 
ENDROOT
BRANCH   1   7
ATOM      7  N   UNL d   1      -0.233   0.110   0.259  0.00  0.00    -0.732 N 
ATOM      8  C   UNL d   1       0.211  -1.255   0.073  0.00  0.00     0.284 C 
ATOM      9  H3  UNL d   1      -0.753   0.489  -0.529  0.00  0.00     0.395 HD
ENDBRANCH   1   7
TORSDOF 1
ENDMDL
