MODEL 1
REMARK minimizedAffinity -3.01257324
REMARK minimizedRMSD -1
REMARK  1 active torsions:
REMARK  status: ('A' for Active; 'I' for Inactive)
REMARK    1  A    between atoms: N_2  and  C1_3 
ROOT
ATOM      1  C1  UNL d   1       0.069  -0.121   0.188  0.00  0.00     0.143 A 
ATOM      2  C2  UNL d   1       0.394  -1.480   0.257  0.00  0.00    -0.057 A 
ATOM      3  C3  UNL d   1       1.530  -1.988  -0.384  0.00  0.00     0.033 A 
ATOM      4  C4  UNL d   1       2.349  -1.147  -1.132  0.00  0.00    -0.042 A 
ATOM      5  C5  UNL d   1       2.031   0.203  -1.234  0.00  0.00     0.033 A 
ATOM      6  C6  UNL d   1       0.898   0.705  -0.586  0.00  0.00    -0.057 A 
ENDROOT
BRANCH   1   7
ATOM      7  N   UNL d   1      -1.101   0.427   0.721  0.00  0.00    -0.732 N 
ATOM      8  C   UNL d   1      -1.114   0.977   2.060  0.00  0.00     0.284 C 
ATOM      9  H3  UNL d   1      -1.617   0.979   0.040  0.00  0.00     0.395 HD
ENDBRANCH   1   7
TORSDOF 1
ENDMDL
