MODEL 1
REMARK minimizedAffinity -0.87822479
REMARK minimizedRMSD -1
REMARK  1 active torsions:
REMARK  status: ('A' for Active; 'I' for Inactive)
REMARK    1  A    between atoms: N_2  and  C1_3 
ROOT
ATOM      1  C1  UNL d   1       0.961   0.282  -0.527  0.00  0.00     0.143 A 
ATOM      2  C2  UNL d   1       0.206  -0.845  -0.184  0.00  0.00    -0.057 A 
ATOM      3  C3  UNL d   1       0.659  -2.138  -0.474  0.00  0.00     0.033 A 
ATOM      4  C4  UNL d   1       1.866  -2.326  -1.139  0.00  0.00    -0.042 A 
ATOM      5  C5  UNL d   1       2.621  -1.220  -1.512  0.00  0.00     0.033 A 
ATOM      6  C6  UNL d   1       2.166   0.069  -1.215  0.00  0.00    -0.057 A 
ENDROOT
BRANCH   1   7
ATOM      7  N   UNL d   1       0.519   1.596  -0.355  0.00  0.00    -0.732 N 
ATOM      8  C   UNL d   1       0.297   2.455  -1.499  0.00  0.00     0.284 C 
ATOM      9  H3  UNL d   1      -0.192   1.675   0.368  0.00  0.00     0.395 HD
ENDBRANCH   1   7
TORSDOF 1
ENDMDL
