MODEL 1
REMARK minimizedAffinity -4.72891855
REMARK minimizedRMSD -1
REMARK  1 active torsions:
REMARK  status: ('A' for Active; 'I' for Inactive)
REMARK    1  A    between atoms: N_2  and  C1_3 
ROOT
ATOM      1  C1  UNL d   1       0.369  -0.078  -0.293  0.00  0.00     0.143 A 
ATOM      2  C2  UNL d   1       1.279   0.975  -0.441  0.00  0.00    -0.057 A 
ATOM      3  C3  UNL d   1       2.590   0.746  -0.875  0.00  0.00     0.033 A 
ATOM      4  C4  UNL d   1       3.024  -0.548  -1.143  0.00  0.00    -0.042 A 
ATOM      5  C5  UNL d   1       2.145  -1.612  -0.980  0.00  0.00     0.033 A 
ATOM      6  C6  UNL d   1       0.835  -1.376  -0.552  0.00  0.00    -0.057 A 
ENDROOT
BRANCH   1   7
ATOM      7  N   UNL d   1      -0.918   0.074   0.229  0.00  0.00    -0.732 N 
ATOM      8  C   UNL d   1      -1.112   0.510   1.595  0.00  0.00     0.284 C 
ATOM      9  H3  UNL d   1      -1.560   0.496  -0.438  0.00  0.00     0.395 HD
ENDBRANCH   1   7
TORSDOF 1
ENDMDL
