MODEL 1
REMARK minimizedAffinity -4.37995625
REMARK minimizedRMSD -1
REMARK  1 active torsions:
REMARK  status: ('A' for Active; 'I' for Inactive)
REMARK    1  A    between atoms: N_2  and  C1_3 
ROOT
ATOM      1  C1  UNL d   1       0.481   0.087   0.030  0.00  0.00     0.143 A 
ATOM      2  C2  UNL d   1       0.444  -1.114  -0.685  0.00  0.00    -0.057 A 
ATOM      3  C3  UNL d   1       1.615  -1.699  -1.184  0.00  0.00     0.033 A 
ATOM      4  C4  UNL d   1       2.844  -1.074  -1.000  0.00  0.00    -0.042 A 
ATOM      5  C5  UNL d   1       2.902   0.134  -0.314  0.00  0.00     0.033 A 
ATOM      6  C6  UNL d   1       1.730   0.709   0.188  0.00  0.00    -0.057 A 
ENDROOT
BRANCH   1   7
ATOM      7  N   UNL d   1      -0.658   0.769   0.466  0.00  0.00    -0.732 N 
ATOM      8  C   UNL d   1      -0.794   1.168   1.850  0.00  0.00     0.284 C 
ATOM      9  H3  UNL d   1      -0.971   1.470  -0.202  0.00  0.00     0.395 HD
ENDBRANCH   1   7
TORSDOF 1
ENDMDL
