MODEL 1
REMARK minimizedAffinity -4.29064798
REMARK minimizedRMSD -1
REMARK  1 active torsions:
REMARK  status: ('A' for Active; 'I' for Inactive)
REMARK    1  A    between atoms: N_2  and  C1_3 
ROOT
ATOM      1  C1  UNL d   1       0.316  -0.773  -0.698  0.00  0.00     0.143 A 
ATOM      2  C2  UNL d   1       0.131   0.612  -0.623  0.00  0.00    -0.057 A 
ATOM      3  C3  UNL d   1       1.179   1.500  -0.894  0.00  0.00     0.033 A 
ATOM      4  C4  UNL d   1       2.442   1.016  -1.217  0.00  0.00    -0.042 A 
ATOM      5  C5  UNL d   1       2.655  -0.357  -1.273  0.00  0.00     0.033 A 
ATOM      6  C6  UNL d   1       1.603  -1.238  -1.008  0.00  0.00    -0.057 A 
ENDROOT
BRANCH   1   7
ATOM      7  N   UNL d   1      -0.660  -1.708  -0.344  0.00  0.00    -0.732 N 
ATOM      8  C   UNL d   1      -0.306  -3.093  -0.117  0.00  0.00     0.284 C 
ATOM      9  H3  UNL d   1      -1.332  -1.336   0.323  0.00  0.00     0.395 HD
ENDBRANCH   1   7
TORSDOF 1
ENDMDL
