MODEL 1
REMARK minimizedAffinity -4.0908885
REMARK minimizedRMSD -1
REMARK  1 active torsions:
REMARK  status: ('A' for Active; 'I' for Inactive)
REMARK    1  A    between atoms: N_2  and  C1_3 
ROOT
ATOM      1  C1  UNL d   1       0.212   0.031  -0.337  0.00  0.00     0.143 A 
ATOM      2  C2  UNL d   1       1.372   0.810  -0.407  0.00  0.00    -0.057 A 
ATOM      3  C3  UNL d   1       2.612   0.240  -0.721  0.00  0.00     0.033 A 
ATOM      4  C4  UNL d   1       2.718  -1.130  -0.942  0.00  0.00    -0.042 A 
ATOM      5  C5  UNL d   1       1.583  -1.927  -0.852  0.00  0.00     0.033 A 
ATOM      6  C6  UNL d   1       0.346  -1.350  -0.545  0.00  0.00    -0.057 A 
ENDROOT
BRANCH   1   7
ATOM      7  N   UNL d   1      -1.032   0.523   0.067  0.00  0.00    -0.732 N 
ATOM      8  C   UNL d   1      -1.276   0.863   1.452  0.00  0.00     0.284 C 
ATOM      9  H3  UNL d   1      -1.421   1.187  -0.599  0.00  0.00     0.395 HD
ENDBRANCH   1   7
TORSDOF 1
ENDMDL
