MODEL 1
REMARK minimizedAffinity -4.98932838
REMARK minimizedRMSD -1
REMARK  1 active torsions:
REMARK  status: ('A' for Active; 'I' for Inactive)
REMARK    1  A    between atoms: N_2  and  C1_3 
ROOT
ATOM      1  C1  UNL d   1       0.295   0.290  -0.563  0.00  0.00     0.143 A 
ATOM      2  C2  UNL d   1       1.190  -0.769  -0.382  0.00  0.00    -0.057 A 
ATOM      3  C3  UNL d   1       2.385  -0.843  -1.109  0.00  0.00     0.033 A 
ATOM      4  C4  UNL d   1       2.692   0.130  -2.054  0.00  0.00    -0.042 A 
ATOM      5  C5  UNL d   1       1.804   1.178  -2.269  0.00  0.00     0.033 A 
ATOM      6  C6  UNL d   1       0.616   1.250  -1.536  0.00  0.00    -0.057 A 
ENDROOT
BRANCH   1   7
ATOM      7  N   UNL d   1      -0.954   0.367   0.057  0.00  0.00    -0.732 N 
ATOM      8  C   UNL d   1      -1.058   0.447   1.499  0.00  0.00     0.284 C 
ATOM      9  H3  UNL d   1      -1.598   0.979  -0.440  0.00  0.00     0.395 HD
ENDBRANCH   1   7
TORSDOF 1
ENDMDL
