MODEL 1
REMARK minimizedAffinity -2.33390284
REMARK minimizedRMSD -1
REMARK  1 active torsions:
REMARK  status: ('A' for Active; 'I' for Inactive)
REMARK    1  A    between atoms: N_2  and  C1_3 
ROOT
ATOM      1  C1  UNL d   1      -0.953   0.581   1.675  0.00  0.00     0.143 A 
ATOM      2  C2  UNL d   1      -0.113   1.250   2.572  0.00  0.00    -0.057 A 
ATOM      3  C3  UNL d   1      -0.555   1.607   3.852  0.00  0.00     0.033 A 
ATOM      4  C4  UNL d   1      -1.858   1.326   4.248  0.00  0.00    -0.042 A 
ATOM      5  C5  UNL d   1      -2.718   0.684   3.363  0.00  0.00     0.033 A 
ATOM      6  C6  UNL d   1      -2.269   0.324   2.089  0.00  0.00    -0.057 A 
ENDROOT
BRANCH   1   7
ATOM      7  N   UNL d   1      -0.604   0.287   0.354  0.00  0.00    -0.732 N 
ATOM      8  C   UNL d   1       0.733   0.552  -0.131  0.00  0.00     0.284 C 
ATOM      9  H3  UNL d   1      -0.994  -0.598   0.037  0.00  0.00     0.395 HD
ENDBRANCH   1   7
TORSDOF 1
ENDMDL
