MODEL 1
REMARK minimizedAffinity -3.00853562
REMARK minimizedRMSD -1
REMARK  1 active torsions:
REMARK  status: ('A' for Active; 'I' for Inactive)
REMARK    1  A    between atoms: N_2  and  C1_3 
ROOT
ATOM      1  C1  UNL d   1      -1.258   0.614   1.132  0.00  0.00     0.143 A 
ATOM      2  C2  UNL d   1      -2.241  -0.372   1.275  0.00  0.00    -0.057 A 
ATOM      3  C3  UNL d   1      -3.090  -0.394   2.389  0.00  0.00     0.033 A 
ATOM      4  C4  UNL d   1      -2.951   0.555   3.396  0.00  0.00    -0.042 A 
ATOM      5  C5  UNL d   1      -1.965   1.529   3.287  0.00  0.00     0.033 A 
ATOM      6  C6  UNL d   1      -1.124   1.550   2.170  0.00  0.00    -0.057 A 
ENDROOT
BRANCH   1   7
ATOM      7  N   UNL d   1      -0.319   0.631   0.098  0.00  0.00    -0.732 N 
ATOM      8  C   UNL d   1       0.674  -0.415  -0.014  0.00  0.00     0.284 C 
ATOM      9  H3  UNL d   1      -0.726   0.915  -0.791  0.00  0.00     0.395 HD
ENDBRANCH   1   7
TORSDOF 1
ENDMDL
