MODEL 1
REMARK minimizedAffinity -1.92398584
REMARK minimizedRMSD -1
REMARK  1 active torsions:
REMARK  status: ('A' for Active; 'I' for Inactive)
REMARK    1  A    between atoms: N_2  and  C1_3 
ROOT
ATOM      1  C1  UNL d   1       0.877  -0.472  -0.526  0.00  0.00     0.143 A 
ATOM      2  C2  UNL d   1       0.814   0.800  -1.105  0.00  0.00    -0.057 A 
ATOM      3  C3  UNL d   1      -0.241   1.676  -0.821  0.00  0.00     0.033 A 
ATOM      4  C4  UNL d   1      -1.270   1.283   0.029  0.00  0.00    -0.042 A 
ATOM      5  C5  UNL d   1      -1.241   0.014   0.596  0.00  0.00     0.033 A 
ATOM      6  C6  UNL d   1      -0.182  -0.854   0.314  0.00  0.00    -0.057 A 
ENDROOT
BRANCH   1   7
ATOM      7  N   UNL d   1       1.847  -1.426  -0.845  0.00  0.00    -0.732 N 
ATOM      8  C   UNL d   1       3.024  -1.055  -1.601  0.00  0.00     0.284 C 
ATOM      9  H3  UNL d   1       2.031  -2.065  -0.075  0.00  0.00     0.395 HD
ENDBRANCH   1   7
TORSDOF 1
ENDMDL
