MODEL 1
REMARK minimizedAffinity -3.17847919
REMARK minimizedRMSD -1
REMARK  0 active torsions:
REMARK  status: ('A' for Active; 'I' for Inactive)
ROOT
ATOM      1  C1  BNZ d   1      -2.234   1.254   1.798  0.00  0.00     0.000 A 
ATOM      2  C2  BNZ d   1      -1.533   0.244   1.195  0.00  0.00     0.000 A 
ATOM      3  C3  BNZ d   1      -0.429   0.515   0.435  0.00  0.00     0.000 A 
ATOM      4  C4  BNZ d   1      -0.053   1.797   0.247  0.00  0.00     0.000 A 
ATOM      5  C5  BNZ d   1      -0.755   2.826   0.841  0.00  0.00     0.000 A 
ATOM      6  C6  BNZ d   1      -1.842   2.547   1.637  0.00  0.00     0.000 A 
ENDROOT
TORSDOF 0
ENDMDL
