MODEL 1
REMARK minimizedAffinity -3.95233369
REMARK minimizedRMSD -1
REMARK  0 active torsions:
REMARK  status: ('A' for Active; 'I' for Inactive)
ROOT
ATOM      1  C1  BNZ d   1      -0.987   1.422   0.835  0.00  0.00     0.000 A 
ATOM      2  C2  BNZ d   1      -0.201   1.297  -0.279  0.00  0.00     0.000 A 
ATOM      3  C3  BNZ d   1       0.712   0.285  -0.382  0.00  0.00     0.000 A 
ATOM      4  C4  BNZ d   1       0.866  -0.576   0.644  0.00  0.00     0.000 A 
ATOM      5  C5  BNZ d   1       0.088  -0.457   1.779  0.00  0.00     0.000 A 
ATOM      6  C6  BNZ d   1      -0.857   0.539   1.863  0.00  0.00     0.000 A 
ENDROOT
TORSDOF 0
ENDMDL
