MODEL 1
REMARK minimizedAffinity -3.58098412
REMARK minimizedRMSD -1
REMARK  0 active torsions:
REMARK  status: ('A' for Active; 'I' for Inactive)
ROOT
ATOM      1  C1  BNZ d   1      -0.486   2.404   0.236  0.00  0.00     0.000 A 
ATOM      2  C2  BNZ d   1       0.057   1.321  -0.402  0.00  0.00     0.000 A 
ATOM      3  C3  BNZ d   1       0.018   0.080   0.171  0.00  0.00     0.000 A 
ATOM      4  C4  BNZ d   1      -0.526  -0.069   1.395  0.00  0.00     0.000 A 
ATOM      5  C5  BNZ d   1      -1.069   1.016   2.055  0.00  0.00     0.000 A 
ATOM      6  C6  BNZ d   1      -1.063   2.256   1.460  0.00  0.00     0.000 A 
ENDROOT
TORSDOF 0
ENDMDL
