MODEL 1
REMARK minimizedAffinity -0.265225291
REMARK minimizedRMSD -1
REMARK  0 active torsions:
REMARK  status: ('A' for Active; 'I' for Inactive)
ROOT
ATOM      1  C1  BNZ d   1       1.198  -3.866  -1.626  0.00  0.00     0.000 A 
ATOM      2  C2  BNZ d   1       1.338  -2.760  -0.832  0.00  0.00     0.000 A 
ATOM      3  C3  BNZ d   1       1.114  -1.507  -1.331  0.00  0.00     0.000 A 
ATOM      4  C4  BNZ d   1       0.790  -1.360  -2.632  0.00  0.00     0.000 A 
ATOM      5  C5  BNZ d   1       0.654  -2.465  -3.448  0.00  0.00     0.000 A 
ATOM      6  C6  BNZ d   1       0.842  -3.727  -2.933  0.00  0.00     0.000 A 
ENDROOT
TORSDOF 0
ENDMDL
