MODEL 1
REMARK minimizedAffinity -4.88199139
REMARK minimizedRMSD -1
REMARK  0 active torsions:
REMARK  status: ('A' for Active; 'I' for Inactive)
ROOT
ATOM      1  C1  BNZ d   1      -1.504   0.517   2.171  0.00  0.00     0.000 A 
ATOM      2  C2  BNZ d   1      -0.604  -0.429   1.759  0.00  0.00     0.000 A 
ATOM      3  C3  BNZ d   1      -0.011  -0.343   0.531  0.00  0.00     0.000 A 
ATOM      4  C4  BNZ d   1      -0.349   0.664  -0.300  0.00  0.00     0.000 A 
ATOM      5  C5  BNZ d   1      -1.263   1.620   0.097  0.00  0.00     0.000 A 
ATOM      6  C6  BNZ d   1      -1.828   1.553   1.350  0.00  0.00     0.000 A 
ENDROOT
TORSDOF 0
ENDMDL
