MODEL 1
REMARK minimizedAffinity -0.261852533
REMARK minimizedRMSD -1
REMARK  0 active torsions:
REMARK  status: ('A' for Active; 'I' for Inactive)
ROOT
ATOM      1  C1  BNZ d   1       2.451  -5.998  -0.430  0.00  0.00     0.000 A 
ATOM      2  C2  BNZ d   1       1.297  -5.959  -1.167  0.00  0.00     0.000 A 
ATOM      3  C3  BNZ d   1       0.893  -4.802  -1.773  0.00  0.00     0.000 A 
ATOM      4  C4  BNZ d   1       1.621  -3.679  -1.610  0.00  0.00     0.000 A 
ATOM      5  C5  BNZ d   1       2.782  -3.700  -0.862  0.00  0.00     0.000 A 
ATOM      6  C6  BNZ d   1       3.206  -4.875  -0.285  0.00  0.00     0.000 A 
ENDROOT
TORSDOF 0
ENDMDL
