MODEL 1
REMARK minimizedAffinity -3.27196956
REMARK minimizedRMSD -1
REMARK  0 active torsions:
REMARK  status: ('A' for Active; 'I' for Inactive)
ROOT
ATOM      1  C1  BNZ d   1      -0.445   1.111   0.620  0.00  0.00     0.000 A 
ATOM      2  C2  BNZ d   1      -0.848   0.515   1.785  0.00  0.00     0.000 A 
ATOM      3  C3  BNZ d   1      -0.277  -0.653   2.207  0.00  0.00     0.000 A 
ATOM      4  C4  BNZ d   1       0.666  -1.243   1.445  0.00  0.00     0.000 A 
ATOM      5  C5  BNZ d   1       1.077  -0.659   0.263  0.00  0.00     0.000 A 
ATOM      6  C6  BNZ d   1       0.527   0.537  -0.139  0.00  0.00     0.000 A 
ENDROOT
TORSDOF 0
ENDMDL
