MODEL 1
REMARK minimizedAffinity -5.00010157
REMARK minimizedRMSD -1
REMARK  0 active torsions:
REMARK  status: ('A' for Active; 'I' for Inactive)
ROOT
ATOM      1  C1  BNZ d   1      -0.539  -0.219   1.487  0.00  0.00     0.000 A 
ATOM      2  C2  BNZ d   1       0.302  -0.289   0.408  0.00  0.00     0.000 A 
ATOM      3  C3  BNZ d   1       0.191   0.601  -0.624  0.00  0.00     0.000 A 
ATOM      4  C4  BNZ d   1      -0.783   1.533  -0.595  0.00  0.00     0.000 A 
ATOM      5  C5  BNZ d   1      -1.644   1.610   0.482  0.00  0.00     0.000 A 
ATOM      6  C6  BNZ d   1      -1.506   0.737   1.537  0.00  0.00     0.000 A 
ENDROOT
TORSDOF 0
ENDMDL
