MODEL 1
REMARK minimizedAffinity -2.38052177
REMARK minimizedRMSD -1
REMARK  0 active torsions:
REMARK  status: ('A' for Active; 'I' for Inactive)
ROOT
ATOM      1  C1  BNZ d   1      -0.644   1.512  -0.544  0.00  0.00     0.000 A 
ATOM      2  C2  BNZ d   1      -1.577   2.378  -0.039  0.00  0.00     0.000 A 
ATOM      3  C3  BNZ d   1      -2.146   2.157   1.184  0.00  0.00     0.000 A 
ATOM      4  C4  BNZ d   1      -1.813   1.052   1.881  0.00  0.00     0.000 A 
ATOM      5  C5  BNZ d   1      -0.881   0.164   1.381  0.00  0.00     0.000 A 
ATOM      6  C6  BNZ d   1      -0.281   0.410   0.167  0.00  0.00     0.000 A 
ENDROOT
TORSDOF 0
ENDMDL
