MODEL 1
REMARK minimizedAffinity -4.16705036
REMARK minimizedRMSD -1
REMARK  0 active torsions:
REMARK  status: ('A' for Active; 'I' for Inactive)
ROOT
ATOM      1  C1  BNZ d   1      -0.788  -0.199   1.626  0.00  0.00     0.000 A 
ATOM      2  C2  BNZ d   1      -1.487   0.907   2.029  0.00  0.00     0.000 A 
ATOM      3  C3  BNZ d   1      -1.747   1.927   1.156  0.00  0.00     0.000 A 
ATOM      4  C4  BNZ d   1      -1.274   1.857  -0.104  0.00  0.00     0.000 A 
ATOM      5  C5  BNZ d   1      -0.559   0.752  -0.523  0.00  0.00     0.000 A 
ATOM      6  C6  BNZ d   1      -0.333  -0.289   0.347  0.00  0.00     0.000 A 
ENDROOT
TORSDOF 0
ENDMDL
