MODEL 1
REMARK minimizedAffinity -3.48939729
REMARK minimizedRMSD -1
REMARK  0 active torsions:
REMARK  status: ('A' for Active; 'I' for Inactive)
ROOT
ATOM      1  C1  BNZ d   1       1.959  -2.241  -1.970  0.00  0.00     0.000 A 
ATOM      2  C2  BNZ d   1       1.581  -3.070  -2.993  0.00  0.00     0.000 A 
ATOM      3  C3  BNZ d   1       0.272  -3.153  -3.380  0.00  0.00     0.000 A 
ATOM      4  C4  BNZ d   1      -0.661  -2.438  -2.719  0.00  0.00     0.000 A 
ATOM      5  C5  BNZ d   1      -0.297  -1.605  -1.679  0.00  0.00     0.000 A 
ATOM      6  C6  BNZ d   1       1.026  -1.495  -1.318  0.00  0.00     0.000 A 
ENDROOT
TORSDOF 0
ENDMDL
