MODEL 1
REMARK minimizedAffinity -2.64560032
REMARK minimizedRMSD -1
REMARK  0 active torsions:
REMARK  status: ('A' for Active; 'I' for Inactive)
ROOT
ATOM      1  C1  BNZ d   1      -0.092  -0.044  -0.118  0.00  0.00     0.000 A 
ATOM      2  C2  BNZ d   1      -0.786   0.110   1.052  0.00  0.00     0.000 A 
ATOM      3  C3  BNZ d   1      -1.354   1.310   1.376  0.00  0.00     0.000 A 
ATOM      4  C4  BNZ d   1      -1.194   2.364   0.550  0.00  0.00     0.000 A 
ATOM      5  C5  BNZ d   1      -0.489   2.227  -0.629  0.00  0.00     0.000 A 
ATOM      6  C6  BNZ d   1       0.049   1.007  -0.971  0.00  0.00     0.000 A 
ENDROOT
TORSDOF 0
ENDMDL
