MODEL 1
REMARK minimizedAffinity -3.70503426
REMARK minimizedRMSD -1
REMARK  0 active torsions:
REMARK  status: ('A' for Active; 'I' for Inactive)
ROOT
ATOM      1  C1  BNZ d   1      -1.766   2.799   1.442  0.00  0.00     0.000 A 
ATOM      2  C2  BNZ d   1      -0.910   3.824   1.139  0.00  0.00     0.000 A 
ATOM      3  C3  BNZ d   1       0.050   3.673   0.178  0.00  0.00     0.000 A 
ATOM      4  C4  BNZ d   1       0.179   2.486  -0.450  0.00  0.00     0.000 A 
ATOM      5  C5  BNZ d   1      -0.671   1.440  -0.149  0.00  0.00     0.000 A 
ATOM      6  C6  BNZ d   1      -1.661   1.608   0.792  0.00  0.00     0.000 A 
ENDROOT
TORSDOF 0
ENDMDL
