MODEL 1
REMARK minimizedAffinity -5.18022108
REMARK minimizedRMSD -1
REMARK  0 active torsions:
REMARK  status: ('A' for Active; 'I' for Inactive)
ROOT
ATOM      1  C1  BNZ d   1      -0.074   2.354  -1.037  0.00  0.00     0.000 A 
ATOM      2  C2  BNZ d   1      -0.423   1.129  -0.534  0.00  0.00     0.000 A 
ATOM      3  C3  BNZ d   1      -1.299   1.024   0.510  0.00  0.00     0.000 A 
ATOM      4  C4  BNZ d   1      -1.794   2.144   1.075  0.00  0.00     0.000 A 
ATOM      5  C5  BNZ d   1      -1.444   3.387   0.585  0.00  0.00     0.000 A 
ATOM      6  C6  BNZ d   1      -0.592   3.487  -0.490  0.00  0.00     0.000 A 
ENDROOT
TORSDOF 0
ENDMDL
