MODEL 1
REMARK minimizedAffinity -5.14215183
REMARK minimizedRMSD -1
REMARK  0 active torsions:
REMARK  status: ('A' for Active; 'I' for Inactive)
ROOT
ATOM      1  C1  BNZ d   1      -0.093   0.819   1.070  0.00  0.00     0.000 A 
ATOM      2  C2  BNZ d   1       0.507   1.141  -0.118  0.00  0.00     0.000 A 
ATOM      3  C3  BNZ d   1       0.270   2.346  -0.718  0.00  0.00     0.000 A 
ATOM      4  C4  BNZ d   1      -0.597   3.209  -0.151  0.00  0.00     0.000 A 
ATOM      5  C5  BNZ d   1      -1.217   2.896   1.042  0.00  0.00     0.000 A 
ATOM      6  C6  BNZ d   1      -0.945   1.698   1.663  0.00  0.00     0.000 A 
ENDROOT
TORSDOF 0
ENDMDL
