MODEL 1
REMARK minimizedAffinity -3.42357779
REMARK minimizedRMSD -1
REMARK  0 active torsions:
REMARK  status: ('A' for Active; 'I' for Inactive)
ROOT
ATOM      1  C1  BNZ d   1       1.844  -4.187  -0.920  0.00  0.00     0.000 A 
ATOM      2  C2  BNZ d   1       1.989  -2.963  -1.515  0.00  0.00     0.000 A 
ATOM      3  C3  BNZ d   1       1.042  -2.487  -2.378  0.00  0.00     0.000 A 
ATOM      4  C4  BNZ d   1      -0.029  -3.251  -2.675  0.00  0.00     0.000 A 
ATOM      5  C5  BNZ d   1      -0.185  -4.492  -2.090  0.00  0.00     0.000 A 
ATOM      6  C6  BNZ d   1       0.751  -4.952  -1.192  0.00  0.00     0.000 A 
ENDROOT
TORSDOF 0
ENDMDL
