MODEL 1
REMARK minimizedAffinity -1.65308022
REMARK minimizedRMSD -1
REMARK  0 active torsions:
REMARK  status: ('A' for Active; 'I' for Inactive)
ROOT
ATOM      1  C1  BNZ d   1       1.199  -4.081  -1.463  0.00  0.00     0.000 A 
ATOM      2  C2  BNZ d   1       1.569  -3.097  -0.585  0.00  0.00     0.000 A 
ATOM      3  C3  BNZ d   1       1.270  -1.787  -0.835  0.00  0.00     0.000 A 
ATOM      4  C4  BNZ d   1       0.638  -1.458  -1.980  0.00  0.00     0.000 A 
ATOM      5  C5  BNZ d   1       0.266  -2.437  -2.879  0.00  0.00     0.000 A 
ATOM      6  C6  BNZ d   1       0.534  -3.759  -2.606  0.00  0.00     0.000 A 
ENDROOT
TORSDOF 0
ENDMDL
