MODEL 1
REMARK minimizedAffinity -3.46415377
REMARK minimizedRMSD -1
REMARK  0 active torsions:
REMARK  status: ('A' for Active; 'I' for Inactive)
ROOT
ATOM      1  C   UNL d   1      -0.590   0.971  -0.315  0.00  0.00     0.172 C 
ATOM      2  N   UNL d   1       0.343  -0.081   0.014  0.00  0.00    -0.070 N 
ATOM      3  C1  UNL d   1       0.019  -1.387   0.264  0.00  0.00    -0.004 A 
ATOM      4  C2  UNL d   1       1.186  -2.068   0.536  0.00  0.00    -0.047 A 
ATOM      5  C3  UNL d   1       2.249  -1.138   0.447  0.00  0.00    -0.047 A 
ATOM      6  C4  UNL d   1       1.699   0.084   0.122  0.00  0.00    -0.004 A 
ENDROOT
TORSDOF 0
ENDMDL
