MODEL 1
REMARK minimizedAffinity -2.26950455
REMARK minimizedRMSD -1
REMARK  0 active torsions:
REMARK  status: ('A' for Active; 'I' for Inactive)
ROOT
ATOM      1  C   UNL d   1       1.731  -0.038  -0.364  0.00  0.00     0.172 C 
ATOM      2  N   UNL d   1       0.873  -1.032   0.237  0.00  0.00    -0.070 N 
ATOM      3  C1  UNL d   1       1.215  -2.334   0.490  0.00  0.00    -0.004 A 
ATOM      4  C2  UNL d   1       0.127  -2.952   1.067  0.00  0.00    -0.047 A 
ATOM      5  C3  UNL d   1      -0.905  -1.989   1.163  0.00  0.00    -0.047 A 
ATOM      6  C4  UNL d   1      -0.416  -0.809   0.643  0.00  0.00    -0.004 A 
ENDROOT
TORSDOF 0
ENDMDL
