MODEL 1
REMARK minimizedAffinity -3.5175364
REMARK minimizedRMSD -1
REMARK  0 active torsions:
REMARK  status: ('A' for Active; 'I' for Inactive)
ROOT
ATOM      1  C   UNL d   1      -0.122   0.663  -0.314  0.00  0.00     0.172 C 
ATOM      2  N   UNL d   1       0.233  -0.660   0.144  0.00  0.00    -0.070 N 
ATOM      3  C1  UNL d   1      -0.626  -1.571   0.698  0.00  0.00    -0.004 A 
ATOM      4  C2  UNL d   1       0.097  -2.704   1.000  0.00  0.00    -0.047 A 
ATOM      5  C3  UNL d   1       1.438  -2.466   0.615  0.00  0.00    -0.047 A 
ATOM      6  C4  UNL d   1       1.494  -1.192   0.089  0.00  0.00    -0.004 A 
ENDROOT
TORSDOF 0
ENDMDL
