MODEL 1
REMARK minimizedAffinity -2.45051217
REMARK minimizedRMSD -1
REMARK  0 active torsions:
REMARK  status: ('A' for Active; 'I' for Inactive)
ROOT
ATOM      1  C   UNL d   1      -0.721   1.154  -0.386  0.00  0.00     0.172 C 
ATOM      2  N   UNL d   1      -0.131  -0.122  -0.056  0.00  0.00    -0.070 N 
ATOM      3  C1  UNL d   1       1.179  -0.469  -0.249  0.00  0.00    -0.004 A 
ATOM      4  C2  UNL d   1       1.342  -1.764   0.193  0.00  0.00    -0.047 A 
ATOM      5  C3  UNL d   1       0.086  -2.211   0.668  0.00  0.00    -0.047 A 
ATOM      6  C4  UNL d   1      -0.808  -1.174   0.502  0.00  0.00    -0.004 A 
ENDROOT
TORSDOF 0
ENDMDL
