MODEL 1
REMARK minimizedAffinity -2.73803711
REMARK minimizedRMSD -1
REMARK  0 active torsions:
REMARK  status: ('A' for Active; 'I' for Inactive)
ROOT
ATOM      1  C   UNL d   1      -0.452   0.558  -0.377  0.00  0.00     0.172 C 
ATOM      2  N   UNL d   1       0.587  -0.354   0.040  0.00  0.00    -0.070 N 
ATOM      3  C1  UNL d   1       1.930  -0.181  -0.163  0.00  0.00    -0.004 A 
ATOM      4  C2  UNL d   1       2.583  -1.266   0.382  0.00  0.00    -0.047 A 
ATOM      5  C3  UNL d   1       1.598  -2.121   0.931  0.00  0.00    -0.047 A 
ATOM      6  C4  UNL d   1       0.371  -1.532   0.706  0.00  0.00    -0.004 A 
ENDROOT
TORSDOF 0
ENDMDL
