MODEL 1
REMARK minimizedAffinity -3.34513235
REMARK minimizedRMSD -1
REMARK  0 active torsions:
REMARK  status: ('A' for Active; 'I' for Inactive)
ROOT
ATOM      1  C   UNL d   1      -0.434   0.402  -0.764  0.00  0.00     0.172 C 
ATOM      2  N   UNL d   1       0.588  -0.382  -0.113  0.00  0.00    -0.070 N 
ATOM      3  C1  UNL d   1       1.939  -0.213  -0.259  0.00  0.00    -0.004 A 
ATOM      4  C2  UNL d   1       2.570  -1.154   0.525  0.00  0.00    -0.047 A 
ATOM      5  C3  UNL d   1       1.563  -1.916   1.165  0.00  0.00    -0.047 A 
ATOM      6  C4  UNL d   1       0.346  -1.417   0.752  0.00  0.00    -0.004 A 
ENDROOT
TORSDOF 0
ENDMDL
