MODEL 1
REMARK minimizedAffinity -2.44371009
REMARK minimizedRMSD -1
REMARK  0 active torsions:
REMARK  status: ('A' for Active; 'I' for Inactive)
ROOT
ATOM      1  C   UNL d   1      -1.068   1.136  -0.361  0.00  0.00     0.172 C 
ATOM      2  N   UNL d   1      -0.763  -0.129   0.266  0.00  0.00    -0.070 N 
ATOM      3  C1  UNL d   1       0.217  -0.999  -0.129  0.00  0.00    -0.004 A 
ATOM      4  C2  UNL d   1       0.187  -2.083   0.722  0.00  0.00    -0.047 A 
ATOM      5  C3  UNL d   1      -0.848  -1.856   1.660  0.00  0.00    -0.047 A 
ATOM      6  C4  UNL d   1      -1.420  -0.639   1.355  0.00  0.00    -0.004 A 
ENDROOT
TORSDOF 0
ENDMDL
