MODEL 1
REMARK minimizedAffinity -3.81520963
REMARK minimizedRMSD -1
REMARK  0 active torsions:
REMARK  status: ('A' for Active; 'I' for Inactive)
ROOT
ATOM      1  C   UNL d   1      -0.171   1.521   0.318  0.00  0.00     0.172 C 
ATOM      2  N   UNL d   1      -0.178   0.083   0.447  0.00  0.00    -0.070 N 
ATOM      3  C1  UNL d   1      -0.535  -0.616   1.569  0.00  0.00    -0.004 A 
ATOM      4  C2  UNL d   1      -0.408  -1.959   1.288  0.00  0.00    -0.047 A 
ATOM      5  C3  UNL d   1       0.042  -2.071  -0.049  0.00  0.00    -0.047 A 
ATOM      6  C4  UNL d   1       0.176  -0.792  -0.546  0.00  0.00    -0.004 A 
ENDROOT
TORSDOF 0
ENDMDL
