MODEL 1
REMARK minimizedAffinity -3.43830609
REMARK minimizedRMSD -1
REMARK  0 active torsions:
REMARK  status: ('A' for Active; 'I' for Inactive)
ROOT
ATOM      1  C   UNL d   1       1.518  -2.268   0.664  0.00  0.00     0.172 C 
ATOM      2  N   UNL d   1       0.827  -1.050   0.312  0.00  0.00    -0.070 N 
ATOM      3  C1  UNL d   1       1.376   0.017  -0.349  0.00  0.00    -0.004 A 
ATOM      4  C2  UNL d   1       0.395   0.974  -0.492  0.00  0.00    -0.047 A 
ATOM      5  C3  UNL d   1      -0.783   0.466   0.103  0.00  0.00    -0.047 A 
ATOM      6  C4  UNL d   1      -0.488  -0.789   0.593  0.00  0.00    -0.004 A 
ENDROOT
TORSDOF 0
ENDMDL
