MODEL 1
REMARK minimizedAffinity -2.58540797
REMARK minimizedRMSD -1
REMARK  0 active torsions:
REMARK  status: ('A' for Active; 'I' for Inactive)
ROOT
ATOM      1  C   UNL d   1      -0.802   0.307  -0.624  0.00  0.00     0.172 C 
ATOM      2  N   UNL d   1       0.021  -0.695   0.012  0.00  0.00    -0.070 N 
ATOM      3  C1  UNL d   1      -0.427  -1.680   0.853  0.00  0.00    -0.004 A 
ATOM      4  C2  UNL d   1       0.662  -2.427   1.245  0.00  0.00    -0.047 A 
ATOM      5  C3  UNL d   1       1.804  -1.873   0.619  0.00  0.00    -0.047 A 
ATOM      6  C4  UNL d   1       1.378  -0.802  -0.138  0.00  0.00    -0.004 A 
ENDROOT
TORSDOF 0
ENDMDL
