MODEL 1
REMARK minimizedAffinity -2.66889334
REMARK minimizedRMSD -1
REMARK  0 active torsions:
REMARK  status: ('A' for Active; 'I' for Inactive)
ROOT
ATOM      1  C   UNL d   1       0.037   0.334  -0.402  0.00  0.00     0.172 C 
ATOM      2  N   UNL d   1       0.796  -0.748   0.180  0.00  0.00    -0.070 N 
ATOM      3  C1  UNL d   1       0.414  -2.062   0.217  0.00  0.00    -0.004 A 
ATOM      4  C2  UNL d   1       1.408  -2.773   0.853  0.00  0.00    -0.047 A 
ATOM      5  C3  UNL d   1       2.423  -1.854   1.211  0.00  0.00    -0.047 A 
ATOM      6  C4  UNL d   1       2.019  -0.608   0.782  0.00  0.00    -0.004 A 
ENDROOT
TORSDOF 0
ENDMDL
