MODEL 1
REMARK minimizedAffinity -1.69483912
REMARK minimizedRMSD -1
REMARK  0 active torsions:
REMARK  status: ('A' for Active; 'I' for Inactive)
ROOT
ATOM      1  C   UNL d   1      -0.965   1.152  -0.622  0.00  0.00     0.172 C 
ATOM      2  N   UNL d   1      -0.159   0.044  -0.165  0.00  0.00    -0.070 N 
ATOM      3  C1  UNL d   1       1.194  -0.081  -0.333  0.00  0.00    -0.004 A 
ATOM      4  C2  UNL d   1       1.582  -1.272   0.242  0.00  0.00    -0.047 A 
ATOM      5  C3  UNL d   1       0.422  -1.883   0.774  0.00  0.00    -0.047 A 
ATOM      6  C4  UNL d   1      -0.641  -1.047   0.508  0.00  0.00    -0.004 A 
ENDROOT
TORSDOF 0
ENDMDL
