MODEL 1
REMARK minimizedAffinity -3.75675702
REMARK minimizedRMSD -1
REMARK  0 active torsions:
REMARK  status: ('A' for Active; 'I' for Inactive)
ROOT
ATOM      1  C   UNL d   1      -0.925   0.772   0.028  0.00  0.00     0.172 C 
ATOM      2  N   UNL d   1       0.017  -0.296   0.266  0.00  0.00    -0.070 N 
ATOM      3  C1  UNL d   1       1.349  -0.271  -0.050  0.00  0.00    -0.004 A 
ATOM      4  C2  UNL d   1       1.898  -1.475   0.336  0.00  0.00    -0.047 A 
ATOM      5  C3  UNL d   1       0.859  -2.251   0.903  0.00  0.00    -0.047 A 
ATOM      6  C4  UNL d   1      -0.294  -1.497   0.846  0.00  0.00    -0.004 A 
ENDROOT
TORSDOF 0
ENDMDL
