MODEL 1
REMARK minimizedAffinity -2.8821466
REMARK minimizedRMSD -1
REMARK  0 active torsions:
REMARK  status: ('A' for Active; 'I' for Inactive)
ROOT
ATOM      1  C   UNL d   1      -3.048   0.953  -2.212  0.00  0.00     0.172 C 
ATOM      2  N   UNL d   1      -2.067   1.839  -2.794  0.00  0.00    -0.070 N 
ATOM      3  C1  UNL d   1      -1.226   2.666  -2.098  0.00  0.00    -0.004 A 
ATOM      4  C2  UNL d   1      -0.448   3.343  -3.013  0.00  0.00    -0.047 A 
ATOM      5  C3  UNL d   1      -0.837   2.909  -4.303  0.00  0.00    -0.047 A 
ATOM      6  C4  UNL d   1      -1.841   1.978  -4.138  0.00  0.00    -0.004 A 
ENDROOT
TORSDOF 0
ENDMDL
