MODEL 1
REMARK minimizedAffinity -1.57674122
REMARK minimizedRMSD -1
REMARK  0 active torsions:
REMARK  status: ('A' for Active; 'I' for Inactive)
ROOT
ATOM      1  C   UNL d   1      -0.431  -0.545  -0.028  0.00  0.00     0.172 C 
ATOM      2  N   UNL d   1      -0.146  -1.397   1.103  0.00  0.00    -0.070 N 
ATOM      3  C1  UNL d   1       0.953  -2.203   1.237  0.00  0.00    -0.004 A 
ATOM      4  C2  UNL d   1       0.856  -2.850   2.450  0.00  0.00    -0.047 A 
ATOM      5  C3  UNL d   1      -0.343  -2.419   3.065  0.00  0.00    -0.047 A 
ATOM      6  C4  UNL d   1      -0.944  -1.520   2.209  0.00  0.00    -0.004 A 
ENDROOT
TORSDOF 0
ENDMDL
