MODEL 1
REMARK minimizedAffinity -3.18938303
REMARK minimizedRMSD -1
REMARK  2 active torsions:
REMARK  status: ('A' for Active; 'I' for Inactive)
REMARK    1  A    between atoms: C1_2  and  C2_3 
REMARK    2  A    between atoms: C2_3  and  C3_4 
ROOT
ATOM      1  C3  UNL d   1      -1.820  -5.745  -4.846  0.00  0.00    -0.075 A 
ATOM      2  C4  UNL d   1      -3.134  -5.879  -5.319  0.00  0.00     0.002 A 
ATOM      3  C5  UNL d   1      -4.200  -5.995  -4.427  0.00  0.00     0.002 A 
ATOM      4  C6  UNL d   1      -3.967  -5.988  -3.054  0.00  0.00    -0.004 A 
ATOM      5  C7  UNL d   1      -2.665  -5.873  -2.572  0.00  0.00     0.002 A 
ATOM      6  C8  UNL d   1      -1.596  -5.752  -3.462  0.00  0.00     0.002 A 
ENDROOT
BRANCH   1   7
ATOM      7  C2  UNL d   1      -0.665  -5.590  -5.805  0.00  0.00     0.056 C 
BRANCH   7   8
ATOM      8  C1  UNL d   1       0.701  -5.923  -5.196  0.00  0.00     0.007 C 
ATOM      9  C   UNL d   1       1.176  -4.887  -4.186  0.00  0.00     0.009 C 
ENDBRANCH   7   8
ENDBRANCH   1   7
TORSDOF 2
ENDMDL
