MODEL 1
REMARK minimizedAffinity -2.2522974
REMARK minimizedRMSD -1
REMARK  2 active torsions:
REMARK  status: ('A' for Active; 'I' for Inactive)
REMARK    1  A    between atoms: C1_2  and  C2_3 
REMARK    2  A    between atoms: C2_3  and  C3_4 
ROOT
ATOM      1  C3  UNL d   1      -1.191  -5.686  -4.272  0.00  0.00    -0.075 A 
ATOM      2  C4  UNL d   1      -0.790  -5.913  -5.597  0.00  0.00     0.002 A 
ATOM      3  C5  UNL d   1       0.521  -5.647  -5.995  0.00  0.00     0.002 A 
ATOM      4  C6  UNL d   1       1.442  -5.144  -5.079  0.00  0.00    -0.004 A 
ATOM      5  C7  UNL d   1       1.050  -4.899  -3.765  0.00  0.00     0.002 A 
ATOM      6  C8  UNL d   1      -0.260  -5.168  -3.363  0.00  0.00     0.002 A 
ENDROOT
BRANCH   1   7
ATOM      7  C2  UNL d   1      -2.600  -5.999  -3.827  0.00  0.00     0.056 C 
BRANCH   7   8
ATOM      8  C1  UNL d   1      -2.826  -5.847  -2.320  0.00  0.00     0.007 C 
ATOM      9  C   UNL d   1      -4.286  -6.000  -1.913  0.00  0.00     0.009 C 
ENDBRANCH   7   8
ENDBRANCH   1   7
TORSDOF 2
ENDMDL
