MODEL 1
REMARK minimizedAffinity 2.05465221
REMARK minimizedRMSD -1
REMARK  2 active torsions:
REMARK  status: ('A' for Active; 'I' for Inactive)
REMARK    1  A    between atoms: C1_2  and  C2_3 
REMARK    2  A    between atoms: C2_3  and  C3_4 
ROOT
ATOM      1  C3  UNL d   1       2.896  -1.344   2.041  0.00  0.00    -0.075 A 
ATOM      2  C4  UNL d   1       1.845  -1.358   2.969  0.00  0.00     0.002 A 
ATOM      3  C5  UNL d   1       2.070  -1.005   4.300  0.00  0.00     0.002 A 
ATOM      4  C6  UNL d   1       3.348  -0.643   4.721  0.00  0.00    -0.004 A 
ATOM      5  C7  UNL d   1       4.403  -0.641   3.811  0.00  0.00     0.002 A 
ATOM      6  C8  UNL d   1       4.179  -0.990   2.478  0.00  0.00     0.002 A 
ENDROOT
BRANCH   1   7
ATOM      7  C2  UNL d   1       2.653  -1.697   0.593  0.00  0.00     0.056 C 
BRANCH   7   8
ATOM      8  C1  UNL d   1       2.868  -0.531  -0.378  0.00  0.00     0.007 C 
ATOM      9  C   UNL d   1       2.125   0.734   0.029  0.00  0.00     0.009 C 
ENDBRANCH   7   8
ENDBRANCH   1   7
TORSDOF 2
ENDMDL
