MODEL 1
REMARK minimizedAffinity 3.66992307
REMARK minimizedRMSD -1
REMARK  2 active torsions:
REMARK  status: ('A' for Active; 'I' for Inactive)
REMARK    1  A    between atoms: C1_2  and  C2_3 
REMARK    2  A    between atoms: C2_3  and  C3_4 
ROOT
ATOM      1  C3  UNL d   1       2.163  -0.687   0.982  0.00  0.00    -0.075 A 
ATOM      2  C4  UNL d   1       2.234   0.159  -0.135  0.00  0.00     0.002 A 
ATOM      3  C5  UNL d   1       1.106   0.855  -0.569  0.00  0.00     0.002 A 
ATOM      4  C6  UNL d   1      -0.107   0.707   0.100  0.00  0.00    -0.004 A 
ATOM      5  C7  UNL d   1      -0.193  -0.143   1.200  0.00  0.00     0.002 A 
ATOM      6  C8  UNL d   1       0.935  -0.837   1.639  0.00  0.00     0.002 A 
ENDROOT
BRANCH   1   7
ATOM      7  C2  UNL d   1       3.388  -1.420   1.474  0.00  0.00     0.056 C 
BRANCH   7   8
ATOM      8  C1  UNL d   1       3.785  -1.075   2.913  0.00  0.00     0.007 C 
ATOM      9  C   UNL d   1       5.217  -0.569   3.036  0.00  0.00     0.009 C 
ENDBRANCH   7   8
ENDBRANCH   1   7
TORSDOF 2
ENDMDL
