MODEL 1
REMARK minimizedAffinity -0.411760896
REMARK minimizedRMSD -1
REMARK  2 active torsions:
REMARK  status: ('A' for Active; 'I' for Inactive)
REMARK    1  A    between atoms: C1_2  and  C2_3 
REMARK    2  A    between atoms: C2_3  and  C3_4 
ROOT
ATOM      1  C3  UNL d   1       2.065  -0.716   1.057  0.00  0.00    -0.075 A 
ATOM      2  C4  UNL d   1       1.478  -1.015   2.295  0.00  0.00     0.002 A 
ATOM      3  C5  UNL d   1       2.272  -1.225   3.423  0.00  0.00     0.002 A 
ATOM      4  C6  UNL d   1       3.660  -1.149   3.326  0.00  0.00    -0.004 A 
ATOM      5  C7  UNL d   1       4.254  -0.869   2.097  0.00  0.00     0.002 A 
ATOM      6  C8  UNL d   1       3.462  -0.654   0.968  0.00  0.00     0.002 A 
ENDROOT
BRANCH   1   7
ATOM      7  C2  UNL d   1       1.210  -0.459  -0.161  0.00  0.00     0.056 C 
BRANCH   7   8
ATOM      8  C1  UNL d   1       0.354   0.809  -0.066  0.00  0.00     0.007 C 
ATOM      9  C   UNL d   1      -1.106   0.524   0.261  0.00  0.00     0.009 C 
ENDBRANCH   7   8
ENDBRANCH   1   7
TORSDOF 2
ENDMDL
