MODEL 1
REMARK minimizedAffinity 1.47035575
REMARK minimizedRMSD -1
REMARK  2 active torsions:
REMARK  status: ('A' for Active; 'I' for Inactive)
REMARK    1  A    between atoms: C1_2  and  C2_3 
REMARK    2  A    between atoms: C2_3  and  C3_4 
ROOT
ATOM      1  C3  UNL d   1       0.630  -5.120  -3.625  0.00  0.00    -0.075 A 
ATOM      2  C4  UNL d   1      -0.150  -5.553  -4.707  0.00  0.00     0.002 A 
ATOM      3  C5  UNL d   1       0.454  -5.994  -5.885  0.00  0.00     0.002 A 
ATOM      4  C6  UNL d   1       1.843  -5.999  -5.999  0.00  0.00    -0.004 A 
ATOM      5  C7  UNL d   1       2.627  -5.555  -4.937  0.00  0.00     0.002 A 
ATOM      6  C8  UNL d   1       2.025  -5.118  -3.756  0.00  0.00     0.002 A 
ENDROOT
BRANCH   1   7
ATOM      7  C2  UNL d   1      -0.017  -4.669  -2.337  0.00  0.00     0.056 C 
BRANCH   7   8
ATOM      8  C1  UNL d   1      -1.523  -4.945  -2.266  0.00  0.00     0.007 C 
ATOM      9  C   UNL d   1      -2.175  -4.391  -1.007  0.00  0.00     0.009 C 
ENDBRANCH   7   8
ENDBRANCH   1   7
TORSDOF 2
ENDMDL
