MODEL 1
REMARK minimizedAffinity 4.6200242
REMARK minimizedRMSD -1
REMARK  2 active torsions:
REMARK  status: ('A' for Active; 'I' for Inactive)
REMARK    1  A    between atoms: C1_2  and  C2_3 
REMARK    2  A    between atoms: C2_3  and  C3_4 
ROOT
ATOM      1  C3  UNL d   1       0.501  -1.346   0.638  0.00  0.00    -0.075 A 
ATOM      2  C4  UNL d   1       0.261  -0.339  -0.308  0.00  0.00     0.002 A 
ATOM      3  C5  UNL d   1       1.302   0.476  -0.753  0.00  0.00     0.002 A 
ATOM      4  C6  UNL d   1       2.590   0.303  -0.252  0.00  0.00    -0.004 A 
ATOM      5  C7  UNL d   1       2.837  -0.684   0.700  0.00  0.00     0.002 A 
ATOM      6  C8  UNL d   1       1.798  -1.504   1.145  0.00  0.00     0.002 A 
ENDROOT
BRANCH   1   7
ATOM      7  C2  UNL d   1      -0.615  -2.252   1.103  0.00  0.00     0.056 C 
BRANCH   7   8
ATOM      8  C1  UNL d   1      -0.982  -3.353   0.102  0.00  0.00     0.007 C 
ATOM      9  C   UNL d   1      -2.237  -4.123   0.491  0.00  0.00     0.009 C 
ENDBRANCH   7   8
ENDBRANCH   1   7
TORSDOF 2
ENDMDL
