MODEL 1
REMARK minimizedAffinity 1.11640573
REMARK minimizedRMSD -1
REMARK  2 active torsions:
REMARK  status: ('A' for Active; 'I' for Inactive)
REMARK    1  A    between atoms: C1_2  and  C2_3 
REMARK    2  A    between atoms: C2_3  and  C3_4 
ROOT
ATOM      1  C3  UNL d   1       0.026  -5.546  -4.890  0.00  0.00    -0.075 A 
ATOM      2  C4  UNL d   1       0.837  -5.918  -5.971  0.00  0.00     0.002 A 
ATOM      3  C5  UNL d   1       2.222  -6.000  -5.822  0.00  0.00     0.002 A 
ATOM      4  C6  UNL d   1       2.813  -5.702  -4.596  0.00  0.00    -0.004 A 
ATOM      5  C7  UNL d   1       2.018  -5.315  -3.520  0.00  0.00     0.002 A 
ATOM      6  C8  UNL d   1       0.631  -5.236  -3.665  0.00  0.00     0.002 A 
ENDROOT
BRANCH   1   7
ATOM      7  C2  UNL d   1      -1.476  -5.484  -5.036  0.00  0.00     0.056 C 
BRANCH   7   8
ATOM      8  C1  UNL d   1      -2.244  -6.000  -3.815  0.00  0.00     0.007 C 
ATOM      9  C   UNL d   1      -2.968  -4.899  -3.051  0.00  0.00     0.009 C 
ENDBRANCH   7   8
ENDBRANCH   1   7
TORSDOF 2
ENDMDL
