MODEL 1
REMARK minimizedAffinity 2.61493516
REMARK minimizedRMSD -1
REMARK  2 active torsions:
REMARK  status: ('A' for Active; 'I' for Inactive)
REMARK    1  A    between atoms: C1_2  and  C2_3 
REMARK    2  A    between atoms: C2_3  and  C3_4 
ROOT
ATOM      1  C3  UNL d   1      -0.957   1.470  -3.117  0.00  0.00    -0.075 A 
ATOM      2  C4  UNL d   1      -2.269   0.994  -2.981  0.00  0.00     0.002 A 
ATOM      3  C5  UNL d   1      -3.342   1.718  -3.499  0.00  0.00     0.002 A 
ATOM      4  C6  UNL d   1      -3.120   2.929  -4.151  0.00  0.00    -0.004 A 
ATOM      5  C7  UNL d   1      -1.822   3.420  -4.278  0.00  0.00     0.002 A 
ATOM      6  C8  UNL d   1      -0.745   2.695  -3.764  0.00  0.00     0.002 A 
ENDROOT
BRANCH   1   7
ATOM      7  C2  UNL d   1       0.212   0.677  -2.584  0.00  0.00     0.056 C 
BRANCH   7   8
ATOM      8  C1  UNL d   1       0.052   0.234  -1.126  0.00  0.00     0.007 C 
ATOM      9  C   UNL d   1       1.374   0.156  -0.374  0.00  0.00     0.009 C 
ENDBRANCH   7   8
ENDBRANCH   1   7
TORSDOF 2
ENDMDL
