MODEL 1
REMARK minimizedAffinity 5.64367437
REMARK minimizedRMSD -1
REMARK  2 active torsions:
REMARK  status: ('A' for Active; 'I' for Inactive)
REMARK    1  A    between atoms: C1_2  and  C2_3 
REMARK    2  A    between atoms: C2_3  and  C3_4 
ROOT
ATOM      1  C3  UNL d   1      -1.121  -1.923   0.370  0.00  0.00    -0.075 A 
ATOM      2  C4  UNL d   1      -1.066  -0.542   0.608  0.00  0.00     0.002 A 
ATOM      3  C5  UNL d   1       0.134   0.155   0.462  0.00  0.00     0.002 A 
ATOM      4  C6  UNL d   1       1.294  -0.519   0.088  0.00  0.00    -0.004 A 
ATOM      5  C7  UNL d   1       1.255  -1.894  -0.135  0.00  0.00     0.002 A 
ATOM      6  C8  UNL d   1       0.055  -2.593   0.006  0.00  0.00     0.002 A 
ENDROOT
BRANCH   1   7
ATOM      7  C2  UNL d   1      -2.422  -2.678   0.497  0.00  0.00     0.056 C 
BRANCH   7   8
ATOM      8  C1  UNL d   1      -2.264  -4.109   1.022  0.00  0.00     0.007 C 
ATOM      9  C   UNL d   1      -2.744  -5.166   0.036  0.00  0.00     0.009 C 
ENDBRANCH   7   8
ENDBRANCH   1   7
TORSDOF 2
ENDMDL
