MODEL 1
REMARK minimizedAffinity 1.92623758
REMARK minimizedRMSD -1
REMARK  2 active torsions:
REMARK  status: ('A' for Active; 'I' for Inactive)
REMARK    1  A    between atoms: C1_2  and  C2_3 
REMARK    2  A    between atoms: C2_3  and  C3_4 
ROOT
ATOM      1  C3  UNL d   1       0.619  -5.605  -5.221  0.00  0.00    -0.075 A 
ATOM      2  C4  UNL d   1       1.777  -5.473  -6.000  0.00  0.00     0.002 A 
ATOM      3  C5  UNL d   1       2.995  -5.135  -5.408  0.00  0.00     0.002 A 
ATOM      4  C6  UNL d   1       3.067  -4.914  -4.035  0.00  0.00    -0.004 A 
ATOM      5  C7  UNL d   1       1.919  -5.026  -3.253  0.00  0.00     0.002 A 
ATOM      6  C8  UNL d   1       0.701  -5.369  -3.842  0.00  0.00     0.002 A 
ENDROOT
BRANCH   1   7
ATOM      7  C2  UNL d   1      -0.695  -6.000  -5.851  0.00  0.00     0.056 C 
BRANCH   7   8
ATOM      8  C1  UNL d   1      -1.900  -5.213  -5.325  0.00  0.00     0.007 C 
ATOM      9  C   UNL d   1      -2.723  -5.987  -4.303  0.00  0.00     0.009 C 
ENDBRANCH   7   8
ENDBRANCH   1   7
TORSDOF 2
ENDMDL
