MODEL 1
REMARK minimizedAffinity -1.53163338
REMARK minimizedRMSD -1
REMARK  2 active torsions:
REMARK  status: ('A' for Active; 'I' for Inactive)
REMARK    1  A    between atoms: C1_2  and  C2_3 
REMARK    2  A    between atoms: C2_3  and  C3_4 
ROOT
ATOM      1  C3  UNL d   1      -1.401  -5.982  -3.447  0.00  0.00    -0.075 A 
ATOM      2  C4  UNL d   1       0.002  -5.999  -3.421  0.00  0.00     0.002 A 
ATOM      3  C5  UNL d   1       0.732  -5.958  -4.609  0.00  0.00     0.002 A 
ATOM      4  C6  UNL d   1       0.073  -5.909  -5.835  0.00  0.00    -0.004 A 
ATOM      5  C7  UNL d   1      -1.320  -5.909  -5.873  0.00  0.00     0.002 A 
ATOM      6  C8  UNL d   1      -2.054  -5.946  -4.686  0.00  0.00     0.002 A 
ENDROOT
BRANCH   1   7
ATOM      7  C2  UNL d   1      -2.197  -5.997  -2.164  0.00  0.00     0.056 C 
BRANCH   7   8
ATOM      8  C1  UNL d   1      -3.715  -5.997  -2.372  0.00  0.00     0.007 C 
ATOM      9  C   UNL d   1      -4.498  -5.771  -1.086  0.00  0.00     0.009 C 
ENDBRANCH   7   8
ENDBRANCH   1   7
TORSDOF 2
ENDMDL
