MODEL 1
REMARK minimizedAffinity 2.78659678
REMARK minimizedRMSD -1
REMARK  0 active torsions:
REMARK  status: ('A' for Active; 'I' for Inactive)
ROOT
ATOM      1  C   UNL d   1       1.973  -1.038   0.269  0.00  0.00     0.124 A 
ATOM      2  C1  UNL d   1       1.782  -0.040  -0.677  0.00  0.00     0.062 A 
ATOM      3  C2  UNL d   1       0.607   0.706  -0.680  0.00  0.00     0.162 A 
ATOM      4  C3  UNL d   1      -0.386   0.458   0.267  0.00  0.00    -0.034 A 
ATOM      5  C4  UNL d   1      -0.188  -0.548   1.214  0.00  0.00     0.162 A 
ATOM      6  C5  UNL d   1       0.988  -1.291   1.213  0.00  0.00     0.062 A 
ATOM      7  F   UNL d   1       1.170  -2.255   2.127  0.00  0.00    -0.097 F 
ATOM      8  F1  UNL d   1      -1.123  -0.812   2.139  0.00  0.00    -0.096 F 
ATOM      9  I   UNL d   1      -2.144   1.572   0.266  0.00  0.00    -0.060 I 
ATOM     10  F2  UNL d   1       0.450   1.665  -1.605  0.00  0.00    -0.096 F 
ATOM     11  F3  UNL d   1       2.732   0.205  -1.591  0.00  0.00    -0.097 F 
ATOM     12  F4  UNL d   1       3.103  -1.756   0.268  0.00  0.00    -0.092 F 
ENDROOT
TORSDOF 0
ENDMDL
