MODEL 1
REMARK minimizedAffinity -1.77879906
REMARK minimizedRMSD -1
REMARK  0 active torsions:
REMARK  status: ('A' for Active; 'I' for Inactive)
ROOT
ATOM      1  C   UNL d   1       0.687  -1.341   1.758  0.00  0.00     0.124 A 
ATOM      2  C1  UNL d   1      -0.399  -0.539   2.081  0.00  0.00     0.062 A 
ATOM      3  C2  UNL d   1      -0.825   0.451   1.201  0.00  0.00     0.162 A 
ATOM      4  C3  UNL d   1      -0.164   0.645  -0.013  0.00  0.00    -0.034 A 
ATOM      5  C4  UNL d   1       0.928  -0.165  -0.330  0.00  0.00     0.162 A 
ATOM      6  C5  UNL d   1       1.349  -1.153   0.554  0.00  0.00     0.062 A 
ATOM      7  F   UNL d   1       2.399  -1.927   0.240  0.00  0.00    -0.097 F 
ATOM      8  F1  UNL d   1       1.586  -0.005  -1.488  0.00  0.00    -0.096 F 
ATOM      9  I   UNL d   1      -0.797   2.125  -1.332  0.00  0.00    -0.060 I 
ATOM     10  F2  UNL d   1      -1.877   1.211   1.538  0.00  0.00    -0.096 F 
ATOM     11  F3  UNL d   1      -1.040  -0.718   3.245  0.00  0.00    -0.097 F 
ATOM     12  F4  UNL d   1       1.094  -2.292   2.608  0.00  0.00    -0.092 F 
ENDROOT
TORSDOF 0
ENDMDL
