MODEL 1
REMARK minimizedAffinity -0.742224097
REMARK minimizedRMSD -1
REMARK  0 active torsions:
REMARK  status: ('A' for Active; 'I' for Inactive)
ROOT
ATOM      1  C   UNL d   1      -0.658  -0.813   2.353  0.00  0.00     0.124 A 
ATOM      2  C1  UNL d   1      -0.885   0.300   1.556  0.00  0.00     0.062 A 
ATOM      3  C2  UNL d   1       0.037   0.661   0.578  0.00  0.00     0.162 A 
ATOM      4  C3  UNL d   1       1.196  -0.092   0.391  0.00  0.00    -0.034 A 
ATOM      5  C4  UNL d   1       1.419  -1.209   1.198  0.00  0.00     0.162 A 
ATOM      6  C5  UNL d   1       0.494  -1.566   2.174  0.00  0.00     0.062 A 
ATOM      7  F   UNL d   1       0.716  -2.642   2.943  0.00  0.00    -0.097 F 
ATOM      8  F1  UNL d   1       2.523  -1.956   1.045  0.00  0.00    -0.096 F 
ATOM      9  I   UNL d   1       2.578   0.445  -1.070  0.00  0.00    -0.060 I 
ATOM     10  F2  UNL d   1      -0.209   1.741  -0.178  0.00  0.00    -0.096 F 
ATOM     11  F3  UNL d   1      -1.997   1.030   1.728  0.00  0.00    -0.097 F 
ATOM     12  F4  UNL d   1      -1.546  -1.158   3.294  0.00  0.00    -0.092 F 
ENDROOT
TORSDOF 0
ENDMDL
