MODEL 1
REMARK minimizedAffinity -1.79101622
REMARK minimizedRMSD -1
REMARK  0 active torsions:
REMARK  status: ('A' for Active; 'I' for Inactive)
ROOT
ATOM      1  C   UNL d   1       0.966  -1.613   2.247  0.00  0.00     0.124 A 
ATOM      2  C1  UNL d   1       1.512  -1.377   0.993  0.00  0.00     0.062 A 
ATOM      3  C2  UNL d   1       0.896  -0.489   0.117  0.00  0.00     0.162 A 
ATOM      4  C3  UNL d   1      -0.275   0.171   0.491  0.00  0.00    -0.034 A 
ATOM      5  C4  UNL d   1      -0.819  -0.072   1.753  0.00  0.00     0.162 A 
ATOM      6  C5  UNL d   1      -0.199  -0.960   2.626  0.00  0.00     0.062 A 
ATOM      7  F   UNL d   1      -0.729  -1.187   3.837  0.00  0.00    -0.097 F 
ATOM      8  F1  UNL d   1      -1.943   0.546   2.145  0.00  0.00    -0.096 F 
ATOM      9  I   UNL d   1      -1.200   1.499  -0.817  0.00  0.00    -0.060 I 
ATOM     10  F2  UNL d   1       1.446  -0.281  -1.089  0.00  0.00    -0.096 F 
ATOM     11  F3  UNL d   1       2.637  -2.007   0.625  0.00  0.00    -0.097 F 
ATOM     12  F4  UNL d   1       1.560  -2.469   3.088  0.00  0.00    -0.092 F 
ENDROOT
TORSDOF 0
ENDMDL
