MODEL 1
REMARK minimizedAffinity -2.1842916
REMARK minimizedRMSD -1
REMARK  0 active torsions:
REMARK  status: ('A' for Active; 'I' for Inactive)
ROOT
ATOM      1  C   UNL d   1       1.015  -1.746   2.300  0.00  0.00     0.124 A 
ATOM      2  C1  UNL d   1       1.680  -1.301   1.166  0.00  0.00     0.062 A 
ATOM      3  C2  UNL d   1       1.098  -0.341   0.344  0.00  0.00     0.162 A 
ATOM      4  C3  UNL d   1      -0.158   0.182   0.652  0.00  0.00    -0.034 A 
ATOM      5  C4  UNL d   1      -0.822  -0.271   1.794  0.00  0.00     0.162 A 
ATOM      6  C5  UNL d   1      -0.235  -1.230   2.613  0.00  0.00     0.062 A 
ATOM      7  F   UNL d   1      -0.880  -1.659   3.708  0.00  0.00    -0.097 F 
ATOM      8  F1  UNL d   1      -2.030   0.211   2.120  0.00  0.00    -0.096 F 
ATOM      9  I   UNL d   1      -1.032   1.617  -0.575  0.00  0.00    -0.060 I 
ATOM     10  F2  UNL d   1       1.764   0.070  -0.746  0.00  0.00    -0.096 F 
ATOM     11  F3  UNL d   1       2.888  -1.798   0.862  0.00  0.00    -0.097 F 
ATOM     12  F4  UNL d   1       1.577  -2.670   3.089  0.00  0.00    -0.092 F 
ENDROOT
TORSDOF 0
ENDMDL
