MODEL 1
REMARK minimizedAffinity 0.0591464266
REMARK minimizedRMSD -1
REMARK  0 active torsions:
REMARK  status: ('A' for Active; 'I' for Inactive)
ROOT
ATOM      1  C   UNL d   1       0.755  -1.258   1.736  0.00  0.00     0.124 A 
ATOM      2  C1  UNL d   1      -0.417  -0.550   1.963  0.00  0.00     0.062 A 
ATOM      3  C2  UNL d   1      -0.807   0.458   1.085  0.00  0.00     0.162 A 
ATOM      4  C3  UNL d   1      -0.023   0.763  -0.028  0.00  0.00    -0.034 A 
ATOM      5  C4  UNL d   1       1.154   0.047  -0.249  0.00  0.00     0.162 A 
ATOM      6  C5  UNL d   1       1.539  -0.960   0.631  0.00  0.00     0.062 A 
ATOM      7  F   UNL d   1       2.672  -1.643   0.411  0.00  0.00    -0.097 F 
ATOM      8  F1  UNL d   1       1.931   0.314  -1.309  0.00  0.00    -0.096 F 
ATOM      9  I   UNL d   1      -0.602   2.269  -1.343  0.00  0.00    -0.060 I 
ATOM     10  F2  UNL d   1      -1.944   1.126   1.329  0.00  0.00    -0.096 F 
ATOM     11  F3  UNL d   1      -1.176  -0.836   3.030  0.00  0.00    -0.097 F 
ATOM     12  F4  UNL d   1       1.127  -2.227   2.583  0.00  0.00    -0.092 F 
ENDROOT
TORSDOF 0
ENDMDL
