MODEL 1
REMARK minimizedAffinity -0.717583537
REMARK minimizedRMSD -1
REMARK  0 active torsions:
REMARK  status: ('A' for Active; 'I' for Inactive)
ROOT
ATOM      1  C   UNL d   1       0.636  -1.489   1.842  0.00  0.00     0.124 A 
ATOM      2  C1  UNL d   1      -0.437  -0.652   2.113  0.00  0.00     0.062 A 
ATOM      3  C2  UNL d   1      -0.877   0.255   1.152  0.00  0.00     0.162 A 
ATOM      4  C3  UNL d   1      -0.243   0.329  -0.088  0.00  0.00    -0.034 A 
ATOM      5  C4  UNL d   1       0.836  -0.516  -0.352  0.00  0.00     0.162 A 
ATOM      6  C5  UNL d   1       1.272  -1.420   0.611  0.00  0.00     0.062 A 
ATOM      7  F   UNL d   1       2.310  -2.228   0.348  0.00  0.00    -0.097 F 
ATOM      8  F1  UNL d   1       1.468  -0.471  -1.534  0.00  0.00    -0.096 F 
ATOM      9  I   UNL d   1      -0.898   1.683  -1.526  0.00  0.00    -0.060 I 
ATOM     10  F2  UNL d   1      -1.917   1.052   1.441  0.00  0.00    -0.096 F 
ATOM     11  F3  UNL d   1      -1.052  -0.716   3.302  0.00  0.00    -0.097 F 
ATOM     12  F4  UNL d   1       1.058  -2.360   2.768  0.00  0.00    -0.092 F 
ENDROOT
TORSDOF 0
ENDMDL
