MODEL 1
REMARK minimizedAffinity 2.73680329
REMARK minimizedRMSD -1
REMARK  0 active torsions:
REMARK  status: ('A' for Active; 'I' for Inactive)
ROOT
ATOM      1  C   UNL d   1       0.934  -1.407   1.628  0.00  0.00     0.124 A 
ATOM      2  C1  UNL d   1       1.481  -1.247   0.363  0.00  0.00     0.062 A 
ATOM      3  C2  UNL d   1       0.923  -0.339  -0.532  0.00  0.00     0.162 A 
ATOM      4  C3  UNL d   1      -0.190   0.417  -0.164  0.00  0.00    -0.034 A 
ATOM      5  C4  UNL d   1      -0.736   0.249   1.110  0.00  0.00     0.162 A 
ATOM      6  C5  UNL d   1      -0.174  -0.659   2.000  0.00  0.00     0.062 A 
ATOM      7  F   UNL d   1      -0.705  -0.813   3.222  0.00  0.00    -0.097 F 
ATOM      8  F1  UNL d   1      -1.806   0.960   1.496  0.00  0.00    -0.096 F 
ATOM      9  I   UNL d   1      -1.029   1.776  -1.499  0.00  0.00    -0.060 I 
ATOM     10  F2  UNL d   1       1.472  -0.205  -1.748  0.00  0.00    -0.096 F 
ATOM     11  F3  UNL d   1       2.551  -1.970   0.001  0.00  0.00    -0.097 F 
ATOM     12  F4  UNL d   1       1.473  -2.283   2.487  0.00  0.00    -0.092 F 
ENDROOT
TORSDOF 0
ENDMDL
