MODEL 1
REMARK minimizedAffinity 0.370163679
REMARK minimizedRMSD -1
REMARK  0 active torsions:
REMARK  status: ('A' for Active; 'I' for Inactive)
ROOT
ATOM      1  C   UNL d   1       1.617  -1.364   1.089  0.00  0.00     0.124 A 
ATOM      2  C1  UNL d   1       1.664  -0.405   0.087  0.00  0.00     0.062 A 
ATOM      3  C2  UNL d   1       0.673   0.569   0.003  0.00  0.00     0.162 A 
ATOM      4  C3  UNL d   1      -0.374   0.589   0.925  0.00  0.00    -0.034 A 
ATOM      5  C4  UNL d   1      -0.415  -0.379   1.930  0.00  0.00     0.162 A 
ATOM      6  C5  UNL d   1       0.578  -1.350   2.009  0.00  0.00     0.062 A 
ATOM      7  F   UNL d   1       0.531  -2.276   2.979  0.00  0.00    -0.097 F 
ATOM      8  F1  UNL d   1      -1.407  -0.389   2.832  0.00  0.00    -0.096 F 
ATOM      9  I   UNL d   1      -1.858   2.043   0.802  0.00  0.00    -0.060 I 
ATOM     10  F2  UNL d   1       0.743   1.483  -0.976  0.00  0.00    -0.096 F 
ATOM     11  F3  UNL d   1       2.666  -0.416  -0.804  0.00  0.00    -0.097 F 
ATOM     12  F4  UNL d   1       2.572  -2.300   1.168  0.00  0.00    -0.092 F 
ENDROOT
TORSDOF 0
ENDMDL
