MODEL 1
REMARK minimizedAffinity -2.22571349
REMARK minimizedRMSD -1
REMARK  0 active torsions:
REMARK  status: ('A' for Active; 'I' for Inactive)
ROOT
ATOM      1  C   UNL d   1       2.194  -1.078   0.077  0.00  0.00     0.124 A 
ATOM      2  C1  UNL d   1       2.038  -0.136  -0.930  0.00  0.00     0.062 A 
ATOM      3  C2  UNL d   1       0.814   0.504  -1.106  0.00  0.00     0.162 A 
ATOM      4  C3  UNL d   1      -0.262   0.206  -0.271  0.00  0.00    -0.034 A 
ATOM      5  C4  UNL d   1      -0.097  -0.744   0.740  0.00  0.00     0.162 A 
ATOM      6  C5  UNL d   1       1.127  -1.381   0.911  0.00  0.00     0.062 A 
ATOM      7  F   UNL d   1       1.277  -2.291   1.885  0.00  0.00    -0.097 F 
ATOM      8  F1  UNL d   1      -1.112  -1.054   1.560  0.00  0.00    -0.096 F 
ATOM      9  I   UNL d   1      -2.093   1.161  -0.530  0.00  0.00    -0.060 I 
ATOM     10  F2  UNL d   1       0.692   1.410  -2.087  0.00  0.00    -0.096 F 
ATOM     11  F3  UNL d   1       3.067   0.157  -1.738  0.00  0.00    -0.097 F 
ATOM     12  F4  UNL d   1       3.372  -1.694   0.243  0.00  0.00    -0.092 F 
ENDROOT
TORSDOF 0
ENDMDL
