MODEL 1
REMARK minimizedAffinity -0.316551507
REMARK minimizedRMSD -1
REMARK  0 active torsions:
REMARK  status: ('A' for Active; 'I' for Inactive)
ROOT
ATOM      1  C   UNL d   1       1.539  -0.303  -0.434  0.00  0.00     0.124 A 
ATOM      2  C1  UNL d   1       1.772  -1.394   0.392  0.00  0.00     0.062 A 
ATOM      3  C2  UNL d   1       0.865  -1.716   1.397  0.00  0.00     0.162 A 
ATOM      4  C3  UNL d   1      -0.285  -0.948   1.581  0.00  0.00    -0.034 A 
ATOM      5  C4  UNL d   1      -0.512   0.147   0.746  0.00  0.00     0.162 A 
ATOM      6  C5  UNL d   1       0.398   0.466  -0.257  0.00  0.00     0.062 A 
ATOM      7  F   UNL d   1       0.171   1.519  -1.055  0.00  0.00    -0.097 F 
ATOM      8  F1  UNL d   1      -1.607   0.907   0.894  0.00  0.00    -0.096 F 
ATOM      9  I   UNL d   1      -1.644  -1.428   3.082  0.00  0.00    -0.060 I 
ATOM     10  F2  UNL d   1       1.116  -2.775   2.182  0.00  0.00    -0.096 F 
ATOM     11  F3  UNL d   1       2.875  -2.138   0.224  0.00  0.00    -0.097 F 
ATOM     12  F4  UNL d   1       2.414   0.006  -1.400  0.00  0.00    -0.092 F 
ENDROOT
TORSDOF 0
ENDMDL
