MODEL 1
REMARK minimizedAffinity -0.937624335
REMARK minimizedRMSD -1
REMARK  0 active torsions:
REMARK  status: ('A' for Active; 'I' for Inactive)
ROOT
ATOM      1  C   UNL d   1       0.386  -0.816   0.738  0.00  0.00     0.124 A 
ATOM      2  C1  UNL d   1       0.798  -0.964  -0.579  0.00  0.00     0.062 A 
ATOM      3  C2  UNL d   1       0.147  -0.275  -1.598  0.00  0.00     0.162 A 
ATOM      4  C3  UNL d   1      -0.924   0.569  -1.303  0.00  0.00    -0.034 A 
ATOM      5  C4  UNL d   1      -1.333   0.712   0.023  0.00  0.00     0.162 A 
ATOM      6  C5  UNL d   1      -0.679   0.021   1.038  0.00  0.00     0.062 A 
ATOM      7  F   UNL d   1      -1.079   0.165   2.310  0.00  0.00    -0.097 F 
ATOM      8  F1  UNL d   1      -2.359   1.516   0.341  0.00  0.00    -0.096 F 
ATOM      9  I   UNL d   1      -1.900   1.602  -2.824  0.00  0.00    -0.060 I 
ATOM     10  F2  UNL d   1       0.567  -0.437  -2.861  0.00  0.00    -0.096 F 
ATOM     11  F3  UNL d   1       1.826  -1.774  -0.871  0.00  0.00    -0.097 F 
ATOM     12  F4  UNL d   1       1.014  -1.481   1.717  0.00  0.00    -0.092 F 
ENDROOT
TORSDOF 0
ENDMDL
