MODEL 1
REMARK minimizedAffinity -2.67239547
REMARK minimizedRMSD -1
REMARK  0 active torsions:
REMARK  status: ('A' for Active; 'I' for Inactive)
ROOT
ATOM      1  C   UNL d   1       0.538  -1.502   2.044  0.00  0.00     0.124 A 
ATOM      2  C1  UNL d   1      -0.625  -0.778   2.271  0.00  0.00     0.062 A 
ATOM      3  C2  UNL d   1      -1.014   0.218   1.380  0.00  0.00     0.162 A 
ATOM      4  C3  UNL d   1      -0.240   0.495   0.253  0.00  0.00    -0.034 A 
ATOM      5  C4  UNL d   1       0.928  -0.237   0.032  0.00  0.00     0.162 A 
ATOM      6  C5  UNL d   1       1.313  -1.231   0.925  0.00  0.00     0.062 A 
ATOM      7  F   UNL d   1       2.436  -1.930   0.705  0.00  0.00    -0.097 F 
ATOM      8  F1  UNL d   1       1.695   0.004  -1.042  0.00  0.00    -0.096 F 
ATOM      9  I   UNL d   1      -0.819   1.983  -1.082  0.00  0.00    -0.060 I 
ATOM     10  F2  UNL d   1      -2.142   0.901   1.624  0.00  0.00    -0.096 F 
ATOM     11  F3  UNL d   1      -1.374  -1.038   3.352  0.00  0.00    -0.097 F 
ATOM     12  F4  UNL d   1       0.910  -2.459   2.904  0.00  0.00    -0.092 F 
ENDROOT
TORSDOF 0
ENDMDL
