MODEL 1
REMARK minimizedAffinity 1.56101191
REMARK minimizedRMSD -1
REMARK  0 active torsions:
REMARK  status: ('A' for Active; 'I' for Inactive)
ROOT
ATOM      1  C   UNL d   1       0.657  -1.393   1.815  0.00  0.00     0.124 A 
ATOM      2  C1  UNL d   1       1.439  -1.043   0.723  0.00  0.00     0.062 A 
ATOM      3  C2  UNL d   1       1.019  -0.039  -0.145  0.00  0.00     0.162 A 
ATOM      4  C3  UNL d   1      -0.189   0.623   0.075  0.00  0.00    -0.034 A 
ATOM      5  C4  UNL d   1      -0.970   0.264   1.175  0.00  0.00     0.162 A 
ATOM      6  C5  UNL d   1      -0.546  -0.739   2.040  0.00  0.00     0.062 A 
ATOM      7  F   UNL d   1      -1.303  -1.076   3.095  0.00  0.00    -0.097 F 
ATOM      8  F1  UNL d   1      -2.137   0.880   1.417  0.00  0.00    -0.096 F 
ATOM      9  I   UNL d   1      -0.820   2.124  -1.220  0.00  0.00    -0.060 I 
ATOM     10  F2  UNL d   1       1.795   0.279  -1.193  0.00  0.00    -0.096 F 
ATOM     11  F3  UNL d   1       2.601  -1.673   0.502  0.00  0.00    -0.097 F 
ATOM     12  F4  UNL d   1       1.063  -2.360   2.648  0.00  0.00    -0.092 F 
ENDROOT
TORSDOF 0
ENDMDL
