MODEL 1
REMARK minimizedAffinity 1.14936388
REMARK minimizedRMSD -1
REMARK  0 active torsions:
REMARK  status: ('A' for Active; 'I' for Inactive)
ROOT
ATOM      1  C   UNL d   1      -2.663   1.568  -2.179  0.00  0.00     0.124 A 
ATOM      2  C1  UNL d   1      -1.621   1.149  -2.993  0.00  0.00     0.062 A 
ATOM      3  C2  UNL d   1      -0.444   0.664  -2.430  0.00  0.00     0.162 A 
ATOM      4  C3  UNL d   1      -0.304   0.593  -1.044  0.00  0.00    -0.034 A 
ATOM      5  C4  UNL d   1      -1.357   1.017  -0.231  0.00  0.00     0.162 A 
ATOM      6  C5  UNL d   1      -2.531   1.502  -0.799  0.00  0.00     0.062 A 
ATOM      7  F   UNL d   1      -3.537   1.906  -0.010  0.00  0.00    -0.097 F 
ATOM      8  F1  UNL d   1      -1.256   0.963   1.105  0.00  0.00    -0.096 F 
ATOM      9  I   UNL d   1       1.453  -0.133  -0.198  0.00  0.00    -0.060 I 
ATOM     10  F2  UNL d   1       0.547   0.266  -3.241  0.00  0.00    -0.096 F 
ATOM     11  F3  UNL d   1      -1.746   1.213  -4.327  0.00  0.00    -0.097 F 
ATOM     12  F4  UNL d   1      -3.794   2.036  -2.723  0.00  0.00    -0.092 F 
ENDROOT
TORSDOF 0
ENDMDL
