MODEL 1
REMARK minimizedAffinity 20.0527592
REMARK minimizedRMSD -1
REMARK  0 active torsions:
REMARK  status: ('A' for Active; 'I' for Inactive)
ROOT
ATOM      1  C1  DEN d   1      -4.846  -4.873  -0.506  0.00  0.00     0.130 A 
ATOM      2  C2  DEN d   1      -3.943  -5.999  -0.726  0.00  0.00    -0.031 A 
ATOM      3  C3  DEN d   1      -2.938  -5.997   0.356  0.00  0.00     0.027 A 
ATOM      4  C4  DEN d   1      -2.697  -4.370   2.343  0.00  0.00     0.027 A 
ATOM      5  C5  DEN d   1      -3.222  -3.247   2.945  0.00  0.00    -0.003 A 
ATOM      6  C6  DEN d   1      -4.295  -2.574   2.424  0.00  0.00     0.001 A 
ATOM      7  C7  DEN d   1      -4.907  -3.043   1.292  0.00  0.00     0.017 A 
ATOM      8  C8  DEN d   1      -4.379  -4.170   0.675  0.00  0.00    -0.094 A 
ATOM      9  C9  DEN d   1      -3.301  -4.844   1.224  0.00  0.00    -0.072 A 
ENDROOT
TORSDOF 0
ENDMDL
