MODEL 1
REMARK minimizedAffinity 5.77718925
REMARK minimizedRMSD -1
REMARK  0 active torsions:
REMARK  status: ('A' for Active; 'I' for Inactive)
ROOT
ATOM      1  C1  DEN d   1      -1.486  -1.098   4.853  0.00  0.00     0.130 A 
ATOM      2  C2  DEN d   1      -0.646  -0.366   5.797  0.00  0.00    -0.031 A 
ATOM      3  C3  DEN d   1       0.713  -0.278   5.225  0.00  0.00     0.027 A 
ATOM      4  C4  DEN d   1       1.592  -1.195   2.981  0.00  0.00     0.027 A 
ATOM      5  C5  DEN d   1       1.253  -1.898   1.845  0.00  0.00    -0.003 A 
ATOM      6  C6  DEN d   1      -0.003  -2.408   1.650  0.00  0.00     0.001 A 
ATOM      7  C7  DEN d   1      -0.979  -2.184   2.584  0.00  0.00     0.017 A 
ATOM      8  C8  DEN d   1      -0.643  -1.483   3.735  0.00  0.00    -0.094 A 
ATOM      9  C9  DEN d   1       0.629  -0.965   3.908  0.00  0.00    -0.072 A 
ENDROOT
TORSDOF 0
ENDMDL
