MODEL 1
REMARK minimizedAffinity 13.1742086
REMARK minimizedRMSD -1
REMARK  0 active torsions:
REMARK  status: ('A' for Active; 'I' for Inactive)
ROOT
ATOM      1  C1  DEN d   1       0.383  -5.749   3.746  0.00  0.00     0.130 A 
ATOM      2  C2  DEN d   1       1.424  -5.982   2.749  0.00  0.00    -0.031 A 
ATOM      3  C3  DEN d   1       1.467  -4.811   1.851  0.00  0.00     0.027 A 
ATOM      4  C4  DEN d   1       0.032  -2.668   1.910  0.00  0.00     0.027 A 
ATOM      5  C5  DEN d   1      -0.990  -2.019   2.566  0.00  0.00    -0.003 A 
ATOM      6  C6  DEN d   1      -1.644  -2.578   3.632  0.00  0.00     0.001 A 
ATOM      7  C7  DEN d   1      -1.252  -3.804   4.102  0.00  0.00     0.017 A 
ATOM      8  C8  DEN d   1      -0.227  -4.467   3.440  0.00  0.00    -0.094 A 
ATOM      9  C9  DEN d   1       0.430  -3.880   2.372  0.00  0.00    -0.072 A 
ENDROOT
TORSDOF 0
ENDMDL
