MODEL 1
REMARK minimizedAffinity 15.5936546
REMARK minimizedRMSD -1
REMARK  0 active torsions:
REMARK  status: ('A' for Active; 'I' for Inactive)
ROOT
ATOM      1  C1  DEN d   1      -3.629  -3.769   2.109  0.00  0.00     0.130 A 
ATOM      2  C2  DEN d   1      -4.848  -3.203   2.681  0.00  0.00    -0.031 A 
ATOM      3  C3  DEN d   1      -5.994  -3.690   1.887  0.00  0.00     0.027 A 
ATOM      4  C4  DEN d   1      -6.000  -5.261  -0.158  0.00  0.00     0.027 A 
ATOM      5  C5  DEN d   1      -5.206  -5.989  -1.017  0.00  0.00    -0.003 A 
ATOM      6  C6  DEN d   1      -3.840  -6.000  -0.916  0.00  0.00     0.001 A 
ATOM      7  C7  DEN d   1      -3.229  -5.305   0.094  0.00  0.00     0.017 A 
ATOM      8  C8  DEN d   1      -4.022  -4.564   0.959  0.00  0.00    -0.094 A 
ATOM      9  C9  DEN d   1      -5.402  -4.575   0.848  0.00  0.00    -0.072 A 
ENDROOT
TORSDOF 0
ENDMDL
