MODEL 1
REMARK minimizedAffinity 2.97430491
REMARK minimizedRMSD -1
REMARK  0 active torsions:
REMARK  status: ('A' for Active; 'I' for Inactive)
ROOT
ATOM      1  C1  DEN d   1       0.155   0.021   4.951  0.00  0.00     0.130 A 
ATOM      2  C2  DEN d   1      -0.547  -0.896   5.845  0.00  0.00    -0.031 A 
ATOM      3  C3  DEN d   1      -0.775  -2.160   5.116  0.00  0.00     0.027 A 
ATOM      4  C4  DEN d   1      -0.107  -2.784   2.704  0.00  0.00     0.027 A 
ATOM      5  C5  DEN d   1       0.496  -2.329   1.552  0.00  0.00    -0.003 A 
ATOM      6  C6  DEN d   1       0.994  -1.057   1.442  0.00  0.00     0.001 A 
ATOM      7  C7  DEN d   1       0.937  -0.211   2.518  0.00  0.00     0.017 A 
ATOM      8  C8  DEN d   1       0.324  -0.661   3.680  0.00  0.00    -0.094 A 
ATOM      9  C9  DEN d   1      -0.162  -1.954   3.776  0.00  0.00    -0.072 A 
ENDROOT
TORSDOF 0
ENDMDL
