MODEL 1
REMARK minimizedAffinity 14.7866201
REMARK minimizedRMSD -1
REMARK  0 active torsions:
REMARK  status: ('A' for Active; 'I' for Inactive)
ROOT
ATOM      1  C1  DEN d   1      -1.873  -3.251   1.900  0.00  0.00     0.130 A 
ATOM      2  C2  DEN d   1      -2.762  -3.307   3.057  0.00  0.00    -0.031 A 
ATOM      3  C3  DEN d   1      -2.299  -2.304   4.037  0.00  0.00     0.027 A 
ATOM      4  C4  DEN d   1      -0.304  -0.677   3.874  0.00  0.00     0.027 A 
ATOM      5  C5  DEN d   1       0.749  -0.268   3.087  0.00  0.00    -0.003 A 
ATOM      6  C6  DEN d   1       1.021  -0.843   1.874  0.00  0.00     0.001 A 
ATOM      7  C7  DEN d   1       0.201  -1.830   1.392  0.00  0.00     0.017 A 
ATOM      8  C8  DEN d   1      -0.858  -2.252   2.183  0.00  0.00    -0.094 A 
ATOM      9  C9  DEN d   1      -1.124  -1.650   3.401  0.00  0.00    -0.072 A 
ENDROOT
TORSDOF 0
ENDMDL
