MODEL 1
REMARK minimizedAffinity 11.9946003
REMARK minimizedRMSD -1
REMARK  0 active torsions:
REMARK  status: ('A' for Active; 'I' for Inactive)
ROOT
ATOM      1  C1  DEN d   1      -1.123  -1.515   5.162  0.00  0.00     0.130 A 
ATOM      2  C2  DEN d   1      -0.342  -0.610   6.000  0.00  0.00    -0.031 A 
ATOM      3  C3  DEN d   1       0.799  -0.118   5.201  0.00  0.00     0.027 A 
ATOM      4  C4  DEN d   1       1.425  -0.663   2.759  0.00  0.00     0.027 A 
ATOM      5  C5  DEN d   1       1.069  -1.390   1.645  0.00  0.00    -0.003 A 
ATOM      6  C6  DEN d   1      -0.014  -2.229   1.635  0.00  0.00     0.001 A 
ATOM      7  C7  DEN d   1      -0.806  -2.328   2.749  0.00  0.00     0.017 A 
ATOM      8  C8  DEN d   1      -0.449  -1.603   3.879  0.00  0.00    -0.094 A 
ATOM      9  C9  DEN d   1       0.642  -0.751   3.864  0.00  0.00    -0.072 A 
ENDROOT
TORSDOF 0
ENDMDL
