MODEL 1
REMARK minimizedAffinity 6.03442383
REMARK minimizedRMSD -1
REMARK  0 active torsions:
REMARK  status: ('A' for Active; 'I' for Inactive)
ROOT
ATOM      1  C1  DEN d   1      -4.899  -4.516   3.253  0.00  0.00     0.130 A 
ATOM      2  C2  DEN d   1      -3.769  -3.612   3.447  0.00  0.00    -0.031 A 
ATOM      3  C3  DEN d   1      -3.084  -3.452   2.149  0.00  0.00     0.027 A 
ATOM      4  C4  DEN d   1      -3.664  -4.506  -0.133  0.00  0.00     0.027 A 
ATOM      5  C5  DEN d   1      -4.529  -5.352  -0.791  0.00  0.00    -0.003 A 
ATOM      6  C6  DEN d   1      -5.549  -6.000  -0.146  0.00  0.00     0.001 A 
ATOM      7  C7  DEN d   1      -5.758  -5.777   1.190  0.00  0.00     0.017 A 
ATOM      8  C8  DEN d   1      -4.885  -4.931   1.862  0.00  0.00    -0.094 A 
ATOM      9  C9  DEN d   1      -3.867  -4.276   1.189  0.00  0.00    -0.072 A 
ENDROOT
TORSDOF 0
ENDMDL
