MODEL 1
REMARK minimizedAffinity 12.6454506
REMARK minimizedRMSD -1
REMARK  0 active torsions:
REMARK  status: ('A' for Active; 'I' for Inactive)
ROOT
ATOM      1  C1  DEN d   1       2.655  -1.433   1.843  0.00  0.00     0.130 A 
ATOM      2  C2  DEN d   1       1.996  -0.132   1.776  0.00  0.00    -0.031 A 
ATOM      3  C3  DEN d   1       0.541  -0.363   1.671  0.00  0.00     0.027 A 
ATOM      4  C4  DEN d   1      -0.748  -2.596   1.610  0.00  0.00     0.027 A 
ATOM      5  C5  DEN d   1      -0.619  -3.967   1.627  0.00  0.00    -0.003 A 
ATOM      6  C6  DEN d   1       0.602  -4.585   1.683  0.00  0.00     0.001 A 
ATOM      7  C7  DEN d   1       1.742  -3.830   1.769  0.00  0.00     0.017 A 
ATOM      8  C8  DEN d   1       1.620  -2.447   1.745  0.00  0.00    -0.094 A 
ATOM      9  C9  DEN d   1       0.376  -1.841   1.700  0.00  0.00    -0.072 A 
ENDROOT
TORSDOF 0
ENDMDL
