MODEL 1
REMARK minimizedAffinity 16.0886993
REMARK minimizedRMSD -1
REMARK  0 active torsions:
REMARK  status: ('A' for Active; 'I' for Inactive)
ROOT
ATOM      1  C1  DEN d   1       1.508  -2.517   0.671  0.00  0.00     0.130 A 
ATOM      2  C2  DEN d   1       2.738  -2.285  -0.082  0.00  0.00    -0.031 A 
ATOM      3  C3  DEN d   1       3.473  -1.185   0.573  0.00  0.00     0.027 A 
ATOM      4  C4  DEN d   1       2.833   0.171   2.672  0.00  0.00     0.027 A 
ATOM      5  C5  DEN d   1       1.876   0.346   3.647  0.00  0.00    -0.003 A 
ATOM      6  C6  DEN d   1       0.723  -0.392   3.678  0.00  0.00     0.001 A 
ATOM      7  C7  DEN d   1       0.518  -1.371   2.742  0.00  0.00     0.017 A 
ATOM      8  C8  DEN d   1       1.475  -1.548   1.751  0.00  0.00    -0.094 A 
ATOM      9  C9  DEN d   1       2.640  -0.800   1.744  0.00  0.00    -0.072 A 
ENDROOT
TORSDOF 0
ENDMDL
