MODEL 1
REMARK minimizedAffinity 22.0608006
REMARK minimizedRMSD -1
REMARK  0 active torsions:
REMARK  status: ('A' for Active; 'I' for Inactive)
ROOT
ATOM      1  C1  DEN d   1      -2.376   5.943  -4.700  0.00  0.00     0.130 A 
ATOM      2  C2  DEN d   1      -2.225   5.283  -5.994  0.00  0.00    -0.031 A 
ATOM      3  C3  DEN d   1      -2.359   3.828  -5.782  0.00  0.00     0.027 A 
ATOM      4  C4  DEN d   1      -2.789   2.540  -3.589  0.00  0.00     0.027 A 
ATOM      5  C5  DEN d   1      -2.976   2.667  -2.231  0.00  0.00    -0.003 A 
ATOM      6  C6  DEN d   1      -2.944   3.883  -1.600  0.00  0.00     0.001 A 
ATOM      7  C7  DEN d   1      -2.763   5.024  -2.336  0.00  0.00     0.017 A 
ATOM      8  C8  DEN d   1      -2.566   4.903  -3.705  0.00  0.00    -0.094 A 
ATOM      9  C9  DEN d   1      -2.614   3.666  -4.325  0.00  0.00    -0.072 A 
ENDROOT
TORSDOF 0
ENDMDL
