MODEL 1
REMARK minimizedAffinity 18.2325897
REMARK minimizedRMSD -1
REMARK  0 active torsions:
REMARK  status: ('A' for Active; 'I' for Inactive)
ROOT
ATOM      1  C1  DEN d   1      -5.578   1.978  -5.549  0.00  0.00     0.130 A 
ATOM      2  C2  DEN d   1      -6.000   1.180  -4.401  0.00  0.00    -0.031 A 
ATOM      3  C3  DEN d   1      -4.951   1.279  -3.366  0.00  0.00     0.027 A 
ATOM      4  C4  DEN d   1      -2.729   2.587  -3.428  0.00  0.00     0.027 A 
ATOM      5  C5  DEN d   1      -1.928   3.403  -4.196  0.00  0.00    -0.003 A 
ATOM      6  C6  DEN d   1      -2.268   3.771  -5.470  0.00  0.00     0.001 A 
ATOM      7  C7  DEN d   1      -3.462   3.358  -6.000  0.00  0.00     0.017 A 
ATOM      8  C8  DEN d   1      -4.272   2.529  -5.235  0.00  0.00    -0.094 A 
ATOM      9  C9  DEN d   1      -3.916   2.178  -3.944  0.00  0.00    -0.072 A 
ENDROOT
TORSDOF 0
ENDMDL
