MODEL 1
REMARK minimizedAffinity 0.662088811
REMARK minimizedRMSD -1
REMARK  0 active torsions:
REMARK  status: ('A' for Active; 'I' for Inactive)
ROOT
ATOM      1  C1  DEN d   1       3.740  -2.544  -5.630  0.00  0.00     0.130 A 
ATOM      2  C2  DEN d   1       5.048  -3.134  -5.901  0.00  0.00    -0.031 A 
ATOM      3  C3  DEN d   1       4.878  -4.597  -5.999  0.00  0.00     0.027 A 
ATOM      4  C4  DEN d   1       2.726  -6.000  -5.764  0.00  0.00     0.027 A 
ATOM      5  C5  DEN d   1       1.372  -5.945  -5.521  0.00  0.00    -0.003 A 
ATOM      6  C6  DEN d   1       0.723  -4.766  -5.266  0.00  0.00     0.001 A 
ATOM      7  C7  DEN d   1       1.420  -3.588  -5.292  0.00  0.00     0.017 A 
ATOM      8  C8  DEN d   1       2.788  -3.636  -5.529  0.00  0.00    -0.094 A 
ATOM      9  C9  DEN d   1       3.423  -4.836  -5.797  0.00  0.00    -0.072 A 
ENDROOT
TORSDOF 0
ENDMDL
