MODEL 1
REMARK minimizedAffinity 19.3181744
REMARK minimizedRMSD -1
REMARK  0 active torsions:
REMARK  status: ('A' for Active; 'I' for Inactive)
ROOT
ATOM      1  C1  DEN d   1      -1.525   3.629  -5.269  0.00  0.00     0.130 A 
ATOM      2  C2  DEN d   1      -1.266   4.867  -5.998  0.00  0.00    -0.031 A 
ATOM      3  C3  DEN d   1      -1.600   5.999  -5.110  0.00  0.00     0.027 A 
ATOM      4  C4  DEN d   1      -2.485   5.953  -2.688  0.00  0.00     0.027 A 
ATOM      5  C5  DEN d   1      -2.873   5.135  -1.650  0.00  0.00    -0.003 A 
ATOM      6  C6  DEN d   1      -2.871   3.770  -1.756  0.00  0.00     0.001 A 
ATOM      7  C7  DEN d   1      -2.430   3.180  -2.911  0.00  0.00     0.017 A 
ATOM      8  C8  DEN d   1      -2.044   3.998  -3.964  0.00  0.00    -0.094 A 
ATOM      9  C9  DEN d   1      -2.042   5.376  -3.833  0.00  0.00    -0.072 A 
ENDROOT
TORSDOF 0
ENDMDL
