MODEL 1
REMARK minimizedAffinity 7.5685606
REMARK minimizedRMSD -1
REMARK  0 active torsions:
REMARK  status: ('A' for Active; 'I' for Inactive)
ROOT
ATOM      1  C1  DEN d   1      -2.841  -3.163   1.691  0.00  0.00     0.130 A 
ATOM      2  C2  DEN d   1      -3.736  -3.017   2.836  0.00  0.00    -0.031 A 
ATOM      3  C3  DEN d   1      -4.884  -3.924   2.637  0.00  0.00     0.027 A 
ATOM      4  C4  DEN d   1      -5.358  -5.536   0.680  0.00  0.00     0.027 A 
ATOM      5  C5  DEN d   1      -4.892  -6.000  -0.530  0.00  0.00    -0.003 A 
ATOM      6  C6  DEN d   1      -3.737  -5.530  -1.096  0.00  0.00     0.001 A 
ATOM      7  C7  DEN d   1      -2.984  -4.599  -0.430  0.00  0.00     0.017 A 
ATOM      8  C8  DEN d   1      -3.451  -4.121   0.787  0.00  0.00    -0.094 A 
ATOM      9  C9  DEN d   1      -4.616  -4.618   1.348  0.00  0.00    -0.072 A 
ENDROOT
TORSDOF 0
ENDMDL
