MODEL 1
REMARK minimizedAffinity 1.25984871
REMARK minimizedRMSD -1
REMARK  1 active torsions:
REMARK  status: ('A' for Active; 'I' for Inactive)
REMARK    1  A    between atoms: C1_2  and  C2_3 
ROOT
ATOM      1  C2  UNL d   1      -2.533   1.928  -2.884  0.00  0.00    -0.081 A 
ATOM      2  C3  UNL d   1      -2.918   2.048  -1.543  0.00  0.00     0.006 A 
ATOM      3  C4  UNL d   1      -3.652   3.156  -1.114  0.00  0.00     0.002 A 
ATOM      4  C5  UNL d   1      -4.020   4.158  -2.019  0.00  0.00    -0.080 A 
ATOM      5  C6  UNL d   1      -4.834   5.338  -1.578  0.00  0.00     0.076 C 
ATOM      6  C7  UNL d   1      -3.620   4.047  -3.355  0.00  0.00     0.002 A 
ATOM      7  C8  UNL d   1      -2.885   2.939  -3.785  0.00  0.00     0.006 A 
ENDROOT
BRANCH   1   8
ATOM      8  C1  UNL d   1      -1.797   0.703  -3.363  0.00  0.00     0.054 C 
ATOM      9  C   UNL d   1      -2.707  -0.207  -4.176  0.00  0.00     0.018 C 
ENDBRANCH   1   8
TORSDOF 1
ENDMDL
