MODEL 1
REMARK minimizedAffinity 2.50342035
REMARK minimizedRMSD -1
REMARK  1 active torsions:
REMARK  status: ('A' for Active; 'I' for Inactive)
REMARK    1  A    between atoms: C1_2  and  C2_3 
ROOT
ATOM      1  C2  UNL d   1       3.943  -2.170  -5.521  0.00  0.00    -0.081 A 
ATOM      2  C3  UNL d   1       3.329  -1.188  -4.735  0.00  0.00     0.006 A 
ATOM      3  C4  UNL d   1       3.996   0.004  -4.442  0.00  0.00     0.002 A 
ATOM      4  C5  UNL d   1       5.284   0.236  -4.936  0.00  0.00    -0.080 A 
ATOM      5  C6  UNL d   1       6.000   1.524  -4.654  0.00  0.00     0.076 C 
ATOM      6  C7  UNL d   1       5.905  -0.753  -5.707  0.00  0.00     0.002 A 
ATOM      7  C8  UNL d   1       5.239  -1.945  -6.000  0.00  0.00     0.006 A 
ENDROOT
BRANCH   1   8
ATOM      8  C1  UNL d   1       3.201  -3.429  -5.893  0.00  0.00     0.054 C 
ATOM      9  C   UNL d   1       4.120  -4.642  -5.861  0.00  0.00     0.018 C 
ENDBRANCH   1   8
TORSDOF 1
ENDMDL
