MODEL 1
REMARK minimizedAffinity -3.58993196
REMARK minimizedRMSD -1
REMARK  1 active torsions:
REMARK  status: ('A' for Active; 'I' for Inactive)
REMARK    1  A    between atoms: C1_2  and  C2_3 
ROOT
ATOM      1  C2  UNL d   1       4.432  -3.797  -4.270  0.00  0.00    -0.081 A 
ATOM      2  C3  UNL d   1       3.672  -3.737  -5.445  0.00  0.00     0.006 A 
ATOM      3  C4  UNL d   1       3.322  -2.503  -5.999  0.00  0.00     0.002 A 
ATOM      4  C5  UNL d   1       3.733  -1.311  -5.394  0.00  0.00    -0.080 A 
ATOM      5  C6  UNL d   1       3.391   0.020  -5.996  0.00  0.00     0.076 C 
ATOM      6  C7  UNL d   1       4.478  -1.371  -4.211  0.00  0.00     0.002 A 
ATOM      7  C8  UNL d   1       4.827  -2.604  -3.656  0.00  0.00     0.006 A 
ENDROOT
BRANCH   1   8
ATOM      8  C1  UNL d   1       4.865  -5.126  -3.705  0.00  0.00     0.054 C 
ATOM      9  C   UNL d   1       4.500  -5.246  -2.233  0.00  0.00     0.018 C 
ENDBRANCH   1   8
TORSDOF 1
ENDMDL
