MODEL 1
REMARK minimizedAffinity -3.99728179
REMARK minimizedRMSD -1
REMARK  1 active torsions:
REMARK  status: ('A' for Active; 'I' for Inactive)
REMARK    1  A    between atoms: C1_2  and  C2_3 
ROOT
ATOM      1  C2  UNL d   1       4.352  -4.176  -4.640  0.00  0.00    -0.081 A 
ATOM      2  C3  UNL d   1       3.736  -3.667  -5.790  0.00  0.00     0.006 A 
ATOM      3  C4  UNL d   1       3.655  -2.289  -6.000  0.00  0.00     0.002 A 
ATOM      4  C5  UNL d   1       4.195  -1.396  -5.068  0.00  0.00    -0.080 A 
ATOM      5  C6  UNL d   1       4.142   0.085  -5.296  0.00  0.00     0.076 C 
ATOM      6  C7  UNL d   1       4.795  -1.903  -3.910  0.00  0.00     0.002 A 
ATOM      7  C8  UNL d   1       4.876  -3.282  -3.700  0.00  0.00     0.006 A 
ENDROOT
BRANCH   1   8
ATOM      8  C1  UNL d   1       4.498  -5.663  -4.442  0.00  0.00     0.054 C 
ATOM      9  C   UNL d   1       4.812  -6.000  -2.992  0.00  0.00     0.018 C 
ENDBRANCH   1   8
TORSDOF 1
ENDMDL
