MODEL 1
REMARK minimizedAffinity 10.0902891
REMARK minimizedRMSD -1
REMARK  1 active torsions:
REMARK  status: ('A' for Active; 'I' for Inactive)
REMARK    1  A    between atoms: C1_2  and  C2_3 
ROOT
ATOM      1  C2  UNL d   1       1.757  -0.632   2.227  0.00  0.00    -0.081 A 
ATOM      2  C3  UNL d   1       2.162  -0.417   3.551  0.00  0.00     0.006 A 
ATOM      3  C4  UNL d   1       2.667   0.824   3.945  0.00  0.00     0.002 A 
ATOM      4  C5  UNL d   1       2.770   1.873   3.025  0.00  0.00    -0.080 A 
ATOM      5  C6  UNL d   1       3.283   3.219   3.442  0.00  0.00     0.076 C 
ATOM      6  C7  UNL d   1       2.382   1.653   1.698  0.00  0.00     0.002 A 
ATOM      7  C8  UNL d   1       1.877   0.413   1.304  0.00  0.00     0.006 A 
ENDROOT
BRANCH   1   8
ATOM      8  C1  UNL d   1       1.151  -1.949   1.815  0.00  0.00     0.054 C 
ATOM      9  C   UNL d   1       1.350  -3.010   2.888  0.00  0.00     0.018 C 
ENDBRANCH   1   8
TORSDOF 1
ENDMDL
