MODEL 1
REMARK minimizedAffinity -0.0748826414
REMARK minimizedRMSD -1
REMARK  1 active torsions:
REMARK  status: ('A' for Active; 'I' for Inactive)
REMARK    1  A    between atoms: C1_2  and  C2_3 
ROOT
ATOM      1  C2  UNL d   1       2.512  -0.441   1.512  0.00  0.00    -0.081 A 
ATOM      2  C3  UNL d   1       2.060  -1.726   1.188  0.00  0.00     0.006 A 
ATOM      3  C4  UNL d   1       1.582  -2.580   2.185  0.00  0.00     0.002 A 
ATOM      4  C5  UNL d   1       1.539  -2.161   3.519  0.00  0.00    -0.080 A 
ATOM      5  C6  UNL d   1       0.999  -3.057   4.594  0.00  0.00     0.076 C 
ATOM      6  C7  UNL d   1       2.007  -0.884   3.845  0.00  0.00     0.002 A 
ATOM      7  C8  UNL d   1       2.486  -0.029   2.849  0.00  0.00     0.006 A 
ENDROOT
BRANCH   1   8
ATOM      8  C1  UNL d   1       2.968   0.506   0.431  0.00  0.00     0.054 C 
ATOM      9  C   UNL d   1       2.418   1.907   0.655  0.00  0.00     0.018 C 
ENDBRANCH   1   8
TORSDOF 1
ENDMDL
