MODEL 1
REMARK minimizedAffinity 1.75866139
REMARK minimizedRMSD -1
REMARK  1 active torsions:
REMARK  status: ('A' for Active; 'I' for Inactive)
REMARK    1  A    between atoms: C1_2  and  C2_3 
ROOT
ATOM      1  C2  UNL d   1       1.886  -1.612   1.890  0.00  0.00    -0.081 A 
ATOM      2  C3  UNL d   1       2.801  -0.554   1.837  0.00  0.00     0.006 A 
ATOM      3  C4  UNL d   1       2.501   0.606   1.119  0.00  0.00     0.002 A 
ATOM      4  C5  UNL d   1       1.280   0.730   0.449  0.00  0.00    -0.080 A 
ATOM      5  C6  UNL d   1       0.933   1.982  -0.301  0.00  0.00     0.076 C 
ATOM      6  C7  UNL d   1       0.373  -0.334   0.487  0.00  0.00     0.002 A 
ATOM      7  C8  UNL d   1       0.672  -1.494   1.204  0.00  0.00     0.006 A 
ENDROOT
BRANCH   1   8
ATOM      8  C1  UNL d   1       2.178  -2.838   2.717  0.00  0.00     0.054 C 
ATOM      9  C   UNL d   1       1.641  -2.691   4.133  0.00  0.00     0.018 C 
ENDBRANCH   1   8
TORSDOF 1
ENDMDL
