MODEL 1
REMARK minimizedAffinity -3.98785377
REMARK minimizedRMSD -1
REMARK  2 active torsions:
REMARK  status: ('A' for Active; 'I' for Inactive)
REMARK    1  A    between atoms: C2'_3  and  C1'_4 
REMARK    2  A    between atoms: C1'_4  and  C1_5 
ROOT
ATOM      1  C1  I4B d   1       1.734   0.864   0.024  0.00  0.00    -0.075 A 
ATOM      2  C2  I4B d   1       2.670   1.655  -0.594  0.00  0.00     0.003 A 
ATOM      3  C3  I4B d   1       3.442   2.570   0.162  0.00  0.00     0.002 A 
ATOM      4  C4  I4B d   1       3.211   2.697   1.516  0.00  0.00    -0.004 A 
ATOM      5  C5  I4B d   1       2.278   1.878   2.146  0.00  0.00     0.002 A 
ATOM      6  C6  I4B d   1       1.543   0.947   1.397  0.00  0.00     0.003 A 
ENDROOT
BRANCH   1   7
ATOM      7  C1' I4B d   1       0.913  -0.068  -0.810  0.00  0.00     0.060 C 
BRANCH   7   8
ATOM      8  C2' I4B d   1      -0.547   0.265  -0.581  0.00  0.00    -0.013 C 
ATOM      9  C4' I4B d   1      -0.961   1.477  -1.373  0.00  0.00     0.013 C 
ATOM     10  C3' I4B d   1      -1.361  -0.935  -0.965  0.00  0.00     0.013 C 
ENDBRANCH   7   8
ENDBRANCH   1   7
TORSDOF 2
ENDMDL
