MODEL 1
REMARK minimizedAffinity -3.6710546
REMARK minimizedRMSD -1
REMARK  2 active torsions:
REMARK  status: ('A' for Active; 'I' for Inactive)
REMARK    1  A    between atoms: C2'_3  and  C1'_4 
REMARK    2  A    between atoms: C1'_4  and  C1_5 
ROOT
ATOM      1  C1  I4B d   1      -0.957  -0.286  -0.403  0.00  0.00    -0.075 A 
ATOM      2  C2  I4B d   1      -1.551  -0.837  -1.511  0.00  0.00     0.003 A 
ATOM      3  C3  I4B d   1      -2.915  -1.217  -1.474  0.00  0.00     0.002 A 
ATOM      4  C4  I4B d   1      -3.628  -1.077  -0.301  0.00  0.00    -0.004 A 
ATOM      5  C5  I4B d   1      -3.030  -0.496   0.814  0.00  0.00     0.002 A 
ATOM      6  C6  I4B d   1      -1.690  -0.087   0.759  0.00  0.00     0.003 A 
ENDROOT
BRANCH   1   7
ATOM      7  C1' I4B d   1       0.493   0.074  -0.467  0.00  0.00     0.060 C 
BRANCH   7   8
ATOM      8  C2' I4B d   1       1.003   0.213   0.953  0.00  0.00    -0.013 C 
ATOM      9  C4' I4B d   1       1.457  -1.113   1.502  0.00  0.00     0.013 C 
ATOM     10  C3' I4B d   1       2.123   1.210   0.947  0.00  0.00     0.013 C 
ENDBRANCH   7   8
ENDBRANCH   1   7
TORSDOF 2
ENDMDL
