MODEL 1
REMARK minimizedAffinity -4.12100458
REMARK minimizedRMSD -1
REMARK  2 active torsions:
REMARK  status: ('A' for Active; 'I' for Inactive)
REMARK    1  A    between atoms: C2'_3  and  C1'_4 
REMARK    2  A    between atoms: C1'_4  and  C1_5 
ROOT
ATOM      1  C1  I4B d   1       0.928   0.334   0.038  0.00  0.00    -0.075 A 
ATOM      2  C2  I4B d   1       0.321  -0.100   1.190  0.00  0.00     0.003 A 
ATOM      3  C3  I4B d   1      -1.047  -0.463   1.181  0.00  0.00     0.002 A 
ATOM      4  C4  I4B d   1      -1.778  -0.331   0.018  0.00  0.00    -0.004 A 
ATOM      5  C5  I4B d   1      -1.155   0.088  -1.155  0.00  0.00     0.002 A 
ATOM      6  C6  I4B d   1       0.209   0.411  -1.148  0.00  0.00     0.003 A 
ENDROOT
BRANCH   1   7
ATOM      7  C1' I4B d   1       2.367   0.742   0.090  0.00  0.00     0.060 C 
BRANCH   7   8
ATOM      8  C2' I4B d   1       2.426   2.188   0.538  0.00  0.00    -0.013 C 
ATOM      9  C4' I4B d   1       2.655   2.290   2.023  0.00  0.00     0.013 C 
ATOM     10  C3' I4B d   1       3.524   2.865  -0.227  0.00  0.00     0.013 C 
ENDBRANCH   7   8
ENDBRANCH   1   7
TORSDOF 2
ENDMDL
