MODEL 1
REMARK minimizedAffinity -0.715935409
REMARK minimizedRMSD -1
REMARK  2 active torsions:
REMARK  status: ('A' for Active; 'I' for Inactive)
REMARK    1  A    between atoms: C2'_3  and  C1'_4 
REMARK    2  A    between atoms: C1'_4  and  C1_5 
ROOT
ATOM      1  C1  I4B d   1      -1.378  -0.310   0.336  0.00  0.00    -0.075 A 
ATOM      2  C2  I4B d   1      -0.578   0.285  -0.608  0.00  0.00     0.003 A 
ATOM      3  C3  I4B d   1       0.820   0.056  -0.603  0.00  0.00     0.002 A 
ATOM      4  C4  I4B d   1       1.377  -0.727   0.387  0.00  0.00    -0.004 A 
ATOM      5  C5  I4B d   1       0.561  -1.347   1.329  0.00  0.00     0.002 A 
ATOM      6  C6  I4B d   1      -0.827  -1.147   1.296  0.00  0.00     0.003 A 
ENDROOT
BRANCH   1   7
ATOM      7  C1' I4B d   1      -2.846  -0.020   0.321  0.00  0.00     0.060 C 
BRANCH   7   8
ATOM      8  C2' I4B d   1      -3.511  -1.027  -0.595  0.00  0.00    -0.013 C 
ATOM      9  C4' I4B d   1      -2.509  -1.669  -1.518  0.00  0.00     0.013 C 
ATOM     10  C3' I4B d   1      -4.194  -2.051   0.260  0.00  0.00     0.013 C 
ENDBRANCH   7   8
ENDBRANCH   1   7
TORSDOF 2
ENDMDL
