MODEL 1
REMARK minimizedAffinity -2.20257282
REMARK minimizedRMSD -1
REMARK  2 active torsions:
REMARK  status: ('A' for Active; 'I' for Inactive)
REMARK    1  A    between atoms: C2'_3  and  C1'_4 
REMARK    2  A    between atoms: C1'_4  and  C1_5 
ROOT
ATOM      1  C1  I4B d   1       0.793  -0.048   0.880  0.00  0.00    -0.075 A 
ATOM      2  C2  I4B d   1       0.800   0.567  -0.347  0.00  0.00     0.003 A 
ATOM      3  C3  I4B d   1       1.964   1.230  -0.806  0.00  0.00     0.002 A 
ATOM      4  C4  I4B d   1       3.074   1.297   0.010  0.00  0.00    -0.004 A 
ATOM      5  C5  I4B d   1       3.073   0.654   1.245  0.00  0.00     0.002 A 
ATOM      6  C6  I4B d   1       1.930  -0.033   1.678  0.00  0.00     0.003 A 
ENDROOT
BRANCH   1   7
ATOM      7  C1' I4B d   1      -0.463  -0.711   1.347  0.00  0.00     0.060 C 
BRANCH   7   8
ATOM      8  C2' I4B d   1      -1.637   0.096   0.830  0.00  0.00    -0.013 C 
ATOM      9  C4' I4B d   1      -2.837  -0.781   0.587  0.00  0.00     0.013 C 
ATOM     10  C3' I4B d   1      -1.943   1.165   1.837  0.00  0.00     0.013 C 
ENDBRANCH   7   8
ENDBRANCH   1   7
TORSDOF 2
ENDMDL
