MODEL 1
REMARK minimizedAffinity -4.3685112
REMARK minimizedRMSD -1
REMARK  2 active torsions:
REMARK  status: ('A' for Active; 'I' for Inactive)
REMARK    1  A    between atoms: C2'_3  and  C1'_4 
REMARK    2  A    between atoms: C1'_4  and  C1_5 
ROOT
ATOM      1  C1  I4B d   1       0.347  -0.172   0.292  0.00  0.00    -0.075 A 
ATOM      2  C2  I4B d   1      -0.591  -0.583   1.206  0.00  0.00     0.003 A 
ATOM      3  C3  I4B d   1      -1.939  -0.763   0.811  0.00  0.00     0.002 A 
ATOM      4  C4  I4B d   1      -2.312  -0.476  -0.486  0.00  0.00    -0.004 A 
ATOM      5  C5  I4B d   1      -1.355  -0.082  -1.417  0.00  0.00     0.002 A 
ATOM      6  C6  I4B d   1      -0.015   0.059  -1.029  0.00  0.00     0.003 A 
ENDROOT
BRANCH   1   7
ATOM      7  C1' I4B d   1       1.755   0.040   0.750  0.00  0.00     0.060 C 
BRANCH   7   8
ATOM      8  C2' I4B d   1       2.115   1.490   0.495  0.00  0.00    -0.013 C 
ATOM      9  C4' I4B d   1       2.379   2.221   1.785  0.00  0.00     0.013 C 
ATOM     10  C3' I4B d   1       3.319   1.517  -0.399  0.00  0.00     0.013 C 
ENDBRANCH   7   8
ENDBRANCH   1   7
TORSDOF 2
ENDMDL
