MODEL 1
REMARK minimizedAffinity 0.989578664
REMARK minimizedRMSD -1
REMARK  2 active torsions:
REMARK  status: ('A' for Active; 'I' for Inactive)
REMARK    1  A    between atoms: C2'_3  and  C1'_4 
REMARK    2  A    between atoms: C1'_4  and  C1_5 
ROOT
ATOM      1  C1  I4B d   1      -4.780   5.818   2.550  0.00  0.00    -0.075 A 
ATOM      2  C2  I4B d   1      -5.967   5.947   3.227  0.00  0.00     0.003 A 
ATOM      3  C3  I4B d   1      -5.980   5.990   4.642  0.00  0.00     0.002 A 
ATOM      4  C4  I4B d   1      -4.797   5.849   5.337  0.00  0.00    -0.004 A 
ATOM      5  C5  I4B d   1      -3.592   5.741   4.649  0.00  0.00     0.002 A 
ATOM      6  C6  I4B d   1      -3.581   5.737   3.247  0.00  0.00     0.003 A 
ENDROOT
BRANCH   1   7
ATOM      7  C1' I4B d   1      -4.806   5.743   1.056  0.00  0.00     0.060 C 
BRANCH   7   8
ATOM      8  C2' I4B d   1      -4.112   4.462   0.641  0.00  0.00    -0.013 C 
ATOM      9  C4' I4B d   1      -4.990   3.263   0.884  0.00  0.00     0.013 C 
ATOM     10  C3' I4B d   1      -3.748   4.582  -0.809  0.00  0.00     0.013 C 
ENDBRANCH   7   8
ENDBRANCH   1   7
TORSDOF 2
ENDMDL
