MODEL 1
REMARK minimizedAffinity -3.54524755
REMARK minimizedRMSD -1
REMARK  2 active torsions:
REMARK  status: ('A' for Active; 'I' for Inactive)
REMARK    1  A    between atoms: C2'_3  and  C1'_4 
REMARK    2  A    between atoms: C1'_4  and  C1_5 
ROOT
ATOM      1  C1  I4B d   1       0.561  -0.116   0.163  0.00  0.00    -0.075 A 
ATOM      2  C2  I4B d   1      -0.339  -0.606   1.076  0.00  0.00     0.003 A 
ATOM      3  C3  I4B d   1      -1.703  -0.754   0.724  0.00  0.00     0.002 A 
ATOM      4  C4  I4B d   1      -2.129  -0.356  -0.527  0.00  0.00    -0.004 A 
ATOM      5  C5  I4B d   1      -1.211   0.119  -1.459  0.00  0.00     0.002 A 
ATOM      6  C6  I4B d   1       0.145   0.228  -1.117  0.00  0.00     0.003 A 
ENDROOT
BRANCH   1   7
ATOM      7  C1' I4B d   1       1.987   0.058   0.579  0.00  0.00     0.060 C 
BRANCH   7   8
ATOM      8  C2' I4B d   1       2.333   1.528   0.455  0.00  0.00    -0.013 C 
ATOM      9  C4' I4B d   1       2.551   2.153   1.808  0.00  0.00     0.013 C 
ATOM     10  C3' I4B d   1       3.560   1.644  -0.400  0.00  0.00     0.013 C 
ENDBRANCH   7   8
ENDBRANCH   1   7
TORSDOF 2
ENDMDL
