MODEL 1
REMARK minimizedAffinity -5.58408737
REMARK minimizedRMSD -1
REMARK  2 active torsions:
REMARK  status: ('A' for Active; 'I' for Inactive)
REMARK    1  A    between atoms: C2'_3  and  C1'_4 
REMARK    2  A    between atoms: C1'_4  and  C1_5 
ROOT
ATOM      1  C1  I4B d   1       2.455   2.424  -0.053  0.00  0.00    -0.075 A 
ATOM      2  C2  I4B d   1       3.259   1.813  -0.982  0.00  0.00     0.003 A 
ATOM      3  C3  I4B d   1       3.926   2.584  -1.965  0.00  0.00     0.002 A 
ATOM      4  C4  I4B d   1       3.721   3.948  -2.014  0.00  0.00    -0.004 A 
ATOM      5  C5  I4B d   1       2.923   4.568  -1.057  0.00  0.00     0.002 A 
ATOM      6  C6  I4B d   1       2.296   3.804  -0.062  0.00  0.00     0.003 A 
ENDROOT
BRANCH   1   7
ATOM      7  C1' I4B d   1       1.740   1.576   0.951  0.00  0.00     0.060 C 
BRANCH   7   8
ATOM      8  C2' I4B d   1       1.345   0.281   0.271  0.00  0.00    -0.013 C 
ATOM      9  C4' I4B d   1       1.388  -0.875   1.235  0.00  0.00     0.013 C 
ATOM     10  C3' I4B d   1      -0.029   0.459  -0.302  0.00  0.00     0.013 C 
ENDBRANCH   7   8
ENDBRANCH   1   7
TORSDOF 2
ENDMDL
