MODEL 1
REMARK minimizedAffinity -5.75038004
REMARK minimizedRMSD -1
REMARK  2 active torsions:
REMARK  status: ('A' for Active; 'I' for Inactive)
REMARK    1  A    between atoms: C2'_3  and  C1'_4 
REMARK    2  A    between atoms: C1'_4  and  C1_5 
ROOT
ATOM      1  C1  I4B d   1      -2.313  -1.437   0.036  0.00  0.00    -0.075 A 
ATOM      2  C2  I4B d   1      -1.317  -0.780   0.715  0.00  0.00     0.003 A 
ATOM      3  C3  I4B d   1      -0.523   0.189   0.055  0.00  0.00     0.002 A 
ATOM      4  C4  I4B d   1      -0.724   0.431  -1.288  0.00  0.00    -0.004 A 
ATOM      5  C5  I4B d   1      -1.749  -0.219  -1.970  0.00  0.00     0.002 A 
ATOM      6  C6  I4B d   1      -2.556  -1.150  -1.301  0.00  0.00     0.003 A 
ENDROOT
BRANCH   1   7
ATOM      7  C1' I4B d   1      -3.111  -2.478   0.755  0.00  0.00     0.060 C 
BRANCH   7   8
ATOM      8  C2' I4B d   1      -2.142  -3.396   1.471  0.00  0.00    -0.013 C 
ATOM      9  C4' I4B d   1      -2.586  -3.661   2.886  0.00  0.00     0.013 C 
ATOM     10  C3' I4B d   1      -2.045  -4.671   0.687  0.00  0.00     0.013 C 
ENDBRANCH   7   8
ENDBRANCH   1   7
TORSDOF 2
ENDMDL
