MODEL 1
REMARK minimizedAffinity -3.51779294
REMARK minimizedRMSD -1
REMARK  2 active torsions:
REMARK  status: ('A' for Active; 'I' for Inactive)
REMARK    1  A    between atoms: C2'_3  and  C1'_4 
REMARK    2  A    between atoms: C1'_4  and  C1_5 
ROOT
ATOM      1  C1  I4B d   1       0.454   0.276   0.161  0.00  0.00    -0.075 A 
ATOM      2  C2  I4B d   1      -0.624   0.012   0.967  0.00  0.00     0.003 A 
ATOM      3  C3  I4B d   1      -1.879  -0.311   0.396  0.00  0.00     0.002 A 
ATOM      4  C4  I4B d   1      -2.022  -0.308  -0.977  0.00  0.00    -0.004 A 
ATOM      5  C5  I4B d   1      -0.922  -0.062  -1.793  0.00  0.00     0.002 A 
ATOM      6  C6  I4B d   1       0.328   0.220  -1.221  0.00  0.00     0.003 A 
ENDROOT
BRANCH   1   7
ATOM      7  C1' I4B d   1       1.757   0.646   0.798  0.00  0.00     0.060 C 
BRANCH   7   8
ATOM      8  C2' I4B d   1       1.905   2.151   0.716  0.00  0.00    -0.013 C 
ATOM      9  C4' I4B d   1       1.949   2.770   2.089  0.00  0.00     0.013 C 
ATOM     10  C3' I4B d   1       3.157   2.452  -0.053  0.00  0.00     0.013 C 
ENDBRANCH   7   8
ENDBRANCH   1   7
TORSDOF 2
ENDMDL
