MODEL 1
REMARK minimizedAffinity 10.5869837
REMARK minimizedRMSD -1
REMARK  0 active torsions:
REMARK  status: ('A' for Active; 'I' for Inactive)
ROOT
ATOM      1  C4' PXY d   1      -5.002  -1.327   0.733  0.00  0.00     0.077 C 
ATOM      2  C1' PXY d   1      -0.572   1.865   2.630  0.00  0.00     0.077 C 
ATOM      3  C1  PXY d   1      -1.742   1.035   2.140  0.00  0.00    -0.082 A 
ATOM      4  C2  PXY d   1      -1.523  -0.167   1.632  0.00  0.00     0.003 A 
ATOM      5  C3  PXY d   1      -2.566  -0.919   1.155  0.00  0.00     0.003 A 
ATOM      6  C4  PXY d   1      -3.852  -0.457   1.248  0.00  0.00    -0.082 A 
ATOM      7  C5  PXY d   1      -4.084   0.763   1.776  0.00  0.00     0.003 A 
ATOM      8  C6  PXY d   1      -3.007   1.528   2.216  0.00  0.00     0.003 A 
ENDROOT
TORSDOF 0
ENDMDL
