MODEL 1
REMARK minimizedAffinity 8.00634193
REMARK minimizedRMSD -1
REMARK  0 active torsions:
REMARK  status: ('A' for Active; 'I' for Inactive)
ROOT
ATOM      1  C4' PXY d   1       0.241  -0.051   3.180  0.00  0.00     0.077 C 
ATOM      2  C1' PXY d   1      -5.127   0.674   1.162  0.00  0.00     0.077 C 
ATOM      3  C1  PXY d   1      -3.723   0.488   1.703  0.00  0.00    -0.082 A 
ATOM      4  C2  PXY d   1      -2.694   0.512   0.872  0.00  0.00     0.003 A 
ATOM      5  C3  PXY d   1      -1.420   0.314   1.340  0.00  0.00     0.003 A 
ATOM      6  C4  PXY d   1      -1.193   0.142   2.679  0.00  0.00    -0.082 A 
ATOM      7  C5  PXY d   1      -2.238   0.127   3.535  0.00  0.00     0.003 A 
ATOM      8  C6  PXY d   1      -3.526   0.289   3.034  0.00  0.00     0.003 A 
ENDROOT
TORSDOF 0
ENDMDL
