MODEL 1
REMARK minimizedAffinity 2.31160903
REMARK minimizedRMSD -1
REMARK  0 active torsions:
REMARK  status: ('A' for Active; 'I' for Inactive)
ROOT
ATOM      1  C4' PXY d   1      -5.904   1.431   0.841  0.00  0.00     0.077 C 
ATOM      2  C1' PXY d   1      -1.037  -0.665   3.150  0.00  0.00     0.077 C 
ATOM      3  C1  PXY d   1      -2.319  -0.116   2.556  0.00  0.00    -0.082 A 
ATOM      4  C2  PXY d   1      -2.573  -0.293   1.269  0.00  0.00     0.003 A 
ATOM      5  C3  PXY d   1      -3.712   0.225   0.709  0.00  0.00     0.003 A 
ATOM      6  C4  PXY d   1      -4.627   0.886   1.485  0.00  0.00    -0.082 A 
ATOM      7  C5  PXY d   1      -4.380   1.061   2.801  0.00  0.00     0.003 A 
ATOM      8  C6  PXY d   1      -3.198   0.564   3.341  0.00  0.00     0.003 A 
ENDROOT
TORSDOF 0
ENDMDL
