MODEL 1
REMARK minimizedAffinity 7.32595015
REMARK minimizedRMSD -1
REMARK  0 active torsions:
REMARK  status: ('A' for Active; 'I' for Inactive)
ROOT
ATOM      1  C4' PXY d   1      -5.654  -5.571  -5.988  0.00  0.00     0.077 C 
ATOM      2  C1' PXY d   1      -2.982  -0.445  -5.983  0.00  0.00     0.077 C 
ATOM      3  C1  PXY d   1      -3.672  -1.795  -5.990  0.00  0.00    -0.082 A 
ATOM      4  C2  PXY d   1      -4.994  -1.854  -5.993  0.00  0.00     0.003 A 
ATOM      5  C3  PXY d   1      -5.634  -3.066  -5.967  0.00  0.00     0.003 A 
ATOM      6  C4  PXY d   1      -4.915  -4.230  -5.991  0.00  0.00    -0.082 A 
ATOM      7  C5  PXY d   1      -3.566  -4.178  -5.998  0.00  0.00     0.003 A 
ATOM      8  C6  PXY d   1      -2.935  -2.938  -5.983  0.00  0.00     0.003 A 
ENDROOT
TORSDOF 0
ENDMDL
