MODEL 1
REMARK minimizedAffinity 6.07468128
REMARK minimizedRMSD -1
REMARK  0 active torsions:
REMARK  status: ('A' for Active; 'I' for Inactive)
ROOT
ATOM      1  C4' PXY d   1      -4.508  -1.182   0.057  0.00  0.00     0.077 C 
ATOM      2  C1' PXY d   1      -1.203   3.014   2.267  0.00  0.00     0.077 C 
ATOM      3  C1  PXY d   1      -2.080   1.921   1.689  0.00  0.00    -0.082 A 
ATOM      4  C2  PXY d   1      -1.684   0.660   1.756  0.00  0.00     0.003 A 
ATOM      5  C3  PXY d   1      -2.450  -0.337   1.210  0.00  0.00     0.003 A 
ATOM      6  C4  PXY d   1      -3.659  -0.047   0.636  0.00  0.00    -0.082 A 
ATOM      7  C5  PXY d   1      -4.075   1.236   0.573  0.00  0.00     0.003 A 
ATOM      8  C6  PXY d   1      -3.263   2.238   1.096  0.00  0.00     0.003 A 
ENDROOT
TORSDOF 0
ENDMDL
