MODEL 1
REMARK minimizedAffinity 4.89729023
REMARK minimizedRMSD -1
REMARK  0 active torsions:
REMARK  status: ('A' for Active; 'I' for Inactive)
ROOT
ATOM      1  C4' PXY d   1      -1.702  -0.019  -5.986  0.00  0.00     0.077 C 
ATOM      2  C1' PXY d   1      -4.496  -5.079  -5.993  0.00  0.00     0.077 C 
ATOM      3  C1  PXY d   1      -3.774  -3.746  -5.997  0.00  0.00    -0.082 A 
ATOM      4  C2  PXY d   1      -2.451  -3.719  -6.000  0.00  0.00     0.003 A 
ATOM      5  C3  PXY d   1      -1.782  -2.523  -5.971  0.00  0.00     0.003 A 
ATOM      6  C4  PXY d   1      -2.474  -1.342  -5.992  0.00  0.00    -0.082 A 
ATOM      7  C5  PXY d   1      -3.823  -1.361  -6.000  0.00  0.00     0.003 A 
ATOM      8  C6  PXY d   1      -4.484  -2.586  -5.988  0.00  0.00     0.003 A 
ENDROOT
TORSDOF 0
ENDMDL
