MODEL 1
REMARK minimizedAffinity -4.71104193
REMARK minimizedRMSD -1
REMARK  0 active torsions:
REMARK  status: ('A' for Active; 'I' for Inactive)
ROOT
ATOM      1  C4' PXY d   1      -0.337   1.785   3.401  0.00  0.00     0.077 C 
ATOM      2  C1' PXY d   1      -3.678  -1.730   0.254  0.00  0.00     0.077 C 
ATOM      3  C1  PXY d   1      -2.812  -0.801   1.082  0.00  0.00    -0.082 A 
ATOM      4  C2  PXY d   1      -1.506  -0.766   0.874  0.00  0.00     0.003 A 
ATOM      5  C3  PXY d   1      -0.704   0.045   1.635  0.00  0.00     0.003 A 
ATOM      6  C4  PXY d   1      -1.252   0.869   2.583  0.00  0.00    -0.082 A 
ATOM      7  C5  PXY d   1      -2.585   0.847   2.793  0.00  0.00     0.003 A 
ATOM      8  C6  PXY d   1      -3.376  -0.014   2.038  0.00  0.00     0.003 A 
ENDROOT
TORSDOF 0
ENDMDL
