MODEL 1
REMARK minimizedAffinity 9.89454842
REMARK minimizedRMSD -1
REMARK  0 active torsions:
REMARK  status: ('A' for Active; 'I' for Inactive)
ROOT
ATOM      1  C4' PXY d   1      -4.087  -2.812   0.099  0.00  0.00     0.077 C 
ATOM      2  C1' PXY d   1      -3.316   2.710   1.622  0.00  0.00     0.077 C 
ATOM      3  C1  PXY d   1      -3.531   1.264   1.221  0.00  0.00    -0.082 A 
ATOM      4  C2  PXY d   1      -2.707   0.331   1.670  0.00  0.00     0.003 A 
ATOM      5  C3  PXY d   1      -2.868  -0.977   1.291  0.00  0.00     0.003 A 
ATOM      6  C4  PXY d   1      -3.914  -1.341   0.486  0.00  0.00    -0.082 A 
ATOM      7  C5  PXY d   1      -4.765  -0.397   0.033  0.00  0.00     0.003 A 
ATOM      8  C6  PXY d   1      -4.560   0.931   0.396  0.00  0.00     0.003 A 
ENDROOT
TORSDOF 0
ENDMDL
