MODEL 1
REMARK minimizedAffinity 3.13248587
REMARK minimizedRMSD -1
REMARK  0 active torsions:
REMARK  status: ('A' for Active; 'I' for Inactive)
ROOT
ATOM      1  C4' PXY d   1       0.816  -0.053   3.527  0.00  0.00     0.077 C 
ATOM      2  C1' PXY d   1      -4.190   0.490   0.686  0.00  0.00     0.077 C 
ATOM      3  C1  PXY d   1      -2.876   0.335   1.427  0.00  0.00    -0.082 A 
ATOM      4  C2  PXY d   1      -2.621   1.103   2.474  0.00  0.00     0.003 A 
ATOM      5  C3  PXY d   1      -1.425   0.998   3.136  0.00  0.00     0.003 A 
ATOM      6  C4  PXY d   1      -0.501   0.062   2.754  0.00  0.00    -0.082 A 
ATOM      7  C5  PXY d   1      -0.758  -0.732   1.693  0.00  0.00     0.003 A 
ATOM      8  C6  PXY d   1      -1.961  -0.582   1.010  0.00  0.00     0.003 A 
ENDROOT
TORSDOF 0
ENDMDL
