MODEL 1
REMARK minimizedAffinity 3.88421893
REMARK minimizedRMSD -1
REMARK  0 active torsions:
REMARK  status: ('A' for Active; 'I' for Inactive)
ROOT
ATOM      1  C4' PXY d   1      -0.752  -4.485   1.879  0.00  0.00     0.077 C 
ATOM      2  C1' PXY d   1       4.813  -6.000   2.266  0.00  0.00     0.077 C 
ATOM      3  C1  PXY d   1       3.350  -5.613   2.172  0.00  0.00    -0.082 A 
ATOM      4  C2  PXY d   1       2.929  -4.891   1.146  0.00  0.00     0.003 A 
ATOM      5  C3  PXY d   1       1.616  -4.505   1.062  0.00  0.00     0.003 A 
ATOM      6  C4  PXY d   1       0.714  -4.907   2.010  0.00  0.00    -0.082 A 
ATOM      7  C5  PXY d   1       1.133  -5.653   3.054  0.00  0.00     0.003 A 
ATOM      8  C6  PXY d   1       2.479  -6.000   3.142  0.00  0.00     0.003 A 
ENDROOT
TORSDOF 0
ENDMDL
