MODEL 1
REMARK minimizedAffinity -0.0186717212
REMARK minimizedRMSD -1
REMARK  0 active torsions:
REMARK  status: ('A' for Active; 'I' for Inactive)
ROOT
ATOM      1  C4' PXY d   1       0.891   2.293   4.280  0.00  0.00     0.077 C 
ATOM      2  C1' PXY d   1      -3.724   0.537   1.275  0.00  0.00     0.077 C 
ATOM      3  C1  PXY d   1      -2.511   0.985   2.066  0.00  0.00    -0.082 A 
ATOM      4  C2  PXY d   1      -2.472   2.209   2.566  0.00  0.00     0.003 A 
ATOM      5  C3  PXY d   1      -1.369   2.642   3.257  0.00  0.00     0.003 A 
ATOM      6  C4  PXY d   1      -0.317   1.795   3.483  0.00  0.00    -0.082 A 
ATOM      7  C5  PXY d   1      -0.354   0.541   2.984  0.00  0.00     0.003 A 
ATOM      8  C6  PXY d   1      -1.465   0.135   2.251  0.00  0.00     0.003 A 
ENDROOT
TORSDOF 0
ENDMDL
