MODEL 1
REMARK minimizedAffinity 8.05701828
REMARK minimizedRMSD -1
REMARK  0 active torsions:
REMARK  status: ('A' for Active; 'I' for Inactive)
ROOT
ATOM      1  C4' PXY d   1      -5.079   6.000   5.989  0.00  0.00     0.077 C 
ATOM      2  C1' PXY d   1      -4.510   2.006   1.849  0.00  0.00     0.077 C 
ATOM      3  C1  PXY d   1      -4.647   3.058   2.932  0.00  0.00    -0.082 A 
ATOM      4  C2  PXY d   1      -5.466   2.846   3.950  0.00  0.00     0.003 A 
ATOM      5  C3  PXY d   1      -5.627   3.801   4.921  0.00  0.00     0.003 A 
ATOM      6  C4  PXY d   1      -4.901   4.961   4.878  0.00  0.00    -0.082 A 
ATOM      7  C5  PXY d   1      -4.056   5.180   3.849  0.00  0.00     0.003 A 
ATOM      8  C6  PXY d   1      -3.938   4.216   2.851  0.00  0.00     0.003 A 
ENDROOT
TORSDOF 0
ENDMDL
