MODEL 1
REMARK minimizedAffinity 1.28017914
REMARK minimizedRMSD -1
REMARK  0 active torsions:
REMARK  status: ('A' for Active; 'I' for Inactive)
ROOT
ATOM      1  C4' PXY d   1      -6.000  -3.490  -5.973  0.00  0.00     0.077 C 
ATOM      2  C1' PXY d   1      -1.327  -0.101  -5.670  0.00  0.00     0.077 C 
ATOM      3  C1  PXY d   1      -2.545  -0.999  -5.756  0.00  0.00    -0.082 A 
ATOM      4  C2  PXY d   1      -3.755  -0.469  -5.670  0.00  0.00     0.003 A 
ATOM      5  C3  PXY d   1      -4.867  -1.270  -5.714  0.00  0.00     0.003 A 
ATOM      6  C4  PXY d   1      -4.741  -2.621  -5.901  0.00  0.00    -0.082 A 
ATOM      7  C5  PXY d   1      -3.511  -3.167  -6.000  0.00  0.00     0.003 A 
ATOM      8  C6  PXY d   1      -2.393  -2.342  -5.912  0.00  0.00     0.003 A 
ENDROOT
TORSDOF 0
ENDMDL
