MODEL 1
REMARK minimizedAffinity 7.25368643
REMARK minimizedRMSD -1
REMARK  0 active torsions:
REMARK  status: ('A' for Active; 'I' for Inactive)
ROOT
ATOM      1  C4' PXY d   1      -5.686  -1.823  -5.924  0.00  0.00     0.077 C 
ATOM      2  C1' PXY d   1       0.057  -2.462  -5.766  0.00  0.00     0.077 C 
ATOM      3  C1  PXY d   1      -1.450  -2.306  -5.813  0.00  0.00    -0.082 A 
ATOM      4  C2  PXY d   1      -1.986  -1.099  -5.732  0.00  0.00     0.003 A 
ATOM      5  C3  PXY d   1      -3.348  -0.942  -5.741  0.00  0.00     0.003 A 
ATOM      6  C4  PXY d   1      -4.169  -2.028  -5.889  0.00  0.00    -0.082 A 
ATOM      7  C5  PXY d   1      -3.630  -3.261  -5.984  0.00  0.00     0.003 A 
ATOM      8  C6  PXY d   1      -2.247  -3.403  -5.931  0.00  0.00     0.003 A 
ENDROOT
TORSDOF 0
ENDMDL
