MODEL 1
REMARK minimizedAffinity -0.541051805
REMARK minimizedRMSD -1
REMARK  0 active torsions:
REMARK  status: ('A' for Active; 'I' for Inactive)
ROOT
ATOM      1  C4' PXY d   1      -1.547  -0.388  -5.976  0.00  0.00     0.077 C 
ATOM      2  C1' PXY d   1      -5.786  -4.318  -5.998  0.00  0.00     0.077 C 
ATOM      3  C1  PXY d   1      -4.666  -3.296  -5.987  0.00  0.00    -0.082 A 
ATOM      4  C2  PXY d   1      -4.958  -2.006  -5.976  0.00  0.00     0.003 A 
ATOM      5  C3  PXY d   1      -3.958  -1.068  -5.999  0.00  0.00     0.003 A 
ATOM      6  C4  PXY d   1      -2.645  -1.455  -5.978  0.00  0.00    -0.082 A 
ATOM      7  C5  PXY d   1      -2.339  -2.770  -5.978  0.00  0.00     0.003 A 
ATOM      8  C6  PXY d   1      -3.369  -3.706  -5.997  0.00  0.00     0.003 A 
ENDROOT
TORSDOF 0
ENDMDL
