MODEL 1
REMARK minimizedAffinity 11.0706596
REMARK minimizedRMSD -1
REMARK  0 active torsions:
REMARK  status: ('A' for Active; 'I' for Inactive)
ROOT
ATOM      1  C4' PXY d   1      -1.201  -4.738  -5.988  0.00  0.00     0.077 C 
ATOM      2  C1' PXY d   1      -5.923  -1.405  -5.949  0.00  0.00     0.077 C 
ATOM      3  C1  PXY d   1      -4.678  -2.269  -5.965  0.00  0.00    -0.082 A 
ATOM      4  C2  PXY d   1      -4.796  -3.587  -5.973  0.00  0.00     0.003 A 
ATOM      5  C3  PXY d   1      -3.681  -4.384  -5.955  0.00  0.00     0.003 A 
ATOM      6  C4  PXY d   1      -2.431  -3.826  -5.982  0.00  0.00    -0.082 A 
ATOM      7  C5  PXY d   1      -2.301  -2.482  -5.984  0.00  0.00     0.003 A 
ATOM      8  C6  PXY d   1      -3.446  -1.691  -5.960  0.00  0.00     0.003 A 
ENDROOT
TORSDOF 0
ENDMDL
