MODEL 1
REMARK minimizedAffinity 1.04756892
REMARK minimizedRMSD -1
REMARK  0 active torsions:
REMARK  status: ('A' for Active; 'I' for Inactive)
ROOT
ATOM      1  C4' PXY d   1       3.087  -0.301  -5.891  0.00  0.00     0.077 C 
ATOM      2  C1' PXY d   1       1.574   1.100  -0.491  0.00  0.00     0.077 C 
ATOM      3  C1  PXY d   1       1.965   0.721  -1.905  0.00  0.00    -0.082 A 
ATOM      4  C2  PXY d   1       3.020   1.288  -2.467  0.00  0.00     0.003 A 
ATOM      5  C3  PXY d   1       3.369   0.981  -3.757  0.00  0.00     0.003 A 
ATOM      6  C4  PXY d   1       2.661   0.044  -4.461  0.00  0.00    -0.082 A 
ATOM      7  C5  PXY d   1       1.589  -0.547  -3.892  0.00  0.00     0.003 A 
ATOM      8  C6  PXY d   1       1.227  -0.190  -2.596  0.00  0.00     0.003 A 
ENDROOT
TORSDOF 0
ENDMDL
