MODEL 1
REMARK minimizedAffinity -0.972566485
REMARK minimizedRMSD -1
REMARK  0 active torsions:
REMARK  status: ('A' for Active; 'I' for Inactive)
ROOT
ATOM      1  C4' PXY d   1      -5.931  -3.368  -6.000  0.00  0.00     0.077 C 
ATOM      2  C1' PXY d   1      -0.834  -0.658  -5.694  0.00  0.00     0.077 C 
ATOM      3  C1  PXY d   1      -2.177  -1.358  -5.770  0.00  0.00    -0.082 A 
ATOM      4  C2  PXY d   1      -2.232  -2.678  -5.689  0.00  0.00     0.003 A 
ATOM      5  C3  PXY d   1      -3.435  -3.329  -5.788  0.00  0.00     0.003 A 
ATOM      6  C4  PXY d   1      -4.599  -2.619  -5.918  0.00  0.00    -0.082 A 
ATOM      7  C5  PXY d   1      -4.551  -1.271  -5.991  0.00  0.00     0.003 A 
ATOM      8  C6  PXY d   1      -3.317  -0.632  -5.930  0.00  0.00     0.003 A 
ENDROOT
TORSDOF 0
ENDMDL
