MODEL 1
REMARK minimizedAffinity 14.7579527
REMARK minimizedRMSD -1
REMARK  0 active torsions:
REMARK  status: ('A' for Active; 'I' for Inactive)
ROOT
ATOM      1  C4' PXY d   1       2.168   1.099  -1.324  0.00  0.00     0.077 C 
ATOM      2  C1' PXY d   1      -1.289  -0.400   3.061  0.00  0.00     0.077 C 
ATOM      3  C1  PXY d   1      -0.380   0.004   1.917  0.00  0.00    -0.082 A 
ATOM      4  C2  PXY d   1      -0.533  -0.559   0.729  0.00  0.00     0.003 A 
ATOM      5  C3  PXY d   1       0.301  -0.228  -0.308  0.00  0.00     0.003 A 
ATOM      6  C4  PXY d   1       1.267   0.728  -0.142  0.00  0.00    -0.082 A 
ATOM      7  C5  PXY d   1       1.422   1.315   1.063  0.00  0.00     0.003 A 
ATOM      8  C6  PXY d   1       0.593   0.935   2.114  0.00  0.00     0.003 A 
ENDROOT
TORSDOF 0
ENDMDL
