MODEL 1
REMARK minimizedAffinity 9.72575569
REMARK minimizedRMSD -1
REMARK  0 active torsions:
REMARK  status: ('A' for Active; 'I' for Inactive)
ROOT
ATOM      1  C4' PXY d   1      -5.239   0.236   2.173  0.00  0.00     0.077 C 
ATOM      2  C1' PXY d   1       0.247   2.004   1.728  0.00  0.00     0.077 C 
ATOM      3  C1  PXY d   1      -1.195   1.552   1.850  0.00  0.00    -0.082 A 
ATOM      4  C2  PXY d   1      -1.471   0.261   1.939  0.00  0.00     0.003 A 
ATOM      5  C3  PXY d   1      -2.771  -0.167   2.017  0.00  0.00     0.003 A 
ATOM      6  C4  PXY d   1      -3.797   0.738   2.058  0.00  0.00    -0.082 A 
ATOM      7  C5  PXY d   1      -3.523   2.058   1.979  0.00  0.00     0.003 A 
ATOM      8  C6  PXY d   1      -2.199   2.470   1.858  0.00  0.00     0.003 A 
ENDROOT
TORSDOF 0
ENDMDL
