MODEL 1
REMARK minimizedAffinity 1.99790704
REMARK minimizedRMSD -1
REMARK  2 active torsions:
REMARK  status: ('A' for Active; 'I' for Inactive)
REMARK    1  A    between atoms: C2'_3  and  C1'_4 
REMARK    2  A    between atoms: C1'_4  and  C1_5 
ROOT
ATOM      1  C1  I4B d   1       1.961  -1.945   0.345  0.00  0.00    -0.075 A 
ATOM      2  C2  I4B d   1       0.655  -2.223   0.027  0.00  0.00     0.003 A 
ATOM      3  C3  I4B d   1      -0.385  -1.375   0.478  0.00  0.00     0.002 A 
ATOM      4  C4  I4B d   1      -0.081  -0.296   1.283  0.00  0.00    -0.004 A 
ATOM      5  C5  I4B d   1       1.246  -0.003   1.586  0.00  0.00     0.002 A 
ATOM      6  C6  I4B d   1       2.274  -0.825   1.104  0.00  0.00     0.003 A 
ENDROOT
BRANCH   1   7
ATOM      7  C1' I4B d   1       3.031  -2.881  -0.121  0.00  0.00     0.060 C 
BRANCH   7   8
ATOM      8  C2' I4B d   1       2.501  -4.295   0.002  0.00  0.00    -0.013 C 
ATOM      9  C4' I4B d   1       1.347  -4.528  -0.937  0.00  0.00     0.013 C 
ATOM     10  C3' I4B d   1       3.631  -5.239  -0.285  0.00  0.00     0.013 C 
ENDBRANCH   7   8
ENDBRANCH   1   7
TORSDOF 2
ENDMDL
