MODEL 1
REMARK minimizedAffinity 5.56476212
REMARK minimizedRMSD -1
REMARK  2 active torsions:
REMARK  status: ('A' for Active; 'I' for Inactive)
REMARK    1  A    between atoms: C2'_3  and  C1'_4 
REMARK    2  A    between atoms: C1'_4  and  C1_5 
ROOT
ATOM      1  C1  I4B d   1       2.258  -0.439  -0.510  0.00  0.00    -0.075 A 
ATOM      2  C2  I4B d   1       1.997   0.183   0.686  0.00  0.00     0.003 A 
ATOM      3  C3  I4B d   1       0.832  -0.146   1.420  0.00  0.00     0.002 A 
ATOM      4  C4  I4B d   1      -0.064  -1.059   0.902  0.00  0.00    -0.004 A 
ATOM      5  C5  I4B d   1       0.214  -1.705  -0.299  0.00  0.00     0.002 A 
ATOM      6  C6  I4B d   1       1.388  -1.403  -1.004  0.00  0.00     0.003 A 
ENDROOT
BRANCH   1   7
ATOM      7  C1' I4B d   1       3.481  -0.044  -1.276  0.00  0.00     0.060 C 
BRANCH   7   8
ATOM      8  C2' I4B d   1       3.189   1.266  -1.977  0.00  0.00    -0.013 C 
ATOM      9  C4' I4B d   1       4.323   2.242  -1.804  0.00  0.00     0.013 C 
ATOM     10  C3' I4B d   1       2.945   0.971  -3.427  0.00  0.00     0.013 C 
ENDBRANCH   7   8
ENDBRANCH   1   7
TORSDOF 2
ENDMDL
