MODEL 1
REMARK minimizedAffinity -1.77194011
REMARK minimizedRMSD -1
REMARK  2 active torsions:
REMARK  status: ('A' for Active; 'I' for Inactive)
REMARK    1  A    between atoms: C2'_3  and  C1'_4 
REMARK    2  A    between atoms: C1'_4  and  C1_5 
ROOT
ATOM      1  C1  I4B d   1       2.267  -1.855   0.506  0.00  0.00    -0.075 A 
ATOM      2  C2  I4B d   1       3.628  -2.005   0.417  0.00  0.00     0.003 A 
ATOM      3  C3  I4B d   1       4.183  -3.224  -0.044  0.00  0.00     0.002 A 
ATOM      4  C4  I4B d   1       3.346  -4.277  -0.353  0.00  0.00    -0.004 A 
ATOM      5  C5  I4B d   1       1.965  -4.116  -0.283  0.00  0.00     0.002 A 
ATOM      6  C6  I4B d   1       1.421  -2.894   0.137  0.00  0.00     0.003 A 
ENDROOT
BRANCH   1   7
ATOM      7  C1' I4B d   1       1.716  -0.566   1.028  0.00  0.00     0.060 C 
BRANCH   7   8
ATOM      8  C2' I4B d   1       0.432  -0.873   1.771  0.00  0.00    -0.013 C 
ATOM      9  C4' I4B d   1       0.503  -0.404   3.200  0.00  0.00     0.013 C 
ATOM     10  C3' I4B d   1      -0.697  -0.211   1.039  0.00  0.00     0.013 C 
ENDBRANCH   7   8
ENDBRANCH   1   7
TORSDOF 2
ENDMDL
