MODEL 1
REMARK minimizedAffinity -0.3725425
REMARK minimizedRMSD -1
REMARK  2 active torsions:
REMARK  status: ('A' for Active; 'I' for Inactive)
REMARK    1  A    between atoms: C2'_3  and  C1'_4 
REMARK    2  A    between atoms: C1'_4  and  C1_5 
ROOT
ATOM      1  C1  I4B d   1       2.419  -3.410  -0.372  0.00  0.00    -0.075 A 
ATOM      2  C2  I4B d   1       2.908  -2.141  -0.184  0.00  0.00     0.003 A 
ATOM      3  C3  I4B d   1       2.038  -1.090   0.194  0.00  0.00     0.002 A 
ATOM      4  C4  I4B d   1       0.687  -1.340   0.324  0.00  0.00    -0.004 A 
ATOM      5  C5  I4B d   1       0.196  -2.632   0.156  0.00  0.00     0.002 A 
ATOM      6  C6  I4B d   1       1.069  -3.676  -0.182  0.00  0.00     0.003 A 
ENDROOT
BRANCH   1   7
ATOM      7  C1' I4B d   1       3.360  -4.489  -0.803  0.00  0.00     0.060 C 
BRANCH   7   8
ATOM      8  C2' I4B d   1       4.574  -4.440   0.103  0.00  0.00    -0.013 C 
ATOM      9  C4' I4B d   1       4.853  -5.788   0.713  0.00  0.00     0.013 C 
ATOM     10  C3' I4B d   1       5.739  -3.961  -0.709  0.00  0.00     0.013 C 
ENDBRANCH   7   8
ENDBRANCH   1   7
TORSDOF 2
ENDMDL
