MODEL 1
REMARK minimizedAffinity 8.5909605
REMARK minimizedRMSD -1
REMARK  2 active torsions:
REMARK  status: ('A' for Active; 'I' for Inactive)
REMARK    1  A    between atoms: C2'_3  and  C1'_4 
REMARK    2  A    between atoms: C1'_4  and  C1_5 
ROOT
ATOM      1  C1  I4B d   1      -0.058  -0.994   1.463  0.00  0.00    -0.075 A 
ATOM      2  C2  I4B d   1       1.112  -1.304   0.816  0.00  0.00     0.003 A 
ATOM      3  C3  I4B d   1       1.138  -2.333  -0.156  0.00  0.00     0.002 A 
ATOM      4  C4  I4B d   1      -0.009  -3.056  -0.411  0.00  0.00    -0.004 A 
ATOM      5  C5  I4B d   1      -1.200  -2.726   0.230  0.00  0.00     0.002 A 
ATOM      6  C6  I4B d   1      -1.228  -1.680   1.164  0.00  0.00     0.003 A 
ENDROOT
BRANCH   1   7
ATOM      7  C1' I4B d   1      -0.042   0.076   2.508  0.00  0.00     0.060 C 
BRANCH   7   8
ATOM      8  C2' I4B d   1      -1.464   0.563   2.699  0.00  0.00    -0.013 C 
ATOM      9  C4' I4B d   1      -1.809   0.678   4.161  0.00  0.00     0.013 C 
ATOM     10  C3' I4B d   1      -1.598   1.886   2.005  0.00  0.00     0.013 C 
ENDBRANCH   7   8
ENDBRANCH   1   7
TORSDOF 2
ENDMDL
