MODEL 1
REMARK minimizedAffinity 6.48482895
REMARK minimizedRMSD -1
REMARK  2 active torsions:
REMARK  status: ('A' for Active; 'I' for Inactive)
REMARK    1  A    between atoms: C2'_3  and  C1'_4 
REMARK    2  A    between atoms: C1'_4  and  C1_5 
ROOT
ATOM      1  C1  I4B d   1       0.292  -1.591   0.070  0.00  0.00    -0.075 A 
ATOM      2  C2  I4B d   1       0.200  -1.363  -1.280  0.00  0.00     0.003 A 
ATOM      3  C3  I4B d   1       0.321  -2.438  -2.194  0.00  0.00     0.002 A 
ATOM      4  C4  I4B d   1       0.582  -3.707  -1.720  0.00  0.00    -0.004 A 
ATOM      5  C5  I4B d   1       0.653  -3.940  -0.350  0.00  0.00     0.002 A 
ATOM      6  C6  I4B d   1       0.495  -2.878   0.552  0.00  0.00     0.003 A 
ENDROOT
BRANCH   1   7
ATOM      7  C1' I4B d   1       0.193  -0.429   1.006  0.00  0.00     0.060 C 
BRANCH   7   8
ATOM      8  C2' I4B d   1       1.564  -0.194   1.607  0.00  0.00    -0.013 C 
ATOM      9  C4' I4B d   1       1.737  -0.966   2.888  0.00  0.00     0.013 C 
ATOM     10  C3' I4B d   1       2.590  -0.597   0.590  0.00  0.00     0.013 C 
ENDBRANCH   7   8
ENDBRANCH   1   7
TORSDOF 2
ENDMDL
