MODEL 1
REMARK minimizedAffinity 1.11758232
REMARK minimizedRMSD -1
REMARK  2 active torsions:
REMARK  status: ('A' for Active; 'I' for Inactive)
REMARK    1  A    between atoms: C2'_3  and  C1'_4 
REMARK    2  A    between atoms: C1'_4  and  C1_5 
ROOT
ATOM      1  C1  I4B d   1       1.160   4.519  -4.510  0.00  0.00    -0.075 A 
ATOM      2  C2  I4B d   1       0.684   5.257  -5.565  0.00  0.00     0.003 A 
ATOM      3  C3  I4B d   1      -0.515   5.999  -5.433  0.00  0.00     0.002 A 
ATOM      4  C4  I4B d   1      -1.228   5.934  -4.253  0.00  0.00    -0.004 A 
ATOM      5  C5  I4B d   1      -0.732   5.204  -3.176  0.00  0.00     0.002 A 
ATOM      6  C6  I4B d   1       0.476   4.502  -3.301  0.00  0.00     0.003 A 
ENDROOT
BRANCH   1   7
ATOM      7  C1' I4B d   1       2.411   3.722  -4.694  0.00  0.00     0.060 C 
BRANCH   7   8
ATOM      8  C2' I4B d   1       2.589   2.843  -3.473  0.00  0.00    -0.013 C 
ATOM      9  C4' I4B d   1       2.749   1.396  -3.860  0.00  0.00     0.013 C 
ATOM     10  C3' I4B d   1       3.787   3.337  -2.718  0.00  0.00     0.013 C 
ENDBRANCH   7   8
ENDBRANCH   1   7
TORSDOF 2
ENDMDL
