MODEL 1
REMARK minimizedAffinity 5.5878067
REMARK minimizedRMSD -1
REMARK  2 active torsions:
REMARK  status: ('A' for Active; 'I' for Inactive)
REMARK    1  A    between atoms: C2'_3  and  C1'_4 
REMARK    2  A    between atoms: C1'_4  and  C1_5 
ROOT
ATOM      1  C1  I4B d   1       0.393  -1.808   0.338  0.00  0.00    -0.075 A 
ATOM      2  C2  I4B d   1      -0.333  -1.265   1.369  0.00  0.00     0.003 A 
ATOM      3  C3  I4B d   1       0.140  -0.113   2.044  0.00  0.00     0.002 A 
ATOM      4  C4  I4B d   1       1.359   0.429   1.692  0.00  0.00    -0.004 A 
ATOM      5  C5  I4B d   1       2.082  -0.110   0.631  0.00  0.00     0.002 A 
ATOM      6  C6  I4B d   1       1.591  -1.228  -0.058  0.00  0.00     0.003 A 
ENDROOT
BRANCH   1   7
ATOM      7  C1' I4B d   1      -0.120  -3.044  -0.331  0.00  0.00     0.060 C 
BRANCH   7   8
ATOM      8  C2' I4B d   1       0.954  -3.543  -1.276  0.00  0.00    -0.013 C 
ATOM      9  C4' I4B d   1       1.920  -4.458  -0.570  0.00  0.00     0.013 C 
ATOM     10  C3' I4B d   1       0.279  -4.244  -2.416  0.00  0.00     0.013 C 
ENDBRANCH   7   8
ENDBRANCH   1   7
TORSDOF 2
ENDMDL
