MODEL 1
REMARK minimizedAffinity 3.25358224
REMARK minimizedRMSD -1
REMARK  2 active torsions:
REMARK  status: ('A' for Active; 'I' for Inactive)
REMARK    1  A    between atoms: C2'_3  and  C1'_4 
REMARK    2  A    between atoms: C1'_4  and  C1_5 
ROOT
ATOM      1  C1  I4B d   1       2.373  -2.105   0.192  0.00  0.00    -0.075 A 
ATOM      2  C2  I4B d   1       1.022  -2.336   0.261  0.00  0.00     0.003 A 
ATOM      3  C3  I4B d   1       0.500  -3.613  -0.059  0.00  0.00     0.002 A 
ATOM      4  C4  I4B d   1       1.354  -4.608  -0.488  0.00  0.00    -0.004 A 
ATOM      5  C5  I4B d   1       2.726  -4.379  -0.535  0.00  0.00     0.002 A 
ATOM      6  C6  I4B d   1       3.240  -3.124  -0.182  0.00  0.00     0.003 A 
ENDROOT
BRANCH   1   7
ATOM      7  C1' I4B d   1       2.887  -0.736   0.505  0.00  0.00     0.060 C 
BRANCH   7   8
ATOM      8  C2' I4B d   1       3.939  -0.868   1.587  0.00  0.00    -0.013 C 
ATOM      9  C4' I4B d   1       5.324  -0.678   1.027  0.00  0.00     0.013 C 
ATOM     10  C3' I4B d   1       3.640   0.148   2.649  0.00  0.00     0.013 C 
ENDBRANCH   7   8
ENDBRANCH   1   7
TORSDOF 2
ENDMDL
