MODEL 1
REMARK minimizedAffinity -0.573471069
REMARK minimizedRMSD -1
REMARK  0 active torsions:
REMARK  status: ('A' for Active; 'I' for Inactive)
ROOT
ATOM      1  C   UNL d   1       1.949  -1.435   2.300  0.00  0.00     0.124 A 
ATOM      2  C1  UNL d   1       2.495  -1.628   1.038  0.00  0.00     0.062 A 
ATOM      3  C2  UNL d   1       1.824  -1.171  -0.092  0.00  0.00     0.162 A 
ATOM      4  C3  UNL d   1       0.600  -0.514   0.033  0.00  0.00    -0.034 A 
ATOM      5  C4  UNL d   1       0.057  -0.324   1.305  0.00  0.00     0.162 A 
ATOM      6  C5  UNL d   1       0.731  -0.783   2.432  0.00  0.00     0.062 A 
ATOM      7  F   UNL d   1       0.203  -0.595   3.650  0.00  0.00    -0.097 F 
ATOM      8  F1  UNL d   1      -1.118   0.303   1.462  0.00  0.00    -0.096 F 
ATOM      9  I   UNL d   1      -0.406   0.171  -1.655  0.00  0.00    -0.060 I 
ATOM     10  F2  UNL d   1       2.375  -1.372  -1.299  0.00  0.00    -0.096 F 
ATOM     11  F3  UNL d   1       3.671  -2.259   0.908  0.00  0.00    -0.097 F 
ATOM     12  F4  UNL d   1       2.597  -1.877   3.386  0.00  0.00    -0.092 F 
ENDROOT
TORSDOF 0
ENDMDL
