MODEL 1
REMARK minimizedAffinity -4.57788372
REMARK minimizedRMSD -1
REMARK  0 active torsions:
REMARK  status: ('A' for Active; 'I' for Inactive)
ROOT
ATOM      1  C   UNL d   1       1.913  -1.259   1.940  0.00  0.00     0.124 A 
ATOM      2  C1  UNL d   1       0.972  -0.308   2.307  0.00  0.00     0.062 A 
ATOM      3  C2  UNL d   1       0.193   0.316   1.337  0.00  0.00     0.162 A 
ATOM      4  C3  UNL d   1       0.351  -0.010  -0.010  0.00  0.00    -0.034 A 
ATOM      5  C4  UNL d   1       1.300  -0.967  -0.371  0.00  0.00     0.162 A 
ATOM      6  C5  UNL d   1       2.077  -1.588   0.602  0.00  0.00     0.062 A 
ATOM      7  F   UNL d   1       2.986  -2.507   0.245  0.00  0.00    -0.097 F 
ATOM      8  F1  UNL d   1       1.478  -1.305  -1.657  0.00  0.00    -0.096 F 
ATOM      9  I   UNL d   1      -0.812   0.921  -1.463  0.00  0.00    -0.060 I 
ATOM     10  F2  UNL d   1      -0.709   1.232   1.720  0.00  0.00    -0.096 F 
ATOM     11  F3  UNL d   1       0.813   0.012   3.599  0.00  0.00    -0.097 F 
ATOM     12  F4  UNL d   1       2.662  -1.858   2.875  0.00  0.00    -0.092 F 
ENDROOT
TORSDOF 0
ENDMDL
