MODEL 1
REMARK minimizedAffinity -5.04205561
REMARK minimizedRMSD -1
REMARK  0 active torsions:
REMARK  status: ('A' for Active; 'I' for Inactive)
ROOT
ATOM      1  C   UNL d   1      -1.339  -0.338   0.784  0.00  0.00     0.124 A 
ATOM      2  C1  UNL d   1      -0.850  -0.306  -0.515  0.00  0.00     0.062 A 
ATOM      3  C2  UNL d   1       0.490  -0.585  -0.765  0.00  0.00     0.162 A 
ATOM      4  C3  UNL d   1       1.352  -0.899   0.286  0.00  0.00    -0.034 A 
ATOM      5  C4  UNL d   1       0.853  -0.928   1.589  0.00  0.00     0.162 A 
ATOM      6  C5  UNL d   1      -0.487  -0.648   1.834  0.00  0.00     0.062 A 
ATOM      7  F   UNL d   1      -0.958  -0.680   3.090  0.00  0.00    -0.097 F 
ATOM      8  F1  UNL d   1       1.654  -1.226   2.623  0.00  0.00    -0.096 F 
ATOM      9  I   UNL d   1       3.357  -1.316  -0.084  0.00  0.00    -0.060 I 
ATOM     10  F2  UNL d   1       0.935  -0.547  -2.030  0.00  0.00    -0.096 F 
ATOM     11  F3  UNL d   1      -1.671  -0.005  -1.531  0.00  0.00    -0.097 F 
ATOM     12  F4  UNL d   1      -2.629  -0.068   1.022  0.00  0.00    -0.092 F 
ENDROOT
TORSDOF 0
ENDMDL
