MODEL 1
REMARK minimizedAffinity -2.45718098
REMARK minimizedRMSD -1
REMARK  0 active torsions:
REMARK  status: ('A' for Active; 'I' for Inactive)
ROOT
ATOM      1  C   UNL d   1       1.095  -1.343   2.492  0.00  0.00     0.124 A 
ATOM      2  C1  UNL d   1       1.875  -1.400   1.346  0.00  0.00     0.062 A 
ATOM      3  C2  UNL d   1       1.422  -0.828   0.161  0.00  0.00     0.162 A 
ATOM      4  C3  UNL d   1       0.181  -0.192   0.116  0.00  0.00    -0.034 A 
ATOM      5  C4  UNL d   1      -0.599  -0.139   1.273  0.00  0.00     0.162 A 
ATOM      6  C5  UNL d   1      -0.141  -0.713   2.455  0.00  0.00     0.062 A 
ATOM      7  F   UNL d   1      -0.897  -0.656   3.561  0.00  0.00    -0.097 F 
ATOM      8  F1  UNL d   1      -1.797   0.464   1.265  0.00  0.00    -0.096 F 
ATOM      9  I   UNL d   1      -0.501   0.665  -1.654  0.00  0.00    -0.060 I 
ATOM     10  F2  UNL d   1       2.197  -0.898  -0.932  0.00  0.00    -0.096 F 
ATOM     11  F3  UNL d   1       3.069  -2.009   1.379  0.00  0.00    -0.097 F 
ATOM     12  F4  UNL d   1       1.533  -1.895   3.631  0.00  0.00    -0.092 F 
ENDROOT
TORSDOF 0
ENDMDL
