MODEL 1
REMARK minimizedAffinity -4.9344902
REMARK minimizedRMSD -1
REMARK  0 active torsions:
REMARK  status: ('A' for Active; 'I' for Inactive)
ROOT
ATOM      1  C1  BNZ d   1      -2.416  -1.703   1.952  0.00  0.00     0.000 A 
ATOM      2  C2  BNZ d   1      -2.878  -0.416   1.873  0.00  0.00     0.000 A 
ATOM      3  C3  BNZ d   1      -2.286   0.490   1.038  0.00  0.00     0.000 A 
ATOM      4  C4  BNZ d   1      -1.208   0.120   0.316  0.00  0.00     0.000 A 
ATOM      5  C5  BNZ d   1      -0.724  -1.171   0.393  0.00  0.00     0.000 A 
ATOM      6  C6  BNZ d   1      -1.348  -2.091   1.204  0.00  0.00     0.000 A 
ENDROOT
TORSDOF 0
ENDMDL
