MODEL 1
REMARK minimizedAffinity -2.6961832
REMARK minimizedRMSD -1
REMARK  0 active torsions:
REMARK  status: ('A' for Active; 'I' for Inactive)
ROOT
ATOM      1  C1  BNZ d   1       0.831  -1.830   0.742  0.00  0.00     0.000 A 
ATOM      2  C2  BNZ d   1       0.704  -0.741  -0.078  0.00  0.00     0.000 A 
ATOM      3  C3  BNZ d   1      -0.438   0.011  -0.071  0.00  0.00     0.000 A 
ATOM      4  C4  BNZ d   1      -1.465  -0.350   0.725  0.00  0.00     0.000 A 
ATOM      5  C5  BNZ d   1      -1.355  -1.451   1.551  0.00  0.00     0.000 A 
ATOM      6  C6  BNZ d   1      -0.190  -2.183   1.570  0.00  0.00     0.000 A 
ENDROOT
TORSDOF 0
ENDMDL
