MODEL 1
REMARK minimizedAffinity -3.9078362
REMARK minimizedRMSD -1
REMARK  0 active torsions:
REMARK  status: ('A' for Active; 'I' for Inactive)
ROOT
ATOM      1  C1  BNZ d   1      -0.170  -1.529   0.711  0.00  0.00     0.000 A 
ATOM      2  C2  BNZ d   1      -0.722  -2.503   1.500  0.00  0.00     0.000 A 
ATOM      3  C3  BNZ d   1      -1.922  -2.302   2.124  0.00  0.00     0.000 A 
ATOM      4  C4  BNZ d   1      -2.548  -1.115   1.990  0.00  0.00     0.000 A 
ATOM      5  C5  BNZ d   1      -1.999  -0.120   1.206  0.00  0.00     0.000 A 
ATOM      6  C6  BNZ d   1      -0.810  -0.340   0.548  0.00  0.00     0.000 A 
ENDROOT
TORSDOF 0
ENDMDL
