MODEL 1
REMARK minimizedAffinity -5.36709976
REMARK minimizedRMSD -1
REMARK  0 active torsions:
REMARK  status: ('A' for Active; 'I' for Inactive)
ROOT
ATOM      1  C1  BNZ d   1      -0.782  -0.576   1.163  0.00  0.00     0.000 A 
ATOM      2  C2  BNZ d   1      -1.832  -0.009   1.834  0.00  0.00     0.000 A 
ATOM      3  C3  BNZ d   1      -2.914  -0.759   2.204  0.00  0.00     0.000 A 
ATOM      4  C4  BNZ d   1      -2.962  -2.064   1.867  0.00  0.00     0.000 A 
ATOM      5  C5  BNZ d   1      -1.915  -2.648   1.182  0.00  0.00     0.000 A 
ATOM      6  C6  BNZ d   1      -0.811  -1.899   0.846  0.00  0.00     0.000 A 
ENDROOT
TORSDOF 0
ENDMDL
