MODEL 1
REMARK minimizedAffinity -5.22597361
REMARK minimizedRMSD -1
REMARK  0 active torsions:
REMARK  status: ('A' for Active; 'I' for Inactive)
ROOT
ATOM      1  C1  BNZ d   1      -0.020  -1.236   0.274  0.00  0.00     0.000 A 
ATOM      2  C2  BNZ d   1      -0.736  -2.175   0.967  0.00  0.00     0.000 A 
ATOM      3  C3  BNZ d   1      -1.898  -1.841   1.604  0.00  0.00     0.000 A 
ATOM      4  C4  BNZ d   1      -2.322  -0.560   1.580  0.00  0.00     0.000 A 
ATOM      5  C5  BNZ d   1      -1.606   0.400   0.894  0.00  0.00     0.000 A 
ATOM      6  C6  BNZ d   1      -0.457   0.052   0.222  0.00  0.00     0.000 A 
ENDROOT
TORSDOF 0
ENDMDL
