MODEL 1
REMARK minimizedAffinity -2.86267996
REMARK minimizedRMSD -1
REMARK  0 active torsions:
REMARK  status: ('A' for Active; 'I' for Inactive)
ROOT
ATOM      1  C1  BNZ d   1       0.302  -1.321   0.529  0.00  0.00     0.000 A 
ATOM      2  C2  BNZ d   1      -0.371  -2.286   1.229  0.00  0.00     0.000 A 
ATOM      3  C3  BNZ d   1      -1.548  -1.998   1.862  0.00  0.00     0.000 A 
ATOM      4  C4  BNZ d   1      -2.029  -0.738   1.827  0.00  0.00     0.000 A 
ATOM      5  C5  BNZ d   1      -1.356   0.247   1.133  0.00  0.00     0.000 A 
ATOM      6  C6  BNZ d   1      -0.192  -0.055   0.464  0.00  0.00     0.000 A 
ENDROOT
TORSDOF 0
ENDMDL
