MODEL 1
REMARK minimizedAffinity 0.00982740801
REMARK minimizedRMSD -1
REMARK  0 active torsions:
REMARK  status: ('A' for Active; 'I' for Inactive)
ROOT
ATOM      1  C1  BNZ d   1      -0.929   0.436   0.684  0.00  0.00     0.000 A 
ATOM      2  C2  BNZ d   1      -0.482  -0.803   1.062  0.00  0.00     0.000 A 
ATOM      3  C3  BNZ d   1       0.701  -1.295   0.586  0.00  0.00     0.000 A 
ATOM      4  C4  BNZ d   1       1.414  -0.567  -0.297  0.00  0.00     0.000 A 
ATOM      5  C5  BNZ d   1       0.972   0.679  -0.695  0.00  0.00     0.000 A 
ATOM      6  C6  BNZ d   1      -0.199   1.188  -0.183  0.00  0.00     0.000 A 
ENDROOT
TORSDOF 0
ENDMDL
