MODEL 1
REMARK minimizedAffinity -4.41748285
REMARK minimizedRMSD -1
REMARK  0 active torsions:
REMARK  status: ('A' for Active; 'I' for Inactive)
ROOT
ATOM      1  C1  BNZ d   1      -1.437   1.028   1.008  0.00  0.00     0.000 A 
ATOM      2  C2  BNZ d   1      -2.407   0.267   1.604  0.00  0.00     0.000 A 
ATOM      3  C3  BNZ d   1      -2.495  -1.074   1.356  0.00  0.00     0.000 A 
ATOM      4  C4  BNZ d   1      -1.640  -1.645   0.484  0.00  0.00     0.000 A 
ATOM      5  C5  BNZ d   1      -0.662  -0.889  -0.132  0.00  0.00     0.000 A 
ATOM      6  C6  BNZ d   1      -0.552   0.453   0.150  0.00  0.00     0.000 A 
ENDROOT
TORSDOF 0
ENDMDL
