MODEL 1
REMARK minimizedAffinity -3.83179736
REMARK minimizedRMSD -1
REMARK  0 active torsions:
REMARK  status: ('A' for Active; 'I' for Inactive)
ROOT
ATOM      1  C1  BNZ d   1       0.086   0.102   0.172  0.00  0.00     0.000 A 
ATOM      2  C2  BNZ d   1       0.681  -1.109   0.408  0.00  0.00     0.000 A 
ATOM      3  C3  BNZ d   1       0.061  -2.056   1.173  0.00  0.00     0.000 A 
ATOM      4  C4  BNZ d   1      -1.134  -1.778   1.733  0.00  0.00     0.000 A 
ATOM      5  C5  BNZ d   1      -1.743  -0.559   1.512  0.00  0.00     0.000 A 
ATOM      6  C6  BNZ d   1      -1.133   0.378   0.709  0.00  0.00     0.000 A 
ENDROOT
TORSDOF 0
ENDMDL
