MODEL 1
REMARK minimizedAffinity -4.42753887
REMARK minimizedRMSD -1
REMARK  0 active torsions:
REMARK  status: ('A' for Active; 'I' for Inactive)
ROOT
ATOM      1  C1  BNZ d   1      -0.283  -0.521  -0.230  0.00  0.00     0.000 A 
ATOM      2  C2  BNZ d   1      -1.594  -0.874  -0.405  0.00  0.00     0.000 A 
ATOM      3  C3  BNZ d   1      -2.245  -1.635   0.526  0.00  0.00     0.000 A 
ATOM      4  C4  BNZ d   1      -1.573  -2.075   1.609  0.00  0.00     0.000 A 
ATOM      5  C5  BNZ d   1      -0.247  -1.736   1.795  0.00  0.00     0.000 A 
ATOM      6  C6  BNZ d   1       0.393  -0.938   0.876  0.00  0.00     0.000 A 
ENDROOT
TORSDOF 0
ENDMDL
