MODEL 1
REMARK minimizedAffinity -5.01460838
REMARK minimizedRMSD -1
REMARK  0 active torsions:
REMARK  status: ('A' for Active; 'I' for Inactive)
ROOT
ATOM      1  C1  BNZ d   1       0.135  -1.259   0.538  0.00  0.00     0.000 A 
ATOM      2  C2  BNZ d   1      -0.258  -2.386   1.209  0.00  0.00     0.000 A 
ATOM      3  C3  BNZ d   1      -1.527  -2.501   1.702  0.00  0.00     0.000 A 
ATOM      4  C4  BNZ d   1      -2.389  -1.474   1.560  0.00  0.00     0.000 A 
ATOM      5  C5  BNZ d   1      -2.005  -0.326   0.894  0.00  0.00     0.000 A 
ATOM      6  C6  BNZ d   1      -0.739  -0.230   0.365  0.00  0.00     0.000 A 
ENDROOT
TORSDOF 0
ENDMDL
