MODEL 1
REMARK minimizedAffinity -3.3150146
REMARK minimizedRMSD -1
REMARK  0 active torsions:
REMARK  status: ('A' for Active; 'I' for Inactive)
ROOT
ATOM      1  C1  BNZ d   1      -3.069  -1.869   2.065  0.00  0.00     0.000 A 
ATOM      2  C2  BNZ d   1      -2.320  -2.865   1.497  0.00  0.00     0.000 A 
ATOM      3  C3  BNZ d   1      -1.467  -2.597   0.463  0.00  0.00     0.000 A 
ATOM      4  C4  BNZ d   1      -1.393  -1.342  -0.026  0.00  0.00     0.000 A 
ATOM      5  C5  BNZ d   1      -2.148  -0.329   0.530  0.00  0.00     0.000 A 
ATOM      6  C6  BNZ d   1      -2.977  -0.595   1.595  0.00  0.00     0.000 A 
ENDROOT
TORSDOF 0
ENDMDL
