MODEL 1
REMARK minimizedAffinity -5.01806498
REMARK minimizedRMSD -1
REMARK  0 active torsions:
REMARK  status: ('A' for Active; 'I' for Inactive)
ROOT
ATOM      1  C1  BNZ d   1      -1.846   0.368   0.789  0.00  0.00     0.000 A 
ATOM      2  C2  BNZ d   1      -2.471  -0.576   1.558  0.00  0.00     0.000 A 
ATOM      3  C3  BNZ d   1      -2.110  -1.892   1.482  0.00  0.00     0.000 A 
ATOM      4  C4  BNZ d   1      -1.153  -2.268   0.610  0.00  0.00     0.000 A 
ATOM      5  C5  BNZ d   1      -0.519  -1.329  -0.179  0.00  0.00     0.000 A 
ATOM      6  C6  BNZ d   1      -0.858   0.000  -0.072  0.00  0.00     0.000 A 
ENDROOT
TORSDOF 0
ENDMDL
