MODEL 1
REMARK minimizedAffinity -2.5099299
REMARK minimizedRMSD -1
REMARK  0 active torsions:
REMARK  status: ('A' for Active; 'I' for Inactive)
ROOT
ATOM      1  C1  BNZ d   1      -0.828  -1.437   2.024  0.00  0.00     0.000 A 
ATOM      2  C2  BNZ d   1      -1.124  -0.138   1.709  0.00  0.00     0.000 A 
ATOM      3  C3  BNZ d   1      -0.343   0.566   0.836  0.00  0.00     0.000 A 
ATOM      4  C4  BNZ d   1       0.755  -0.016   0.311  0.00  0.00     0.000 A 
ATOM      5  C5  BNZ d   1       1.072  -1.322   0.626  0.00  0.00     0.000 A 
ATOM      6  C6  BNZ d   1       0.261  -2.040   1.475  0.00  0.00     0.000 A 
ENDROOT
TORSDOF 0
ENDMDL
