MODEL 1
REMARK minimizedAffinity -5.10273695
REMARK minimizedRMSD -1
REMARK  0 active torsions:
REMARK  status: ('A' for Active; 'I' for Inactive)
ROOT
ATOM      1  C1  BNZ d   1      -1.521   0.299   1.006  0.00  0.00     0.000 A 
ATOM      2  C2  BNZ d   1      -2.492  -0.069   1.899  0.00  0.00     0.000 A 
ATOM      3  C3  BNZ d   1      -2.684  -1.383   2.221  0.00  0.00     0.000 A 
ATOM      4  C4  BNZ d   1      -1.933  -2.330   1.621  0.00  0.00     0.000 A 
ATOM      5  C5  BNZ d   1      -0.957  -1.975   0.712  0.00  0.00     0.000 A 
ATOM      6  C6  BNZ d   1      -0.740  -0.648   0.419  0.00  0.00     0.000 A 
ENDROOT
TORSDOF 0
ENDMDL
