MODEL 1
REMARK minimizedAffinity -5.55121756
REMARK minimizedRMSD -1
REMARK  0 active torsions:
REMARK  status: ('A' for Active; 'I' for Inactive)
ROOT
ATOM      1  C1  BNZ d   1      -3.076  -1.014   2.064  0.00  0.00     0.000 A 
ATOM      2  C2  BNZ d   1      -2.316  -0.080   1.411  0.00  0.00     0.000 A 
ATOM      3  C3  BNZ d   1      -1.213  -0.453   0.694  0.00  0.00     0.000 A 
ATOM      4  C4  BNZ d   1      -0.850  -1.751   0.664  0.00  0.00     0.000 A 
ATOM      5  C5  BNZ d   1      -1.600  -2.703   1.325  0.00  0.00     0.000 A 
ATOM      6  C6  BNZ d   1      -2.732  -2.329   2.013  0.00  0.00     0.000 A 
ENDROOT
TORSDOF 0
ENDMDL
