MODEL 1
REMARK minimizedAffinity -4.66350937
REMARK minimizedRMSD -1
REMARK  3 active torsions:
REMARK  status: ('A' for Active; 'I' for Inactive)
REMARK    1  A    between atoms: C3'_2  and  C2'_3 
REMARK    2  A    between atoms: C2'_3  and  C1'_4 
REMARK    3  A    between atoms: C1'_4  and  C1_5 
ROOT
ATOM      1  C1  N4B d   1      -0.090   0.534   0.057  0.00  0.00    -0.075 A 
ATOM      2  C2  N4B d   1       0.379   1.717   0.671  0.00  0.00     0.002 A 
ATOM      3  C3  N4B d   1       1.675   1.791   1.119  0.00  0.00     0.002 A 
ATOM      4  C4  N4B d   1       2.511   0.693   0.983  0.00  0.00    -0.004 A 
ATOM      5  C5  N4B d   1       2.059  -0.437   0.367  0.00  0.00     0.002 A 
ATOM      6  C6  N4B d   1       0.760  -0.523  -0.093  0.00  0.00     0.002 A 
ENDROOT
BRANCH   1   7
ATOM      7  C1' N4B d   1      -1.523   0.376  -0.372  0.00  0.00     0.057 C 
BRANCH   7   8
ATOM      8  C2' N4B d   1      -1.569  -0.394  -1.688  0.00  0.00     0.009 C 
BRANCH   8   9
ATOM      9  C3' N4B d   1      -2.729   0.047  -2.564  0.00  0.00     0.004 C 
ATOM     10  C4' N4B d   1      -2.364   0.124  -4.016  0.00  0.00     0.003 C 
ENDBRANCH   8   9
ENDBRANCH   7   8
ENDBRANCH   1   7
TORSDOF 3
ENDMDL
