MODEL 1
REMARK minimizedAffinity -2.51371503
REMARK minimizedRMSD -1
REMARK  1 active torsions:
REMARK  status: ('A' for Active; 'I' for Inactive)
REMARK    1  A    between atoms: C3_4  and  O_7 
ROOT
ATOM      1  C   UNL d   1      -4.077   1.085   1.219  0.00  0.00    -0.033 A 
ATOM      2  C1  UNL d   1      -2.971   1.332   2.035  0.00  0.00     0.039 A 
ATOM      3  C2  UNL d   1      -1.679   1.217   1.518  0.00  0.00    -0.080 A 
ATOM      4  C3  UNL d   1      -1.507   0.856   0.184  0.00  0.00     0.150 A 
ATOM      5  C4  UNL d   1      -2.604   0.612  -0.636  0.00  0.00    -0.007 A 
ATOM      6  C5  UNL d   1      -3.893   0.726  -0.117  0.00  0.00     0.039 A 
ENDROOT
BRANCH   4   7
ATOM      7  O   UNL d   1      -0.266   0.727  -0.364  0.00  0.00    -0.526 OA
ATOM      8  H5  UNL d   1       0.396   0.898   0.327  0.00  0.00     0.418 HD
ENDBRANCH   4   7
TORSDOF 1
ENDMDL
