MODEL 1
REMARK minimizedAffinity -4.98994732
REMARK minimizedRMSD -1
REMARK  1 active torsions:
REMARK  status: ('A' for Active; 'I' for Inactive)
REMARK    1  A    between atoms: C3_4  and  O_7 
ROOT
ATOM      1  C   UNL d   1       2.765  -1.187   0.342  0.00  0.00    -0.033 A 
ATOM      2  C1  UNL d   1       1.737  -2.054  -0.032  0.00  0.00     0.039 A 
ATOM      3  C2  UNL d   1       0.435  -1.573  -0.185  0.00  0.00    -0.080 A 
ATOM      4  C3  UNL d   1       0.176  -0.223   0.038  0.00  0.00     0.150 A 
ATOM      5  C4  UNL d   1       1.196   0.647   0.407  0.00  0.00    -0.007 A 
ATOM      6  C5  UNL d   1       2.495   0.164   0.560  0.00  0.00     0.039 A 
ENDROOT
BRANCH   4   7
ATOM      7  O   UNL d   1      -1.080   0.292  -0.094  0.00  0.00    -0.526 OA
ATOM      8  H5  UNL d   1      -1.686  -0.431  -0.325  0.00  0.00     0.418 HD
ENDBRANCH   4   7
TORSDOF 1
ENDMDL
