MODEL 1
REMARK minimizedAffinity -0.969221771
REMARK minimizedRMSD -1
REMARK  1 active torsions:
REMARK  status: ('A' for Active; 'I' for Inactive)
REMARK    1  A    between atoms: C3_4  and  O_7 
ROOT
ATOM      1  C   UNL d   1      -0.492   0.935  -0.390  0.00  0.00    -0.033 A 
ATOM      2  C1  UNL d   1       0.756   1.288   0.127  0.00  0.00     0.039 A 
ATOM      3  C2  UNL d   1       1.756   0.323   0.262  0.00  0.00    -0.080 A 
ATOM      4  C3  UNL d   1       1.496  -0.989  -0.124  0.00  0.00     0.150 A 
ATOM      5  C4  UNL d   1       0.257  -1.347  -0.644  0.00  0.00    -0.007 A 
ATOM      6  C5  UNL d   1      -0.741  -0.382  -0.777  0.00  0.00     0.039 A 
ENDROOT
BRANCH   4   7
ATOM      7  O   UNL d   1       2.440  -1.966  -0.007  0.00  0.00    -0.526 OA
ATOM      8  H5  UNL d   1       3.236  -1.579   0.393  0.00  0.00     0.418 HD
ENDBRANCH   4   7
TORSDOF 1
ENDMDL
