MODEL 1
REMARK minimizedAffinity -4.06368637
REMARK minimizedRMSD -1
REMARK  1 active torsions:
REMARK  status: ('A' for Active; 'I' for Inactive)
REMARK    1  A    between atoms: C3_4  and  O_7 
ROOT
ATOM      1  C   UNL d   1      -0.851   0.405  -0.416  0.00  0.00    -0.033 A 
ATOM      2  C1  UNL d   1       0.015   0.845   0.586  0.00  0.00     0.039 A 
ATOM      3  C2  UNL d   1       1.165   0.113   0.889  0.00  0.00    -0.080 A 
ATOM      4  C3  UNL d   1       1.437  -1.055   0.182  0.00  0.00     0.150 A 
ATOM      5  C4  UNL d   1       0.580  -1.497  -0.821  0.00  0.00    -0.007 A 
ATOM      6  C5  UNL d   1      -0.568  -0.766  -1.121  0.00  0.00     0.039 A 
ENDROOT
BRANCH   4   7
ATOM      7  O   UNL d   1       2.544  -1.805   0.445  0.00  0.00    -0.526 OA
ATOM      8  H5  UNL d   1       3.028  -1.394   1.181  0.00  0.00     0.418 HD
ENDBRANCH   4   7
TORSDOF 1
ENDMDL
