MODEL 1
REMARK minimizedAffinity -5.28616285
REMARK minimizedRMSD -1
REMARK  1 active torsions:
REMARK  status: ('A' for Active; 'I' for Inactive)
REMARK    1  A    between atoms: C3_4  and  O_7 
ROOT
ATOM      1  C   UNL d   1       0.471   1.127  -0.194  0.00  0.00    -0.033 A 
ATOM      2  C1  UNL d   1      -0.029  -0.168  -0.338  0.00  0.00     0.039 A 
ATOM      3  C2  UNL d   1       0.722  -1.261   0.098  0.00  0.00    -0.080 A 
ATOM      4  C3  UNL d   1       1.970  -1.045   0.677  0.00  0.00     0.150 A 
ATOM      5  C4  UNL d   1       2.473   0.243   0.827  0.00  0.00    -0.007 A 
ATOM      6  C5  UNL d   1       1.721   1.333   0.390  0.00  0.00     0.039 A 
ENDROOT
BRANCH   4   7
ATOM      7  O   UNL d   1       2.742  -2.081   1.113  0.00  0.00    -0.526 OA
ATOM      8  H5  UNL d   1       2.279  -2.913   0.918  0.00  0.00     0.418 HD
ENDBRANCH   4   7
TORSDOF 1
ENDMDL
