MODEL 1
REMARK minimizedAffinity -1.03163731
REMARK minimizedRMSD -1
REMARK  1 active torsions:
REMARK  status: ('A' for Active; 'I' for Inactive)
REMARK    1  A    between atoms: C3_4  and  O_7 
ROOT
ATOM      1  C   UNL d   1       4.593   0.438  -2.448  0.00  0.00    -0.033 A 
ATOM      2  C1  UNL d   1       4.161  -0.775  -2.989  0.00  0.00     0.039 A 
ATOM      3  C2  UNL d   1       3.553  -1.729  -2.170  0.00  0.00    -0.080 A 
ATOM      4  C3  UNL d   1       3.384  -1.459  -0.815  0.00  0.00     0.150 A 
ATOM      5  C4  UNL d   1       3.809  -0.251  -0.271  0.00  0.00    -0.007 A 
ATOM      6  C5  UNL d   1       4.416   0.700  -1.090  0.00  0.00     0.039 A 
ENDROOT
BRANCH   4   7
ATOM      7  O   UNL d   1       2.801  -2.361   0.024  0.00  0.00    -0.526 OA
ATOM      8  H5  UNL d   1       2.585  -3.160  -0.485  0.00  0.00     0.418 HD
ENDBRANCH   4   7
TORSDOF 1
ENDMDL
