MODEL 1
REMARK minimizedAffinity -3.59250784
REMARK minimizedRMSD -1
REMARK  1 active torsions:
REMARK  status: ('A' for Active; 'I' for Inactive)
REMARK    1  A    between atoms: C3_4  and  O_7 
ROOT
ATOM      1  C   UNL d   1       1.429  -1.733  -0.443  0.00  0.00    -0.033 A 
ATOM      2  C1  UNL d   1       0.387  -0.805  -0.393  0.00  0.00     0.039 A 
ATOM      3  C2  UNL d   1       0.669   0.562  -0.357  0.00  0.00    -0.080 A 
ATOM      4  C3  UNL d   1       1.994   0.987  -0.371  0.00  0.00     0.150 A 
ATOM      5  C4  UNL d   1       3.037   0.068  -0.425  0.00  0.00    -0.007 A 
ATOM      6  C5  UNL d   1       2.754  -1.296  -0.461  0.00  0.00     0.039 A 
ENDROOT
BRANCH   4   7
ATOM      7  O   UNL d   1       2.318   2.311  -0.332  0.00  0.00    -0.526 OA
ATOM      8  H5  UNL d   1       1.497   2.827  -0.268  0.00  0.00     0.418 HD
ENDBRANCH   4   7
TORSDOF 1
ENDMDL
