MODEL 1
REMARK minimizedAffinity -4.28617954
REMARK minimizedRMSD -1
REMARK  1 active torsions:
REMARK  status: ('A' for Active; 'I' for Inactive)
REMARK    1  A    between atoms: C3_4  and  O_7 
ROOT
ATOM      1  C   UNL d   1      -0.091   0.452  -0.282  0.00  0.00    -0.033 A 
ATOM      2  C1  UNL d   1      -0.296  -0.922  -0.414  0.00  0.00     0.039 A 
ATOM      3  C2  UNL d   1       0.725  -1.817  -0.088  0.00  0.00    -0.080 A 
ATOM      4  C3  UNL d   1       1.945  -1.325   0.369  0.00  0.00     0.150 A 
ATOM      5  C4  UNL d   1       2.155   0.044   0.506  0.00  0.00    -0.007 A 
ATOM      6  C5  UNL d   1       1.134   0.935   0.179  0.00  0.00     0.039 A 
ENDROOT
BRANCH   4   7
ATOM      7  O   UNL d   1       2.973  -2.158   0.695  0.00  0.00    -0.526 OA
ATOM      8  H5  UNL d   1       2.694  -3.073   0.523  0.00  0.00     0.418 HD
ENDBRANCH   4   7
TORSDOF 1
ENDMDL
