MODEL 1
REMARK minimizedAffinity 2.16884446
REMARK minimizedRMSD -1
REMARK  1 active torsions:
REMARK  status: ('A' for Active; 'I' for Inactive)
REMARK    1  A    between atoms: C3_4  and  O_7 
ROOT
ATOM      1  C   UNL d   1      -0.559  -1.523  -0.571  0.00  0.00    -0.033 A 
ATOM      2  C1  UNL d   1       0.118  -2.721  -0.334  0.00  0.00     0.039 A 
ATOM      3  C2  UNL d   1       1.512  -2.737  -0.272  0.00  0.00    -0.080 A 
ATOM      4  C3  UNL d   1       2.217  -1.549  -0.447  0.00  0.00     0.150 A 
ATOM      5  C4  UNL d   1       1.549  -0.351  -0.680  0.00  0.00    -0.007 A 
ATOM      6  C5  UNL d   1       0.157  -0.338  -0.743  0.00  0.00     0.039 A 
ENDROOT
BRANCH   4   7
ATOM      7  O   UNL d   1       3.579  -1.515  -0.399  0.00  0.00    -0.526 OA
ATOM      8  H5  UNL d   1       3.905  -2.420  -0.260  0.00  0.00     0.418 HD
ENDBRANCH   4   7
TORSDOF 1
ENDMDL
