MODEL 1
REMARK minimizedAffinity 1.93309426
REMARK minimizedRMSD -1
REMARK  1 active torsions:
REMARK  status: ('A' for Active; 'I' for Inactive)
REMARK    1  A    between atoms: C3_4  and  O_7 
ROOT
ATOM      1  C   UNL d   1      -0.785  -3.630  -1.500  0.00  0.00    -0.033 A 
ATOM      2  C1  UNL d   1      -0.391  -2.403  -2.035  0.00  0.00     0.039 A 
ATOM      3  C2  UNL d   1       0.793  -1.799  -1.607  0.00  0.00    -0.080 A 
ATOM      4  C3  UNL d   1       1.573  -2.433  -0.645  0.00  0.00     0.150 A 
ATOM      5  C4  UNL d   1       1.190  -3.658  -0.109  0.00  0.00    -0.007 A 
ATOM      6  C5  UNL d   1       0.007  -4.259  -0.538  0.00  0.00     0.039 A 
ENDROOT
BRANCH   4   7
ATOM      7  O   UNL d   1       2.735  -1.881  -0.192  0.00  0.00    -0.526 OA
ATOM      8  H5  UNL d   1       2.858  -1.022  -0.629  0.00  0.00     0.418 HD
ENDBRANCH   4   7
TORSDOF 1
ENDMDL
