MODEL 1
REMARK minimizedAffinity 0.0925150141
REMARK minimizedRMSD -1
REMARK  0 active torsions:
REMARK  status: ('A' for Active; 'I' for Inactive)
ROOT
ATOM      1  C2' OXE d   1      -0.151  -2.367   0.882  0.00  0.00     0.078 C 
ATOM      2  C1' OXE d   1      -1.705  -0.107   1.481  0.00  0.00     0.078 C 
ATOM      3  C1  OXE d   1      -0.828  -0.053   0.255  0.00  0.00    -0.078 A 
ATOM      4  C2  OXE d   1      -0.036  -1.146  -0.005  0.00  0.00    -0.078 A 
ATOM      5  C3  OXE d   1       0.751  -1.170  -1.153  0.00  0.00     0.003 A 
ATOM      6  C4  OXE d   1       0.859  -0.033  -1.962  0.00  0.00    -0.002 A 
ATOM      7  C5  OXE d   1       0.091   1.105  -1.693  0.00  0.00    -0.002 A 
ATOM      8  C6  OXE d   1      -0.788   1.096  -0.616  0.00  0.00     0.003 A 
ENDROOT
TORSDOF 0
ENDMDL
