MODEL 1
REMARK minimizedAffinity -2.63034391
REMARK minimizedRMSD -1
REMARK  0 active torsions:
REMARK  status: ('A' for Active; 'I' for Inactive)
ROOT
ATOM      1  C2' OXE d   1      -1.207  -0.032   1.514  0.00  0.00     0.078 C 
ATOM      2  C1' OXE d   1      -0.044  -2.404   0.565  0.00  0.00     0.078 C 
ATOM      3  C1  OXE d   1       0.413  -1.103  -0.046  0.00  0.00    -0.078 A 
ATOM      4  C2  OXE d   1      -0.195   0.049   0.391  0.00  0.00    -0.078 A 
ATOM      5  C3  OXE d   1       0.227   1.281  -0.100  0.00  0.00     0.003 A 
ATOM      6  C4  OXE d   1       1.157   1.347  -1.145  0.00  0.00    -0.002 A 
ATOM      7  C5  OXE d   1       1.759   0.182  -1.633  0.00  0.00    -0.002 A 
ATOM      8  C6  OXE d   1       1.430  -1.044  -1.066  0.00  0.00     0.003 A 
ENDROOT
TORSDOF 0
ENDMDL
