MODEL 1
REMARK minimizedAffinity -4.24378967
REMARK minimizedRMSD -1
REMARK  0 active torsions:
REMARK  status: ('A' for Active; 'I' for Inactive)
ROOT
ATOM      1  C2' OXE d   1      -0.206   0.009   0.103  0.00  0.00     0.078 C 
ATOM      2  C1' OXE d   1       1.301   1.237  -1.922  0.00  0.00     0.078 C 
ATOM      3  C1  OXE d   1       1.290  -0.270  -1.869  0.00  0.00    -0.078 A 
ATOM      4  C2  OXE d   1       0.588  -0.862  -0.847  0.00  0.00    -0.078 A 
ATOM      5  C3  OXE d   1       0.500  -2.250  -0.784  0.00  0.00     0.003 A 
ATOM      6  C4  OXE d   1       1.246  -3.048  -1.660  0.00  0.00    -0.002 A 
ATOM      7  C5  OXE d   1       2.000  -2.464  -2.684  0.00  0.00    -0.002 A 
ATOM      8  C6  OXE d   1       1.999  -1.081  -2.828  0.00  0.00     0.003 A 
ENDROOT
TORSDOF 0
ENDMDL
