MODEL 1
REMARK minimizedAffinity -4.00863647
REMARK minimizedRMSD -1
REMARK  0 active torsions:
REMARK  status: ('A' for Active; 'I' for Inactive)
ROOT
ATOM      1  C2' OXE d   1       1.140   1.249  -1.798  0.00  0.00     0.078 C 
ATOM      2  C1' OXE d   1      -0.582  -0.353  -0.268  0.00  0.00     0.078 C 
ATOM      3  C1  OXE d   1       0.473  -1.045  -1.094  0.00  0.00    -0.078 A 
ATOM      4  C2  OXE d   1       1.281  -0.256  -1.876  0.00  0.00    -0.078 A 
ATOM      5  C3  OXE d   1       2.307  -0.838  -2.615  0.00  0.00     0.003 A 
ATOM      6  C4  OXE d   1       2.424  -2.231  -2.690  0.00  0.00    -0.002 A 
ATOM      7  C5  OXE d   1       1.585  -3.056  -1.932  0.00  0.00    -0.002 A 
ATOM      8  C6  OXE d   1       0.634  -2.478  -1.098  0.00  0.00     0.003 A 
ENDROOT
TORSDOF 0
ENDMDL
