MODEL 1
REMARK minimizedAffinity -1.20446944
REMARK minimizedRMSD -1
REMARK  0 active torsions:
REMARK  status: ('A' for Active; 'I' for Inactive)
ROOT
ATOM      1  C2' OXE d   1      -3.710  -0.656   1.382  0.00  0.00     0.078 C 
ATOM      2  C1' OXE d   1      -3.240   2.091   1.722  0.00  0.00     0.078 C 
ATOM      3  C1  OXE d   1      -2.153   1.265   1.082  0.00  0.00    -0.078 A 
ATOM      4  C2  OXE d   1      -2.373  -0.086   0.962  0.00  0.00    -0.078 A 
ATOM      5  C3  OXE d   1      -1.425  -0.885   0.329  0.00  0.00     0.003 A 
ATOM      6  C4  OXE d   1      -0.186  -0.353  -0.048  0.00  0.00    -0.002 A 
ATOM      7  C5  OXE d   1       0.074   1.014   0.102  0.00  0.00    -0.002 A 
ATOM      8  C6  OXE d   1      -0.913   1.842   0.625  0.00  0.00     0.003 A 
ENDROOT
TORSDOF 0
ENDMDL
