MODEL 1
REMARK minimizedAffinity -3.75151324
REMARK minimizedRMSD -1
REMARK  0 active torsions:
REMARK  status: ('A' for Active; 'I' for Inactive)
ROOT
ATOM      1  C2' OXE d   1      -0.507  -2.442  -1.554  0.00  0.00     0.078 C 
ATOM      2  C1' OXE d   1      -0.575  -1.021   0.866  0.00  0.00     0.078 C 
ATOM      3  C1  OXE d   1       0.269  -0.464  -0.253  0.00  0.00    -0.078 A 
ATOM      4  C2  OXE d   1       0.334  -1.191  -1.418  0.00  0.00    -0.078 A 
ATOM      5  C3  OXE d   1       1.054  -0.696  -2.501  0.00  0.00     0.003 A 
ATOM      6  C4  OXE d   1       1.837   0.457  -2.364  0.00  0.00    -0.002 A 
ATOM      7  C5  OXE d   1       1.817   1.191  -1.173  0.00  0.00    -0.002 A 
ATOM      8  C6  OXE d   1       1.007   0.768  -0.125  0.00  0.00     0.003 A 
ENDROOT
TORSDOF 0
ENDMDL
