MODEL 1
REMARK minimizedAffinity -5.31924105
REMARK minimizedRMSD -1
REMARK  0 active torsions:
REMARK  status: ('A' for Active; 'I' for Inactive)
ROOT
ATOM      1  C2' OXE d   1      -0.951   0.203   0.905  0.00  0.00     0.078 C 
ATOM      2  C1' OXE d   1       1.370   1.781   0.924  0.00  0.00     0.078 C 
ATOM      3  C1  OXE d   1       1.109   0.929  -0.292  0.00  0.00    -0.078 A 
ATOM      4  C2  OXE d   1      -0.005   0.124  -0.273  0.00  0.00    -0.078 A 
ATOM      5  C3  OXE d   1      -0.322  -0.641  -1.392  0.00  0.00     0.003 A 
ATOM      6  C4  OXE d   1       0.564  -0.716  -2.473  0.00  0.00    -0.002 A 
ATOM      7  C5  OXE d   1       1.725   0.065  -2.496  0.00  0.00    -0.002 A 
ATOM      8  C6  OXE d   1       1.989   0.923  -1.434  0.00  0.00     0.003 A 
ENDROOT
TORSDOF 0
ENDMDL
