MODEL 1
REMARK minimizedAffinity -0.727381051
REMARK minimizedRMSD -1
REMARK  0 active torsions:
REMARK  status: ('A' for Active; 'I' for Inactive)
ROOT
ATOM      1  C2' OXE d   1      -0.324  -0.271   1.451  0.00  0.00     0.078 C 
ATOM      2  C1' OXE d   1       0.719  -2.191  -0.311  0.00  0.00     0.078 C 
ATOM      3  C1  OXE d   1       0.749  -0.747  -0.746  0.00  0.00    -0.078 A 
ATOM      4  C2  OXE d   1       0.194   0.180   0.103  0.00  0.00    -0.078 A 
ATOM      5  C3  OXE d   1       0.245   1.532  -0.225  0.00  0.00     0.003 A 
ATOM      6  C4  OXE d   1       0.716   1.940  -1.479  0.00  0.00    -0.002 A 
ATOM      7  C5  OXE d   1       1.250   1.008  -2.375  0.00  0.00    -0.002 A 
ATOM      8  C6  OXE d   1       1.313  -0.332  -2.007  0.00  0.00     0.003 A 
ENDROOT
TORSDOF 0
ENDMDL
