MODEL 1
REMARK minimizedAffinity -2.18540573
REMARK minimizedRMSD -1
REMARK  0 active torsions:
REMARK  status: ('A' for Active; 'I' for Inactive)
ROOT
ATOM      1  C2' OXE d   1       0.722  -2.388  -0.888  0.00  0.00     0.078 C 
ATOM      2  C1' OXE d   1       2.008  -0.108  -1.900  0.00  0.00     0.078 C 
ATOM      3  C1  OXE d   1       0.889   0.097  -0.910  0.00  0.00    -0.078 A 
ATOM      4  C2  OXE d   1       0.234  -1.022  -0.455  0.00  0.00    -0.078 A 
ATOM      5  C3  OXE d   1      -0.769  -0.893   0.500  0.00  0.00     0.003 A 
ATOM      6  C4  OXE d   1      -1.221   0.374   0.888  0.00  0.00    -0.002 A 
ATOM      7  C5  OXE d   1      -0.594   1.528   0.407  0.00  0.00    -0.002 A 
ATOM      8  C6  OXE d   1       0.488   1.406  -0.458  0.00  0.00     0.003 A 
ENDROOT
TORSDOF 0
ENDMDL
