MODEL 1
REMARK minimizedAffinity -3.88713431
REMARK minimizedRMSD -1
REMARK  0 active torsions:
REMARK  status: ('A' for Active; 'I' for Inactive)
ROOT
ATOM      1  C2' OXE d   1       0.516   1.578  -0.130  0.00  0.00     0.078 C 
ATOM      2  C1' OXE d   1      -0.874  -0.719   0.688  0.00  0.00     0.078 C 
ATOM      3  C1  OXE d   1       0.098  -0.855  -0.458  0.00  0.00    -0.078 A 
ATOM      4  C2  OXE d   1       0.739   0.284  -0.882  0.00  0.00    -0.078 A 
ATOM      5  C3  OXE d   1       1.686   0.204  -1.898  0.00  0.00     0.003 A 
ATOM      6  C4  OXE d   1       1.879  -0.995  -2.595  0.00  0.00    -0.002 A 
ATOM      7  C5  OXE d   1       1.207  -2.159  -2.206  0.00  0.00    -0.002 A 
ATOM      8  C6  OXE d   1       0.346  -2.115  -1.114  0.00  0.00     0.003 A 
ENDROOT
TORSDOF 0
ENDMDL
