MODEL 1
REMARK minimizedAffinity -3.16870761
REMARK minimizedRMSD -1
REMARK  0 active torsions:
REMARK  status: ('A' for Active; 'I' for Inactive)
ROOT
ATOM      1  C2' OXE d   1      -0.587  -0.210   0.383  0.00  0.00     0.078 C 
ATOM      2  C1' OXE d   1       1.143   1.987   0.624  0.00  0.00     0.078 C 
ATOM      3  C1  OXE d   1       1.291   1.105  -0.590  0.00  0.00    -0.078 A 
ATOM      4  C2  OXE d   1       0.472   0.006  -0.677  0.00  0.00    -0.078 A 
ATOM      5  C3  OXE d   1       0.530  -0.810  -1.803  0.00  0.00     0.003 A 
ATOM      6  C4  OXE d   1       1.519  -0.609  -2.774  0.00  0.00    -0.002 A 
ATOM      7  C5  OXE d   1       2.390   0.482  -2.685  0.00  0.00    -0.002 A 
ATOM      8  C6  OXE d   1       2.261   1.371  -1.623  0.00  0.00     0.003 A 
ENDROOT
TORSDOF 0
ENDMDL
