MODEL 1
REMARK minimizedAffinity -6.27497196
REMARK minimizedRMSD -1
REMARK  0 active torsions:
REMARK  status: ('A' for Active; 'I' for Inactive)
ROOT
ATOM      1  C2' OXE d   1       0.207  -2.998  -1.450  0.00  0.00     0.078 C 
ATOM      2  C1' OXE d   1       0.864  -0.534  -2.623  0.00  0.00     0.078 C 
ATOM      3  C1  OXE d   1       0.455  -0.536  -1.171  0.00  0.00    -0.078 A 
ATOM      4  C2  OXE d   1       0.090  -1.740  -0.618  0.00  0.00    -0.078 A 
ATOM      5  C3  OXE d   1      -0.242  -1.806   0.732  0.00  0.00     0.003 A 
ATOM      6  C4  OXE d   1      -0.357  -0.636   1.492  0.00  0.00    -0.002 A 
ATOM      7  C5  OXE d   1      -0.028   0.606   0.938  0.00  0.00    -0.002 A 
ATOM      8  C6  OXE d   1       0.419   0.668  -0.377  0.00  0.00     0.003 A 
ENDROOT
TORSDOF 0
ENDMDL
