MODEL 1
REMARK minimizedAffinity -2.78683519
REMARK minimizedRMSD -1
REMARK  0 active torsions:
REMARK  status: ('A' for Active; 'I' for Inactive)
ROOT
ATOM      1  C2' OXE d   1       1.704   0.645  -1.803  0.00  0.00     0.078 C 
ATOM      2  C1' OXE d   1       1.009   2.373   0.297  0.00  0.00     0.078 C 
ATOM      3  C1  OXE d   1       0.185   1.123   0.113  0.00  0.00    -0.078 A 
ATOM      4  C2  OXE d   1       0.503   0.307  -0.946  0.00  0.00    -0.078 A 
ATOM      5  C3  OXE d   1      -0.190  -0.886  -1.128  0.00  0.00     0.003 A 
ATOM      6  C4  OXE d   1      -1.305  -1.186  -0.337  0.00  0.00    -0.002 A 
ATOM      7  C5  OXE d   1      -1.671  -0.348   0.722  0.00  0.00    -0.002 A 
ATOM      8  C6  OXE d   1      -0.912   0.786   0.986  0.00  0.00     0.003 A 
ENDROOT
TORSDOF 0
ENDMDL
