MODEL 1
REMARK minimizedAffinity -2.86546016
REMARK minimizedRMSD -1
REMARK  0 active torsions:
REMARK  status: ('A' for Active; 'I' for Inactive)
ROOT
ATOM      1  C2' OXE d   1      -0.131   0.158   0.150  0.00  0.00     0.078 C 
ATOM      2  C1' OXE d   1      -0.528  -1.866   2.054  0.00  0.00     0.078 C 
ATOM      3  C1  OXE d   1      -1.692  -0.961   1.736  0.00  0.00    -0.078 A 
ATOM      4  C2  OXE d   1      -1.475   0.056   0.837  0.00  0.00    -0.078 A 
ATOM      5  C3  OXE d   1      -2.530   0.886   0.468  0.00  0.00     0.003 A 
ATOM      6  C4  OXE d   1      -3.767   0.791   1.116  0.00  0.00    -0.002 A 
ATOM      7  C5  OXE d   1      -3.998  -0.213   2.063  0.00  0.00    -0.002 A 
ATOM      8  C6  OXE d   1      -2.986  -1.122   2.352  0.00  0.00     0.003 A 
ENDROOT
TORSDOF 0
ENDMDL
