MODEL 1
REMARK minimizedAffinity -3.22341466
REMARK minimizedRMSD -1
REMARK  0 active torsions:
REMARK  status: ('A' for Active; 'I' for Inactive)
ROOT
ATOM      1  C2' OXE d   1       0.880   2.108   0.476  0.00  0.00     0.078 C 
ATOM      2  C1' OXE d   1      -0.519  -0.214   1.207  0.00  0.00     0.078 C 
ATOM      3  C1  OXE d   1       0.209  -0.218  -0.114  0.00  0.00    -0.078 A 
ATOM      4  C2  OXE d   1       0.852   0.939  -0.485  0.00  0.00    -0.078 A 
ATOM      5  C3  OXE d   1       1.585   0.971  -1.668  0.00  0.00     0.003 A 
ATOM      6  C4  OXE d   1       1.547  -0.111  -2.555  0.00  0.00    -0.002 A 
ATOM      7  C5  OXE d   1       0.865  -1.284  -2.215  0.00  0.00    -0.002 A 
ATOM      8  C6  OXE d   1       0.228  -1.369  -0.982  0.00  0.00     0.003 A 
ENDROOT
TORSDOF 0
ENDMDL
