MODEL 1
REMARK minimizedAffinity -4.11813259
REMARK minimizedRMSD -1
REMARK  1 active torsions:
REMARK  status: ('A' for Active; 'I' for Inactive)
REMARK    1  A    between atoms: C1_2  and  C2_3 
ROOT
ATOM      1  C2  UNL d   1       0.190  -0.901   0.092  0.00  0.00    -0.073 A 
ATOM      2  C3  UNL d   1       1.276  -0.024  -0.000  0.00  0.00    -0.002 A 
ATOM      3  C4  UNL d   1       2.239  -0.196  -0.996  0.00  0.00     0.004 A 
ATOM      4  C5  UNL d   1       2.122  -1.242  -1.912  0.00  0.00    -0.004 A 
ATOM      5  C6  UNL d   1       1.037  -2.122  -1.843  0.00  0.00    -0.075 A 
ATOM      6  C7  UNL d   1       0.898  -3.253  -2.819  0.00  0.00     0.076 C 
ATOM      7  C8  UNL d   1       0.076  -1.943  -0.839  0.00  0.00     0.001 A 
ENDROOT
BRANCH   1   8
ATOM      8  C1  UNL d   1      -0.856  -0.715   1.161  0.00  0.00     0.053 C 
ATOM      9  C   UNL d   1      -1.468   0.677   1.124  0.00  0.00     0.018 C 
ENDBRANCH   1   8
TORSDOF 1
ENDMDL
