MODEL 1
REMARK minimizedAffinity -2.32346678
REMARK minimizedRMSD -1
REMARK  1 active torsions:
REMARK  status: ('A' for Active; 'I' for Inactive)
REMARK    1  A    between atoms: C1_2  and  C2_3 
ROOT
ATOM      1  C2  UNL d   1       1.878  -1.053  -0.481  0.00  0.00    -0.073 A 
ATOM      2  C3  UNL d   1       1.325  -2.303  -0.182  0.00  0.00    -0.002 A 
ATOM      3  C4  UNL d   1       0.016  -2.400   0.290  0.00  0.00     0.004 A 
ATOM      4  C5  UNL d   1      -0.756  -1.251   0.461  0.00  0.00    -0.004 A 
ATOM      5  C6  UNL d   1      -0.225   0.007   0.157  0.00  0.00    -0.075 A 
ATOM      6  C7  UNL d   1      -1.042   1.253   0.338  0.00  0.00     0.076 C 
ATOM      7  C8  UNL d   1       1.092   0.096  -0.314  0.00  0.00     0.001 A 
ENDROOT
BRANCH   1   8
ATOM      8  C1  UNL d   1       3.290  -0.943  -0.997  0.00  0.00     0.053 C 
ATOM      9  C   UNL d   1       3.522  -1.827  -2.212  0.00  0.00     0.018 C 
ENDBRANCH   1   8
TORSDOF 1
ENDMDL
