MODEL 1
REMARK minimizedAffinity -3.49117923
REMARK minimizedRMSD -1
REMARK  1 active torsions:
REMARK  status: ('A' for Active; 'I' for Inactive)
REMARK    1  A    between atoms: C1_2  and  C2_3 
ROOT
ATOM      1  C2  UNL d   1      -0.829   0.422   0.281  0.00  0.00    -0.073 A 
ATOM      2  C3  UNL d   1      -0.867   1.639  -0.410  0.00  0.00    -0.002 A 
ATOM      3  C4  UNL d   1       0.216   2.036  -1.195  0.00  0.00     0.004 A 
ATOM      4  C5  UNL d   1       1.342   1.221  -1.304  0.00  0.00    -0.004 A 
ATOM      5  C6  UNL d   1       1.393  -0.004  -0.630  0.00  0.00    -0.075 A 
ATOM      6  C7  UNL d   1       2.598  -0.892  -0.734  0.00  0.00     0.076 C 
ATOM      7  C8  UNL d   1       0.303  -0.395   0.159  0.00  0.00     0.001 A 
ENDROOT
BRANCH   1   8
ATOM      8  C1  UNL d   1      -1.999  -0.015   1.125  0.00  0.00     0.053 C 
ATOM      9  C   UNL d   1      -2.001   0.659   2.488  0.00  0.00     0.018 C 
ENDBRANCH   1   8
TORSDOF 1
ENDMDL
