MODEL 1
REMARK minimizedAffinity -1.47247207
REMARK minimizedRMSD -1
REMARK  1 active torsions:
REMARK  status: ('A' for Active; 'I' for Inactive)
REMARK    1  A    between atoms: C1_2  and  C2_3 
ROOT
ATOM      1  C2  UNL d   1       1.567  -0.295  -0.623  0.00  0.00    -0.073 A 
ATOM      2  C3  UNL d   1       0.631  -1.047   0.095  0.00  0.00    -0.002 A 
ATOM      3  C4  UNL d   1      -0.680  -0.590   0.238  0.00  0.00     0.004 A 
ATOM      4  C5  UNL d   1      -1.069   0.618  -0.340  0.00  0.00    -0.004 A 
ATOM      5  C6  UNL d   1      -0.151   1.378  -1.072  0.00  0.00    -0.075 A 
ATOM      6  C7  UNL d   1      -0.554   2.681  -1.699  0.00  0.00     0.076 C 
ATOM      7  C8  UNL d   1       1.164   0.914  -1.209  0.00  0.00     0.001 A 
ENDROOT
BRANCH   1   8
ATOM      8  C1  UNL d   1       2.982  -0.787  -0.786  0.00  0.00     0.053 C 
ATOM      9  C   UNL d   1       3.406  -0.831  -2.245  0.00  0.00     0.018 C 
ENDBRANCH   1   8
TORSDOF 1
ENDMDL
