MODEL 1
REMARK minimizedAffinity -2.21393967
REMARK minimizedRMSD -1
REMARK  1 active torsions:
REMARK  status: ('A' for Active; 'I' for Inactive)
REMARK    1  A    between atoms: C1_2  and  C2_3 
ROOT
ATOM      1  C2  UNL d   1      -0.290   0.005   0.270  0.00  0.00    -0.073 A 
ATOM      2  C3  UNL d   1      -0.691  -1.318   0.051  0.00  0.00    -0.002 A 
ATOM      3  C4  UNL d   1       0.218  -2.259  -0.433  0.00  0.00     0.004 A 
ATOM      4  C5  UNL d   1       1.537  -1.890  -0.697  0.00  0.00    -0.004 A 
ATOM      5  C6  UNL d   1       1.960  -0.575  -0.473  0.00  0.00    -0.075 A 
ATOM      6  C7  UNL d   1       3.375  -0.162  -0.753  0.00  0.00     0.076 C 
ATOM      7  C8  UNL d   1       1.040   0.365   0.011  0.00  0.00     0.001 A 
ENDROOT
BRANCH   1   8
ATOM      8  C1  UNL d   1      -1.267   1.023   0.800  0.00  0.00     0.053 C 
ATOM      9  C   UNL d   1      -1.704   0.709   2.222  0.00  0.00     0.018 C 
ENDBRANCH   1   8
TORSDOF 1
ENDMDL
