MODEL 1
REMARK minimizedAffinity -2.68760991
REMARK minimizedRMSD -1
REMARK  1 active torsions:
REMARK  status: ('A' for Active; 'I' for Inactive)
REMARK    1  A    between atoms: C1_2  and  C2_3 
ROOT
ATOM      1  C2  UNL d   1      -1.040   0.209   0.721  0.00  0.00    -0.073 A 
ATOM      2  C3  UNL d   1      -0.969  -1.146   0.379  0.00  0.00    -0.002 A 
ATOM      3  C4  UNL d   1       0.024  -1.602  -0.490  0.00  0.00     0.004 A 
ATOM      4  C5  UNL d   1       0.957  -0.711  -1.019  0.00  0.00    -0.004 A 
ATOM      5  C6  UNL d   1       0.910   0.645  -0.679  0.00  0.00    -0.075 A 
ATOM      6  C7  UNL d   1       1.905   1.616  -1.241  0.00  0.00     0.076 C 
ATOM      7  C8  UNL d   1      -0.092   1.095   0.192  0.00  0.00     0.001 A 
ENDROOT
BRANCH   1   8
ATOM      8  C1  UNL d   1      -2.106   0.704   1.664  0.00  0.00     0.053 C 
ATOM      9  C   UNL d   1      -1.546   1.023   3.041  0.00  0.00     0.018 C 
ENDBRANCH   1   8
TORSDOF 1
ENDMDL
