MODEL 1
REMARK minimizedAffinity -6.28570557
REMARK minimizedRMSD -1
REMARK  1 active torsions:
REMARK  status: ('A' for Active; 'I' for Inactive)
REMARK    1  A    between atoms: C1_2  and  C2_3 
ROOT
ATOM      1  C2  UNL d   1       1.074   0.380  -0.765  0.00  0.00    -0.073 A 
ATOM      2  C3  UNL d   1       0.783   1.434  -1.638  0.00  0.00    -0.002 A 
ATOM      3  C4  UNL d   1      -0.517   1.932  -1.734  0.00  0.00     0.004 A 
ATOM      4  C5  UNL d   1      -1.536   1.387  -0.953  0.00  0.00    -0.004 A 
ATOM      5  C6  UNL d   1      -1.263   0.341  -0.066  0.00  0.00    -0.075 A 
ATOM      6  C7  UNL d   1      -2.349  -0.257   0.779  0.00  0.00     0.076 C 
ATOM      7  C8  UNL d   1       0.044  -0.155   0.022  0.00  0.00     0.001 A 
ENDROOT
BRANCH   1   8
ATOM      8  C1  UNL d   1       2.478  -0.157  -0.653  0.00  0.00     0.053 C 
ATOM      9  C   UNL d   1       2.943  -0.808  -1.946  0.00  0.00     0.018 C 
ENDBRANCH   1   8
TORSDOF 1
ENDMDL
