MODEL 1
REMARK minimizedAffinity -4.67459154
REMARK minimizedRMSD -1
REMARK  1 active torsions:
REMARK  status: ('A' for Active; 'I' for Inactive)
REMARK    1  A    between atoms: C1_2  and  C2_3 
ROOT
ATOM      1  C2  UNL d   1      -0.178   0.132   0.134  0.00  0.00    -0.073 A 
ATOM      2  C3  UNL d   1      -0.558  -1.214   0.084  0.00  0.00    -0.002 A 
ATOM      3  C4  UNL d   1       0.319  -2.177  -0.418  0.00  0.00     0.004 A 
ATOM      4  C5  UNL d   1       1.585  -1.805  -0.869  0.00  0.00    -0.004 A 
ATOM      5  C6  UNL d   1       1.988  -0.467  -0.817  0.00  0.00    -0.075 A 
ATOM      6  C7  UNL d   1       3.346  -0.051  -1.300  0.00  0.00     0.076 C 
ATOM      7  C8  UNL d   1       1.101   0.494  -0.313  0.00  0.00     0.001 A 
ENDROOT
BRANCH   1   8
ATOM      8  C1  UNL d   1      -1.119   1.174   0.681  0.00  0.00     0.053 C 
ATOM      9  C   UNL d   1      -1.577   0.842   2.093  0.00  0.00     0.018 C 
ENDBRANCH   1   8
TORSDOF 1
ENDMDL
