MODEL 1
REMARK minimizedAffinity -4.62136126
REMARK minimizedRMSD -1
REMARK  1 active torsions:
REMARK  status: ('A' for Active; 'I' for Inactive)
REMARK    1  A    between atoms: C1_2  and  C2_3 
ROOT
ATOM      1  C2  UNL d   1      -1.082  -0.107   0.627  0.00  0.00    -0.073 A 
ATOM      2  C3  UNL d   1      -0.394  -1.324   0.559  0.00  0.00    -0.002 A 
ATOM      3  C4  UNL d   1       0.748  -1.445  -0.235  0.00  0.00     0.004 A 
ATOM      4  C5  UNL d   1       1.216  -0.350  -0.962  0.00  0.00    -0.004 A 
ATOM      5  C6  UNL d   1       0.549   0.877  -0.897  0.00  0.00    -0.075 A 
ATOM      6  C7  UNL d   1       1.039   2.063  -1.675  0.00  0.00     0.076 C 
ATOM      7  C8  UNL d   1      -0.598   0.990  -0.100  0.00  0.00     0.001 A 
ENDROOT
BRANCH   1   8
ATOM      8  C1  UNL d   1      -2.311   0.030   1.488  0.00  0.00     0.053 C 
ATOM      9  C   UNL d   1      -2.067   0.925   2.692  0.00  0.00     0.018 C 
ENDBRANCH   1   8
TORSDOF 1
ENDMDL
