MODEL 1
REMARK minimizedAffinity 2.19008398
REMARK minimizedRMSD -1
REMARK  1 active torsions:
REMARK  status: ('A' for Active; 'I' for Inactive)
REMARK    1  A    between atoms: C1_2  and  C2_3 
ROOT
ATOM      1  C2  UNL d   1      -0.078  -0.239   0.240  0.00  0.00    -0.076 A 
ATOM      2  C3  UNL d   1      -1.008   0.072   1.247  0.00  0.00     0.004 A 
ATOM      3  C4  UNL d   1      -0.816  -0.358   2.559  0.00  0.00    -0.003 A 
ATOM      4  C5  UNL d   1       0.311  -1.105   2.885  0.00  0.00     0.000 A 
ATOM      5  C6  UNL d   1       1.253  -1.407   1.903  0.00  0.00     0.000 A 
ATOM      6  C7  UNL d   1       1.082  -0.968   0.579  0.00  0.00    -0.073 A 
ATOM      7  C8  UNL d   1       2.127  -1.328  -0.442  0.00  0.00     0.078 C 
ENDROOT
BRANCH   1   8
ATOM      8  C1  UNL d   1      -0.354   0.231  -1.170  0.00  0.00     0.053 C 
ATOM      9  C   UNL d   1      -0.218   1.739  -1.319  0.00  0.00     0.018 C 
ENDBRANCH   1   8
TORSDOF 1
ENDMDL
