MODEL 1
REMARK minimizedAffinity -2.48513722
REMARK minimizedRMSD -1
REMARK  1 active torsions:
REMARK  status: ('A' for Active; 'I' for Inactive)
REMARK    1  A    between atoms: C1_2  and  C2_3 
ROOT
ATOM      1  C2  UNL d   1       0.283  -0.301   0.880  0.00  0.00    -0.076 A 
ATOM      2  C3  UNL d   1       0.986  -1.178   0.036  0.00  0.00     0.004 A 
ATOM      3  C4  UNL d   1       1.032  -0.966  -1.341  0.00  0.00    -0.003 A 
ATOM      4  C5  UNL d   1       0.377   0.127  -1.896  0.00  0.00     0.000 A 
ATOM      5  C6  UNL d   1      -0.310   1.017  -1.072  0.00  0.00     0.000 A 
ATOM      6  C7  UNL d   1      -0.353   0.827   0.320  0.00  0.00    -0.073 A 
ATOM      7  C8  UNL d   1      -1.114   1.816   1.161  0.00  0.00     0.078 C 
ENDROOT
BRANCH   1   8
ATOM      8  C1  UNL d   1       0.245  -0.597   2.363  0.00  0.00     0.053 C 
ATOM      9  C   UNL d   1       1.333  -1.570   2.790  0.00  0.00     0.018 C 
ENDBRANCH   1   8
TORSDOF 1
ENDMDL
