MODEL 1
REMARK minimizedAffinity -4.99652576
REMARK minimizedRMSD -1
REMARK  1 active torsions:
REMARK  status: ('A' for Active; 'I' for Inactive)
REMARK    1  A    between atoms: C1_2  and  C2_3 
ROOT
ATOM      1  C2  UNL d   1       0.635   0.017   0.881  0.00  0.00    -0.076 A 
ATOM      2  C3  UNL d   1      -0.581   0.715   0.777  0.00  0.00     0.004 A 
ATOM      3  C4  UNL d   1      -1.196   0.905  -0.459  0.00  0.00    -0.003 A 
ATOM      4  C5  UNL d   1      -0.606   0.399  -1.612  0.00  0.00     0.000 A 
ATOM      5  C6  UNL d   1       0.591  -0.312  -1.525  0.00  0.00     0.000 A 
ATOM      6  C7  UNL d   1       1.216  -0.527  -0.285  0.00  0.00    -0.073 A 
ATOM      7  C8  UNL d   1       2.508  -1.295  -0.251  0.00  0.00     0.078 C 
ENDROOT
BRANCH   1   8
ATOM      8  C1  UNL d   1       1.269  -0.135   2.245  0.00  0.00     0.053 C 
ATOM      9  C   UNL d   1       1.064  -1.523   2.832  0.00  0.00     0.018 C 
ENDBRANCH   1   8
TORSDOF 1
ENDMDL
