MODEL 1
REMARK minimizedAffinity -3.49478126
REMARK minimizedRMSD -1
REMARK  1 active torsions:
REMARK  status: ('A' for Active; 'I' for Inactive)
REMARK    1  A    between atoms: C1_2  and  C2_3 
ROOT
ATOM      1  C2  UNL d   1       0.307  -0.744   1.108  0.00  0.00    -0.076 A 
ATOM      2  C3  UNL d   1       1.364  -1.120   0.260  0.00  0.00     0.004 A 
ATOM      3  C4  UNL d   1       1.364  -0.761  -1.087  0.00  0.00    -0.003 A 
ATOM      4  C5  UNL d   1       0.309  -0.021  -1.608  0.00  0.00     0.000 A 
ATOM      5  C6  UNL d   1      -0.738   0.376  -0.777  0.00  0.00     0.000 A 
ATOM      6  C7  UNL d   1      -0.747   0.037   0.587  0.00  0.00    -0.073 A 
ATOM      7  C8  UNL d   1      -1.905   0.485   1.435  0.00  0.00     0.078 C 
ENDROOT
BRANCH   1   8
ATOM      8  C1  UNL d   1       0.347  -1.185   2.554  0.00  0.00     0.053 C 
ATOM      9  C   UNL d   1      -0.147  -2.611   2.742  0.00  0.00     0.018 C 
ENDBRANCH   1   8
TORSDOF 1
ENDMDL
