MODEL 1
REMARK minimizedAffinity -4.44980764
REMARK minimizedRMSD -1
REMARK  1 active torsions:
REMARK  status: ('A' for Active; 'I' for Inactive)
REMARK    1  A    between atoms: C1_2  and  C2_3 
ROOT
ATOM      1  C2  UNL d   1       1.106  -0.399   0.743  0.00  0.00    -0.076 A 
ATOM      2  C3  UNL d   1       1.046  -0.179   2.130  0.00  0.00     0.004 A 
ATOM      3  C4  UNL d   1       1.780  -0.969   3.013  0.00  0.00    -0.003 A 
ATOM      4  C5  UNL d   1       2.586  -1.991   2.524  0.00  0.00     0.000 A 
ATOM      5  C6  UNL d   1       2.671  -2.211   1.150  0.00  0.00     0.000 A 
ATOM      6  C7  UNL d   1       1.950  -1.414   0.244  0.00  0.00    -0.073 A 
ATOM      7  C8  UNL d   1       2.074  -1.700  -1.227  0.00  0.00     0.078 C 
ENDROOT
BRANCH   1   8
ATOM      8  C1  UNL d   1       0.266   0.471  -0.165  0.00  0.00     0.053 C 
ATOM      9  C   UNL d   1      -1.137  -0.079  -0.365  0.00  0.00     0.018 C 
ENDBRANCH   1   8
TORSDOF 1
ENDMDL
