MODEL 1
REMARK minimizedAffinity -4.55443954
REMARK minimizedRMSD -1
REMARK  1 active torsions:
REMARK  status: ('A' for Active; 'I' for Inactive)
REMARK    1  A    between atoms: C1_2  and  C2_3 
ROOT
ATOM      1  C2  UNL d   1       0.498   0.036   0.126  0.00  0.00    -0.076 A 
ATOM      2  C3  UNL d   1      -0.271   0.461   1.224  0.00  0.00     0.004 A 
ATOM      3  C4  UNL d   1       0.141   0.205   2.530  0.00  0.00    -0.003 A 
ATOM      4  C5  UNL d   1       1.328  -0.480   2.761  0.00  0.00     0.000 A 
ATOM      5  C6  UNL d   1       2.112  -0.894   1.685  0.00  0.00     0.000 A 
ATOM      6  C7  UNL d   1       1.720  -0.629   0.362  0.00  0.00    -0.073 A 
ATOM      7  C8  UNL d   1       2.601  -1.104  -0.761  0.00  0.00     0.078 C 
ENDROOT
BRANCH   1   8
ATOM      8  C1  UNL d   1      -0.012   0.319  -1.269  0.00  0.00     0.053 C 
ATOM      9  C   UNL d   1      -0.108   1.808  -1.564  0.00  0.00     0.018 C 
ENDBRANCH   1   8
TORSDOF 1
ENDMDL
