MODEL 1
REMARK minimizedAffinity -2.60269356
REMARK minimizedRMSD -1
REMARK  1 active torsions:
REMARK  status: ('A' for Active; 'I' for Inactive)
REMARK    1  A    between atoms: C1_2  and  C2_3 
ROOT
ATOM      1  C2  UNL d   1      -0.309   1.148  -0.810  0.00  0.00    -0.076 A 
ATOM      2  C3  UNL d   1      -0.539   1.863   0.379  0.00  0.00     0.004 A 
ATOM      3  C4  UNL d   1      -0.638   1.205   1.604  0.00  0.00    -0.003 A 
ATOM      4  C5  UNL d   1      -0.508  -0.178   1.660  0.00  0.00     0.000 A 
ATOM      5  C6  UNL d   1      -0.262  -0.901   0.494  0.00  0.00     0.000 A 
ATOM      6  C7  UNL d   1      -0.143  -0.252  -0.747  0.00  0.00    -0.073 A 
ATOM      7  C8  UNL d   1       0.117  -1.082  -1.974  0.00  0.00     0.078 C 
ENDROOT
BRANCH   1   8
ATOM      8  C1  UNL d   1      -0.238   1.912  -2.112  0.00  0.00     0.053 C 
ATOM      9  C   UNL d   1      -1.594   2.444  -2.550  0.00  0.00     0.018 C 
ENDBRANCH   1   8
TORSDOF 1
ENDMDL
