MODEL 1
REMARK minimizedAffinity -3.60484552
REMARK minimizedRMSD -1
REMARK  1 active torsions:
REMARK  status: ('A' for Active; 'I' for Inactive)
REMARK    1  A    between atoms: C1_2  and  C2_3 
ROOT
ATOM      1  C2  UNL d   1       0.908  -0.229   0.754  0.00  0.00    -0.076 A 
ATOM      2  C3  UNL d   1       0.892   0.526  -0.432  0.00  0.00     0.004 A 
ATOM      3  C4  UNL d   1      -0.311   0.928  -1.010  0.00  0.00    -0.003 A 
ATOM      4  C5  UNL d   1      -1.517   0.582  -0.412  0.00  0.00     0.000 A 
ATOM      5  C6  UNL d   1      -1.520  -0.151   0.774  0.00  0.00     0.000 A 
ATOM      6  C7  UNL d   1      -0.316  -0.551   1.379  0.00  0.00    -0.073 A 
ATOM      7  C8  UNL d   1      -0.378  -1.346   2.654  0.00  0.00     0.078 C 
ENDROOT
BRANCH   1   8
ATOM      8  C1  UNL d   1       2.242  -0.660   1.320  0.00  0.00     0.053 C 
ATOM      9  C   UNL d   1       2.947  -1.680   0.439  0.00  0.00     0.018 C 
ENDBRANCH   1   8
TORSDOF 1
ENDMDL
