MODEL 1
REMARK minimizedAffinity -0.152362525
REMARK minimizedRMSD -1
REMARK  2 active torsions:
REMARK  status: ('A' for Active; 'I' for Inactive)
REMARK    1  A    between atoms: C2'_3  and  C1'_4 
REMARK    2  A    between atoms: C1'_4  and  C1_5 
ROOT
ATOM      1  C1  I4B d   1       0.307   0.624  -0.135  0.00  0.00    -0.075 A 
ATOM      2  C2  I4B d   1      -0.425   1.652   0.406  0.00  0.00     0.003 A 
ATOM      3  C3  I4B d   1      -1.706   1.402   0.955  0.00  0.00     0.002 A 
ATOM      4  C4  I4B d   1      -2.234   0.129   0.897  0.00  0.00    -0.004 A 
ATOM      5  C5  I4B d   1      -1.482  -0.916   0.368  0.00  0.00     0.002 A 
ATOM      6  C6  I4B d   1      -0.198  -0.669  -0.140  0.00  0.00     0.003 A 
ENDROOT
BRANCH   1   7
ATOM      7  C1' I4B d   1       1.642   0.929  -0.736  0.00  0.00     0.060 C 
BRANCH   7   8
ATOM      8  C2' I4B d   1       1.482   2.130  -1.645  0.00  0.00    -0.013 C 
ATOM      9  C4' I4B d   1       2.792   2.848  -1.837  0.00  0.00     0.013 C 
ATOM     10  C3' I4B d   1       0.931   1.650  -2.955  0.00  0.00     0.013 C 
ENDBRANCH   7   8
ENDBRANCH   1   7
TORSDOF 2
ENDMDL
