MODEL 1
REMARK minimizedAffinity -4.09974575
REMARK minimizedRMSD -1
REMARK  2 active torsions:
REMARK  status: ('A' for Active; 'I' for Inactive)
REMARK    1  A    between atoms: C2'_3  and  C1'_4 
REMARK    2  A    between atoms: C1'_4  and  C1_5 
ROOT
ATOM      1  C1  I4B d   1       0.176   0.250  -0.039  0.00  0.00    -0.075 A 
ATOM      2  C2  I4B d   1       1.238  -0.475   0.441  0.00  0.00     0.003 A 
ATOM      3  C3  I4B d   1       1.042  -1.790   0.928  0.00  0.00     0.002 A 
ATOM      4  C4  I4B d   1      -0.232  -2.319   0.963  0.00  0.00    -0.004 A 
ATOM      5  C5  I4B d   1      -1.305  -1.591   0.454  0.00  0.00     0.002 A 
ATOM      6  C6  I4B d   1      -1.098  -0.303  -0.061  0.00  0.00     0.003 A 
ENDROOT
BRANCH   1   7
ATOM      7  C1' I4B d   1       0.414   1.648  -0.515  0.00  0.00     0.060 C 
BRANCH   7   8
ATOM      8  C2' I4B d   1       1.090   1.571  -1.869  0.00  0.00    -0.013 C 
ATOM      9  C4' I4B d   1       0.114   1.852  -2.981  0.00  0.00     0.013 C 
ATOM     10  C3' I4B d   1       2.220   2.557  -1.879  0.00  0.00     0.013 C 
ENDBRANCH   7   8
ENDBRANCH   1   7
TORSDOF 2
ENDMDL
