MODEL 1
REMARK minimizedAffinity -2.80479455
REMARK minimizedRMSD -1
REMARK  2 active torsions:
REMARK  status: ('A' for Active; 'I' for Inactive)
REMARK    1  A    between atoms: C2'_3  and  C1'_4 
REMARK    2  A    between atoms: C1'_4  and  C1_5 
ROOT
ATOM      1  C1  I4B d   1       0.052   1.236  -0.339  0.00  0.00    -0.075 A 
ATOM      2  C2  I4B d   1      -0.930   2.007   0.231  0.00  0.00     0.003 A 
ATOM      3  C3  I4B d   1      -2.049   1.395   0.848  0.00  0.00     0.002 A 
ATOM      4  C4  I4B d   1      -2.168   0.020   0.828  0.00  0.00    -0.004 A 
ATOM      5  C5  I4B d   1      -1.160  -0.760   0.271  0.00  0.00     0.002 A 
ATOM      6  C6  I4B d   1      -0.036  -0.150  -0.306  0.00  0.00     0.003 A 
ENDROOT
BRANCH   1   7
ATOM      7  C1' I4B d   1       1.203   1.915  -1.011  0.00  0.00     0.060 C 
BRANCH   7   8
ATOM      8  C2' I4B d   1       0.981   1.837  -2.508  0.00  0.00    -0.013 C 
ATOM      9  C4' I4B d   1      -0.335   2.456  -2.897  0.00  0.00     0.013 C 
ATOM     10  C3' I4B d   1       2.127   2.532  -3.182  0.00  0.00     0.013 C 
ENDBRANCH   7   8
ENDBRANCH   1   7
TORSDOF 2
ENDMDL
