MODEL 1
REMARK minimizedAffinity -4.88229799
REMARK minimizedRMSD -1
REMARK  2 active torsions:
REMARK  status: ('A' for Active; 'I' for Inactive)
REMARK    1  A    between atoms: C2'_3  and  C1'_4 
REMARK    2  A    between atoms: C1'_4  and  C1_5 
ROOT
ATOM      1  C1  I4B d   1       0.619   1.454  -1.336  0.00  0.00    -0.075 A 
ATOM      2  C2  I4B d   1       1.980   1.461  -1.514  0.00  0.00     0.003 A 
ATOM      3  C3  I4B d   1       2.536   1.891  -2.743  0.00  0.00     0.002 A 
ATOM      4  C4  I4B d   1       1.699   2.256  -3.777  0.00  0.00    -0.004 A 
ATOM      5  C5  I4B d   1       0.320   2.270  -3.588  0.00  0.00     0.002 A 
ATOM      6  C6  I4B d   1      -0.223   1.878  -2.356  0.00  0.00     0.003 A 
ENDROOT
BRANCH   1   7
ATOM      7  C1' I4B d   1       0.064   0.962  -0.037  0.00  0.00     0.060 C 
BRANCH   7   8
ATOM      8  C2' I4B d   1      -0.033  -0.548  -0.113  0.00  0.00    -0.013 C 
ATOM      9  C4' I4B d   1       1.022  -1.205   0.738  0.00  0.00     0.013 C 
ATOM     10  C3' I4B d   1      -1.410  -0.946   0.328  0.00  0.00     0.013 C 
ENDBRANCH   7   8
ENDBRANCH   1   7
TORSDOF 2
ENDMDL
