MODEL 1
REMARK minimizedAffinity -3.41236091
REMARK minimizedRMSD -1
REMARK  2 active torsions:
REMARK  status: ('A' for Active; 'I' for Inactive)
REMARK    1  A    between atoms: C2'_3  and  C1'_4 
REMARK    2  A    between atoms: C1'_4  and  C1_5 
ROOT
ATOM      1  C1  I4B d   1       0.150   0.300  -0.602  0.00  0.00    -0.075 A 
ATOM      2  C2  I4B d   1       0.807  -0.798  -0.108  0.00  0.00     0.003 A 
ATOM      3  C3  I4B d   1       0.101  -1.780   0.629  0.00  0.00     0.002 A 
ATOM      4  C4  I4B d   1      -1.242  -1.599   0.889  0.00  0.00    -0.004 A 
ATOM      5  C5  I4B d   1      -1.912  -0.496   0.367  0.00  0.00     0.002 A 
ATOM      6  C6  I4B d   1      -1.215   0.454  -0.394  0.00  0.00     0.003 A 
ENDROOT
BRANCH   1   7
ATOM      7  C1' I4B d   1       0.933   1.334  -1.348  0.00  0.00     0.060 C 
BRANCH   7   8
ATOM      8  C2' I4B d   1       0.450   1.340  -2.784  0.00  0.00    -0.013 C 
ATOM      9  C4' I4B d   1       0.168   2.742  -3.258  0.00  0.00     0.013 C 
ATOM     10  C3' I4B d   1       1.500   0.684  -3.629  0.00  0.00     0.013 C 
ENDBRANCH   7   8
ENDBRANCH   1   7
TORSDOF 2
ENDMDL
