MODEL 1
REMARK minimizedAffinity -5.06440639
REMARK minimizedRMSD -1
REMARK  2 active torsions:
REMARK  status: ('A' for Active; 'I' for Inactive)
REMARK    1  A    between atoms: C2'_3  and  C1'_4 
REMARK    2  A    between atoms: C1'_4  and  C1_5 
ROOT
ATOM      1  C1  I4B d   1       0.325   0.180  -0.347  0.00  0.00    -0.075 A 
ATOM      2  C2  I4B d   1      -1.012   0.367  -0.094  0.00  0.00     0.003 A 
ATOM      3  C3  I4B d   1      -1.791  -0.689   0.439  0.00  0.00     0.002 A 
ATOM      4  C4  I4B d   1      -1.208  -1.921   0.655  0.00  0.00    -0.004 A 
ATOM      5  C5  I4B d   1       0.152  -2.102   0.420  0.00  0.00     0.002 A 
ATOM      6  C6  I4B d   1       0.926  -1.041  -0.073  0.00  0.00     0.003 A 
ENDROOT
BRANCH   1   7
ATOM      7  C1' I4B d   1       1.110   1.306  -0.941  0.00  0.00     0.060 C 
BRANCH   7   8
ATOM      8  C2' I4B d   1       0.988   1.216  -2.448  0.00  0.00    -0.013 C 
ATOM      9  C4' I4B d   1       0.151   2.341  -2.996  0.00  0.00     0.013 C 
ATOM     10  C3' I4B d   1       2.372   1.240  -3.027  0.00  0.00     0.013 C 
ENDBRANCH   7   8
ENDBRANCH   1   7
TORSDOF 2
ENDMDL
