MODEL 1
REMARK minimizedAffinity -3.68919468
REMARK minimizedRMSD -1
REMARK  2 active torsions:
REMARK  status: ('A' for Active; 'I' for Inactive)
REMARK    1  A    between atoms: C2'_3  and  C1'_4 
REMARK    2  A    between atoms: C1'_4  and  C1_5 
ROOT
ATOM      1  C1  I4B d   1      -0.190  -0.124   0.164  0.00  0.00    -0.075 A 
ATOM      2  C2  I4B d   1       0.742  -1.083   0.470  0.00  0.00     0.003 A 
ATOM      3  C3  I4B d   1       0.332  -2.337   0.984  0.00  0.00     0.002 A 
ATOM      4  C4  I4B d   1      -1.008  -2.569   1.223  0.00  0.00    -0.004 A 
ATOM      5  C5  I4B d   1      -1.953  -1.603   0.891  0.00  0.00     0.002 A 
ATOM      6  C6  I4B d   1      -1.544  -0.377   0.346  0.00  0.00     0.003 A 
ENDROOT
BRANCH   1   7
ATOM      7  C1' I4B d   1       0.280   1.201  -0.346  0.00  0.00     0.060 C 
BRANCH   7   8
ATOM      8  C2' I4B d   1       0.658   1.033  -1.804  0.00  0.00    -0.013 C 
ATOM      9  C4' I4B d   1      -0.421   1.561  -2.711  0.00  0.00     0.013 C 
ATOM     10  C3' I4B d   1       1.956   1.749  -2.031  0.00  0.00     0.013 C 
ENDBRANCH   7   8
ENDBRANCH   1   7
TORSDOF 2
ENDMDL
