MODEL 1
REMARK minimizedAffinity -4.40024328
REMARK minimizedRMSD -1
REMARK  2 active torsions:
REMARK  status: ('A' for Active; 'I' for Inactive)
REMARK    1  A    between atoms: C2'_3  and  C1'_4 
REMARK    2  A    between atoms: C1'_4  and  C1_5 
ROOT
ATOM      1  C1  I4B d   1      -1.648  -0.630   0.466  0.00  0.00    -0.075 A 
ATOM      2  C2  I4B d   1      -2.450  -0.056   1.420  0.00  0.00     0.003 A 
ATOM      3  C3  I4B d   1      -3.050  -0.856   2.423  0.00  0.00     0.002 A 
ATOM      4  C4  I4B d   1      -2.864  -2.223   2.403  0.00  0.00    -0.004 A 
ATOM      5  C5  I4B d   1      -2.033  -2.801   1.449  0.00  0.00     0.002 A 
ATOM      6  C6  I4B d   1      -1.410  -1.999   0.481  0.00  0.00     0.003 A 
ENDROOT
BRANCH   1   7
ATOM      7  C1' I4B d   1      -1.056   0.239  -0.598  0.00  0.00     0.060 C 
BRANCH   7   8
ATOM      8  C2' I4B d   1       0.250   0.798  -0.070  0.00  0.00    -0.013 C 
ATOM      9  C4' I4B d   1       1.157  -0.302   0.415  0.00  0.00     0.013 C 
ATOM     10  C3' I4B d   1       0.895   1.585  -1.172  0.00  0.00     0.013 C 
ENDBRANCH   7   8
ENDBRANCH   1   7
TORSDOF 2
ENDMDL
