MODEL 1
REMARK minimizedAffinity -4.88726854
REMARK minimizedRMSD -1
REMARK  2 active torsions:
REMARK  status: ('A' for Active; 'I' for Inactive)
REMARK    1  A    between atoms: C2'_3  and  C1'_4 
REMARK    2  A    between atoms: C1'_4  and  C1_5 
ROOT
ATOM      1  C1  I4B d   1       0.074   0.509   0.067  0.00  0.00    -0.075 A 
ATOM      2  C2  I4B d   1       1.112  -0.389   0.063  0.00  0.00     0.003 A 
ATOM      3  C3  I4B d   1       0.933  -1.689   0.595  0.00  0.00     0.002 A 
ATOM      4  C4  I4B d   1      -0.278  -2.029   1.163  0.00  0.00    -0.004 A 
ATOM      5  C5  I4B d   1      -1.336  -1.126   1.146  0.00  0.00     0.002 A 
ATOM      6  C6  I4B d   1      -1.163   0.148   0.583  0.00  0.00     0.003 A 
ENDROOT
BRANCH   1   7
ATOM      7  C1' I4B d   1       0.308   1.884  -0.473  0.00  0.00     0.060 C 
BRANCH   7   8
ATOM      8  C2' I4B d   1       0.675   1.754  -1.938  0.00  0.00    -0.013 C 
ATOM      9  C4' I4B d   1      -0.388   2.352  -2.821  0.00  0.00     0.013 C 
ATOM     10  C3' I4B d   1       1.996   2.432  -2.146  0.00  0.00     0.013 C 
ENDBRANCH   7   8
ENDBRANCH   1   7
TORSDOF 2
ENDMDL
