MODEL 1
REMARK minimizedAffinity -4.93029642
REMARK minimizedRMSD -1
REMARK  2 active torsions:
REMARK  status: ('A' for Active; 'I' for Inactive)
REMARK    1  A    between atoms: C2'_3  and  C1'_4 
REMARK    2  A    between atoms: C1'_4  and  C1_5 
ROOT
ATOM      1  C1  I4B d   1      -0.176   0.214  -0.227  0.00  0.00    -0.075 A 
ATOM      2  C2  I4B d   1       0.821  -0.714  -0.059  0.00  0.00     0.003 A 
ATOM      3  C3  I4B d   1       0.507  -2.030   0.359  0.00  0.00     0.002 A 
ATOM      4  C4  I4B d   1      -0.803  -2.357   0.646  0.00  0.00    -0.004 A 
ATOM      5  C5  I4B d   1      -1.815  -1.421   0.453  0.00  0.00     0.002 A 
ATOM      6  C6  I4B d   1      -1.501  -0.131   0.002  0.00  0.00     0.003 A 
ENDROOT
BRANCH   1   7
ATOM      7  C1' I4B d   1       0.196   1.604  -0.638  0.00  0.00     0.060 C 
BRANCH   7   8
ATOM      8  C2' I4B d   1       0.582   1.570  -2.102  0.00  0.00    -0.013 C 
ATOM      9  C4' I4B d   1      -0.567   1.992  -2.979  0.00  0.00     0.013 C 
ATOM     10  C3' I4B d   1       1.766   2.471  -2.290  0.00  0.00     0.013 C 
ENDBRANCH   7   8
ENDBRANCH   1   7
TORSDOF 2
ENDMDL
