MODEL 1
REMARK minimizedAffinity -3.86218071
REMARK minimizedRMSD -1
REMARK  2 active torsions:
REMARK  status: ('A' for Active; 'I' for Inactive)
REMARK    1  A    between atoms: C2'_3  and  C1'_4 
REMARK    2  A    between atoms: C1'_4  and  C1_5 
ROOT
ATOM      1  C1  I4B d   1       0.334  -1.105   0.513  0.00  0.00    -0.075 A 
ATOM      2  C2  I4B d   1       0.777  -2.014   1.441  0.00  0.00     0.003 A 
ATOM      3  C3  I4B d   1      -0.129  -2.924   2.037  0.00  0.00     0.002 A 
ATOM      4  C4  I4B d   1      -1.469  -2.857   1.716  0.00  0.00    -0.004 A 
ATOM      5  C5  I4B d   1      -1.914  -1.950   0.758  0.00  0.00     0.002 A 
ATOM      6  C6  I4B d   1      -1.005  -1.076   0.144  0.00  0.00     0.003 A 
ENDROOT
BRANCH   1   7
ATOM      7  C1' I4B d   1       1.312  -0.136  -0.072  0.00  0.00     0.060 C 
BRANCH   7   8
ATOM      8  C2' I4B d   1       0.527   0.977  -0.735  0.00  0.00    -0.013 C 
ATOM      9  C4' I4B d   1      -0.082   1.899   0.287  0.00  0.00     0.013 C 
ATOM     10  C3' I4B d   1       1.457   1.719  -1.648  0.00  0.00     0.013 C 
ENDBRANCH   7   8
ENDBRANCH   1   7
TORSDOF 2
ENDMDL
