MODEL 1
REMARK minimizedAffinity -4.76451683
REMARK minimizedRMSD -1
REMARK  2 active torsions:
REMARK  status: ('A' for Active; 'I' for Inactive)
REMARK    1  A    between atoms: C2'_3  and  C1'_4 
REMARK    2  A    between atoms: C1'_4  and  C1_5 
ROOT
ATOM      1  C1  I4B d   1       0.139  -0.127  -0.079  0.00  0.00    -0.075 A 
ATOM      2  C2  I4B d   1       0.938  -0.934   0.693  0.00  0.00     0.003 A 
ATOM      3  C3  I4B d   1       0.475  -2.204   1.113  0.00  0.00     0.002 A 
ATOM      4  C4  I4B d   1      -0.804  -2.604   0.782  0.00  0.00    -0.004 A 
ATOM      5  C5  I4B d   1      -1.604  -1.795  -0.020  0.00  0.00     0.002 A 
ATOM      6  C6  I4B d   1      -1.125  -0.554  -0.464  0.00  0.00     0.003 A 
ENDROOT
BRANCH   1   7
ATOM      7  C1' I4B d   1       0.648   1.222  -0.477  0.00  0.00     0.060 C 
BRANCH   7   8
ATOM      8  C2' I4B d   1       1.154   1.128  -1.902  0.00  0.00    -0.013 C 
ATOM      9  C4' I4B d   1       0.233   1.844  -2.856  0.00  0.00     0.013 C 
ATOM     10  C3' I4B d   1       2.535   1.712  -1.943  0.00  0.00     0.013 C 
ENDBRANCH   7   8
ENDBRANCH   1   7
TORSDOF 2
ENDMDL
