MODEL 1
REMARK minimizedAffinity -3.30687189
REMARK minimizedRMSD -1
REMARK  2 active torsions:
REMARK  status: ('A' for Active; 'I' for Inactive)
REMARK    1  A    between atoms: C2'_3  and  C1'_4 
REMARK    2  A    between atoms: C1'_4  and  C1_5 
ROOT
ATOM      1  C1  I4B d   1       0.068  -0.310  -0.275  0.00  0.00    -0.075 A 
ATOM      2  C2  I4B d   1       0.648  -0.915   0.811  0.00  0.00     0.003 A 
ATOM      3  C3  I4B d   1       0.039  -2.046   1.407  0.00  0.00     0.002 A 
ATOM      4  C4  I4B d   1      -1.167  -2.505   0.919  0.00  0.00    -0.004 A 
ATOM      5  C5  I4B d   1      -1.742  -1.905  -0.197  0.00  0.00     0.002 A 
ATOM      6  C6  I4B d   1      -1.115  -0.808  -0.806  0.00  0.00     0.003 A 
ENDROOT
BRANCH   1   7
ATOM      7  C1' I4B d   1       0.721   0.902  -0.859  0.00  0.00     0.060 C 
BRANCH   7   8
ATOM      8  C2' I4B d   1       0.365   0.961  -2.331  0.00  0.00    -0.013 C 
ATOM      9  C4' I4B d   1      -0.713   1.980  -2.591  0.00  0.00     0.013 C 
ATOM     10  C3' I4B d   1       1.613   1.285  -3.096  0.00  0.00     0.013 C 
ENDBRANCH   7   8
ENDBRANCH   1   7
TORSDOF 2
ENDMDL
