MODEL 1
REMARK minimizedAffinity -3.70917869
REMARK minimizedRMSD -1
REMARK  2 active torsions:
REMARK  status: ('A' for Active; 'I' for Inactive)
REMARK    1  A    between atoms: C2'_3  and  C1'_4 
REMARK    2  A    between atoms: C1'_4  and  C1_5 
ROOT
ATOM      1  C1  I4B d   1       0.186   0.339   0.093  0.00  0.00    -0.075 A 
ATOM      2  C2  I4B d   1       1.170  -0.479   0.591  0.00  0.00     0.003 A 
ATOM      3  C3  I4B d   1       0.840  -1.752   1.116  0.00  0.00     0.002 A 
ATOM      4  C4  I4B d   1      -0.482  -2.144   1.169  0.00  0.00    -0.004 A 
ATOM      5  C5  I4B d   1      -1.475  -1.323   0.643  0.00  0.00     0.002 A 
ATOM      6  C6  I4B d   1      -1.138  -0.079   0.090  0.00  0.00     0.003 A 
ENDROOT
BRANCH   1   7
ATOM      7  C1' I4B d   1       0.566   1.690  -0.423  0.00  0.00     0.060 C 
BRANCH   7   8
ATOM      8  C2' I4B d   1       1.054   1.526  -1.848  0.00  0.00    -0.013 C 
ATOM      9  C4' I4B d   1      -0.032   1.858  -2.838  0.00  0.00     0.013 C 
ATOM     10  C3' I4B d   1       2.247   2.414  -2.035  0.00  0.00     0.013 C 
ENDBRANCH   7   8
ENDBRANCH   1   7
TORSDOF 2
ENDMDL
