MODEL 1
REMARK minimizedAffinity -3.29757833
REMARK minimizedRMSD -1
REMARK  0 active torsions:
REMARK  status: ('A' for Active; 'I' for Inactive)
ROOT
ATOM      1  O1  BZF d   1       2.447  -1.564   0.391  0.00  0.00    -0.204 OA
ATOM      2  C2  BZF d   1       2.172  -2.627   1.229  0.00  0.00     0.174 A 
ATOM      3  C3  BZF d   1       0.970  -2.472   1.820  0.00  0.00    -0.012 A 
ATOM      4  C3A BZF d   1       0.422  -1.279   1.251  0.00  0.00    -0.107 A 
ATOM      5  C4  BZF d   1      -0.756  -0.611   1.425  0.00  0.00     0.055 A 
ATOM      6  C5  BZF d   1      -0.952   0.564   0.771  0.00  0.00    -0.016 A 
ATOM      7  C6  BZF d   1       0.009   1.102  -0.059  0.00  0.00     0.022 A 
ATOM      8  C7  BZF d   1       1.192   0.474  -0.267  0.00  0.00     0.029 A 
ATOM      9  C7A BZF d   1       1.380  -0.731   0.366  0.00  0.00     0.058 A 
ENDROOT
TORSDOF 0
ENDMDL
