MODEL 1
REMARK minimizedAffinity -3.44372487
REMARK minimizedRMSD -1
REMARK  0 active torsions:
REMARK  status: ('A' for Active; 'I' for Inactive)
ROOT
ATOM      1  O1  BZF d   1      -0.973   0.004   1.209  0.00  0.00    -0.204 OA
ATOM      2  C2  BZF d   1      -0.669   0.637   0.020  0.00  0.00     0.174 A 
ATOM      3  C3  BZF d   1       0.502   0.187  -0.477  0.00  0.00    -0.012 A 
ATOM      4  C3A BZF d   1       0.912  -0.855   0.414  0.00  0.00    -0.107 A 
ATOM      5  C4  BZF d   1       1.988  -1.695   0.444  0.00  0.00     0.055 A 
ATOM      6  C5  BZF d   1       2.130  -2.550   1.490  0.00  0.00    -0.016 A 
ATOM      7  C6  BZF d   1       1.218  -2.589   2.525  0.00  0.00     0.022 A 
ATOM      8  C7  BZF d   1       0.132  -1.778   2.537  0.00  0.00     0.029 A 
ATOM      9  C7A BZF d   1      -0.031  -0.936   1.464  0.00  0.00     0.058 A 
ENDROOT
TORSDOF 0
ENDMDL
