MODEL 1
REMARK minimizedAffinity -5.63492298
REMARK minimizedRMSD -1
REMARK  0 active torsions:
REMARK  status: ('A' for Active; 'I' for Inactive)
ROOT
ATOM      1  O1  BZF d   1      -0.780   0.560   0.559  0.00  0.00    -0.204 OA
ATOM      2  C2  BZF d   1      -0.125   0.963  -0.589  0.00  0.00     0.174 A 
ATOM      3  C3  BZF d   1       0.973   0.209  -0.802  0.00  0.00    -0.012 A 
ATOM      4  C3A BZF d   1       0.955  -0.783   0.229  0.00  0.00    -0.107 A 
ATOM      5  C4  BZF d   1       1.776  -1.829   0.540  0.00  0.00     0.055 A 
ATOM      6  C5  BZF d   1       1.518  -2.562   1.655  0.00  0.00    -0.016 A 
ATOM      7  C6  BZF d   1       0.454  -2.273   2.484  0.00  0.00     0.022 A 
ATOM      8  C7  BZF d   1      -0.390  -1.248   2.214  0.00  0.00     0.029 A 
ATOM      9  C7A BZF d   1      -0.152  -0.526   1.070  0.00  0.00     0.058 A 
ENDROOT
TORSDOF 0
ENDMDL
