MODEL 1
REMARK minimizedAffinity -7.20218182
REMARK minimizedRMSD -1
REMARK  0 active torsions:
REMARK  status: ('A' for Active; 'I' for Inactive)
ROOT
ATOM      1  O1  BZF d   1      -1.072   0.311   0.727  0.00  0.00    -0.204 OA
ATOM      2  C2  BZF d   1      -0.390   0.760  -0.388  0.00  0.00     0.174 A 
ATOM      3  C3  BZF d   1       0.723   0.028  -0.595  0.00  0.00    -0.012 A 
ATOM      4  C3A BZF d   1       0.691  -0.997   0.403  0.00  0.00    -0.107 A 
ATOM      5  C4  BZF d   1       1.517  -2.042   0.703  0.00  0.00     0.055 A 
ATOM      6  C5  BZF d   1       1.239  -2.814   1.786  0.00  0.00    -0.016 A 
ATOM      7  C6  BZF d   1       0.148  -2.567   2.594  0.00  0.00     0.022 A 
ATOM      8  C7  BZF d   1      -0.703  -1.544   2.334  0.00  0.00     0.029 A 
ATOM      9  C7A BZF d   1      -0.443  -0.783   1.221  0.00  0.00     0.058 A 
ENDROOT
TORSDOF 0
ENDMDL
