MODEL 1
REMARK minimizedAffinity -5.3280611
REMARK minimizedRMSD -1
REMARK  0 active torsions:
REMARK  status: ('A' for Active; 'I' for Inactive)
ROOT
ATOM      1  O1  BZF d   1      -0.927   0.452   0.406  0.00  0.00    -0.204 OA
ATOM      2  C2  BZF d   1      -0.256   0.608  -0.792  0.00  0.00     0.174 A 
ATOM      3  C3  BZF d   1       0.764  -0.269  -0.886  0.00  0.00    -0.012 A 
ATOM      4  C3A BZF d   1       0.672  -1.081   0.288  0.00  0.00    -0.107 A 
ATOM      5  C4  BZF d   1       1.397  -2.138   0.758  0.00  0.00     0.055 A 
ATOM      6  C5  BZF d   1       1.092  -2.661   1.975  0.00  0.00    -0.016 A 
ATOM      7  C6  BZF d   1       0.072  -2.148   2.750  0.00  0.00     0.022 A 
ATOM      8  C7  BZF d   1      -0.679  -1.103   2.324  0.00  0.00     0.029 A 
ATOM      9  C7A BZF d   1      -0.394  -0.594   1.080  0.00  0.00     0.058 A 
ENDROOT
TORSDOF 0
ENDMDL
