MODEL 1
REMARK minimizedAffinity -5.65775251
REMARK minimizedRMSD -1
REMARK  0 active torsions:
REMARK  status: ('A' for Active; 'I' for Inactive)
ROOT
ATOM      1  O1  BZF d   1      -0.775  -0.107   0.277  0.00  0.00    -0.204 OA
ATOM      2  C2  BZF d   1      -0.212   0.197  -0.947  0.00  0.00     0.174 A 
ATOM      3  C3  BZF d   1       0.903  -0.533  -1.155  0.00  0.00    -0.012 A 
ATOM      4  C3A BZF d   1       0.995  -1.410  -0.029  0.00  0.00    -0.107 A 
ATOM      5  C4  BZF d   1       1.880  -2.386   0.332  0.00  0.00     0.055 A 
ATOM      6  C5  BZF d   1       1.727  -3.006   1.531  0.00  0.00    -0.016 A 
ATOM      7  C6  BZF d   1       0.705  -2.672   2.396  0.00  0.00     0.022 A 
ATOM      8  C7  BZF d   1      -0.200  -1.714   2.080  0.00  0.00     0.029 A 
ATOM      9  C7A BZF d   1      -0.067  -1.109   0.854  0.00  0.00     0.058 A 
ENDROOT
TORSDOF 0
ENDMDL
