MODEL 1
REMARK minimizedAffinity -2.90522575
REMARK minimizedRMSD -1
REMARK  0 active torsions:
REMARK  status: ('A' for Active; 'I' for Inactive)
ROOT
ATOM      1  O1  BZF d   1      -1.029   0.242   0.813  0.00  0.00    -0.204 OA
ATOM      2  C2  BZF d   1      -0.466   0.735  -0.348  0.00  0.00     0.174 A 
ATOM      3  C3  BZF d   1       0.765   0.219  -0.539  0.00  0.00    -0.012 A 
ATOM      4  C3A BZF d   1       0.948  -0.721   0.524  0.00  0.00    -0.107 A 
ATOM      5  C4  BZF d   1       1.967  -1.564   0.866  0.00  0.00     0.055 A 
ATOM      6  C5  BZF d   1       1.862  -2.297   2.005  0.00  0.00    -0.016 A 
ATOM      7  C6  BZF d   1       0.757  -2.209   2.826  0.00  0.00     0.022 A 
ATOM      8  C7  BZF d   1      -0.281  -1.391   2.526  0.00  0.00     0.029 A 
ATOM      9  C7A BZF d   1      -0.192  -0.673   1.358  0.00  0.00     0.058 A 
ENDROOT
TORSDOF 0
ENDMDL
