MODEL 1
REMARK minimizedAffinity -4.19528151
REMARK minimizedRMSD -1
REMARK  0 active torsions:
REMARK  status: ('A' for Active; 'I' for Inactive)
ROOT
ATOM      1  O1  BZF d   1      -0.538   0.134   0.667  0.00  0.00    -0.204 OA
ATOM      2  C2  BZF d   1       0.217   0.627  -0.380  0.00  0.00     0.174 A 
ATOM      3  C3  BZF d   1       1.311  -0.137  -0.582  0.00  0.00    -0.012 A 
ATOM      4  C3A BZF d   1       1.186  -1.224   0.340  0.00  0.00    -0.107 A 
ATOM      5  C4  BZF d   1       1.954  -2.321   0.607  0.00  0.00     0.055 A 
ATOM      6  C5  BZF d   1       1.590  -3.151   1.619  0.00  0.00    -0.016 A 
ATOM      7  C6  BZF d   1       0.470  -2.912   2.387  0.00  0.00     0.022 A 
ATOM      8  C7  BZF d   1      -0.326  -1.839   2.157  0.00  0.00     0.029 A 
ATOM      9  C7A BZF d   1       0.021  -1.016   1.113  0.00  0.00     0.058 A 
ENDROOT
TORSDOF 0
ENDMDL
