MODEL 1
REMARK minimizedAffinity -5.62016439
REMARK minimizedRMSD -1
REMARK  0 active torsions:
REMARK  status: ('A' for Active; 'I' for Inactive)
ROOT
ATOM      1  O1  BZF d   1      -1.105  -1.083   2.040  0.00  0.00    -0.204 OA
ATOM      2  C2  BZF d   1      -0.450  -1.981   2.861  0.00  0.00     0.174 A 
ATOM      3  C3  BZF d   1       0.764  -2.289   2.361  0.00  0.00    -0.012 A 
ATOM      4  C3A BZF d   1       0.913  -1.466   1.200  0.00  0.00    -0.107 A 
ATOM      5  C4  BZF d   1       1.914  -1.306   0.285  0.00  0.00     0.055 A 
ATOM      6  C5  BZF d   1       1.715  -0.475  -0.772  0.00  0.00    -0.016 A 
ATOM      7  C6  BZF d   1       0.528   0.205  -0.948  0.00  0.00     0.022 A 
ATOM      8  C7  BZF d   1      -0.492   0.082  -0.064  0.00  0.00     0.029 A 
ATOM      9  C7A BZF d   1      -0.282  -0.731   1.023  0.00  0.00     0.058 A 
ENDROOT
TORSDOF 0
ENDMDL
