MODEL 1
REMARK minimizedAffinity -5.09951305
REMARK minimizedRMSD -1
REMARK  0 active torsions:
REMARK  status: ('A' for Active; 'I' for Inactive)
ROOT
ATOM      1  O1  BZF d   1      -0.872  -0.363   1.694  0.00  0.00    -0.204 OA
ATOM      2  C2  BZF d   1      -1.295  -1.244   2.671  0.00  0.00     0.174 A 
ATOM      3  C3  BZF d   1      -0.587  -2.390   2.619  0.00  0.00    -0.012 A 
ATOM      4  C3A BZF d   1       0.398  -2.179   1.603  0.00  0.00    -0.107 A 
ATOM      5  C4  BZF d   1       1.407  -2.949   1.100  0.00  0.00     0.055 A 
ATOM      6  C5  BZF d   1       2.143  -2.476   0.060  0.00  0.00    -0.016 A 
ATOM      7  C6  BZF d   1       1.894  -1.242  -0.504  0.00  0.00     0.022 A 
ATOM      8  C7  BZF d   1       0.907  -0.440  -0.035  0.00  0.00     0.029 A 
ATOM      9  C7A BZF d   1       0.183  -0.901   1.038  0.00  0.00     0.058 A 
ENDROOT
TORSDOF 0
ENDMDL
