MODEL 1
REMARK minimizedAffinity -2.84786987
REMARK minimizedRMSD -1
REMARK  0 active torsions:
REMARK  status: ('A' for Active; 'I' for Inactive)
ROOT
ATOM      1  O1  BZF d   1       2.334  -1.687   1.242  0.00  0.00    -0.204 OA
ATOM      2  C2  BZF d   1       1.627  -2.392   2.197  0.00  0.00     0.174 A 
ATOM      3  C3  BZF d   1       0.427  -1.820   2.423  0.00  0.00    -0.012 A 
ATOM      4  C3A BZF d   1       0.343  -0.740   1.488  0.00  0.00    -0.107 A 
ATOM      5  C4  BZF d   1      -0.617   0.191   1.214  0.00  0.00     0.055 A 
ATOM      6  C5  BZF d   1      -0.358   1.155   0.291  0.00  0.00    -0.016 A 
ATOM      7  C6  BZF d   1       0.850   1.219  -0.372  0.00  0.00     0.022 A 
ATOM      8  C7  BZF d   1       1.831   0.314  -0.137  0.00  0.00     0.029 A 
ATOM      9  C7A BZF d   1       1.560  -0.680   0.771  0.00  0.00     0.058 A 
ENDROOT
TORSDOF 0
ENDMDL
