MODEL 1
REMARK minimizedAffinity -4.68262768
REMARK minimizedRMSD -1
REMARK  0 active torsions:
REMARK  status: ('A' for Active; 'I' for Inactive)
ROOT
ATOM      1  O1  BZF d   1      -0.988   0.342   0.567  0.00  0.00    -0.204 OA
ATOM      2  C2  BZF d   1      -0.326   0.705  -0.590  0.00  0.00     0.174 A 
ATOM      3  C3  BZF d   1       0.786  -0.039  -0.759  0.00  0.00    -0.012 A 
ATOM      4  C3A BZF d   1       0.773  -0.984   0.315  0.00  0.00    -0.107 A 
ATOM      5  C4  BZF d   1       1.607  -2.002   0.680  0.00  0.00     0.055 A 
ATOM      6  C5  BZF d   1       1.349  -2.689   1.824  0.00  0.00    -0.016 A 
ATOM      7  C6  BZF d   1       0.271  -2.383   2.628  0.00  0.00     0.022 A 
ATOM      8  C7  BZF d   1      -0.587  -1.385   2.305  0.00  0.00     0.029 A 
ATOM      9  C7A BZF d   1      -0.348  -0.710   1.132  0.00  0.00     0.058 A 
ENDROOT
TORSDOF 0
ENDMDL
