MODEL 1
REMARK minimizedAffinity -5.0736661
REMARK minimizedRMSD -1
REMARK  0 active torsions:
REMARK  status: ('A' for Active; 'I' for Inactive)
ROOT
ATOM      1  O1  BZF d   1      -1.139   0.275   0.664  0.00  0.00    -0.204 OA
ATOM      2  C2  BZF d   1      -0.339   0.823  -0.320  0.00  0.00     0.174 A 
ATOM      3  C3  BZF d   1       0.812   0.132  -0.441  0.00  0.00    -0.012 A 
ATOM      4  C3A BZF d   1       0.687  -0.969   0.464  0.00  0.00    -0.107 A 
ATOM      5  C4  BZF d   1       1.501  -2.018   0.783  0.00  0.00     0.055 A 
ATOM      6  C5  BZF d   1       1.115  -2.879   1.762  0.00  0.00    -0.016 A 
ATOM      7  C6  BZF d   1      -0.074  -2.717   2.444  0.00  0.00     0.022 A 
ATOM      8  C7  BZF d   1      -0.916  -1.694   2.158  0.00  0.00     0.029 A 
ATOM      9  C7A BZF d   1      -0.544  -0.842   1.147  0.00  0.00     0.058 A 
ENDROOT
TORSDOF 0
ENDMDL
