MODEL 1
REMARK minimizedAffinity -5.07279015
REMARK minimizedRMSD -1
REMARK  0 active torsions:
REMARK  status: ('A' for Active; 'I' for Inactive)
ROOT
ATOM      1  O1  BZF d   1      -1.358   0.479   0.695  0.00  0.00    -0.204 OA
ATOM      2  C2  BZF d   1      -0.616   0.822  -0.419  0.00  0.00     0.174 A 
ATOM      3  C3  BZF d   1       0.465   0.024  -0.537  0.00  0.00    -0.012 A 
ATOM      4  C3A BZF d   1       0.343  -0.934   0.519  0.00  0.00    -0.107 A 
ATOM      5  C4  BZF d   1       1.102  -1.998   0.914  0.00  0.00     0.055 A 
ATOM      6  C5  BZF d   1       0.747  -2.685   2.031  0.00  0.00    -0.016 A 
ATOM      7  C6  BZF d   1      -0.358  -2.333   2.779  0.00  0.00     0.022 A 
ATOM      8  C7  BZF d   1      -1.144  -1.288   2.425  0.00  0.00     0.029 A 
ATOM      9  C7A BZF d   1      -0.806  -0.611   1.278  0.00  0.00     0.058 A 
ENDROOT
TORSDOF 0
ENDMDL
