MODEL 1
REMARK minimizedAffinity 6.64436722
REMARK minimizedRMSD -1
REMARK  1 active torsions:
REMARK  status: ('A' for Active; 'I' for Inactive)
REMARK    1  A    between atoms: N_2  and  C1_3 
ROOT
ATOM      1  C1  UNL d   1       2.471   3.320   0.951  0.00  0.00     0.143 A 
ATOM      2  C2  UNL d   1       3.137   2.171   0.514  0.00  0.00    -0.057 A 
ATOM      3  C3  UNL d   1       4.148   2.240  -0.453  0.00  0.00     0.033 A 
ATOM      4  C4  UNL d   1       4.492   3.462  -1.022  0.00  0.00    -0.042 A 
ATOM      5  C5  UNL d   1       3.826   4.615  -0.621  0.00  0.00     0.033 A 
ATOM      6  C6  UNL d   1       2.822   4.539   0.349  0.00  0.00    -0.057 A 
ENDROOT
BRANCH   1   7
ATOM      7  N   UNL d   1       1.391   3.304   1.836  0.00  0.00    -0.732 N 
ATOM      8  C   UNL d   1       0.570   4.482   2.019  0.00  0.00     0.284 C 
ATOM      9  H3  UNL d   1       0.865   2.434   1.792  0.00  0.00     0.395 HD
ENDBRANCH   1   7
TORSDOF 1
ENDMDL
