MODEL 1
REMARK minimizedAffinity 2.17133427
REMARK minimizedRMSD -1
REMARK  1 active torsions:
REMARK  status: ('A' for Active; 'I' for Inactive)
REMARK    1  A    between atoms: N_2  and  C1_3 
ROOT
ATOM      1  C1  UNL d   1      -1.624   0.228   0.079  0.00  0.00     0.143 A 
ATOM      2  C2  UNL d   1      -1.598  -1.161   0.243  0.00  0.00    -0.057 A 
ATOM      3  C3  UNL d   1      -0.618  -1.947  -0.375  0.00  0.00     0.033 A 
ATOM      4  C4  UNL d   1       0.339  -1.359  -1.195  0.00  0.00    -0.042 A 
ATOM      5  C5  UNL d   1       0.318   0.017  -1.392  0.00  0.00     0.033 A 
ATOM      6  C6  UNL d   1      -0.660   0.798  -0.767  0.00  0.00    -0.057 A 
ENDROOT
BRANCH   1   7
ATOM      7  N   UNL d   1      -2.631   1.052   0.588  0.00  0.00    -0.732 N 
ATOM      8  C   UNL d   1      -3.340   0.690   1.796  0.00  0.00     0.284 C 
ATOM      9  H3  UNL d   1      -2.393   2.039   0.525  0.00  0.00     0.395 HD
ENDBRANCH   1   7
TORSDOF 1
ENDMDL
