MODEL 1
REMARK minimizedAffinity -2.44685268
REMARK minimizedRMSD -1
REMARK  1 active torsions:
REMARK  status: ('A' for Active; 'I' for Inactive)
REMARK    1  A    between atoms: N_2  and  C1_3 
ROOT
ATOM      1  C1  UNL d   1      -0.249   0.289   0.074  0.00  0.00     0.143 A 
ATOM      2  C2  UNL d   1       0.210  -0.749  -0.744  0.00  0.00    -0.057 A 
ATOM      3  C3  UNL d   1      -0.066  -2.088  -0.442  0.00  0.00     0.033 A 
ATOM      4  C4  UNL d   1      -0.784  -2.415   0.703  0.00  0.00    -0.042 A 
ATOM      5  C5  UNL d   1      -1.229  -1.402   1.544  0.00  0.00     0.033 A 
ATOM      6  C6  UNL d   1      -0.956  -0.066   1.234  0.00  0.00    -0.057 A 
ENDROOT
BRANCH   1   7
ATOM      7  N   UNL d   1       0.076   1.634  -0.118  0.00  0.00    -0.732 N 
ATOM      8  C   UNL d   1       1.285   2.189   0.452  0.00  0.00     0.284 C 
ATOM      9  H3  UNL d   1      -0.119   1.949  -1.066  0.00  0.00     0.395 HD
ENDBRANCH   1   7
TORSDOF 1
ENDMDL
