MODEL 1
REMARK minimizedAffinity 3.56983519
REMARK minimizedRMSD -1
REMARK  1 active torsions:
REMARK  status: ('A' for Active; 'I' for Inactive)
REMARK    1  A    between atoms: N_2  and  C1_3 
ROOT
ATOM      1  C1  UNL d   1       5.966  -2.299   3.188  0.00  0.00     0.143 A 
ATOM      2  C2  UNL d   1       5.918  -1.185   4.033  0.00  0.00    -0.057 A 
ATOM      3  C3  UNL d   1       5.938  -1.329   5.426  0.00  0.00     0.033 A 
ATOM      4  C4  UNL d   1       5.976  -2.595   6.000  0.00  0.00    -0.042 A 
ATOM      5  C5  UNL d   1       5.998  -3.717   5.179  0.00  0.00     0.033 A 
ATOM      6  C6  UNL d   1       5.985  -3.567   3.789  0.00  0.00    -0.057 A 
ENDROOT
BRANCH   1   7
ATOM      7  N   UNL d   1       5.850  -2.226   1.798  0.00  0.00    -0.732 N 
ATOM      8  C   UNL d   1       4.555  -2.326   1.160  0.00  0.00     0.284 C 
ATOM      9  H3  UNL d   1       6.458  -1.517   1.394  0.00  0.00     0.395 HD
ENDBRANCH   1   7
TORSDOF 1
ENDMDL
