MODEL 1
REMARK minimizedAffinity -3.81856537
REMARK minimizedRMSD -1
REMARK  1 active torsions:
REMARK  status: ('A' for Active; 'I' for Inactive)
REMARK    1  A    between atoms: N_2  and  C1_3 
ROOT
ATOM      1  C1  UNL d   1      -0.344  -1.984  -0.959  0.00  0.00     0.143 A 
ATOM      2  C2  UNL d   1       0.159  -2.671   0.151  0.00  0.00    -0.057 A 
ATOM      3  C3  UNL d   1      -0.073  -4.041   0.324  0.00  0.00     0.033 A 
ATOM      4  C4  UNL d   1      -0.840  -4.744  -0.599  0.00  0.00    -0.042 A 
ATOM      5  C5  UNL d   1      -1.371  -4.077  -1.697  0.00  0.00     0.033 A 
ATOM      6  C6  UNL d   1      -1.130  -2.710  -1.868  0.00  0.00    -0.057 A 
ENDROOT
BRANCH   1   7
ATOM      7  N   UNL d   1      -0.230  -0.603  -1.136  0.00  0.00    -0.732 N 
ATOM      8  C   UNL d   1      -0.544   0.307  -0.056  0.00  0.00     0.284 C 
ATOM      9  H3  UNL d   1       0.598  -0.347  -1.669  0.00  0.00     0.395 HD
ENDBRANCH   1   7
TORSDOF 1
ENDMDL
