MODEL 1
REMARK minimizedAffinity -3.54004407
REMARK minimizedRMSD -1
REMARK  1 active torsions:
REMARK  status: ('A' for Active; 'I' for Inactive)
REMARK    1  A    between atoms: N_2  and  C1_3 
ROOT
ATOM      1  C1  UNL d   1      -0.385  -0.049  -0.314  0.00  0.00     0.143 A 
ATOM      2  C2  UNL d   1      -0.829  -0.726   0.827  0.00  0.00    -0.057 A 
ATOM      3  C3  UNL d   1      -1.011  -2.114   0.824  0.00  0.00     0.033 A 
ATOM      4  C4  UNL d   1      -0.780  -2.849  -0.334  0.00  0.00    -0.042 A 
ATOM      5  C5  UNL d   1      -0.362  -2.195  -1.488  0.00  0.00     0.033 A 
ATOM      6  C6  UNL d   1      -0.175  -0.809  -1.476  0.00  0.00    -0.057 A 
ENDROOT
BRANCH   1   7
ATOM      7  N   UNL d   1      -0.279   1.341  -0.403  0.00  0.00    -0.732 N 
ATOM      8  C   UNL d   1       0.863   2.030   0.158  0.00  0.00     0.284 C 
ATOM      9  H3  UNL d   1      -0.575   1.696  -1.309  0.00  0.00     0.395 HD
ENDBRANCH   1   7
TORSDOF 1
ENDMDL
