MODEL 1
REMARK minimizedAffinity -5.61882782
REMARK minimizedRMSD -1
REMARK  1 active torsions:
REMARK  status: ('A' for Active; 'I' for Inactive)
REMARK    1  A    between atoms: N_2  and  C1_3 
ROOT
ATOM      1  C1  UNL d   1       0.416  -1.029  -0.412  0.00  0.00     0.143 A 
ATOM      2  C2  UNL d   1       0.228  -2.089   0.482  0.00  0.00    -0.057 A 
ATOM      3  C3  UNL d   1      -0.061  -3.381   0.027  0.00  0.00     0.033 A 
ATOM      4  C4  UNL d   1      -0.196  -3.631  -1.335  0.00  0.00    -0.042 A 
ATOM      5  C5  UNL d   1      -0.038  -2.588  -2.241  0.00  0.00     0.033 A 
ATOM      6  C6  UNL d   1       0.257  -1.301  -1.780  0.00  0.00    -0.057 A 
ENDROOT
BRANCH   1   7
ATOM      7  N   UNL d   1       0.608   0.297  -0.017  0.00  0.00    -0.732 N 
ATOM      8  C   UNL d   1      -0.327   1.327  -0.416  0.00  0.00     0.284 C 
ATOM      9  H3  UNL d   1       0.924   0.373   0.947  0.00  0.00     0.395 HD
ENDBRANCH   1   7
TORSDOF 1
ENDMDL
