MODEL 1
REMARK minimizedAffinity -3.54355454
REMARK minimizedRMSD -1
REMARK  1 active torsions:
REMARK  status: ('A' for Active; 'I' for Inactive)
REMARK    1  A    between atoms: N_2  and  C1_3 
ROOT
ATOM      1  C1  UNL d   1      -0.217   0.465   0.455  0.00  0.00     0.143 A 
ATOM      2  C2  UNL d   1      -0.277   0.209   1.829  0.00  0.00    -0.057 A 
ATOM      3  C3  UNL d   1      -0.768  -1.006   2.321  0.00  0.00     0.033 A 
ATOM      4  C4  UNL d   1      -1.237  -1.979   1.445  0.00  0.00    -0.042 A 
ATOM      5  C5  UNL d   1      -1.210  -1.737   0.076  0.00  0.00     0.033 A 
ATOM      6  C6  UNL d   1      -0.713  -0.524  -0.409  0.00  0.00    -0.057 A 
ENDROOT
BRANCH   1   7
ATOM      7  N   UNL d   1       0.168   1.691  -0.092  0.00  0.00    -0.732 N 
ATOM      8  C   UNL d   1       1.394   2.335   0.332  0.00  0.00     0.284 C 
ATOM      9  H3  UNL d   1      -0.002   1.740  -1.094  0.00  0.00     0.395 HD
ENDBRANCH   1   7
TORSDOF 1
ENDMDL
