MODEL 1
REMARK minimizedAffinity -2.8577404
REMARK minimizedRMSD -1
REMARK  1 active torsions:
REMARK  status: ('A' for Active; 'I' for Inactive)
REMARK    1  A    between atoms: N_2  and  C1_3 
ROOT
ATOM      1  C1  UNL d   1      -0.538   0.046   0.002  0.00  0.00     0.143 A 
ATOM      2  C2  UNL d   1      -0.236  -1.125  -0.700  0.00  0.00    -0.057 A 
ATOM      3  C3  UNL d   1      -0.529  -2.387  -0.169  0.00  0.00     0.033 A 
ATOM      4  C4  UNL d   1      -1.106  -2.501   1.091  0.00  0.00    -0.042 A 
ATOM      5  C5  UNL d   1      -1.392  -1.351   1.819  0.00  0.00     0.033 A 
ATOM      6  C6  UNL d   1      -1.102  -0.093   1.280  0.00  0.00    -0.057 A 
ENDROOT
BRANCH   1   7
ATOM      7  N   UNL d   1      -0.181   1.326  -0.429  0.00  0.00    -0.732 N 
ATOM      8  C   UNL d   1       0.392   2.282   0.494  0.00  0.00     0.284 C 
ATOM      9  H3  UNL d   1       0.260   1.318  -1.346  0.00  0.00     0.395 HD
ENDBRANCH   1   7
TORSDOF 1
ENDMDL
