MODEL 1
REMARK minimizedAffinity -2.08438969
REMARK minimizedRMSD -1
REMARK  1 active torsions:
REMARK  status: ('A' for Active; 'I' for Inactive)
REMARK    1  A    between atoms: N_2  and  C1_3 
ROOT
ATOM      1  C1  UNL d   1      -0.613  -1.356  -1.223  0.00  0.00     0.143 A 
ATOM      2  C2  UNL d   1      -0.826  -2.220  -0.143  0.00  0.00    -0.057 A 
ATOM      3  C3  UNL d   1      -0.887  -1.739   1.171  0.00  0.00     0.033 A 
ATOM      4  C4  UNL d   1      -0.708  -0.385   1.431  0.00  0.00    -0.042 A 
ATOM      5  C5  UNL d   1      -0.470   0.489   0.376  0.00  0.00     0.033 A 
ATOM      6  C6  UNL d   1      -0.417   0.004  -0.935  0.00  0.00    -0.057 A 
ENDROOT
BRANCH   1   7
ATOM      7  N   UNL d   1      -0.444  -1.786  -2.541  0.00  0.00    -0.732 N 
ATOM      8  C   UNL d   1      -0.785  -3.139  -2.925  0.00  0.00     0.284 C 
ATOM      9  H3  UNL d   1      -0.721  -1.079  -3.219  0.00  0.00     0.395 HD
ENDBRANCH   1   7
TORSDOF 1
ENDMDL
