MODEL 1
REMARK minimizedAffinity -5.17211199
REMARK minimizedRMSD -1
REMARK  1 active torsions:
REMARK  status: ('A' for Active; 'I' for Inactive)
REMARK    1  A    between atoms: N_2  and  C1_3 
ROOT
ATOM      1  C1  UNL d   1      -0.054  -1.675  -0.142  0.00  0.00     0.143 A 
ATOM      2  C2  UNL d   1      -0.037  -2.974   0.378  0.00  0.00    -0.057 A 
ATOM      3  C3  UNL d   1       0.142  -4.086  -0.453  0.00  0.00     0.033 A 
ATOM      4  C4  UNL d   1       0.279  -3.921  -1.827  0.00  0.00    -0.042 A 
ATOM      5  C5  UNL d   1       0.240  -2.641  -2.369  0.00  0.00     0.033 A 
ATOM      6  C6  UNL d   1       0.067  -1.533  -1.533  0.00  0.00    -0.057 A 
ENDROOT
BRANCH   1   7
ATOM      7  N   UNL d   1      -0.327  -0.536   0.620  0.00  0.00    -0.732 N 
ATOM      8  C   UNL d   1      -0.509   0.750  -0.018  0.00  0.00     0.284 C 
ATOM      9  H3  UNL d   1      -0.983  -0.722   1.375  0.00  0.00     0.395 HD
ENDBRANCH   1   7
TORSDOF 1
ENDMDL
