MODEL 1
REMARK minimizedAffinity -2.82552171
REMARK minimizedRMSD -1
REMARK  1 active torsions:
REMARK  status: ('A' for Active; 'I' for Inactive)
REMARK    1  A    between atoms: N_2  and  C1_3 
ROOT
ATOM      1  C1  UNL d   1       0.727   1.786   0.323  0.00  0.00     0.143 A 
ATOM      2  C2  UNL d   1       0.206   0.965   1.329  0.00  0.00    -0.057 A 
ATOM      3  C3  UNL d   1      -0.664  -0.090   1.028  0.00  0.00     0.033 A 
ATOM      4  C4  UNL d   1      -1.053  -0.324  -0.287  0.00  0.00    -0.042 A 
ATOM      5  C5  UNL d   1      -0.567   0.494  -1.300  0.00  0.00     0.033 A 
ATOM      6  C6  UNL d   1       0.306   1.542  -0.994  0.00  0.00    -0.057 A 
ENDROOT
BRANCH   1   7
ATOM      7  N   UNL d   1       1.518   2.911   0.569  0.00  0.00    -0.732 N 
ATOM      8  C   UNL d   1       1.911   3.256   1.918  0.00  0.00     0.284 C 
ATOM      9  H3  UNL d   1       2.257   3.025  -0.121  0.00  0.00     0.395 HD
ENDBRANCH   1   7
TORSDOF 1
ENDMDL
