MODEL 1
REMARK minimizedAffinity 6.86572886
REMARK minimizedRMSD -1
REMARK  0 active torsions:
REMARK  status: ('A' for Active; 'I' for Inactive)
ROOT
ATOM      1  C   UNL d   1      -3.812   0.373  -0.583  0.00  0.00     0.077 C 
ATOM      2  C1  UNL d   1      -2.729   0.327   0.454  0.00  0.00    -0.074 A 
ATOM      3  C2  UNL d   1      -3.038   0.349   1.818  0.00  0.00    -0.005 A 
ATOM      4  C3  UNL d   1      -2.021   0.296   2.771  0.00  0.00     0.006 A 
ATOM      5  C4  UNL d   1      -0.687   0.220   2.370  0.00  0.00    -0.005 A 
ATOM      6  C5  UNL d   1      -0.358   0.196   1.011  0.00  0.00    -0.074 A 
ATOM      7  C6  UNL d   1       1.070   0.105   0.563  0.00  0.00     0.077 C 
ATOM      8  C7  UNL d   1      -1.387   0.243   0.059  0.00  0.00    -0.001 A 
ENDROOT
TORSDOF 0
ENDMDL
