MODEL 1
REMARK minimizedAffinity 12.2241821
REMARK minimizedRMSD -1
REMARK  0 active torsions:
REMARK  status: ('A' for Active; 'I' for Inactive)
ROOT
ATOM      1  C   UNL d   1       1.530   0.200   0.453  0.00  0.00     0.077 C 
ATOM      2  C1  UNL d   1       0.032   0.147   0.405  0.00  0.00    -0.074 A 
ATOM      3  C2  UNL d   1      -0.641  -0.074  -0.801  0.00  0.00    -0.005 A 
ATOM      4  C3  UNL d   1      -2.035  -0.130  -0.828  0.00  0.00     0.006 A 
ATOM      5  C4  UNL d   1      -2.768   0.035   0.348  0.00  0.00    -0.005 A 
ATOM      6  C5  UNL d   1      -2.112   0.256   1.563  0.00  0.00    -0.074 A 
ATOM      7  C6  UNL d   1      -2.884   0.425   2.837  0.00  0.00     0.077 C 
ATOM      8  C7  UNL d   1      -0.711   0.304   1.583  0.00  0.00    -0.001 A 
ENDROOT
TORSDOF 0
ENDMDL
