MODEL 1
REMARK minimizedAffinity 7.00311375
REMARK minimizedRMSD -1
REMARK  0 active torsions:
REMARK  status: ('A' for Active; 'I' for Inactive)
ROOT
ATOM      1  C   UNL d   1       2.116  -0.504  -0.145  0.00  0.00     0.077 C 
ATOM      2  C1  UNL d   1       0.626  -0.378  -0.024  0.00  0.00    -0.074 A 
ATOM      3  C2  UNL d   1      -0.210  -0.667  -1.107  0.00  0.00    -0.005 A 
ATOM      4  C3  UNL d   1      -1.594  -0.554  -0.977  0.00  0.00     0.006 A 
ATOM      5  C4  UNL d   1      -2.155  -0.152   0.236  0.00  0.00    -0.005 A 
ATOM      6  C5  UNL d   1      -1.335   0.140   1.331  0.00  0.00    -0.074 A 
ATOM      7  C6  UNL d   1      -1.923   0.564   2.644  0.00  0.00     0.077 C 
ATOM      8  C7  UNL d   1       0.054   0.018   1.194  0.00  0.00    -0.001 A 
ENDROOT
TORSDOF 0
ENDMDL
