MODEL 1
REMARK minimizedAffinity 3.6036942
REMARK minimizedRMSD -1
REMARK  0 active torsions:
REMARK  status: ('A' for Active; 'I' for Inactive)
ROOT
ATOM      1  C   UNL d   1      -0.573  -1.488   4.833  0.00  0.00     0.077 C 
ATOM      2  C1  UNL d   1      -1.364  -0.807   3.756  0.00  0.00    -0.074 A 
ATOM      3  C2  UNL d   1      -2.561  -1.358   3.286  0.00  0.00    -0.005 A 
ATOM      4  C3  UNL d   1      -3.291  -0.708   2.291  0.00  0.00     0.006 A 
ATOM      5  C4  UNL d   1      -2.832   0.497   1.756  0.00  0.00    -0.005 A 
ATOM      6  C5  UNL d   1      -1.639   1.063   2.214  0.00  0.00    -0.074 A 
ATOM      7  C6  UNL d   1      -1.137   2.362   1.657  0.00  0.00     0.077 C 
ATOM      8  C7  UNL d   1      -0.914   0.408   3.219  0.00  0.00    -0.001 A 
ENDROOT
TORSDOF 0
ENDMDL
