MODEL 1
REMARK minimizedAffinity 5.22145891
REMARK minimizedRMSD -1
REMARK  0 active torsions:
REMARK  status: ('A' for Active; 'I' for Inactive)
ROOT
ATOM      1  C   UNL d   1       1.408   0.409   1.122  0.00  0.00     0.077 C 
ATOM      2  C1  UNL d   1       0.574  -0.375   0.153  0.00  0.00    -0.074 A 
ATOM      3  C2  UNL d   1       1.164  -1.281  -0.734  0.00  0.00    -0.005 A 
ATOM      4  C3  UNL d   1       0.375  -2.010  -1.624  0.00  0.00     0.006 A 
ATOM      5  C4  UNL d   1      -1.010  -1.839  -1.636  0.00  0.00    -0.005 A 
ATOM      6  C5  UNL d   1      -1.618  -0.938  -0.757  0.00  0.00    -0.074 A 
ATOM      7  C6  UNL d   1      -3.106  -0.750  -0.750  0.00  0.00     0.077 C 
ATOM      8  C7  UNL d   1      -0.819  -0.215   0.139  0.00  0.00    -0.001 A 
ENDROOT
TORSDOF 0
ENDMDL
