MODEL 1
REMARK minimizedAffinity -1.8738488
REMARK minimizedRMSD -1
REMARK  0 active torsions:
REMARK  status: ('A' for Active; 'I' for Inactive)
ROOT
ATOM      1  C   UNL d   1      -2.580  -1.649  -0.127  0.00  0.00     0.077 C 
ATOM      2  C1  UNL d   1      -1.810  -0.468   0.385  0.00  0.00    -0.074 A 
ATOM      3  C2  UNL d   1      -1.275   0.478  -0.495  0.00  0.00    -0.005 A 
ATOM      4  C3  UNL d   1      -0.569   1.576  -0.003  0.00  0.00     0.006 A 
ATOM      5  C4  UNL d   1      -0.391   1.739   1.372  0.00  0.00    -0.005 A 
ATOM      6  C5  UNL d   1      -0.920   0.803   2.267  0.00  0.00    -0.074 A 
ATOM      7  C6  UNL d   1      -0.747   0.968   3.748  0.00  0.00     0.077 C 
ATOM      8  C7  UNL d   1      -1.634  -0.294   1.765  0.00  0.00    -0.001 A 
ENDROOT
TORSDOF 0
ENDMDL
