MODEL 1
REMARK minimizedAffinity 3.35698533
REMARK minimizedRMSD -1
REMARK  0 active torsions:
REMARK  status: ('A' for Active; 'I' for Inactive)
ROOT
ATOM      1  C   UNL d   1       1.054   0.265   0.475  0.00  0.00     0.077 C 
ATOM      2  C1  UNL d   1      -0.399  -0.077   0.338  0.00  0.00    -0.074 A 
ATOM      3  C2  UNL d   1      -0.971  -0.295  -0.920  0.00  0.00    -0.005 A 
ATOM      4  C3  UNL d   1      -2.322  -0.623  -1.032  0.00  0.00     0.006 A 
ATOM      5  C4  UNL d   1      -3.114  -0.735   0.111  0.00  0.00    -0.005 A 
ATOM      6  C5  UNL d   1      -2.561  -0.521   1.377  0.00  0.00    -0.074 A 
ATOM      7  C6  UNL d   1      -3.396  -0.648   2.617  0.00  0.00     0.077 C 
ATOM      8  C7  UNL d   1      -1.200  -0.200   1.482  0.00  0.00    -0.001 A 
ENDROOT
TORSDOF 0
ENDMDL
