MODEL 1
REMARK minimizedAffinity 9.78605652
REMARK minimizedRMSD -1
REMARK  0 active torsions:
REMARK  status: ('A' for Active; 'I' for Inactive)
ROOT
ATOM      1  N1  IND d   1       1.584  -3.455   0.713  0.00  0.00    -0.196 N 
ATOM      2  C2  IND d   1       2.520  -2.714   0.046  0.00  0.00     0.054 A 
ATOM      3  C3  IND d   1       2.443  -1.416   0.415  0.00  0.00    -0.031 A 
ATOM      4  C4  IND d   1       0.925  -0.302   2.171  0.00  0.00     0.051 A 
ATOM      5  C5  IND d   1      -0.118  -0.564   3.015  0.00  0.00    -0.031 A 
ATOM      6  C6  IND d   1      -0.656  -1.829   3.139  0.00  0.00     0.015 A 
ATOM      7  C7  IND d   1      -0.161  -2.886   2.429  0.00  0.00    -0.016 A 
ATOM      8  C8  IND d   1       0.893  -2.623   1.566  0.00  0.00    -0.047 A 
ATOM      9  C9  IND d   1       1.415  -1.333   1.405  0.00  0.00    -0.096 A 
ATOM     10  HN1 IND d   1       1.450  -4.298   0.616  0.00  0.00     0.298 HD
ENDROOT
TORSDOF 0
ENDMDL
