MODEL 1
REMARK minimizedAffinity 13.2276249
REMARK minimizedRMSD -1
REMARK  0 active torsions:
REMARK  status: ('A' for Active; 'I' for Inactive)
ROOT
ATOM      1  N1  IND d   1      -3.379   1.840   4.642  0.00  0.00    -0.196 N 
ATOM      2  C2  IND d   1      -4.561   1.465   5.218  0.00  0.00     0.054 A 
ATOM      3  C3  IND d   1      -5.128   2.514   5.854  0.00  0.00    -0.031 A 
ATOM      4  C4  IND d   1      -4.342   4.962   5.994  0.00  0.00     0.051 A 
ATOM      5  C5  IND d   1      -3.300   5.779   5.656  0.00  0.00    -0.031 A 
ATOM      6  C6  IND d   1      -2.211   5.317   4.946  0.00  0.00     0.015 A 
ATOM      7  C7  IND d   1      -2.128   4.017   4.536  0.00  0.00    -0.016 A 
ATOM      8  C8  IND d   1      -3.180   3.182   4.883  0.00  0.00    -0.047 A 
ATOM      9  C9  IND d   1      -4.268   3.635   5.640  0.00  0.00    -0.096 A 
ATOM     10  HN1 IND d   1      -2.849   1.325   4.203  0.00  0.00     0.298 HD
ENDROOT
TORSDOF 0
ENDMDL
