MODEL 1
REMARK minimizedAffinity 6.77060747
REMARK minimizedRMSD -1
REMARK  0 active torsions:
REMARK  status: ('A' for Active; 'I' for Inactive)
ROOT
ATOM      1  N1  IND d   1       1.228  -4.949   0.910  0.00  0.00    -0.196 N 
ATOM      2  C2  IND d   1       2.540  -4.597   0.758  0.00  0.00     0.054 A 
ATOM      3  C3  IND d   1       2.739  -3.329   1.182  0.00  0.00    -0.031 A 
ATOM      4  C4  IND d   1       1.076  -1.683   2.257  0.00  0.00     0.051 A 
ATOM      5  C5  IND d   1      -0.246  -1.539   2.570  0.00  0.00    -0.031 A 
ATOM      6  C6  IND d   1      -1.163  -2.546   2.344  0.00  0.00     0.015 A 
ATOM      7  C7  IND d   1      -0.788  -3.743   1.805  0.00  0.00    -0.016 A 
ATOM      8  C8  IND d   1       0.553  -3.891   1.478  0.00  0.00    -0.047 A 
ATOM      9  C9  IND d   1       1.480  -2.857   1.666  0.00  0.00    -0.096 A 
ATOM     10  HN1 IND d   1       0.882  -5.704   0.688  0.00  0.00     0.298 HD
ENDROOT
TORSDOF 0
ENDMDL
