MODEL 1
REMARK minimizedAffinity 11.3006935
REMARK minimizedRMSD -1
REMARK  0 active torsions:
REMARK  status: ('A' for Active; 'I' for Inactive)
ROOT
ATOM      1  N1  IND d   1      -2.898   2.987  -3.741  0.00  0.00    -0.196 N 
ATOM      2  C2  IND d   1      -2.210   2.337  -2.755  0.00  0.00     0.054 A 
ATOM      3  C3  IND d   1      -2.844   1.193  -2.414  0.00  0.00    -0.031 A 
ATOM      4  C4  IND d   1      -4.970   0.142  -3.415  0.00  0.00     0.051 A 
ATOM      5  C5  IND d   1      -5.972   0.384  -4.313  0.00  0.00    -0.031 A 
ATOM      6  C6  IND d   1      -5.999   1.528  -5.084  0.00  0.00     0.015 A 
ATOM      7  C7  IND d   1      -5.015   2.471  -4.993  0.00  0.00    -0.016 A 
ATOM      8  C8  IND d   1      -4.000   2.232  -4.077  0.00  0.00    -0.047 A 
ATOM      9  C9  IND d   1      -3.990   1.093  -3.261  0.00  0.00    -0.096 A 
ATOM     10  HN1 IND d   1      -2.679   3.741  -4.092  0.00  0.00     0.298 HD
ENDROOT
TORSDOF 0
ENDMDL
