MODEL 1
REMARK minimizedAffinity 0.657400966
REMARK minimizedRMSD -1
REMARK  0 active torsions:
REMARK  status: ('A' for Active; 'I' for Inactive)
ROOT
ATOM      1  N1  IND d   1      -4.892   4.835   6.000  0.00  0.00    -0.196 N 
ATOM      2  C2  IND d   1      -3.601   5.284   6.000  0.00  0.00     0.054 A 
ATOM      3  C3  IND d   1      -2.795   4.399   5.373  0.00  0.00    -0.031 A 
ATOM      4  C4  IND d   1      -3.396   2.196   4.184  0.00  0.00     0.051 A 
ATOM      5  C5  IND d   1      -4.443   1.349   3.950  0.00  0.00    -0.031 A 
ATOM      6  C6  IND d   1      -5.720   1.628   4.394  0.00  0.00     0.015 A 
ATOM      7  C7  IND d   1      -6.000   2.775   5.082  0.00  0.00    -0.016 A 
ATOM      8  C8  IND d   1      -4.938   3.633   5.327  0.00  0.00    -0.047 A 
ATOM      9  C9  IND d   1      -3.632   3.336   4.916  0.00  0.00    -0.096 A 
ATOM     10  HN1 IND d   1      -5.562   5.235   6.360  0.00  0.00     0.298 HD
ENDROOT
TORSDOF 0
ENDMDL
