MODEL 1
REMARK minimizedAffinity 0.912378252
REMARK minimizedRMSD -1
REMARK  0 active torsions:
REMARK  status: ('A' for Active; 'I' for Inactive)
ROOT
ATOM      1  N1  IND d   1       2.129   2.679   3.215  0.00  0.00    -0.196 N 
ATOM      2  C2  IND d   1       1.527   2.945   2.016  0.00  0.00     0.054 A 
ATOM      3  C3  IND d   1       0.860   4.120   2.075  0.00  0.00    -0.031 A 
ATOM      4  C4  IND d   1       0.708   5.819   4.003  0.00  0.00     0.051 A 
ATOM      5  C5  IND d   1       1.063   5.999   5.311  0.00  0.00    -0.031 A 
ATOM      6  C6  IND d   1       1.808   5.064   6.000  0.00  0.00     0.015 A 
ATOM      7  C7  IND d   1       2.238   3.914   5.400  0.00  0.00    -0.016 A 
ATOM      8  C8  IND d   1       1.874   3.725   4.075  0.00  0.00    -0.047 A 
ATOM      9  C9  IND d   1       1.082   4.650   3.383  0.00  0.00    -0.096 A 
ATOM     10  HN1 IND d   1       2.589   1.977   3.400  0.00  0.00     0.298 HD
ENDROOT
TORSDOF 0
ENDMDL
