MODEL 1
REMARK minimizedAffinity -5.90102053
REMARK minimizedRMSD -1
REMARK  1 active torsions:
REMARK  status: ('A' for Active; 'I' for Inactive)
REMARK    1  A    between atoms: C1_2  and  C2_3 
ROOT
ATOM      1  C2  UNL d   1      -0.100  -2.204   0.172  0.00  0.00    -0.077 A 
ATOM      2  C3  UNL d   1      -0.213  -0.942   0.770  0.00  0.00     0.002 A 
ATOM      3  C4  UNL d   1       0.352   0.181   0.162  0.00  0.00     0.002 A 
ATOM      4  C5  UNL d   1       1.029   0.053  -1.049  0.00  0.00    -0.004 A 
ATOM      5  C6  UNL d   1       1.148  -1.199  -1.651  0.00  0.00     0.002 A 
ATOM      6  C7  UNL d   1       0.586  -2.322  -1.044  0.00  0.00     0.002 A 
ENDROOT
BRANCH   1   7
ATOM      7  C1  UNL d   1      -0.750  -3.409   0.801  0.00  0.00     0.055 C 
ATOM      8  C   UNL d   1      -1.864  -3.959  -0.078  0.00  0.00     0.019 C 
ENDBRANCH   1   7
TORSDOF 1
ENDMDL
