MODEL 1
REMARK minimizedAffinity -1.5067662
REMARK minimizedRMSD -1
REMARK  1 active torsions:
REMARK  status: ('A' for Active; 'I' for Inactive)
REMARK    1  A    between atoms: C1_2  and  C2_3 
ROOT
ATOM      1  C2  UNL d   1       0.001  -0.417  -1.076  0.00  0.00    -0.077 A 
ATOM      2  C3  UNL d   1      -0.334   0.640  -0.218  0.00  0.00     0.002 A 
ATOM      3  C4  UNL d   1      -0.926   0.383   1.021  0.00  0.00     0.002 A 
ATOM      4  C5  UNL d   1      -1.183  -0.928   1.413  0.00  0.00    -0.004 A 
ATOM      5  C6  UNL d   1      -0.855  -1.986   0.566  0.00  0.00     0.002 A 
ATOM      6  C7  UNL d   1      -0.265  -1.731  -0.673  0.00  0.00     0.002 A 
ENDROOT
BRANCH   1   7
ATOM      7  C1  UNL d   1       0.684  -0.145  -2.391  0.00  0.00     0.055 C 
ATOM      8  C   UNL d   1       0.728  -1.393  -3.260  0.00  0.00     0.019 C 
ENDBRANCH   1   7
TORSDOF 1
ENDMDL
