MODEL 1
REMARK minimizedAffinity -4.79967785
REMARK minimizedRMSD -1
REMARK  1 active torsions:
REMARK  status: ('A' for Active; 'I' for Inactive)
REMARK    1  A    between atoms: C1_2  and  C2_3 
ROOT
ATOM      1  C2  UNL d   1      -0.186  -0.786  -0.659  0.00  0.00    -0.077 A 
ATOM      2  C3  UNL d   1      -0.303  -1.892  -1.514  0.00  0.00     0.002 A 
ATOM      3  C4  UNL d   1      -0.322  -3.187  -0.993  0.00  0.00     0.002 A 
ATOM      4  C5  UNL d   1      -0.228  -3.389   0.382  0.00  0.00    -0.004 A 
ATOM      5  C6  UNL d   1      -0.109  -2.296   1.240  0.00  0.00     0.002 A 
ATOM      6  C7  UNL d   1      -0.089  -1.000   0.721  0.00  0.00     0.002 A 
ENDROOT
BRANCH   1   7
ATOM      7  C1  UNL d   1      -0.215   0.614  -1.215  0.00  0.00     0.055 C 
ATOM      8  C   UNL d   1      -0.135   1.652  -0.104  0.00  0.00     0.019 C 
ENDBRANCH   1   7
TORSDOF 1
ENDMDL
