MODEL 1
REMARK minimizedAffinity -2.1193161
REMARK minimizedRMSD -1
REMARK  1 active torsions:
REMARK  status: ('A' for Active; 'I' for Inactive)
REMARK    1  A    between atoms: C1_2  and  C2_3 
ROOT
ATOM      1  C2  UNL d   1       0.597   1.798   0.259  0.00  0.00    -0.077 A 
ATOM      2  C3  UNL d   1       1.997   1.874   0.286  0.00  0.00     0.002 A 
ATOM      3  C4  UNL d   1       2.633   3.049   0.690  0.00  0.00     0.002 A 
ATOM      4  C5  UNL d   1       1.879   4.156   1.074  0.00  0.00    -0.004 A 
ATOM      5  C6  UNL d   1       0.486   4.091   1.049  0.00  0.00     0.002 A 
ATOM      6  C7  UNL d   1      -0.152   2.918   0.644  0.00  0.00     0.002 A 
ENDROOT
BRANCH   1   7
ATOM      7  C1  UNL d   1      -0.091   0.516  -0.129  0.00  0.00     0.055 C 
ATOM      8  C   UNL d   1      -0.039   0.293  -1.633  0.00  0.00     0.019 C 
ENDBRANCH   1   7
TORSDOF 1
ENDMDL
