MODEL 1
REMARK minimizedAffinity -5.66464567
REMARK minimizedRMSD -1
REMARK  1 active torsions:
REMARK  status: ('A' for Active; 'I' for Inactive)
REMARK    1  A    between atoms: C1_2  and  C2_3 
ROOT
ATOM      1  C2  UNL d   1      -0.126  -0.298  -0.334  0.00  0.00    -0.077 A 
ATOM      2  C3  UNL d   1       0.370  -1.111  -1.363  0.00  0.00     0.002 A 
ATOM      3  C4  UNL d   1       0.443  -2.496  -1.196  0.00  0.00     0.002 A 
ATOM      4  C5  UNL d   1       0.019  -3.079  -0.004  0.00  0.00    -0.004 A 
ATOM      5  C6  UNL d   1      -0.473  -2.278   1.026  0.00  0.00     0.002 A 
ATOM      6  C7  UNL d   1      -0.546  -0.894   0.861  0.00  0.00     0.002 A 
ENDROOT
BRANCH   1   7
ATOM      7  C1  UNL d   1      -0.252   1.190  -0.531  0.00  0.00     0.055 C 
ATOM      8  C   UNL d   1       0.906   1.934   0.119  0.00  0.00     0.019 C 
ENDBRANCH   1   7
TORSDOF 1
ENDMDL
