MODEL 1
REMARK minimizedAffinity -5.55716419
REMARK minimizedRMSD -1
REMARK  1 active torsions:
REMARK  status: ('A' for Active; 'I' for Inactive)
REMARK    1  A    between atoms: C1_2  and  C2_3 
ROOT
ATOM      1  C2  UNL d   1      -0.191  -1.214  -0.169  0.00  0.00    -0.077 A 
ATOM      2  C3  UNL d   1      -0.218  -2.515   0.353  0.00  0.00     0.002 A 
ATOM      3  C4  UNL d   1       0.043  -3.612  -0.470  0.00  0.00     0.002 A 
ATOM      4  C5  UNL d   1       0.338  -3.419  -1.818  0.00  0.00    -0.004 A 
ATOM      5  C6  UNL d   1       0.365  -2.129  -2.348  0.00  0.00     0.002 A 
ATOM      6  C7  UNL d   1       0.102  -1.032  -1.527  0.00  0.00     0.002 A 
ENDROOT
BRANCH   1   7
ATOM      7  C1  UNL d   1      -0.425  -0.026   0.728  0.00  0.00     0.055 C 
ATOM      8  C   UNL d   1       0.175   1.241   0.135  0.00  0.00     0.019 C 
ENDBRANCH   1   7
TORSDOF 1
ENDMDL
