MODEL 1
REMARK minimizedAffinity -6.27551413
REMARK minimizedRMSD -1
REMARK  1 active torsions:
REMARK  status: ('A' for Active; 'I' for Inactive)
REMARK    1  A    between atoms: C1_2  and  C2_3 
ROOT
ATOM      1  C2  UNL d   1      -0.173  -1.311   0.231  0.00  0.00    -0.077 A 
ATOM      2  C3  UNL d   1       0.580  -1.320  -0.952  0.00  0.00     0.002 A 
ATOM      3  C4  UNL d   1       0.802  -2.515  -1.639  0.00  0.00     0.002 A 
ATOM      4  C5  UNL d   1       0.271  -3.708  -1.154  0.00  0.00    -0.004 A 
ATOM      5  C6  UNL d   1      -0.478  -3.710   0.023  0.00  0.00     0.002 A 
ATOM      6  C7  UNL d   1      -0.700  -2.517   0.711  0.00  0.00     0.002 A 
ENDROOT
BRANCH   1   7
ATOM      7  C1  UNL d   1      -0.455  -0.016   0.947  0.00  0.00     0.055 C 
ATOM      8  C   UNL d   1       0.096   1.174   0.175  0.00  0.00     0.019 C 
ENDBRANCH   1   7
TORSDOF 1
ENDMDL
