MODEL 1
REMARK minimizedAffinity -5.49580717
REMARK minimizedRMSD -1
REMARK  1 active torsions:
REMARK  status: ('A' for Active; 'I' for Inactive)
REMARK    1  A    between atoms: C1_2  and  C2_3 
ROOT
ATOM      1  C2  UNL d   1       0.064  -1.352  -0.303  0.00  0.00    -0.077 A 
ATOM      2  C3  UNL d   1       0.400  -2.399   0.567  0.00  0.00     0.002 A 
ATOM      3  C4  UNL d   1       0.640  -3.681   0.068  0.00  0.00     0.002 A 
ATOM      4  C5  UNL d   1       0.552  -3.926  -1.300  0.00  0.00    -0.004 A 
ATOM      5  C6  UNL d   1       0.217  -2.892  -2.173  0.00  0.00     0.002 A 
ATOM      6  C7  UNL d   1      -0.025  -1.610  -1.677  0.00  0.00     0.002 A 
ENDROOT
BRANCH   1   7
ATOM      7  C1  UNL d   1      -0.147   0.043   0.227  0.00  0.00     0.055 C 
ATOM      8  C   UNL d   1      -0.066   1.076  -0.887  0.00  0.00     0.019 C 
ENDBRANCH   1   7
TORSDOF 1
ENDMDL
