MODEL 1
REMARK minimizedAffinity -5.54560709
REMARK minimizedRMSD -1
REMARK  1 active torsions:
REMARK  status: ('A' for Active; 'I' for Inactive)
REMARK    1  A    between atoms: C1_2  and  C2_3 
ROOT
ATOM      1  C2  UNL d   1       0.584   0.185  -0.063  0.00  0.00    -0.077 A 
ATOM      2  C3  UNL d   1       1.013  -1.057  -0.551  0.00  0.00     0.002 A 
ATOM      3  C4  UNL d   1       0.339  -2.227  -0.194  0.00  0.00     0.002 A 
ATOM      4  C5  UNL d   1      -0.768  -2.166   0.649  0.00  0.00    -0.004 A 
ATOM      5  C6  UNL d   1      -1.200  -0.935   1.142  0.00  0.00     0.002 A 
ATOM      6  C7  UNL d   1      -0.528   0.235   0.787  0.00  0.00     0.002 A 
ENDROOT
BRANCH   1   7
ATOM      7  C1  UNL d   1       1.279   1.453  -0.487  0.00  0.00     0.055 C 
ATOM      8  C   UNL d   1       0.971   2.598   0.467  0.00  0.00     0.019 C 
ENDBRANCH   1   7
TORSDOF 1
ENDMDL
