MODEL 1
REMARK minimizedAffinity -4.01892424
REMARK minimizedRMSD -1
REMARK  0 active torsions:
REMARK  status: ('A' for Active; 'I' for Inactive)
ROOT
ATOM      1  C4' PXY d   1       2.311  -1.729   3.670  0.00  0.00     0.077 C 
ATOM      2  C1' PXY d   1       0.025   0.575  -1.113  0.00  0.00     0.077 C 
ATOM      3  C1  PXY d   1       0.616  -0.023   0.148  0.00  0.00    -0.082 A 
ATOM      4  C2  PXY d   1       1.874  -0.432   0.152  0.00  0.00     0.003 A 
ATOM      5  C3  PXY d   1       2.415  -1.004   1.274  0.00  0.00     0.003 A 
ATOM      6  C4  PXY d   1       1.675  -1.110   2.422  0.00  0.00    -0.082 A 
ATOM      7  C5  PXY d   1       0.394  -0.686   2.430  0.00  0.00     0.003 A 
ATOM      8  C6  PXY d   1      -0.148  -0.146   1.268  0.00  0.00     0.003 A 
ENDROOT
TORSDOF 0
ENDMDL
