MODEL 1
REMARK minimizedAffinity -3.08465004
REMARK minimizedRMSD -1
REMARK  0 active torsions:
REMARK  status: ('A' for Active; 'I' for Inactive)
ROOT
ATOM      1  C4' PXY d   1      -0.378   0.136  -2.755  0.00  0.00     0.077 C 
ATOM      2  C1' PXY d   1       1.513  -0.449   2.676  0.00  0.00     0.077 C 
ATOM      3  C1  PXY d   1       1.005  -0.297   1.255  0.00  0.00    -0.082 A 
ATOM      4  C2  PXY d   1       1.824  -0.521   0.241  0.00  0.00     0.003 A 
ATOM      5  C3  PXY d   1       1.390  -0.358  -1.050  0.00  0.00     0.003 A 
ATOM      6  C4  PXY d   1       0.089  -0.014  -1.305  0.00  0.00    -0.082 A 
ATOM      7  C5  PXY d   1      -0.755   0.206  -0.275  0.00  0.00     0.003 A 
ATOM      8  C6  PXY d   1      -0.284   0.075   1.028  0.00  0.00     0.003 A 
ENDROOT
TORSDOF 0
ENDMDL
