MODEL 1
REMARK minimizedAffinity -2.57334208
REMARK minimizedRMSD -1
REMARK  0 active torsions:
REMARK  status: ('A' for Active; 'I' for Inactive)
ROOT
ATOM      1  C4' PXY d   1      -2.019   0.803  -0.923  0.00  0.00     0.077 C 
ATOM      2  C1' PXY d   1       1.877  -1.368   2.754  0.00  0.00     0.077 C 
ATOM      3  C1  PXY d   1       0.847  -0.808   1.794  0.00  0.00    -0.082 A 
ATOM      4  C2  PXY d   1       1.245  -0.113   0.740  0.00  0.00     0.003 A 
ATOM      5  C3  PXY d   1       0.325   0.428  -0.121  0.00  0.00     0.003 A 
ATOM      6  C4  PXY d   1      -1.013   0.210   0.068  0.00  0.00    -0.082 A 
ATOM      7  C5  PXY d   1      -1.426  -0.506   1.135  0.00  0.00     0.003 A 
ATOM      8  C6  PXY d   1      -0.479  -1.012   2.020  0.00  0.00     0.003 A 
ENDROOT
TORSDOF 0
ENDMDL
