MODEL 1
REMARK minimizedAffinity 0.719291568
REMARK minimizedRMSD -1
REMARK  0 active torsions:
REMARK  status: ('A' for Active; 'I' for Inactive)
ROOT
ATOM      1  C4' PXY d   1       0.057   2.944  -0.153  0.00  0.00     0.077 C 
ATOM      2  C1' PXY d   1       1.412   4.200  -5.630  0.00  0.00     0.077 C 
ATOM      3  C1  PXY d   1       1.065   3.880  -4.190  0.00  0.00    -0.082 A 
ATOM      4  C2  PXY d   1       0.591   2.684  -3.881  0.00  0.00     0.003 A 
ATOM      5  C3  PXY d   1       0.242   2.388  -2.588  0.00  0.00     0.003 A 
ATOM      6  C4  PXY d   1       0.430   3.308  -1.592  0.00  0.00    -0.082 A 
ATOM      7  C5  PXY d   1       0.923   4.528  -1.897  0.00  0.00     0.003 A 
ATOM      8  C6  PXY d   1       1.232   4.822  -3.222  0.00  0.00     0.003 A 
ENDROOT
TORSDOF 0
ENDMDL
