MODEL 1
REMARK minimizedAffinity -4.14644909
REMARK minimizedRMSD -1
REMARK  0 active torsions:
REMARK  status: ('A' for Active; 'I' for Inactive)
ROOT
ATOM      1  C4' PXY d   1      -0.048  -1.029   2.304  0.00  0.00     0.077 C 
ATOM      2  C1' PXY d   1      -0.761   1.907  -2.624  0.00  0.00     0.077 C 
ATOM      3  C1  PXY d   1      -0.587   1.135  -1.331  0.00  0.00    -0.082 A 
ATOM      4  C2  PXY d   1       0.465   1.371  -0.565  0.00  0.00     0.003 A 
ATOM      5  C3  PXY d   1       0.655   0.659   0.591  0.00  0.00     0.003 A 
ATOM      6  C4  PXY d   1      -0.270  -0.266   0.994  0.00  0.00    -0.082 A 
ATOM      7  C5  PXY d   1      -1.352  -0.505   0.224  0.00  0.00     0.003 A 
ATOM      8  C6  PXY d   1      -1.505   0.199  -0.967  0.00  0.00     0.003 A 
ENDROOT
TORSDOF 0
ENDMDL
