MODEL 1
REMARK minimizedAffinity -1.30588186
REMARK minimizedRMSD -1
REMARK  0 active torsions:
REMARK  status: ('A' for Active; 'I' for Inactive)
ROOT
ATOM      1  C4' PXY d   1      -0.464   0.767  -2.067  0.00  0.00     0.077 C 
ATOM      2  C1' PXY d   1       1.279  -1.656   2.883  0.00  0.00     0.077 C 
ATOM      3  C1  PXY d   1       0.834  -1.022   1.580  0.00  0.00    -0.082 A 
ATOM      4  C2  PXY d   1      -0.207  -0.206   1.572  0.00  0.00     0.003 A 
ATOM      5  C3  PXY d   1      -0.643   0.351   0.397  0.00  0.00     0.003 A 
ATOM      6  C4  PXY d   1       0.026   0.111  -0.773  0.00  0.00    -0.082 A 
ATOM      7  C5  PXY d   1       1.096  -0.712  -0.771  0.00  0.00     0.003 A 
ATOM      8  C6  PXY d   1       1.497  -1.299   0.425  0.00  0.00     0.003 A 
ENDROOT
TORSDOF 0
ENDMDL
