MODEL 1
REMARK minimizedAffinity -4.44254303
REMARK minimizedRMSD -1
REMARK  0 active torsions:
REMARK  status: ('A' for Active; 'I' for Inactive)
ROOT
ATOM      1  C4' PXY d   1      -0.770   0.716  -1.631  0.00  0.00     0.077 C 
ATOM      2  C1' PXY d   1       1.566  -1.228   3.287  0.00  0.00     0.077 C 
ATOM      3  C1  PXY d   1       0.965  -0.714   1.993  0.00  0.00    -0.082 A 
ATOM      4  C2  PXY d   1      -0.312  -0.371   1.956  0.00  0.00     0.003 A 
ATOM      5  C3  PXY d   1      -0.880   0.065   0.786  0.00  0.00     0.003 A 
ATOM      6  C4  PXY d   1      -0.119   0.201  -0.344  0.00  0.00    -0.082 A 
ATOM      7  C5  PXY d   1       1.188  -0.136  -0.312  0.00  0.00     0.003 A 
ATOM      8  C6  PXY d   1       1.735  -0.616   0.875  0.00  0.00     0.003 A 
ENDROOT
TORSDOF 0
ENDMDL
