MODEL 1
REMARK minimizedAffinity -1.66361654
REMARK minimizedRMSD -1
REMARK  0 active torsions:
REMARK  status: ('A' for Active; 'I' for Inactive)
ROOT
ATOM      1  C4' PXY d   1      -0.787   2.640  -3.036  0.00  0.00     0.077 C 
ATOM      2  C1' PXY d   1       0.764  -0.911   1.253  0.00  0.00     0.077 C 
ATOM      3  C1  PXY d   1       0.362   0.011   0.120  0.00  0.00    -0.082 A 
ATOM      4  C2  PXY d   1       0.217   1.306   0.350  0.00  0.00     0.003 A 
ATOM      5  C3  PXY d   1      -0.177   2.150  -0.656  0.00  0.00     0.003 A 
ATOM      6  C4  PXY d   1      -0.373   1.672  -1.924  0.00  0.00    -0.082 A 
ATOM      7  C5  PXY d   1      -0.217   0.354  -2.170  0.00  0.00     0.003 A 
ATOM      8  C6  PXY d   1       0.143  -0.493  -1.125  0.00  0.00     0.003 A 
ENDROOT
TORSDOF 0
ENDMDL
