MODEL 1
REMARK minimizedAffinity 0.177413717
REMARK minimizedRMSD -1
REMARK  0 active torsions:
REMARK  status: ('A' for Active; 'I' for Inactive)
ROOT
ATOM      1  C   UNL d   1       3.683   2.965   0.561  0.00  0.00    -0.002 A 
ATOM      2  C1  UNL d   1       3.715   2.161   1.692  0.00  0.00     0.010 A 
ATOM      3  C2  UNL d   1       2.789   1.129   1.856  0.00  0.00     0.041 A 
ATOM      4  C3  UNL d   1       1.823   0.914   0.853  0.00  0.00    -0.075 A 
ATOM      5  S   UNL d   1       0.590  -0.291   0.838  0.00  0.00     0.015 SA
ATOM      6  C4  UNL d   1      -0.007   0.233  -0.670  0.00  0.00     0.022 A 
ATOM      7  C5  UNL d   1       0.704   1.300  -1.164  0.00  0.00     0.026 A 
ATOM      8  C6  UNL d   1       1.771   1.710  -0.295  0.00  0.00    -0.082 A 
ATOM      9  C7  UNL d   1       2.723   2.749  -0.431  0.00  0.00     0.045 A 
ENDROOT
TORSDOF 0
ENDMDL
