MODEL 1
REMARK minimizedAffinity -1.59006405
REMARK minimizedRMSD -1
REMARK  0 active torsions:
REMARK  status: ('A' for Active; 'I' for Inactive)
ROOT
ATOM      1  C   UNL d   1       5.841   3.605  -2.918  0.00  0.00    -0.002 A 
ATOM      2  C1  UNL d   1       5.426   4.839  -2.437  0.00  0.00     0.010 A 
ATOM      3  C2  UNL d   1       4.453   4.922  -1.439  0.00  0.00     0.041 A 
ATOM      4  C3  UNL d   1       3.900   3.732  -0.926  0.00  0.00    -0.075 A 
ATOM      5  S   UNL d   1       2.696   3.589   0.299  0.00  0.00     0.015 SA
ATOM      6  C4  UNL d   1       2.704   1.887   0.214  0.00  0.00     0.022 A 
ATOM      7  C5  UNL d   1       3.597   1.422  -0.722  0.00  0.00     0.026 A 
ATOM      8  C6  UNL d   1       4.302   2.478  -1.394  0.00  0.00    -0.082 A 
ATOM      9  C7  UNL d   1       5.290   2.427  -2.407  0.00  0.00     0.045 A 
ENDROOT
TORSDOF 0
ENDMDL
