MODEL 1
REMARK minimizedAffinity -2.0033493
REMARK minimizedRMSD -1
REMARK  0 active torsions:
REMARK  status: ('A' for Active; 'I' for Inactive)
ROOT
ATOM      1  C   UNL d   1      -1.531   0.346  -1.971  0.00  0.00    -0.002 A 
ATOM      2  C1  UNL d   1      -0.187   0.688  -1.933  0.00  0.00     0.010 A 
ATOM      3  C2  UNL d   1       0.649   0.174  -0.940  0.00  0.00     0.041 A 
ATOM      4  C3  UNL d   1       0.107  -0.699   0.023  0.00  0.00    -0.075 A 
ATOM      5  S   UNL d   1       0.941  -1.450   1.332  0.00  0.00     0.015 SA
ATOM      6  C4  UNL d   1      -0.468  -2.244   1.872  0.00  0.00     0.022 A 
ATOM      7  C5  UNL d   1      -1.557  -1.954   1.084  0.00  0.00     0.026 A 
ATOM      8  C6  UNL d   1      -1.244  -1.059   0.006  0.00  0.00    -0.082 A 
ATOM      9  C7  UNL d   1      -2.066  -0.521  -1.014  0.00  0.00     0.045 A 
ENDROOT
TORSDOF 0
ENDMDL
