MODEL 1
REMARK minimizedAffinity -1.02040088
REMARK minimizedRMSD -1
REMARK  0 active torsions:
REMARK  status: ('A' for Active; 'I' for Inactive)
ROOT
ATOM      1  C   UNL d   1      -2.195  -0.545  -2.057  0.00  0.00    -0.002 A 
ATOM      2  C1  UNL d   1      -1.763   0.733  -2.381  0.00  0.00     0.010 A 
ATOM      3  C2  UNL d   1      -0.690   1.313  -1.701  0.00  0.00     0.041 A 
ATOM      4  C3  UNL d   1      -0.052   0.580  -0.682  0.00  0.00    -0.075 A 
ATOM      5  S   UNL d   1       1.283   1.087   0.284  0.00  0.00     0.015 SA
ATOM      6  C4  UNL d   1       1.311  -0.381   1.149  0.00  0.00     0.022 A 
ATOM      7  C5  UNL d   1       0.333  -1.249   0.725  0.00  0.00     0.026 A 
ATOM      8  C6  UNL d   1      -0.468  -0.710  -0.338  0.00  0.00    -0.082 A 
ATOM      9  C7  UNL d   1      -1.560  -1.270  -1.045  0.00  0.00     0.045 A 
ENDROOT
TORSDOF 0
ENDMDL
