MODEL 1
REMARK minimizedAffinity -1.07611942
REMARK minimizedRMSD -1
REMARK  0 active torsions:
REMARK  status: ('A' for Active; 'I' for Inactive)
ROOT
ATOM      1  C   UNL d   1       0.067  -1.771   1.560  0.00  0.00    -0.002 A 
ATOM      2  C1  UNL d   1       1.239  -1.115   1.209  0.00  0.00     0.010 A 
ATOM      3  C2  UNL d   1       1.286  -0.304   0.073  0.00  0.00     0.041 A 
ATOM      4  C3  UNL d   1       0.123  -0.160  -0.710  0.00  0.00    -0.075 A 
ATOM      5  S   UNL d   1      -0.054   0.782  -2.143  0.00  0.00     0.015 SA
ATOM      6  C4  UNL d   1      -1.690   0.337  -2.322  0.00  0.00     0.022 A 
ATOM      7  C5  UNL d   1      -2.106  -0.510  -1.322  0.00  0.00     0.026 A 
ATOM      8  C6  UNL d   1      -1.068  -0.810  -0.376  0.00  0.00    -0.082 A 
ATOM      9  C7  UNL d   1      -1.083  -1.626   0.780  0.00  0.00     0.045 A 
ENDROOT
TORSDOF 0
ENDMDL
