MODEL 1
REMARK minimizedAffinity 9.18620586
REMARK minimizedRMSD -1
REMARK  0 active torsions:
REMARK  status: ('A' for Active; 'I' for Inactive)
ROOT
ATOM      1  C   UNL d   1      -2.167  -2.721  -1.039  0.00  0.00    -0.002 A 
ATOM      2  C1  UNL d   1      -1.533  -2.799  -2.271  0.00  0.00     0.010 A 
ATOM      3  C2  UNL d   1      -1.332  -1.652  -3.042  0.00  0.00     0.041 A 
ATOM      4  C3  UNL d   1      -1.781  -0.412  -2.547  0.00  0.00    -0.075 A 
ATOM      5  S   UNL d   1      -1.644   1.125  -3.316  0.00  0.00     0.015 SA
ATOM      6  C4  UNL d   1      -2.422   1.923  -2.026  0.00  0.00     0.022 A 
ATOM      7  C5  UNL d   1      -2.785   1.053  -1.026  0.00  0.00     0.026 A 
ATOM      8  C6  UNL d   1      -2.421  -0.307  -1.309  0.00  0.00    -0.082 A 
ATOM      9  C7  UNL d   1      -2.611  -1.488  -0.552  0.00  0.00     0.045 A 
ENDROOT
TORSDOF 0
ENDMDL
