MODEL 1
REMARK minimizedAffinity -2.07358217
REMARK minimizedRMSD -1
REMARK  0 active torsions:
REMARK  status: ('A' for Active; 'I' for Inactive)
ROOT
ATOM      1  C   UNL d   1       1.174  -0.922   0.790  0.00  0.00    -0.002 A 
ATOM      2  C1  UNL d   1       0.325  -0.202  -0.040  0.00  0.00     0.010 A 
ATOM      3  C2  UNL d   1       0.587   1.137  -0.334  0.00  0.00     0.041 A 
ATOM      4  C3  UNL d   1       1.729   1.747   0.222  0.00  0.00    -0.075 A 
ATOM      5  S   UNL d   1       2.250   3.375  -0.000  0.00  0.00     0.015 SA
ATOM      6  C4  UNL d   1       3.613   3.154   1.000  0.00  0.00     0.022 A 
ATOM      7  C5  UNL d   1       3.683   1.875   1.500  0.00  0.00     0.026 A 
ATOM      8  C6  UNL d   1       2.599   1.043   1.060  0.00  0.00    -0.082 A 
ATOM      9  C7  UNL d   1       2.305  -0.313   1.340  0.00  0.00     0.045 A 
ENDROOT
TORSDOF 0
ENDMDL
