MODEL 1
REMARK minimizedAffinity 0.303795159
REMARK minimizedRMSD -1
REMARK  0 active torsions:
REMARK  status: ('A' for Active; 'I' for Inactive)
ROOT
ATOM      1  C   UNL d   1      -2.214  -0.234  -2.249  0.00  0.00    -0.002 A 
ATOM      2  C1  UNL d   1      -2.449  -1.198  -1.278  0.00  0.00     0.010 A 
ATOM      3  C2  UNL d   1      -1.559  -1.368  -0.216  0.00  0.00     0.041 A 
ATOM      4  C3  UNL d   1      -0.419  -0.544  -0.144  0.00  0.00    -0.075 A 
ATOM      5  S   UNL d   1       0.808  -0.571   1.067  0.00  0.00     0.015 SA
ATOM      6  C4  UNL d   1       1.673   0.696   0.325  0.00  0.00     0.022 A 
ATOM      7  C5  UNL d   1       1.055   1.141  -0.820  0.00  0.00     0.026 A 
ATOM      8  C6  UNL d   1      -0.161   0.434  -1.108  0.00  0.00    -0.082 A 
ATOM      9  C7  UNL d   1      -1.082   0.581  -2.174  0.00  0.00     0.045 A 
ENDROOT
TORSDOF 0
ENDMDL
