MODEL 1
REMARK minimizedAffinity -2.11836791
REMARK minimizedRMSD -1
REMARK  0 active torsions:
REMARK  status: ('A' for Active; 'I' for Inactive)
ROOT
ATOM      1  C   UNL d   1      -2.294  -0.091  -1.551  0.00  0.00    -0.002 A 
ATOM      2  C1  UNL d   1      -2.313  -1.098  -0.597  0.00  0.00     0.010 A 
ATOM      3  C2  UNL d   1      -1.251  -1.248   0.298  0.00  0.00     0.041 A 
ATOM      4  C3  UNL d   1      -0.162  -0.358   0.218  0.00  0.00    -0.075 A 
ATOM      5  S   UNL d   1       1.248  -0.350   1.211  0.00  0.00     0.015 SA
ATOM      6  C4  UNL d   1       1.907   0.992   0.392  0.00  0.00     0.022 A 
ATOM      7  C5  UNL d   1       1.085   1.435  -0.617  0.00  0.00     0.026 A 
ATOM      8  C6  UNL d   1      -0.121   0.665  -0.733  0.00  0.00    -0.082 A 
ATOM      9  C7  UNL d   1      -1.212   0.790  -1.627  0.00  0.00     0.045 A 
ENDROOT
TORSDOF 0
ENDMDL
