MODEL 1
REMARK minimizedAffinity 0.0764885098
REMARK minimizedRMSD -1
REMARK  0 active torsions:
REMARK  status: ('A' for Active; 'I' for Inactive)
ROOT
ATOM      1  C   UNL d   1       2.325   1.719   1.295  0.00  0.00    -0.002 A 
ATOM      2  C1  UNL d   1       2.377   2.974   1.885  0.00  0.00     0.010 A 
ATOM      3  C2  UNL d   1       2.934   4.057   1.203  0.00  0.00     0.041 A 
ATOM      4  C3  UNL d   1       3.442   3.857  -0.096  0.00  0.00    -0.075 A 
ATOM      5  S   UNL d   1       4.170   5.036  -1.122  0.00  0.00     0.015 SA
ATOM      6  C4  UNL d   1       4.428   3.902  -2.367  0.00  0.00     0.022 A 
ATOM      7  C5  UNL d   1       3.977   2.649  -2.026  0.00  0.00     0.026 A 
ATOM      8  C6  UNL d   1       3.401   2.602  -0.711  0.00  0.00    -0.082 A 
ATOM      9  C7  UNL d   1       2.830   1.524   0.007  0.00  0.00     0.045 A 
ENDROOT
TORSDOF 0
ENDMDL
