MODEL 1
REMARK minimizedAffinity 0.615912557
REMARK minimizedRMSD -1
REMARK  1 active torsions:
REMARK  status: ('A' for Active; 'I' for Inactive)
REMARK    1  A    between atoms: C1_2  and  C2_3 
ROOT
ATOM      1  C2  UNL d   1       0.079   2.062   0.289  0.00  0.00    -0.073 A 
ATOM      2  C3  UNL d   1       1.273   2.220   1.001  0.00  0.00    -0.002 A 
ATOM      3  C4  UNL d   1       2.103   1.123   1.237  0.00  0.00     0.004 A 
ATOM      4  C5  UNL d   1       1.752  -0.139   0.758  0.00  0.00    -0.004 A 
ATOM      5  C6  UNL d   1       0.569  -0.315   0.034  0.00  0.00    -0.075 A 
ATOM      6  C7  UNL d   1       0.176  -1.666  -0.486  0.00  0.00     0.076 C 
ATOM      7  C8  UNL d   1      -0.261   0.791  -0.196  0.00  0.00     0.001 A 
ENDROOT
BRANCH   1   8
ATOM      8  C1  UNL d   1      -0.818   3.244   0.026  0.00  0.00     0.053 C 
ATOM      9  C   UNL d   1      -0.072   4.563   0.147  0.00  0.00     0.018 C 
ENDBRANCH   1   8
TORSDOF 1
ENDMDL
