MODEL 1
REMARK minimizedAffinity 3.78698659
REMARK minimizedRMSD -1
REMARK  1 active torsions:
REMARK  status: ('A' for Active; 'I' for Inactive)
REMARK    1  A    between atoms: C1_2  and  C2_3 
ROOT
ATOM      1  C2  UNL d   1       1.253  -0.007   0.833  0.00  0.00    -0.073 A 
ATOM      2  C3  UNL d   1       0.453  -0.929   0.148  0.00  0.00    -0.002 A 
ATOM      3  C4  UNL d   1       0.135  -2.156   0.732  0.00  0.00     0.004 A 
ATOM      4  C5  UNL d   1       0.607  -2.470   2.007  0.00  0.00    -0.004 A 
ATOM      5  C6  UNL d   1       1.397  -1.557   2.711  0.00  0.00    -0.075 A 
ATOM      6  C7  UNL d   1       1.914  -1.880   4.082  0.00  0.00     0.076 C 
ATOM      7  C8  UNL d   1       1.715  -0.328   2.117  0.00  0.00     0.001 A 
ENDROOT
BRANCH   1   8
ATOM      8  C1  UNL d   1       1.594   1.322   0.209  0.00  0.00     0.053 C 
ATOM      9  C   UNL d   1       0.387   2.244   0.137  0.00  0.00     0.018 C 
ENDBRANCH   1   8
TORSDOF 1
ENDMDL
