MODEL 1
REMARK minimizedAffinity 3.23220372
REMARK minimizedRMSD -1
REMARK  1 active torsions:
REMARK  status: ('A' for Active; 'I' for Inactive)
REMARK    1  A    between atoms: C1_2  and  C2_3 
ROOT
ATOM      1  C2  UNL d   1       1.801  -0.497   1.109  0.00  0.00    -0.073 A 
ATOM      2  C3  UNL d   1       3.191  -0.469   0.952  0.00  0.00    -0.002 A 
ATOM      3  C4  UNL d   1       3.813   0.638   0.373  0.00  0.00     0.004 A 
ATOM      4  C5  UNL d   1       3.053   1.730  -0.047  0.00  0.00    -0.004 A 
ATOM      5  C6  UNL d   1       1.664   1.726   0.112  0.00  0.00    -0.075 A 
ATOM      6  C7  UNL d   1       0.832   2.892  -0.336  0.00  0.00     0.076 C 
ATOM      7  C8  UNL d   1       1.047   0.610   0.692  0.00  0.00     0.001 A 
ENDROOT
BRANCH   1   8
ATOM      8  C1  UNL d   1       1.125  -1.687   1.739  0.00  0.00     0.053 C 
ATOM      9  C   UNL d   1      -0.002  -2.228   0.873  0.00  0.00     0.018 C 
ENDBRANCH   1   8
TORSDOF 1
ENDMDL
