MODEL 1
REMARK minimizedAffinity 3.85135126
REMARK minimizedRMSD -1
REMARK  1 active torsions:
REMARK  status: ('A' for Active; 'I' for Inactive)
REMARK    1  A    between atoms: C1_2  and  C2_3 
ROOT
ATOM      1  C2  UNL d   1      -1.849  -1.823  -2.417  0.00  0.00    -0.073 A 
ATOM      2  C3  UNL d   1      -0.754  -2.053  -3.257  0.00  0.00    -0.002 A 
ATOM      3  C4  UNL d   1       0.516  -2.264  -2.717  0.00  0.00     0.004 A 
ATOM      4  C5  UNL d   1       0.702  -2.253  -1.335  0.00  0.00    -0.004 A 
ATOM      5  C6  UNL d   1      -0.383  -2.037  -0.479  0.00  0.00    -0.075 A 
ATOM      6  C7  UNL d   1      -0.199  -2.021   1.010  0.00  0.00     0.076 C 
ATOM      7  C8  UNL d   1      -1.654  -1.823  -1.028  0.00  0.00     0.001 A 
ENDROOT
BRANCH   1   8
ATOM      8  C1  UNL d   1      -3.223  -1.601  -2.995  0.00  0.00     0.053 C 
ATOM      9  C   UNL d   1      -3.421  -0.167  -3.460  0.00  0.00     0.018 C 
ENDBRANCH   1   8
TORSDOF 1
ENDMDL
