MODEL 1
REMARK minimizedAffinity -2.25835967
REMARK minimizedRMSD -1
REMARK  1 active torsions:
REMARK  status: ('A' for Active; 'I' for Inactive)
REMARK    1  A    between atoms: C1_2  and  C2_3 
ROOT
ATOM      1  C2  UNL d   1       2.271   0.009   2.443  0.00  0.00    -0.073 A 
ATOM      2  C3  UNL d   1       2.740   1.176   1.830  0.00  0.00    -0.002 A 
ATOM      3  C4  UNL d   1       2.007   1.777   0.805  0.00  0.00     0.004 A 
ATOM      4  C5  UNL d   1       0.797   1.223   0.390  0.00  0.00    -0.004 A 
ATOM      5  C6  UNL d   1       0.306   0.064   0.999  0.00  0.00    -0.075 A 
ATOM      6  C7  UNL d   1      -0.994  -0.546   0.562  0.00  0.00     0.076 C 
ATOM      7  C8  UNL d   1       1.049  -0.536   2.025  0.00  0.00     0.001 A 
ENDROOT
BRANCH   1   8
ATOM      8  C1  UNL d   1       3.056  -0.640   3.554  0.00  0.00     0.053 C 
ATOM      9  C   UNL d   1       2.159  -1.104   4.691  0.00  0.00     0.018 C 
ENDBRANCH   1   8
TORSDOF 1
ENDMDL
