MODEL 1
REMARK minimizedAffinity 1.92060041
REMARK minimizedRMSD -1
REMARK  1 active torsions:
REMARK  status: ('A' for Active; 'I' for Inactive)
REMARK    1  A    between atoms: C3_4  and  O_7 
ROOT
ATOM      1  C   UNL d   1       2.193  -1.907   2.822  0.00  0.00    -0.033 A 
ATOM      2  C1  UNL d   1       3.086  -1.807   1.753  0.00  0.00     0.039 A 
ATOM      3  C2  UNL d   1       2.629  -1.412   0.494  0.00  0.00    -0.080 A 
ATOM      4  C3  UNL d   1       1.280  -1.119   0.317  0.00  0.00     0.150 A 
ATOM      5  C4  UNL d   1       0.385  -1.213   1.379  0.00  0.00    -0.007 A 
ATOM      6  C5  UNL d   1       0.843  -1.608   2.635  0.00  0.00     0.039 A 
ENDROOT
BRANCH   4   7
ATOM      7  O   UNL d   1       0.787  -0.734  -0.894  0.00  0.00    -0.526 OA
ATOM      8  H5  UNL d   1       1.514  -0.742  -1.539  0.00  0.00     0.418 HD
ENDBRANCH   4   7
TORSDOF 1
ENDMDL
