MODEL 1
REMARK minimizedAffinity -3.23099518
REMARK minimizedRMSD -1
REMARK  1 active torsions:
REMARK  status: ('A' for Active; 'I' for Inactive)
REMARK    1  A    between atoms: C3_4  and  O_7 
ROOT
ATOM      1  C   UNL d   1      -1.021  -0.105   1.639  0.00  0.00    -0.033 A 
ATOM      2  C1  UNL d   1      -0.440  -0.250   0.377  0.00  0.00     0.039 A 
ATOM      3  C2  UNL d   1       0.571  -1.192   0.177  0.00  0.00    -0.080 A 
ATOM      4  C3  UNL d   1       0.990  -1.982   1.243  0.00  0.00     0.150 A 
ATOM      5  C4  UNL d   1       0.413  -1.846   2.501  0.00  0.00    -0.007 A 
ATOM      6  C5  UNL d   1      -0.596  -0.904   2.700  0.00  0.00     0.039 A 
ENDROOT
BRANCH   4   7
ATOM      7  O   UNL d   1       1.977  -2.911   1.097  0.00  0.00    -0.526 OA
ATOM      8  H5  UNL d   1       2.302  -2.873   0.182  0.00  0.00     0.418 HD
ENDBRANCH   4   7
TORSDOF 1
ENDMDL
