MODEL 1
REMARK minimizedAffinity 2.51361108
REMARK minimizedRMSD -1
REMARK  1 active torsions:
REMARK  status: ('A' for Active; 'I' for Inactive)
REMARK    1  A    between atoms: C3_4  and  O_7 
ROOT
ATOM      1  C   UNL d   1       5.999   1.452   0.847  0.00  0.00    -0.033 A 
ATOM      2  C1  UNL d   1       5.967   0.068   0.667  0.00  0.00     0.039 A 
ATOM      3  C2  UNL d   1       4.799  -0.553   0.220  0.00  0.00    -0.080 A 
ATOM      4  C3  UNL d   1       3.672   0.221  -0.044  0.00  0.00     0.150 A 
ATOM      5  C4  UNL d   1       3.698   1.600   0.130  0.00  0.00    -0.007 A 
ATOM      6  C5  UNL d   1       4.865   2.218   0.578  0.00  0.00     0.039 A 
ENDROOT
BRANCH   4   7
ATOM      7  O   UNL d   1       2.508  -0.341  -0.478  0.00  0.00    -0.526 OA
ATOM      8  H5  UNL d   1       2.629  -1.304  -0.525  0.00  0.00     0.418 HD
ENDBRANCH   4   7
TORSDOF 1
ENDMDL
