MODEL 1
REMARK minimizedAffinity -3.0456996
REMARK minimizedRMSD -1
REMARK  1 active torsions:
REMARK  status: ('A' for Active; 'I' for Inactive)
REMARK    1  A    between atoms: C3_4  and  O_7 
ROOT
ATOM      1  C   UNL d   1       3.614   2.070  -5.759  0.00  0.00    -0.033 A 
ATOM      2  C1  UNL d   1       2.851   3.215  -5.999  0.00  0.00     0.039 A 
ATOM      3  C2  UNL d   1       3.458   4.473  -6.000  0.00  0.00    -0.080 A 
ATOM      4  C3  UNL d   1       4.825   4.572  -5.760  0.00  0.00     0.150 A 
ATOM      5  C4  UNL d   1       5.592   3.436  -5.524  0.00  0.00    -0.007 A 
ATOM      6  C5  UNL d   1       4.985   2.181  -5.523  0.00  0.00     0.039 A 
ENDROOT
BRANCH   4   7
ATOM      7  O   UNL d   1       5.460   5.778  -5.746  0.00  0.00    -0.526 OA
ATOM      8  H5  UNL d   1       4.800   6.475  -5.896  0.00  0.00     0.418 HD
ENDBRANCH   4   7
TORSDOF 1
ENDMDL
