MODEL 1
REMARK minimizedAffinity -2.02952766
REMARK minimizedRMSD -1
REMARK  1 active torsions:
REMARK  status: ('A' for Active; 'I' for Inactive)
REMARK    1  A    between atoms: C3_4  and  O_7 
ROOT
ATOM      1  C   UNL d   1      -4.739   0.556  -5.070  0.00  0.00    -0.033 A 
ATOM      2  C1  UNL d   1      -4.649  -0.371  -4.030  0.00  0.00     0.039 A 
ATOM      3  C2  UNL d   1      -3.520  -1.184  -3.913  0.00  0.00    -0.080 A 
ATOM      4  C3  UNL d   1      -2.488  -1.059  -4.839  0.00  0.00     0.150 A 
ATOM      5  C4  UNL d   1      -2.569  -0.134  -5.875  0.00  0.00    -0.007 A 
ATOM      6  C5  UNL d   1      -3.698   0.676  -5.991  0.00  0.00     0.039 A 
ENDROOT
BRANCH   4   7
ATOM      7  O   UNL d   1      -1.369  -1.833  -4.768  0.00  0.00    -0.526 OA
ATOM      8  H5  UNL d   1      -1.465  -2.446  -4.019  0.00  0.00     0.418 HD
ENDBRANCH   4   7
TORSDOF 1
ENDMDL
