MODEL 1
REMARK minimizedAffinity -4.68599463
REMARK minimizedRMSD -1
REMARK  1 active torsions:
REMARK  status: ('A' for Active; 'I' for Inactive)
REMARK    1  A    between atoms: C1_2  and  C2_3 
ROOT
ATOM      1  C2  UNL d   1      -0.125   0.259  -1.101  0.00  0.00    -0.081 A 
ATOM      2  C3  UNL d   1       1.054  -0.495  -1.152  0.00  0.00     0.006 A 
ATOM      3  C4  UNL d   1       1.731  -0.830   0.023  0.00  0.00     0.002 A 
ATOM      4  C5  UNL d   1       1.236  -0.426   1.268  0.00  0.00    -0.080 A 
ATOM      5  C6  UNL d   1       1.936  -0.805   2.539  0.00  0.00     0.076 C 
ATOM      6  C7  UNL d   1       0.067   0.341   1.317  0.00  0.00     0.002 A 
ATOM      7  C8  UNL d   1      -0.610   0.678   0.143  0.00  0.00     0.006 A 
ENDROOT
BRANCH   1   8
ATOM      8  C1  UNL d   1      -0.892   0.567  -2.362  0.00  0.00     0.054 C 
ATOM      9  C   UNL d   1      -0.929   2.064  -2.634  0.00  0.00     0.018 C 
ENDBRANCH   1   8
TORSDOF 1
ENDMDL
