MODEL 1
REMARK minimizedAffinity -2.93876696
REMARK minimizedRMSD -1
REMARK  1 active torsions:
REMARK  status: ('A' for Active; 'I' for Inactive)
REMARK    1  A    between atoms: C1_2  and  C2_3 
ROOT
ATOM      1  C2  UNL d   1      -0.330   0.843  -0.708  0.00  0.00    -0.081 A 
ATOM      2  C3  UNL d   1       0.889   0.759  -0.024  0.00  0.00     0.006 A 
ATOM      3  C4  UNL d   1       0.978   0.057   1.180  0.00  0.00     0.002 A 
ATOM      4  C5  UNL d   1      -0.147  -0.578   1.716  0.00  0.00    -0.080 A 
ATOM      5  C6  UNL d   1      -0.058  -1.361   2.993  0.00  0.00     0.076 C 
ATOM      6  C7  UNL d   1      -1.369  -0.480   1.042  0.00  0.00     0.002 A 
ATOM      7  C8  UNL d   1      -1.459   0.222  -0.162  0.00  0.00     0.006 A 
ENDROOT
BRANCH   1   8
ATOM      8  C1  UNL d   1      -0.415   1.545  -2.040  0.00  0.00     0.054 C 
ATOM      9  C   UNL d   1      -1.838   1.994  -2.339  0.00  0.00     0.018 C 
ENDBRANCH   1   8
TORSDOF 1
ENDMDL
