MODEL 1
REMARK minimizedAffinity -5.05042267
REMARK minimizedRMSD -1
REMARK  1 active torsions:
REMARK  status: ('A' for Active; 'I' for Inactive)
REMARK    1  A    between atoms: C1_2  and  C2_3 
ROOT
ATOM      1  C2  UNL d   1      -0.580  -0.208  -0.304  0.00  0.00    -0.081 A 
ATOM      2  C3  UNL d   1      -0.842  -0.309   1.068  0.00  0.00     0.006 A 
ATOM      3  C4  UNL d   1       0.069  -0.942   1.917  0.00  0.00     0.002 A 
ATOM      4  C5  UNL d   1       1.258  -1.477   1.411  0.00  0.00    -0.080 A 
ATOM      5  C6  UNL d   1       2.258  -2.132   2.317  0.00  0.00     0.076 C 
ATOM      6  C7  UNL d   1       1.511  -1.391   0.038  0.00  0.00     0.002 A 
ATOM      7  C8  UNL d   1       0.601  -0.759  -0.812  0.00  0.00     0.006 A 
ENDROOT
BRANCH   1   8
ATOM      8  C1  UNL d   1      -1.530   0.531  -1.213  0.00  0.00     0.054 C 
ATOM      9  C   UNL d   1      -1.113   1.984  -1.385  0.00  0.00     0.018 C 
ENDBRANCH   1   8
TORSDOF 1
ENDMDL
