MODEL 1
REMARK minimizedAffinity -3.23812008
REMARK minimizedRMSD -1
REMARK  1 active torsions:
REMARK  status: ('A' for Active; 'I' for Inactive)
REMARK    1  A    between atoms: C1_2  and  C2_3 
ROOT
ATOM      1  C2  UNL d   1       1.395  -2.081   1.341  0.00  0.00    -0.081 A 
ATOM      2  C3  UNL d   1       1.720  -1.962  -0.016  0.00  0.00     0.006 A 
ATOM      3  C4  UNL d   1       1.010  -1.085  -0.840  0.00  0.00     0.002 A 
ATOM      4  C5  UNL d   1      -0.030  -0.307  -0.320  0.00  0.00    -0.080 A 
ATOM      5  C6  UNL d   1      -0.779   0.660  -1.187  0.00  0.00     0.076 C 
ATOM      6  C7  UNL d   1      -0.366  -0.439   1.032  0.00  0.00     0.002 A 
ATOM      7  C8  UNL d   1       0.342  -1.316   1.856  0.00  0.00     0.006 A 
ENDROOT
BRANCH   1   8
ATOM      8  C1  UNL d   1       2.200  -2.977   2.246  0.00  0.00     0.054 C 
ATOM      9  C   UNL d   1       3.126  -2.169   3.145  0.00  0.00     0.018 C 
ENDBRANCH   1   8
TORSDOF 1
ENDMDL
