MODEL 1
REMARK minimizedAffinity -4.73081875
REMARK minimizedRMSD -1
REMARK  1 active torsions:
REMARK  status: ('A' for Active; 'I' for Inactive)
REMARK    1  A    between atoms: C1_2  and  C2_3 
ROOT
ATOM      1  C2  UNL d   1      -0.569   0.312  -0.626  0.00  0.00    -0.081 A 
ATOM      2  C3  UNL d   1      -1.343   0.218   0.537  0.00  0.00     0.006 A 
ATOM      3  C4  UNL d   1      -0.766  -0.192   1.741  0.00  0.00     0.002 A 
ATOM      4  C5  UNL d   1       0.596  -0.507   1.804  0.00  0.00    -0.080 A 
ATOM      5  C6  UNL d   1       1.235  -0.919   3.097  0.00  0.00     0.076 C 
ATOM      6  C7  UNL d   1       1.366  -0.429   0.639  0.00  0.00     0.002 A 
ATOM      7  C8  UNL d   1       0.789  -0.020  -0.565  0.00  0.00     0.006 A 
ENDROOT
BRANCH   1   8
ATOM      8  C1  UNL d   1      -1.174   0.816  -1.911  0.00  0.00     0.054 C 
ATOM      9  C   UNL d   1      -0.799   2.269  -2.167  0.00  0.00     0.018 C 
ENDBRANCH   1   8
TORSDOF 1
ENDMDL
