MODEL 1
REMARK minimizedAffinity -4.65622616
REMARK minimizedRMSD -1
REMARK  1 active torsions:
REMARK  status: ('A' for Active; 'I' for Inactive)
REMARK    1  A    between atoms: C1_2  and  C2_3 
ROOT
ATOM      1  C2  UNL d   1      -0.305   0.108  -0.828  0.00  0.00    -0.081 A 
ATOM      2  C3  UNL d   1      -1.083   0.249   0.328  0.00  0.00     0.006 A 
ATOM      3  C4  UNL d   1      -0.566  -0.101   1.577  0.00  0.00     0.002 A 
ATOM      4  C5  UNL d   1       0.740  -0.591   1.693  0.00  0.00    -0.080 A 
ATOM      5  C6  UNL d   1       1.317  -0.942   3.032  0.00  0.00     0.076 C 
ATOM      6  C7  UNL d   1       1.511  -0.749   0.537  0.00  0.00     0.002 A 
ATOM      7  C8  UNL d   1       0.994  -0.399  -0.713  0.00  0.00     0.006 A 
ENDROOT
BRANCH   1   8
ATOM      8  C1  UNL d   1      -0.837   0.545  -2.169  0.00  0.00     0.054 C 
ATOM      9  C   UNL d   1      -0.337   1.936  -2.535  0.00  0.00     0.018 C 
ENDBRANCH   1   8
TORSDOF 1
ENDMDL
