MODEL 1
REMARK minimizedAffinity -6.01325703
REMARK minimizedRMSD -1
REMARK  1 active torsions:
REMARK  status: ('A' for Active; 'I' for Inactive)
REMARK    1  A    between atoms: C1_2  and  C2_3 
ROOT
ATOM      1  C2  UNL d   1       0.155  -0.280  -0.998  0.00  0.00    -0.081 A 
ATOM      2  C3  UNL d   1      -0.627   0.084   0.105  0.00  0.00     0.006 A 
ATOM      3  C4  UNL d   1      -0.148  -0.099   1.404  0.00  0.00     0.002 A 
ATOM      4  C5  UNL d   1       1.123  -0.641   1.622  0.00  0.00    -0.080 A 
ATOM      5  C6  UNL d   1       1.662  -0.815   3.011  0.00  0.00     0.076 C 
ATOM      6  C7  UNL d   1       1.898  -1.021   0.520  0.00  0.00     0.002 A 
ATOM      7  C8  UNL d   1       1.419  -0.839  -0.779  0.00  0.00     0.006 A 
ENDROOT
BRANCH   1   8
ATOM      8  C1  UNL d   1      -0.333  -0.025  -2.402  0.00  0.00     0.054 C 
ATOM      9  C   UNL d   1      -0.983   1.346  -2.520  0.00  0.00     0.018 C 
ENDBRANCH   1   8
TORSDOF 1
ENDMDL
