MODEL 1
REMARK minimizedAffinity -5.5639472
REMARK minimizedRMSD -1
REMARK  1 active torsions:
REMARK  status: ('A' for Active; 'I' for Inactive)
REMARK    1  A    between atoms: N_2  and  C1_3 
ROOT
ATOM      1  C1  UNL d   1      -0.443  -0.043  -0.169  0.00  0.00     0.143 A 
ATOM      2  C2  UNL d   1      -0.873  -0.028  -1.501  0.00  0.00    -0.057 A 
ATOM      3  C3  UNL d   1      -2.154  -0.468  -1.855  0.00  0.00     0.033 A 
ATOM      4  C4  UNL d   1      -3.021  -0.960  -0.885  0.00  0.00    -0.042 A 
ATOM      5  C5  UNL d   1      -2.606  -1.007   0.442  0.00  0.00     0.033 A 
ATOM      6  C6  UNL d   1      -1.328  -0.560   0.790  0.00  0.00    -0.057 A 
ENDROOT
BRANCH   1   7
ATOM      7  N   UNL d   1       0.853   0.288   0.234  0.00  0.00    -0.732 N 
ATOM      8  C   UNL d   1       1.728  -0.715   0.799  0.00  0.00     0.284 C 
ATOM      9  H3  UNL d   1       1.312   0.921  -0.417  0.00  0.00     0.395 HD
ENDBRANCH   1   7
TORSDOF 1
ENDMDL
