MODEL 1
REMARK minimizedAffinity -5.24508286
REMARK minimizedRMSD -1
REMARK  1 active torsions:
REMARK  status: ('A' for Active; 'I' for Inactive)
REMARK    1  A    between atoms: N_2  and  C1_3 
ROOT
ATOM      1  C1  UNL d   1       0.020  -0.572   0.219  0.00  0.00     0.143 A 
ATOM      2  C2  UNL d   1      -0.853  -1.101   1.175  0.00  0.00    -0.057 A 
ATOM      3  C3  UNL d   1      -2.229  -1.193   0.931  0.00  0.00     0.033 A 
ATOM      4  C4  UNL d   1      -2.761  -0.729  -0.268  0.00  0.00    -0.042 A 
ATOM      5  C5  UNL d   1      -1.915  -0.176  -1.223  0.00  0.00     0.033 A 
ATOM      6  C6  UNL d   1      -0.541  -0.093  -0.975  0.00  0.00    -0.057 A 
ENDROOT
BRANCH   1   7
ATOM      7  N   UNL d   1       1.383  -0.363   0.442  0.00  0.00    -0.732 N 
ATOM      8  C   UNL d   1       2.009   0.886   0.063  0.00  0.00     0.284 C 
ATOM      9  H3  UNL d   1       1.690  -0.725   1.342  0.00  0.00     0.395 HD
ENDBRANCH   1   7
TORSDOF 1
ENDMDL
