MODEL 1
REMARK minimizedAffinity -3.4805541
REMARK minimizedRMSD -1
REMARK  1 active torsions:
REMARK  status: ('A' for Active; 'I' for Inactive)
REMARK    1  A    between atoms: N_2  and  C1_3 
ROOT
ATOM      1  C1  UNL d   1       0.039   0.158  -0.060  0.00  0.00     0.143 A 
ATOM      2  C2  UNL d   1      -0.400  -0.024  -1.375  0.00  0.00    -0.057 A 
ATOM      3  C3  UNL d   1      -1.706  -0.445  -1.653  0.00  0.00     0.033 A 
ATOM      4  C4  UNL d   1      -2.591  -0.720  -0.616  0.00  0.00    -0.042 A 
ATOM      5  C5  UNL d   1      -2.169  -0.569   0.701  0.00  0.00     0.033 A 
ATOM      6  C6  UNL d   1      -0.865  -0.142   0.972  0.00  0.00    -0.057 A 
ENDROOT
BRANCH   1   7
ATOM      7  N   UNL d   1       1.354   0.480   0.284  0.00  0.00    -0.732 N 
ATOM      8  C   UNL d   1       1.661   1.739   0.928  0.00  0.00     0.284 C 
ATOM      9  H3  UNL d   1       1.862  -0.316   0.664  0.00  0.00     0.395 HD
ENDBRANCH   1   7
TORSDOF 1
ENDMDL
