MODEL 1
REMARK minimizedAffinity -3.4986949
REMARK minimizedRMSD -1
REMARK  1 active torsions:
REMARK  status: ('A' for Active; 'I' for Inactive)
REMARK    1  A    between atoms: N_2  and  C1_3 
ROOT
ATOM      1  C1  UNL d   1      -0.227   0.166  -0.221  0.00  0.00     0.143 A 
ATOM      2  C2  UNL d   1      -0.630   0.906  -1.338  0.00  0.00    -0.057 A 
ATOM      3  C3  UNL d   1      -1.923   0.787  -1.860  0.00  0.00     0.033 A 
ATOM      4  C4  UNL d   1      -2.831  -0.099  -1.289  0.00  0.00    -0.042 A 
ATOM      5  C5  UNL d   1      -2.445  -0.863  -0.194  0.00  0.00     0.033 A 
ATOM      6  C6  UNL d   1      -1.154  -0.734   0.327  0.00  0.00    -0.057 A 
ENDROOT
BRANCH   1   7
ATOM      7  N   UNL d   1       1.075   0.167   0.284  0.00  0.00    -0.732 N 
ATOM      8  C   UNL d   1       1.664   1.384   0.802  0.00  0.00     0.284 C 
ATOM      9  H3  UNL d   1       1.277  -0.661   0.839  0.00  0.00     0.395 HD
ENDBRANCH   1   7
TORSDOF 1
ENDMDL
