MODEL 1
REMARK minimizedAffinity -1.99502099
REMARK minimizedRMSD -1
REMARK  1 active torsions:
REMARK  status: ('A' for Active; 'I' for Inactive)
REMARK    1  A    between atoms: N_2  and  C1_3 
ROOT
ATOM      1  C1  UNL d   1      -0.173  -0.155  -0.021  0.00  0.00     0.143 A 
ATOM      2  C2  UNL d   1      -0.897   0.006  -1.207  0.00  0.00    -0.057 A 
ATOM      3  C3  UNL d   1      -2.270  -0.261  -1.262  0.00  0.00     0.033 A 
ATOM      4  C4  UNL d   1      -2.940  -0.724  -0.135  0.00  0.00    -0.042 A 
ATOM      5  C5  UNL d   1      -2.237  -0.915   1.049  0.00  0.00     0.033 A 
ATOM      6  C6  UNL d   1      -0.867  -0.640   1.099  0.00  0.00    -0.057 A 
ENDROOT
BRANCH   1   7
ATOM      7  N   UNL d   1       1.212  -0.000   0.073  0.00  0.00    -0.732 N 
ATOM      8  C   UNL d   1       1.789   1.278   0.431  0.00  0.00     0.284 C 
ATOM      9  H3  UNL d   1       1.663  -0.798   0.515  0.00  0.00     0.395 HD
ENDBRANCH   1   7
TORSDOF 1
ENDMDL
