MODEL 1
REMARK minimizedAffinity -2.33901238
REMARK minimizedRMSD -1
REMARK  1 active torsions:
REMARK  status: ('A' for Active; 'I' for Inactive)
REMARK    1  A    between atoms: N_2  and  C1_3 
ROOT
ATOM      1  C1  UNL d   1       0.241  -0.243   0.171  0.00  0.00     0.143 A 
ATOM      2  C2  UNL d   1      -1.106  -0.612   0.086  0.00  0.00    -0.057 A 
ATOM      3  C3  UNL d   1      -1.632  -1.631   0.889  0.00  0.00     0.033 A 
ATOM      4  C4  UNL d   1      -0.811  -2.321   1.774  0.00  0.00    -0.042 A 
ATOM      5  C5  UNL d   1       0.537  -1.988   1.858  0.00  0.00     0.033 A 
ATOM      6  C6  UNL d   1       1.055  -0.965   1.058  0.00  0.00    -0.057 A 
ENDROOT
BRANCH   1   7
ATOM      7  N   UNL d   1       0.846   0.694  -0.670  0.00  0.00    -0.732 N 
ATOM      8  C   UNL d   1       0.396   0.857  -2.036  0.00  0.00     0.284 C 
ATOM      9  H3  UNL d   1       1.051   1.569  -0.193  0.00  0.00     0.395 HD
ENDBRANCH   1   7
TORSDOF 1
ENDMDL
