MODEL 1
REMARK minimizedAffinity -1.96494758
REMARK minimizedRMSD -1
REMARK  1 active torsions:
REMARK  status: ('A' for Active; 'I' for Inactive)
REMARK    1  A    between atoms: N_2  and  C1_3 
ROOT
ATOM      1  C1  UNL d   1       1.312   0.046   0.345  0.00  0.00     0.143 A 
ATOM      2  C2  UNL d   1       0.876  -0.912   1.266  0.00  0.00    -0.057 A 
ATOM      3  C3  UNL d   1      -0.444  -1.379   1.259  0.00  0.00     0.033 A 
ATOM      4  C4  UNL d   1      -1.363  -0.871   0.345  0.00  0.00    -0.042 A 
ATOM      5  C5  UNL d   1      -0.958   0.100  -0.563  0.00  0.00     0.033 A 
ATOM      6  C6  UNL d   1       0.364   0.557  -0.555  0.00  0.00    -0.057 A 
ENDROOT
BRANCH   1   7
ATOM      7  N   UNL d   1       2.584   0.622   0.365  0.00  0.00    -0.732 N 
ATOM      8  C   UNL d   1       2.803   1.906   0.995  0.00  0.00     0.284 C 
ATOM      9  H3  UNL d   1       3.317  -0.061   0.548  0.00  0.00     0.395 HD
ENDBRANCH   1   7
TORSDOF 1
ENDMDL
