MODEL 1
REMARK minimizedAffinity -5.15905857
REMARK minimizedRMSD -1
REMARK  1 active torsions:
REMARK  status: ('A' for Active; 'I' for Inactive)
REMARK    1  A    between atoms: N_2  and  C1_3 
ROOT
ATOM      1  C1  UNL d   1       0.047  -0.258   0.323  0.00  0.00     0.143 A 
ATOM      2  C2  UNL d   1      -0.684  -0.763   1.404  0.00  0.00    -0.057 A 
ATOM      3  C3  UNL d   1      -2.026  -1.136   1.262  0.00  0.00     0.033 A 
ATOM      4  C4  UNL d   1      -2.671  -0.983   0.038  0.00  0.00    -0.042 A 
ATOM      5  C5  UNL d   1      -1.970  -0.460  -1.043  0.00  0.00     0.033 A 
ATOM      6  C6  UNL d   1      -0.629  -0.096  -0.896  0.00  0.00    -0.057 A 
ENDROOT
BRANCH   1   7
ATOM      7  N   UNL d   1       1.355   0.222   0.425  0.00  0.00    -0.732 N 
ATOM      8  C   UNL d   1       1.624   1.643   0.383  0.00  0.00     0.284 C 
ATOM      9  H3  UNL d   1       1.902  -0.284   1.119  0.00  0.00     0.395 HD
ENDBRANCH   1   7
TORSDOF 1
ENDMDL
