MODEL 1
REMARK minimizedAffinity -1.92227209
REMARK minimizedRMSD -1
REMARK  1 active torsions:
REMARK  status: ('A' for Active; 'I' for Inactive)
REMARK    1  A    between atoms: N_2  and  C1_3 
ROOT
ATOM      1  C1  UNL d   1       0.973   0.394   0.385  0.00  0.00     0.143 A 
ATOM      2  C2  UNL d   1       0.182  -0.387   1.235  0.00  0.00    -0.057 A 
ATOM      3  C3  UNL d   1      -1.094  -0.816   0.850  0.00  0.00     0.033 A 
ATOM      4  C4  UNL d   1      -1.615  -0.445  -0.385  0.00  0.00    -0.042 A 
ATOM      5  C5  UNL d   1      -0.857   0.352  -1.236  0.00  0.00     0.033 A 
ATOM      6  C6  UNL d   1       0.419   0.771  -0.848  0.00  0.00    -0.057 A 
ENDROOT
BRANCH   1   7
ATOM      7  N   UNL d   1       2.209   0.933   0.750  0.00  0.00    -0.732 N 
ATOM      8  C   UNL d   1       2.296   1.946   1.781  0.00  0.00     0.284 C 
ATOM      9  H3  UNL d   1       2.941   0.229   0.797  0.00  0.00     0.395 HD
ENDBRANCH   1   7
TORSDOF 1
ENDMDL
