MODEL 1
REMARK minimizedAffinity -3.45311546
REMARK minimizedRMSD -1
REMARK  1 active torsions:
REMARK  status: ('A' for Active; 'I' for Inactive)
REMARK    1  A    between atoms: N_2  and  C1_3 
ROOT
ATOM      1  C1  UNL d   1      -0.353   0.377   0.172  0.00  0.00     0.143 A 
ATOM      2  C2  UNL d   1      -0.520   0.122  -1.193  0.00  0.00    -0.057 A 
ATOM      3  C3  UNL d   1      -1.654  -0.545  -1.673  0.00  0.00     0.033 A 
ATOM      4  C4  UNL d   1      -2.630  -0.995  -0.790  0.00  0.00    -0.042 A 
ATOM      5  C5  UNL d   1      -2.472  -0.774   0.574  0.00  0.00     0.033 A 
ATOM      6  C6  UNL d   1      -1.341  -0.102   1.047  0.00  0.00    -0.057 A 
ENDROOT
BRANCH   1   7
ATOM      7  N   UNL d   1       0.799   0.947   0.721  0.00  0.00    -0.732 N 
ATOM      8  C   UNL d   1       0.791   2.315   1.193  0.00  0.00     0.284 C 
ATOM      9  H3  UNL d   1       1.301   0.302   1.326  0.00  0.00     0.395 HD
ENDBRANCH   1   7
TORSDOF 1
ENDMDL
