MODEL 1
REMARK minimizedAffinity 13.2399149
REMARK minimizedRMSD -1
REMARK  0 active torsions:
REMARK  status: ('A' for Active; 'I' for Inactive)
ROOT
ATOM      1  C4' PXY d   1      -3.653  -3.415   4.697  0.00  0.00     0.077 C 
ATOM      2  C1' PXY d   1      -3.819   2.281   3.722  0.00  0.00     0.077 C 
ATOM      3  C1  PXY d   1      -3.767   0.789   3.987  0.00  0.00    -0.082 A 
ATOM      4  C2  PXY d   1      -4.136  -0.057   3.040  0.00  0.00     0.003 A 
ATOM      5  C3  PXY d   1      -4.125  -1.408   3.273  0.00  0.00     0.003 A 
ATOM      6  C4  PXY d   1      -3.681  -1.901   4.471  0.00  0.00    -0.082 A 
ATOM      7  C5  PXY d   1      -3.292  -1.044   5.439  0.00  0.00     0.003 A 
ATOM      8  C6  PXY d   1      -3.350   0.325   5.197  0.00  0.00     0.003 A 
ENDROOT
TORSDOF 0
ENDMDL
