MODEL 1
REMARK minimizedAffinity 9.55010319
REMARK minimizedRMSD -1
REMARK  0 active torsions:
REMARK  status: ('A' for Active; 'I' for Inactive)
ROOT
ATOM      1  C4' PXY d   1      -5.063  -2.337   1.644  0.00  0.00     0.077 C 
ATOM      2  C1' PXY d   1      -2.961   0.829   6.000  0.00  0.00     0.077 C 
ATOM      3  C1  PXY d   1      -3.517   0.009   4.852  0.00  0.00    -0.082 A 
ATOM      4  C2  PXY d   1      -3.758  -1.280   5.026  0.00  0.00     0.003 A 
ATOM      5  C3  PXY d   1      -4.231  -2.043   3.989  0.00  0.00     0.003 A 
ATOM      6  C4  PXY d   1      -4.511  -1.469   2.778  0.00  0.00    -0.082 A 
ATOM      7  C5  PXY d   1      -4.278  -0.152   2.596  0.00  0.00     0.003 A 
ATOM      8  C6  PXY d   1      -3.759   0.597   3.649  0.00  0.00     0.003 A 
ENDROOT
TORSDOF 0
ENDMDL
