MODEL 1
REMARK minimizedAffinity 10.7146778
REMARK minimizedRMSD -1
REMARK  0 active torsions:
REMARK  status: ('A' for Active; 'I' for Inactive)
ROOT
ATOM      1  C4' PXY d   1      -4.137   3.589   5.995  0.00  0.00     0.077 C 
ATOM      2  C1' PXY d   1      -3.495  -1.519   3.367  0.00  0.00     0.077 C 
ATOM      3  C1  PXY d   1      -3.661  -0.174   4.045  0.00  0.00    -0.082 A 
ATOM      4  C2  PXY d   1      -3.431  -0.062   5.343  0.00  0.00     0.003 A 
ATOM      5  C3  PXY d   1      -3.608   1.140   5.978  0.00  0.00     0.003 A 
ATOM      6  C4  PXY d   1      -3.973   2.252   5.267  0.00  0.00    -0.082 A 
ATOM      7  C5  PXY d   1      -4.199   2.149   3.941  0.00  0.00     0.003 A 
ATOM      8  C6  PXY d   1      -4.054   0.910   3.322  0.00  0.00     0.003 A 
ENDROOT
TORSDOF 0
ENDMDL
