MODEL 1
REMARK minimizedAffinity 17.4565086
REMARK minimizedRMSD -1
REMARK  0 active torsions:
REMARK  status: ('A' for Active; 'I' for Inactive)
ROOT
ATOM      1  C4' PXY d   1      -5.700   3.661   2.980  0.00  0.00     0.077 C 
ATOM      2  C1' PXY d   1      -2.647  -0.210   5.999  0.00  0.00     0.077 C 
ATOM      3  C1  PXY d   1      -3.441   0.802   5.196  0.00  0.00    -0.082 A 
ATOM      4  C2  PXY d   1      -4.000   1.832   5.811  0.00  0.00     0.003 A 
ATOM      5  C3  PXY d   1      -4.748   2.739   5.106  0.00  0.00     0.003 A 
ATOM      6  C4  PXY d   1      -4.882   2.620   3.748  0.00  0.00    -0.082 A 
ATOM      7  C5  PXY d   1      -4.306   1.577   3.112  0.00  0.00     0.003 A 
ATOM      8  C6  PXY d   1      -3.585   0.645   3.852  0.00  0.00     0.003 A 
ENDROOT
TORSDOF 0
ENDMDL
