MODEL 1
REMARK minimizedAffinity 20.078949
REMARK minimizedRMSD -1
REMARK  0 active torsions:
REMARK  status: ('A' for Active; 'I' for Inactive)
ROOT
ATOM      1  C4' PXY d   1       3.104   5.828   1.309  0.00  0.00     0.077 C 
ATOM      2  C1' PXY d   1      -0.381   5.891  -3.302  0.00  0.00     0.077 C 
ATOM      3  C1  PXY d   1       0.524   5.882  -2.086  0.00  0.00    -0.082 A 
ATOM      4  C2  PXY d   1       1.831   5.749  -2.244  0.00  0.00     0.003 A 
ATOM      5  C3  PXY d   1       2.661   5.706  -1.154  0.00  0.00     0.003 A 
ATOM      6  C4  PXY d   1       2.153   5.853   0.109  0.00  0.00    -0.082 A 
ATOM      7  C5  PXY d   1       0.822   6.000   0.279  0.00  0.00     0.003 A 
ATOM      8  C6  PXY d   1      -0.007   6.000  -0.839  0.00  0.00     0.003 A 
ENDROOT
TORSDOF 0
ENDMDL
