MODEL 1
REMARK minimizedAffinity 13.0545225
REMARK minimizedRMSD -1
REMARK  0 active torsions:
REMARK  status: ('A' for Active; 'I' for Inactive)
ROOT
ATOM      1  C4' PXY d   1       0.328  -3.290  -3.032  0.00  0.00     0.077 C 
ATOM      2  C1' PXY d   1       3.446   0.588  -0.090  0.00  0.00     0.077 C 
ATOM      3  C1  PXY d   1       2.635  -0.439  -0.856  0.00  0.00    -0.082 A 
ATOM      4  C2  PXY d   1       2.079  -0.105  -2.009  0.00  0.00     0.003 A 
ATOM      5  C3  PXY d   1       1.315  -1.012  -2.699  0.00  0.00     0.003 A 
ATOM      6  C4  PXY d   1       1.164  -2.289  -2.229  0.00  0.00    -0.082 A 
ATOM      7  C5  PXY d   1       1.736  -2.640  -1.059  0.00  0.00     0.003 A 
ATOM      8  C6  PXY d   1       2.473  -1.693  -0.353  0.00  0.00     0.003 A 
ENDROOT
TORSDOF 0
ENDMDL
