MODEL 1
REMARK minimizedAffinity 5.3533268
REMARK minimizedRMSD -1
REMARK  0 active torsions:
REMARK  status: ('A' for Active; 'I' for Inactive)
ROOT
ATOM      1  C4' PXY d   1       1.275  -5.367  -1.978  0.00  0.00     0.077 C 
ATOM      2  C1' PXY d   1       2.896   0.134  -1.252  0.00  0.00     0.077 C 
ATOM      3  C1  PXY d   1       2.463  -1.305  -1.452  0.00  0.00    -0.082 A 
ATOM      4  C2  PXY d   1       2.585  -2.169  -0.457  0.00  0.00     0.003 A 
ATOM      5  C3  PXY d   1       2.228  -3.482  -0.631  0.00  0.00     0.003 A 
ATOM      6  C4  PXY d   1       1.691  -3.902  -1.818  0.00  0.00    -0.082 A 
ATOM      7  C5  PXY d   1       1.553  -3.024  -2.834  0.00  0.00     0.003 A 
ATOM      8  C6  PXY d   1       1.960  -1.706  -2.651  0.00  0.00     0.003 A 
ENDROOT
TORSDOF 0
ENDMDL
