MODEL 1
REMARK minimizedAffinity 6.93215084
REMARK minimizedRMSD -1
REMARK  0 active torsions:
REMARK  status: ('A' for Active; 'I' for Inactive)
ROOT
ATOM      1  C4' PXY d   1       1.323  -4.363  -2.750  0.00  0.00     0.077 C 
ATOM      2  C1' PXY d   1       2.529   0.649  -0.134  0.00  0.00     0.077 C 
ATOM      3  C1  PXY d   1       2.221  -0.671  -0.812  0.00  0.00    -0.082 A 
ATOM      4  C2  PXY d   1       1.757  -0.678  -2.051  0.00  0.00     0.003 A 
ATOM      5  C3  PXY d   1       1.443  -1.862  -2.668  0.00  0.00     0.003 A 
ATOM      6  C4  PXY d   1       1.657  -3.054  -2.029  0.00  0.00    -0.082 A 
ATOM      7  C5  PXY d   1       2.140  -3.056  -0.769  0.00  0.00     0.003 A 
ATOM      8  C6  PXY d   1       2.414  -1.842  -0.145  0.00  0.00     0.003 A 
ENDROOT
TORSDOF 0
ENDMDL
