MODEL 1
REMARK minimizedAffinity 12.7237129
REMARK minimizedRMSD -1
REMARK  0 active torsions:
REMARK  status: ('A' for Active; 'I' for Inactive)
ROOT
ATOM      1  C4' PXY d   1      -5.601   3.833   6.000  0.00  0.00     0.077 C 
ATOM      2  C1' PXY d   1      -3.234  -0.846   3.566  0.00  0.00     0.077 C 
ATOM      3  C1  PXY d   1      -3.857   0.386   4.192  0.00  0.00    -0.082 A 
ATOM      4  C2  PXY d   1      -3.485   0.763   5.404  0.00  0.00     0.003 A 
ATOM      5  C3  PXY d   1      -4.062   1.856   5.999  0.00  0.00     0.003 A 
ATOM      6  C4  PXY d   1      -4.991   2.601   5.324  0.00  0.00    -0.082 A 
ATOM      7  C5  PXY d   1      -5.368   2.229   4.083  0.00  0.00     0.003 A 
ATOM      8  C6  PXY d   1      -4.801   1.093   3.513  0.00  0.00     0.003 A 
ENDROOT
TORSDOF 0
ENDMDL
