MODEL 1
REMARK minimizedAffinity 7.03689909
REMARK minimizedRMSD -1
REMARK  0 active torsions:
REMARK  status: ('A' for Active; 'I' for Inactive)
ROOT
ATOM      1  C4' PXY d   1       0.678  -5.331  -2.210  0.00  0.00     0.077 C 
ATOM      2  C1' PXY d   1       2.867  -0.266  -0.488  0.00  0.00     0.077 C 
ATOM      3  C1  PXY d   1       2.284  -1.588  -0.947  0.00  0.00    -0.082 A 
ATOM      4  C2  PXY d   1       2.444  -2.668  -0.200  0.00  0.00     0.003 A 
ATOM      5  C3  PXY d   1       1.951  -3.878  -0.615  0.00  0.00     0.003 A 
ATOM      6  C4  PXY d   1       1.241  -3.973  -1.782  0.00  0.00    -0.082 A 
ATOM      7  C5  PXY d   1       1.064  -2.874  -2.545  0.00  0.00     0.003 A 
ATOM      8  C6  PXY d   1       1.608  -1.663  -2.126  0.00  0.00     0.003 A 
ENDROOT
TORSDOF 0
ENDMDL
