MODEL 1
REMARK minimizedAffinity 16.3319893
REMARK minimizedRMSD -1
REMARK  0 active torsions:
REMARK  status: ('A' for Active; 'I' for Inactive)
ROOT
ATOM      1  C4' PXY d   1      -5.492  -3.028  -6.000  0.00  0.00     0.077 C 
ATOM      2  C1' PXY d   1      -0.344  -3.670  -3.450  0.00  0.00     0.077 C 
ATOM      3  C1  PXY d   1      -1.689  -3.492  -4.127  0.00  0.00    -0.082 A 
ATOM      4  C2  PXY d   1      -2.792  -3.858  -3.495  0.00  0.00     0.003 A 
ATOM      5  C3  PXY d   1      -4.014  -3.734  -4.104  0.00  0.00     0.003 A 
ATOM      6  C4  PXY d   1      -4.113  -3.181  -5.352  0.00  0.00    -0.082 A 
ATOM      7  C5  PXY d   1      -2.993  -2.795  -5.999  0.00  0.00     0.003 A 
ATOM      8  C6  PXY d   1      -1.758  -2.967  -5.380  0.00  0.00     0.003 A 
ENDROOT
TORSDOF 0
ENDMDL
