MODEL 1
REMARK minimizedAffinity 11.1051664
REMARK minimizedRMSD -1
REMARK  0 active torsions:
REMARK  status: ('A' for Active; 'I' for Inactive)
ROOT
ATOM      1  C4' PXY d   1       3.072   0.332   0.469  0.00  0.00     0.077 C 
ATOM      2  C1' PXY d   1       0.941  -3.971  -2.750  0.00  0.00     0.077 C 
ATOM      3  C1  PXY d   1       1.500  -2.850  -1.895  0.00  0.00    -0.082 A 
ATOM      4  C2  PXY d   1       1.319  -1.593  -2.265  0.00  0.00     0.003 A 
ATOM      5  C3  PXY d   1       1.845  -0.568  -1.521  0.00  0.00     0.003 A 
ATOM      6  C4  PXY d   1       2.517  -0.831  -0.358  0.00  0.00    -0.082 A 
ATOM      7  C5  PXY d   1       2.697  -2.111   0.032  0.00  0.00     0.003 A 
ATOM      8  C6  PXY d   1       2.191  -3.138  -0.759  0.00  0.00     0.003 A 
ENDROOT
TORSDOF 0
ENDMDL
