MODEL 1
REMARK minimizedAffinity 15.4990253
REMARK minimizedRMSD -1
REMARK  0 active torsions:
REMARK  status: ('A' for Active; 'I' for Inactive)
ROOT
ATOM      1  C4' PXY d   1      -4.733   5.995  -5.999  0.00  0.00     0.077 C 
ATOM      2  C1' PXY d   1      -0.796   2.062  -4.437  0.00  0.00     0.077 C 
ATOM      3  C1  PXY d   1      -1.825   3.101  -4.836  0.00  0.00    -0.082 A 
ATOM      4  C2  PXY d   1      -2.845   2.750  -5.603  0.00  0.00     0.003 A 
ATOM      5  C3  PXY d   1      -3.767   3.684  -6.000  0.00  0.00     0.003 A 
ATOM      6  C4  PXY d   1      -3.675   4.978  -5.563  0.00  0.00    -0.082 A 
ATOM      7  C5  PXY d   1      -2.644   5.341  -4.772  0.00  0.00     0.003 A 
ATOM      8  C6  PXY d   1      -1.695   4.388  -4.414  0.00  0.00     0.003 A 
ENDROOT
TORSDOF 0
ENDMDL
