MODEL 1
REMARK minimizedAffinity 11.5978975
REMARK minimizedRMSD -1
REMARK  0 active torsions:
REMARK  status: ('A' for Active; 'I' for Inactive)
ROOT
ATOM      1  C4' PXY d   1      -4.319   6.000  -5.986  0.00  0.00     0.077 C 
ATOM      2  C1' PXY d   1      -0.549   2.202  -3.798  0.00  0.00     0.077 C 
ATOM      3  C1  PXY d   1      -1.539   3.204  -4.360  0.00  0.00    -0.082 A 
ATOM      4  C2  PXY d   1      -2.213   2.910  -5.460  0.00  0.00     0.003 A 
ATOM      5  C3  PXY d   1      -3.089   3.817  -6.000  0.00  0.00     0.003 A 
ATOM      6  C4  PXY d   1      -3.316   5.015  -5.378  0.00  0.00    -0.082 A 
ATOM      7  C5  PXY d   1      -2.640   5.318  -4.249  0.00  0.00     0.003 A 
ATOM      8  C6  PXY d   1      -1.725   4.401  -3.740  0.00  0.00     0.003 A 
ENDROOT
TORSDOF 0
ENDMDL
