MODEL 1
REMARK minimizedAffinity 17.5179253
REMARK minimizedRMSD -1
REMARK  0 active torsions:
REMARK  status: ('A' for Active; 'I' for Inactive)
ROOT
ATOM      1  C4' PXY d   1      -5.600  -2.134   1.956  0.00  0.00     0.077 C 
ATOM      2  C1' PXY d   1      -1.286   1.633   2.739  0.00  0.00     0.077 C 
ATOM      3  C1  PXY d   1      -2.415   0.640   2.545  0.00  0.00    -0.082 A 
ATOM      4  C2  PXY d   1      -2.855   0.380   1.325  0.00  0.00     0.003 A 
ATOM      5  C3  PXY d   1      -3.896  -0.492   1.134  0.00  0.00     0.003 A 
ATOM      6  C4  PXY d   1      -4.457  -1.145   2.199  0.00  0.00    -0.082 A 
ATOM      7  C5  PXY d   1      -4.006  -0.894   3.446  0.00  0.00     0.003 A 
ATOM      8  C6  PXY d   1      -2.976   0.026   3.622  0.00  0.00     0.003 A 
ENDROOT
TORSDOF 0
ENDMDL
