MODEL 1
REMARK minimizedAffinity 9.77043915
REMARK minimizedRMSD -1
REMARK  0 active torsions:
REMARK  status: ('A' for Active; 'I' for Inactive)
ROOT
ATOM      1  C4' PXY d   1       0.544  -3.329  -2.281  0.00  0.00     0.077 C 
ATOM      2  C1' PXY d   1       3.873   0.758   0.091  0.00  0.00     0.077 C 
ATOM      3  C1  PXY d   1       3.008  -0.323  -0.525  0.00  0.00    -0.082 A 
ATOM      4  C2  PXY d   1       2.305  -0.056  -1.614  0.00  0.00     0.003 A 
ATOM      5  C3  PXY d   1       1.492  -1.013  -2.166  0.00  0.00     0.003 A 
ATOM      6  C4  PXY d   1       1.439  -2.271  -1.629  0.00  0.00    -0.082 A 
ATOM      7  C5  PXY d   1       2.161  -2.554  -0.525  0.00  0.00     0.003 A 
ATOM      8  C6  PXY d   1       2.948  -1.557   0.044  0.00  0.00     0.003 A 
ENDROOT
TORSDOF 0
ENDMDL
