MODEL 1
REMARK minimizedAffinity 19.5670948
REMARK minimizedRMSD -1
REMARK  0 active torsions:
REMARK  status: ('A' for Active; 'I' for Inactive)
ROOT
ATOM      1  C4' PXY d   1      -3.260   1.184   2.531  0.00  0.00     0.077 C 
ATOM      2  C1' PXY d   1      -4.891  -3.806   4.950  0.00  0.00     0.077 C 
ATOM      3  C1  PXY d   1      -4.465  -2.503   4.304  0.00  0.00    -0.082 A 
ATOM      4  C2  PXY d   1      -3.662  -1.680   4.959  0.00  0.00     0.003 A 
ATOM      5  C3  PXY d   1      -3.293  -0.482   4.402  0.00  0.00     0.003 A 
ATOM      6  C4  PXY d   1      -3.707  -0.147   3.141  0.00  0.00    -0.082 A 
ATOM      7  C5  PXY d   1      -4.518  -0.987   2.462  0.00  0.00     0.003 A 
ATOM      8  C6  PXY d   1      -4.914  -2.179   3.061  0.00  0.00     0.003 A 
ENDROOT
TORSDOF 0
ENDMDL
