MODEL 1
REMARK minimizedAffinity 15.8606071
REMARK minimizedRMSD -1
REMARK  0 active torsions:
REMARK  status: ('A' for Active; 'I' for Inactive)
ROOT
ATOM      1  C4' PXY d   1      -3.711   0.757   2.668  0.00  0.00     0.077 C 
ATOM      2  C1' PXY d   1      -6.000  -4.077   4.860  0.00  0.00     0.077 C 
ATOM      3  C1  PXY d   1      -5.405  -2.813   4.273  0.00  0.00    -0.082 A 
ATOM      4  C2  PXY d   1      -4.362  -2.248   4.859  0.00  0.00     0.003 A 
ATOM      5  C3  PXY d   1      -3.831  -1.086   4.361  0.00  0.00     0.003 A 
ATOM      6  C4  PXY d   1      -4.339  -0.526   3.219  0.00  0.00    -0.082 A 
ATOM      7  C5  PXY d   1      -5.397  -1.102   2.610  0.00  0.00     0.003 A 
ATOM      8  C6  PXY d   1      -5.947  -2.258   3.155  0.00  0.00     0.003 A 
ENDROOT
TORSDOF 0
ENDMDL
