MODEL 1
REMARK minimizedAffinity 15.3619862
REMARK minimizedRMSD -1
REMARK  0 active torsions:
REMARK  status: ('A' for Active; 'I' for Inactive)
ROOT
ATOM      1  C4' PXY d   1      -2.997   0.487   2.518  0.00  0.00     0.077 C 
ATOM      2  C1' PXY d   1       2.578   1.957   2.101  0.00  0.00     0.077 C 
ATOM      3  C1  PXY d   1       1.114   1.582   2.218  0.00  0.00    -0.082 A 
ATOM      4  C2  PXY d   1       0.743   0.326   2.031  0.00  0.00     0.003 A 
ATOM      5  C3  PXY d   1      -0.580  -0.025   2.102  0.00  0.00     0.003 A 
ATOM      6  C4  PXY d   1      -1.529   0.910   2.419  0.00  0.00    -0.082 A 
ATOM      7  C5  PXY d   1      -1.158   2.192   2.622  0.00  0.00     0.003 A 
ATOM      8  C6  PXY d   1       0.186   2.535   2.505  0.00  0.00     0.003 A 
ENDROOT
TORSDOF 0
ENDMDL
