MODEL 1
REMARK minimizedAffinity -4.6465168
REMARK minimizedRMSD -1
REMARK  1 active torsions:
REMARK  status: ('A' for Active; 'I' for Inactive)
REMARK    1  A    between atoms: C1_2  and  C2_3 
ROOT
ATOM      1  C2  UNL d   1       1.740  -0.429  -1.290  0.00  0.00    -0.076 A 
ATOM      2  C3  UNL d   1       1.143  -1.337  -0.398  0.00  0.00     0.004 A 
ATOM      3  C4  UNL d   1       0.232  -0.903   0.564  0.00  0.00    -0.003 A 
ATOM      4  C5  UNL d   1      -0.097   0.445   0.650  0.00  0.00     0.000 A 
ATOM      5  C6  UNL d   1       0.472   1.357  -0.239  0.00  0.00     0.000 A 
ATOM      6  C7  UNL d   1       1.380   0.934  -1.225  0.00  0.00    -0.073 A 
ATOM      7  C8  UNL d   1       1.968   1.962  -2.153  0.00  0.00     0.078 C 
ENDROOT
BRANCH   1   8
ATOM      8  C1  UNL d   1       2.741  -0.953  -2.294  0.00  0.00     0.053 C 
ATOM      9  C   UNL d   1       2.078  -1.475  -3.559  0.00  0.00     0.018 C 
ENDBRANCH   1   8
TORSDOF 1
ENDMDL
