MODEL 1
REMARK minimizedAffinity -3.89544487
REMARK minimizedRMSD -1
REMARK  1 active torsions:
REMARK  status: ('A' for Active; 'I' for Inactive)
REMARK    1  A    between atoms: C1_2  and  C2_3 
ROOT
ATOM      1  C2  UNL d   1      -0.904   0.258   1.042  0.00  0.00    -0.076 A 
ATOM      2  C3  UNL d   1      -0.626   0.019   2.399  0.00  0.00     0.004 A 
ATOM      3  C4  UNL d   1      -1.314   0.698   3.403  0.00  0.00    -0.003 A 
ATOM      4  C5  UNL d   1      -2.292   1.627   3.066  0.00  0.00     0.000 A 
ATOM      5  C6  UNL d   1      -2.594   1.864   1.725  0.00  0.00     0.000 A 
ATOM      6  C7  UNL d   1      -1.921   1.176   0.701  0.00  0.00    -0.073 A 
ATOM      7  C8  UNL d   1      -2.283   1.475  -0.728  0.00  0.00     0.078 C 
ENDROOT
BRANCH   1   8
ATOM      8  C1  UNL d   1      -0.107  -0.489  -0.004  0.00  0.00     0.053 C 
ATOM      9  C   UNL d   1       1.349  -0.052  -0.047  0.00  0.00     0.018 C 
ENDBRANCH   1   8
TORSDOF 1
ENDMDL
