MODEL 1
REMARK minimizedAffinity -5.87443638
REMARK minimizedRMSD -1
REMARK  1 active torsions:
REMARK  status: ('A' for Active; 'I' for Inactive)
REMARK    1  A    between atoms: C1_2  and  C2_3 
ROOT
ATOM      1  C2  UNL d   1       0.076   0.340  -0.506  0.00  0.00    -0.076 A 
ATOM      2  C3  UNL d   1       0.442  -0.951  -0.086  0.00  0.00     0.004 A 
ATOM      3  C4  UNL d   1       1.599  -1.561  -0.567  0.00  0.00    -0.003 A 
ATOM      4  C5  UNL d   1       2.409  -0.890  -1.476  0.00  0.00     0.000 A 
ATOM      5  C6  UNL d   1       2.071   0.397  -1.891  0.00  0.00     0.000 A 
ATOM      6  C7  UNL d   1       0.917   1.033  -1.403  0.00  0.00    -0.073 A 
ATOM      7  C8  UNL d   1       0.597   2.421  -1.888  0.00  0.00     0.078 C 
ENDROOT
BRANCH   1   8
ATOM      8  C1  UNL d   1      -1.204   0.940   0.029  0.00  0.00     0.053 C 
ATOM      9  C   UNL d   1      -1.459   0.568   1.482  0.00  0.00     0.018 C 
ENDBRANCH   1   8
TORSDOF 1
ENDMDL
