MODEL 1
REMARK minimizedAffinity -3.82778525
REMARK minimizedRMSD -1
REMARK  1 active torsions:
REMARK  status: ('A' for Active; 'I' for Inactive)
REMARK    1  A    between atoms: C1_2  and  C2_3 
ROOT
ATOM      1  C2  UNL d   1       0.764   0.521  -1.020  0.00  0.00    -0.076 A 
ATOM      2  C3  UNL d   1       1.376  -0.589  -0.412  0.00  0.00     0.004 A 
ATOM      3  C4  UNL d   1       2.617  -1.051  -0.847  0.00  0.00    -0.003 A 
ATOM      4  C5  UNL d   1       3.267  -0.410  -1.896  0.00  0.00     0.000 A 
ATOM      5  C6  UNL d   1       2.682   0.704  -2.499  0.00  0.00     0.000 A 
ATOM      6  C7  UNL d   1       1.439   1.192  -2.062  0.00  0.00    -0.073 A 
ATOM      7  C8  UNL d   1       0.853   2.393  -2.752  0.00  0.00     0.078 C 
ENDROOT
BRANCH   1   8
ATOM      8  C1  UNL d   1      -0.595   0.961  -0.524  0.00  0.00     0.053 C 
ATOM      9  C   UNL d   1      -1.145   0.043   0.557  0.00  0.00     0.018 C 
ENDBRANCH   1   8
TORSDOF 1
ENDMDL
