MODEL 1
REMARK minimizedAffinity -5.10804796
REMARK minimizedRMSD -1
REMARK  1 active torsions:
REMARK  status: ('A' for Active; 'I' for Inactive)
REMARK    1  A    between atoms: C1_2  and  C2_3 
ROOT
ATOM      1  C2  UNL d   1       0.935   0.990  -1.380  0.00  0.00    -0.076 A 
ATOM      2  C3  UNL d   1      -0.416   1.216  -1.064  0.00  0.00     0.004 A 
ATOM      3  C4  UNL d   1      -1.057   0.467  -0.078  0.00  0.00    -0.003 A 
ATOM      4  C5  UNL d   1      -0.357  -0.519   0.608  0.00  0.00     0.000 A 
ATOM      5  C6  UNL d   1       0.989  -0.744   0.319  0.00  0.00     0.000 A 
ATOM      6  C7  UNL d   1       1.654   0.013  -0.660  0.00  0.00    -0.073 A 
ATOM      7  C8  UNL d   1       3.104  -0.277  -0.935  0.00  0.00     0.078 C 
ENDROOT
BRANCH   1   8
ATOM      8  C1  UNL d   1       1.569   1.815  -2.478  0.00  0.00     0.053 C 
ATOM      9  C   UNL d   1       1.403   1.183  -3.851  0.00  0.00     0.018 C 
ENDBRANCH   1   8
TORSDOF 1
ENDMDL
