MODEL 1
REMARK minimizedAffinity -2.35543537
REMARK minimizedRMSD -1
REMARK  1 active torsions:
REMARK  status: ('A' for Active; 'I' for Inactive)
REMARK    1  A    between atoms: C1_2  and  C2_3 
ROOT
ATOM      1  C2  UNL d   1      -0.447  -0.562   0.161  0.00  0.00    -0.076 A 
ATOM      2  C3  UNL d   1      -0.134  -1.813   0.720  0.00  0.00     0.004 A 
ATOM      3  C4  UNL d   1       1.071  -2.449   0.426  0.00  0.00    -0.003 A 
ATOM      4  C5  UNL d   1       1.983  -1.843  -0.432  0.00  0.00     0.000 A 
ATOM      5  C6  UNL d   1       1.697  -0.594  -0.981  0.00  0.00     0.000 A 
ATOM      6  C7  UNL d   1       0.494   0.068  -0.682  0.00  0.00    -0.073 A 
ATOM      7  C8  UNL d   1       0.235   1.411  -1.307  0.00  0.00     0.078 C 
ENDROOT
BRANCH   1   8
ATOM      8  C1  UNL d   1      -1.780   0.067   0.495  0.00  0.00     0.053 C 
ATOM      9  C   UNL d   1      -1.784   0.735   1.861  0.00  0.00     0.018 C 
ENDBRANCH   1   8
TORSDOF 1
ENDMDL
