MODEL 1
REMARK minimizedAffinity -6.03700161
REMARK minimizedRMSD -1
REMARK  1 active torsions:
REMARK  status: ('A' for Active; 'I' for Inactive)
REMARK    1  A    between atoms: C1_2  and  C2_3 
ROOT
ATOM      1  C2  UNL d   1       1.098   0.623  -0.459  0.00  0.00    -0.076 A 
ATOM      2  C3  UNL d   1       1.886  -0.515  -0.213  0.00  0.00     0.004 A 
ATOM      3  C4  UNL d   1       2.852  -0.930  -1.128  0.00  0.00    -0.003 A 
ATOM      4  C5  UNL d   1       3.047  -0.213  -2.303  0.00  0.00     0.000 A 
ATOM      5  C6  UNL d   1       2.287   0.929  -2.555  0.00  0.00     0.000 A 
ATOM      6  C7  UNL d   1       1.320   1.370  -1.636  0.00  0.00    -0.073 A 
ATOM      7  C8  UNL d   1       0.524   2.604  -1.961  0.00  0.00     0.078 C 
ENDROOT
BRANCH   1   8
ATOM      8  C1  UNL d   1       0.047   1.009   0.557  0.00  0.00     0.053 C 
ATOM      9  C   UNL d   1      -1.263   0.264   0.352  0.00  0.00     0.018 C 
ENDBRANCH   1   8
TORSDOF 1
ENDMDL
