MODEL 1
REMARK minimizedAffinity -4.81483984
REMARK minimizedRMSD -1
REMARK  1 active torsions:
REMARK  status: ('A' for Active; 'I' for Inactive)
REMARK    1  A    between atoms: C1_2  and  C2_3 
ROOT
ATOM      1  C2  UNL d   1      -0.031   0.622  -0.776  0.00  0.00    -0.076 A 
ATOM      2  C3  UNL d   1       0.684   1.698  -1.330  0.00  0.00     0.004 A 
ATOM      3  C4  UNL d   1       1.978   1.526  -1.817  0.00  0.00    -0.003 A 
ATOM      4  C5  UNL d   1       2.579   0.273  -1.759  0.00  0.00     0.000 A 
ATOM      5  C6  UNL d   1       1.879  -0.810  -1.229  0.00  0.00     0.000 A 
ATOM      6  C7  UNL d   1       0.567  -0.657  -0.748  0.00  0.00    -0.073 A 
ATOM      7  C8  UNL d   1      -0.140  -1.858  -0.182  0.00  0.00     0.078 C 
ENDROOT
BRANCH   1   8
ATOM      8  C1  UNL d   1      -1.421   0.875  -0.238  0.00  0.00     0.053 C 
ATOM      9  C   UNL d   1      -1.467   0.874   1.282  0.00  0.00     0.018 C 
ENDBRANCH   1   8
TORSDOF 1
ENDMDL
