MODEL 1
REMARK minimizedAffinity -3.21690702
REMARK minimizedRMSD -1
REMARK  1 active torsions:
REMARK  status: ('A' for Active; 'I' for Inactive)
REMARK    1  A    between atoms: C1_2  and  C2_3 
ROOT
ATOM      1  C2  UNL d   1       0.128  -0.362   0.095  0.00  0.00    -0.076 A 
ATOM      2  C3  UNL d   1       0.948   0.705  -0.308  0.00  0.00     0.004 A 
ATOM      3  C4  UNL d   1       2.241   0.479  -0.780  0.00  0.00    -0.003 A 
ATOM      4  C5  UNL d   1       2.733  -0.820  -0.856  0.00  0.00     0.000 A 
ATOM      5  C6  UNL d   1       1.926  -1.892  -0.476  0.00  0.00     0.000 A 
ATOM      6  C7  UNL d   1       0.615  -1.682  -0.014  0.00  0.00    -0.073 A 
ATOM      7  C8  UNL d   1      -0.208  -2.875   0.387  0.00  0.00     0.078 C 
ENDROOT
BRANCH   1   8
ATOM      8  C1  UNL d   1      -1.255  -0.053   0.623  0.00  0.00     0.053 C 
ATOM      9  C   UNL d   1      -1.220   0.681   1.955  0.00  0.00     0.018 C 
ENDBRANCH   1   8
TORSDOF 1
ENDMDL
