MODEL 1
REMARK minimizedAffinity -5.7846899
REMARK minimizedRMSD -1
REMARK  1 active torsions:
REMARK  status: ('A' for Active; 'I' for Inactive)
REMARK    1  A    between atoms: C1_2  and  C2_3 
ROOT
ATOM      1  C2  UNL d   1       1.123   1.000  -1.443  0.00  0.00    -0.076 A 
ATOM      2  C3  UNL d   1       2.275   0.554  -2.115  0.00  0.00     0.004 A 
ATOM      3  C4  UNL d   1       2.861  -0.670  -1.798  0.00  0.00    -0.003 A 
ATOM      4  C5  UNL d   1       2.305  -1.469  -0.805  0.00  0.00     0.000 A 
ATOM      5  C6  UNL d   1       1.153  -1.050  -0.140  0.00  0.00     0.000 A 
ATOM      6  C7  UNL d   1       0.540   0.174  -0.459  0.00  0.00    -0.073 A 
ATOM      7  C8  UNL d   1      -0.698   0.578   0.293  0.00  0.00     0.078 C 
ENDROOT
BRANCH   1   8
ATOM      8  C1  UNL d   1       0.547   2.349  -1.811  0.00  0.00     0.053 C 
ATOM      9  C   UNL d   1       1.164   2.920  -3.078  0.00  0.00     0.018 C 
ENDBRANCH   1   8
TORSDOF 1
ENDMDL
