MODEL 1
REMARK minimizedAffinity 7.51905489
REMARK minimizedRMSD -1
REMARK  0 active torsions:
REMARK  status: ('A' for Active; 'I' for Inactive)
ROOT
ATOM      1  C   UNL d   1       5.446  -2.210  -0.214  0.00  0.00     0.077 C 
ATOM      2  C1  UNL d   1       4.105  -2.870  -0.086  0.00  0.00    -0.074 A 
ATOM      3  C2  UNL d   1       3.896  -4.170  -0.558  0.00  0.00    -0.005 A 
ATOM      4  C3  UNL d   1       2.646  -4.774  -0.423  0.00  0.00     0.006 A 
ATOM      5  C4  UNL d   1       1.595  -4.086   0.183  0.00  0.00    -0.005 A 
ATOM      6  C5  UNL d   1       1.785  -2.786   0.662  0.00  0.00    -0.074 A 
ATOM      7  C6  UNL d   1       0.668  -2.036   1.325  0.00  0.00     0.077 C 
ATOM      8  C7  UNL d   1       3.046  -2.188   0.529  0.00  0.00    -0.001 A 
ENDROOT
TORSDOF 0
ENDMDL
