MODEL 1
REMARK minimizedAffinity 6.01058292
REMARK minimizedRMSD -1
REMARK  0 active torsions:
REMARK  status: ('A' for Active; 'I' for Inactive)
ROOT
ATOM      1  C   UNL d   1       2.666  -4.550   1.572  0.00  0.00     0.077 C 
ATOM      2  C1  UNL d   1       1.848  -3.305   1.397  0.00  0.00    -0.074 A 
ATOM      3  C2  UNL d   1       1.907  -2.566   0.212  0.00  0.00    -0.005 A 
ATOM      4  C3  UNL d   1       1.132  -1.416   0.060  0.00  0.00     0.006 A 
ATOM      5  C4  UNL d   1       0.293  -0.994   1.092  0.00  0.00    -0.005 A 
ATOM      6  C5  UNL d   1       0.220  -1.720   2.285  0.00  0.00    -0.074 A 
ATOM      7  C6  UNL d   1      -0.685  -1.286   3.399  0.00  0.00     0.077 C 
ATOM      8  C7  UNL d   1       0.996  -2.879   2.426  0.00  0.00    -0.001 A 
ENDROOT
TORSDOF 0
ENDMDL
