MODEL 1
REMARK minimizedAffinity 4.59839296
REMARK minimizedRMSD -1
REMARK  0 active torsions:
REMARK  status: ('A' for Active; 'I' for Inactive)
ROOT
ATOM      1  C   UNL d   1      -0.855  -1.503   3.371  0.00  0.00     0.077 C 
ATOM      2  C1  UNL d   1      -1.844  -0.732   2.548  0.00  0.00    -0.074 A 
ATOM      3  C2  UNL d   1      -2.686   0.216   3.137  0.00  0.00    -0.005 A 
ATOM      4  C3  UNL d   1      -3.594   0.932   2.357  0.00  0.00     0.006 A 
ATOM      5  C4  UNL d   1      -3.669   0.707   0.982  0.00  0.00    -0.005 A 
ATOM      6  C5  UNL d   1      -2.834  -0.236   0.374  0.00  0.00    -0.074 A 
ATOM      7  C6  UNL d   1      -2.894  -0.482  -1.104  0.00  0.00     0.077 C 
ATOM      8  C7  UNL d   1      -1.919  -0.946   1.164  0.00  0.00    -0.001 A 
ENDROOT
TORSDOF 0
ENDMDL
