MODEL 1
REMARK minimizedAffinity 3.22825241
REMARK minimizedRMSD -1
REMARK  0 active torsions:
REMARK  status: ('A' for Active; 'I' for Inactive)
ROOT
ATOM      1  C   UNL d   1       0.178  -1.811   2.377  0.00  0.00     0.077 C 
ATOM      2  C1  UNL d   1       1.323  -2.396   1.603  0.00  0.00    -0.074 A 
ATOM      3  C2  UNL d   1       1.386  -3.768   1.341  0.00  0.00    -0.005 A 
ATOM      4  C3  UNL d   1       2.451  -4.296   0.612  0.00  0.00     0.006 A 
ATOM      5  C4  UNL d   1       3.463  -3.459   0.139  0.00  0.00    -0.005 A 
ATOM      6  C5  UNL d   1       3.416  -2.084   0.391  0.00  0.00    -0.074 A 
ATOM      7  C6  UNL d   1       4.490  -1.169  -0.118  0.00  0.00     0.077 C 
ATOM      8  C7  UNL d   1       2.338  -1.560   1.118  0.00  0.00    -0.001 A 
ENDROOT
TORSDOF 0
ENDMDL
