MODEL 1
REMARK minimizedAffinity 7.18093443
REMARK minimizedRMSD -1
REMARK  0 active torsions:
REMARK  status: ('A' for Active; 'I' for Inactive)
ROOT
ATOM      1  C   UNL d   1       1.878  -1.494   4.058  0.00  0.00     0.077 C 
ATOM      2  C1  UNL d   1       1.900  -1.952   2.630  0.00  0.00    -0.074 A 
ATOM      3  C2  UNL d   1       1.862  -1.030   1.579  0.00  0.00    -0.005 A 
ATOM      4  C3  UNL d   1       1.893  -1.471   0.256  0.00  0.00     0.006 A 
ATOM      5  C4  UNL d   1       1.963  -2.835  -0.029  0.00  0.00    -0.005 A 
ATOM      6  C5  UNL d   1       2.004  -3.771   1.009  0.00  0.00    -0.074 A 
ATOM      7  C6  UNL d   1       2.089  -5.241   0.720  0.00  0.00     0.077 C 
ATOM      8  C7  UNL d   1       1.979  -3.320   2.336  0.00  0.00    -0.001 A 
ENDROOT
TORSDOF 0
ENDMDL
