MODEL 1
REMARK minimizedAffinity 4.89902258
REMARK minimizedRMSD -1
REMARK  0 active torsions:
REMARK  status: ('A' for Active; 'I' for Inactive)
ROOT
ATOM      1  C   UNL d   1      -2.461  -2.007   2.560  0.00  0.00     0.077 C 
ATOM      2  C1  UNL d   1      -1.040  -1.526   2.536  0.00  0.00    -0.074 A 
ATOM      3  C2  UNL d   1      -0.658  -0.377   3.235  0.00  0.00    -0.005 A 
ATOM      4  C3  UNL d   1       0.669   0.053   3.210  0.00  0.00     0.006 A 
ATOM      5  C4  UNL d   1       1.625  -0.662   2.488  0.00  0.00    -0.005 A 
ATOM      6  C5  UNL d   1       1.262  -1.814   1.784  0.00  0.00    -0.074 A 
ATOM      7  C6  UNL d   1       2.279  -2.599   1.010  0.00  0.00     0.077 C 
ATOM      8  C7  UNL d   1      -0.072  -2.243   1.819  0.00  0.00    -0.001 A 
ENDROOT
TORSDOF 0
ENDMDL
