MODEL 1
REMARK minimizedAffinity 5.58684683
REMARK minimizedRMSD -1
REMARK  0 active torsions:
REMARK  status: ('A' for Active; 'I' for Inactive)
ROOT
ATOM      1  C   UNL d   1      -3.449   1.910   4.135  0.00  0.00     0.077 C 
ATOM      2  C1  UNL d   1      -2.588   0.811   3.587  0.00  0.00    -0.074 A 
ATOM      3  C2  UNL d   1      -1.490   0.331   4.308  0.00  0.00    -0.005 A 
ATOM      4  C3  UNL d   1      -0.705  -0.699   3.790  0.00  0.00     0.006 A 
ATOM      5  C4  UNL d   1      -1.008  -1.257   2.548  0.00  0.00    -0.005 A 
ATOM      6  C5  UNL d   1      -2.103  -0.791   1.813  0.00  0.00    -0.074 A 
ATOM      7  C6  UNL d   1      -2.449  -1.387   0.481  0.00  0.00     0.077 C 
ATOM      8  C7  UNL d   1      -2.892   0.239   2.344  0.00  0.00    -0.001 A 
ENDROOT
TORSDOF 0
ENDMDL
