MODEL 1
REMARK minimizedAffinity 3.32391739
REMARK minimizedRMSD -1
REMARK  0 active torsions:
REMARK  status: ('A' for Active; 'I' for Inactive)
ROOT
ATOM      1  C   UNL d   1       2.633  -4.684   1.757  0.00  0.00     0.077 C 
ATOM      2  C1  UNL d   1       1.943  -3.366   1.570  0.00  0.00    -0.074 A 
ATOM      3  C2  UNL d   1       2.193  -2.577   0.442  0.00  0.00    -0.005 A 
ATOM      4  C3  UNL d   1       1.536  -1.358   0.277  0.00  0.00     0.006 A 
ATOM      5  C4  UNL d   1       0.624  -0.916   1.236  0.00  0.00    -0.005 A 
ATOM      6  C5  UNL d   1       0.360  -1.691   2.369  0.00  0.00    -0.074 A 
ATOM      7  C6  UNL d   1      -0.624  -1.235   3.405  0.00  0.00     0.077 C 
ATOM      8  C7  UNL d   1       1.019  -2.918   2.525  0.00  0.00    -0.001 A 
ENDROOT
TORSDOF 0
ENDMDL
