MODEL 1
REMARK minimizedAffinity 10.8106585
REMARK minimizedRMSD -1
REMARK  0 active torsions:
REMARK  status: ('A' for Active; 'I' for Inactive)
ROOT
ATOM      1  C   UNL d   1       0.787  -0.802  -0.664  0.00  0.00     0.077 C 
ATOM      2  C1  UNL d   1       1.491  -1.685   0.323  0.00  0.00    -0.074 A 
ATOM      3  C2  UNL d   1       0.771  -2.512   1.190  0.00  0.00    -0.005 A 
ATOM      4  C3  UNL d   1       1.440  -3.335   2.096  0.00  0.00     0.006 A 
ATOM      5  C4  UNL d   1       2.835  -3.338   2.144  0.00  0.00    -0.005 A 
ATOM      6  C5  UNL d   1       3.572  -2.518   1.284  0.00  0.00    -0.074 A 
ATOM      7  C6  UNL d   1       5.072  -2.517   1.315  0.00  0.00     0.077 C 
ATOM      8  C7  UNL d   1       2.892  -1.700   0.371  0.00  0.00    -0.001 A 
ENDROOT
TORSDOF 0
ENDMDL
