MODEL 1
REMARK minimizedAffinity 8.17671967
REMARK minimizedRMSD -1
REMARK  0 active torsions:
REMARK  status: ('A' for Active; 'I' for Inactive)
ROOT
ATOM      1  C   UNL d   1      -0.755  -1.893   2.633  0.00  0.00     0.077 C 
ATOM      2  C1  UNL d   1       0.519  -2.338   1.979  0.00  0.00    -0.074 A 
ATOM      3  C2  UNL d   1       1.472  -1.407   1.554  0.00  0.00    -0.005 A 
ATOM      4  C3  UNL d   1       2.657  -1.836   0.956  0.00  0.00     0.006 A 
ATOM      5  C4  UNL d   1       2.900  -3.198   0.777  0.00  0.00    -0.005 A 
ATOM      6  C5  UNL d   1       1.959  -4.144   1.197  0.00  0.00    -0.074 A 
ATOM      7  C6  UNL d   1       2.210  -5.613   1.021  0.00  0.00     0.077 C 
ATOM      8  C7  UNL d   1       0.774  -3.705   1.803  0.00  0.00    -0.001 A 
ENDROOT
TORSDOF 0
ENDMDL
