MODEL 1
REMARK minimizedAffinity 1.19038498
REMARK minimizedRMSD -1
REMARK  0 active torsions:
REMARK  status: ('A' for Active; 'I' for Inactive)
ROOT
ATOM      1  C   UNL d   1      -2.133   0.137   1.943  0.00  0.00     0.077 C 
ATOM      2  C1  UNL d   1      -1.052  -0.783   2.427  0.00  0.00    -0.074 A 
ATOM      3  C2  UNL d   1      -0.796  -0.933   3.794  0.00  0.00    -0.005 A 
ATOM      4  C3  UNL d   1       0.207  -1.800   4.230  0.00  0.00     0.006 A 
ATOM      5  C4  UNL d   1       0.962  -2.523   3.306  0.00  0.00    -0.005 A 
ATOM      6  C5  UNL d   1       0.719  -2.386   1.935  0.00  0.00    -0.074 A 
ATOM      7  C6  UNL d   1       1.515  -3.163   0.929  0.00  0.00     0.077 C 
ATOM      8  C7  UNL d   1      -0.295  -1.518   1.505  0.00  0.00    -0.001 A 
ENDROOT
TORSDOF 0
ENDMDL
