MODEL 1
REMARK minimizedAffinity 6.29219294
REMARK minimizedRMSD -1
REMARK  1 active torsions:
REMARK  status: ('A' for Active; 'I' for Inactive)
REMARK    1  A    between atoms: N_2  and  C1_3 
ROOT
ATOM      1  C1  UNL d   1      -0.229   0.149   2.516  0.00  0.00     0.143 A 
ATOM      2  C2  UNL d   1      -0.316   1.545   2.499  0.00  0.00    -0.057 A 
ATOM      3  C3  UNL d   1      -1.529   2.193   2.232  0.00  0.00     0.033 A 
ATOM      4  C4  UNL d   1      -2.672   1.453   1.948  0.00  0.00    -0.042 A 
ATOM      5  C5  UNL d   1      -2.603   0.065   1.935  0.00  0.00     0.033 A 
ATOM      6  C6  UNL d   1      -1.391  -0.577   2.209  0.00  0.00    -0.057 A 
ENDROOT
BRANCH   1   7
ATOM      7  N   UNL d   1       0.968  -0.554   2.678  0.00  0.00    -0.732 N 
ATOM      8  C   UNL d   1       1.373  -1.031   3.983  0.00  0.00     0.284 C 
ATOM      9  H3  UNL d   1       1.135  -1.215   1.923  0.00  0.00     0.395 HD
ENDBRANCH   1   7
TORSDOF 1
ENDMDL
