MODEL 1
REMARK minimizedAffinity 11.2675953
REMARK minimizedRMSD -1
REMARK  1 active torsions:
REMARK  status: ('A' for Active; 'I' for Inactive)
REMARK    1  A    between atoms: N_2  and  C1_3 
ROOT
ATOM      1  C1  UNL d   1       4.226   3.471   1.308  0.00  0.00     0.143 A 
ATOM      2  C2  UNL d   1       5.101   3.013   0.317  0.00  0.00    -0.057 A 
ATOM      3  C3  UNL d   1       5.967   1.939   0.553  0.00  0.00     0.033 A 
ATOM      4  C4  UNL d   1       5.996   1.321   1.798  0.00  0.00    -0.042 A 
ATOM      5  C5  UNL d   1       5.154   1.776   2.807  0.00  0.00     0.033 A 
ATOM      6  C6  UNL d   1       4.285   2.844   2.563  0.00  0.00    -0.057 A 
ENDROOT
BRANCH   1   7
ATOM      7  N   UNL d   1       3.411   4.596   1.167  0.00  0.00    -0.732 N 
ATOM      8  C   UNL d   1       3.595   5.752   2.019  0.00  0.00     0.284 C 
ATOM      9  H3  UNL d   1       3.228   4.823   0.192  0.00  0.00     0.395 HD
ENDBRANCH   1   7
TORSDOF 1
ENDMDL
