MODEL 1
REMARK minimizedAffinity 5.50588226
REMARK minimizedRMSD -1
REMARK  1 active torsions:
REMARK  status: ('A' for Active; 'I' for Inactive)
REMARK    1  A    between atoms: N_2  and  C1_3 
ROOT
ATOM      1  C1  UNL d   1       3.288  -3.702   5.230  0.00  0.00     0.143 A 
ATOM      2  C2  UNL d   1       3.944  -2.499   4.947  0.00  0.00    -0.057 A 
ATOM      3  C3  UNL d   1       3.366  -1.538   4.109  0.00  0.00     0.033 A 
ATOM      4  C4  UNL d   1       2.133  -1.776   3.513  0.00  0.00    -0.042 A 
ATOM      5  C5  UNL d   1       1.475  -2.976   3.760  0.00  0.00     0.033 A 
ATOM      6  C6  UNL d   1       2.053  -3.929   4.603  0.00  0.00    -0.057 A 
ENDROOT
BRANCH   1   7
ATOM      7  N   UNL d   1       3.854  -4.739   5.976  0.00  0.00    -0.732 N 
ATOM      8  C   UNL d   1       4.968  -5.501   5.454  0.00  0.00     0.284 C 
ATOM      9  H3  UNL d   1       3.936  -4.507   6.964  0.00  0.00     0.395 HD
ENDBRANCH   1   7
TORSDOF 1
ENDMDL
