MODEL 1
REMARK minimizedAffinity 6.51428843
REMARK minimizedRMSD -1
REMARK  1 active torsions:
REMARK  status: ('A' for Active; 'I' for Inactive)
REMARK    1  A    between atoms: N_2  and  C1_3 
ROOT
ATOM      1  C1  UNL d   1       3.310  -3.555   4.680  0.00  0.00     0.143 A 
ATOM      2  C2  UNL d   1       4.287  -2.555   4.738  0.00  0.00    -0.057 A 
ATOM      3  C3  UNL d   1       5.622  -2.860   5.028  0.00  0.00     0.033 A 
ATOM      4  C4  UNL d   1       6.000  -4.172   5.295  0.00  0.00    -0.042 A 
ATOM      5  C5  UNL d   1       5.041  -5.179   5.267  0.00  0.00     0.033 A 
ATOM      6  C6  UNL d   1       3.711  -4.868   4.970  0.00  0.00    -0.057 A 
ENDROOT
BRANCH   1   7
ATOM      7  N   UNL d   1       1.949  -3.302   4.493  0.00  0.00    -0.732 N 
ATOM      8  C   UNL d   1       1.510  -2.243   3.610  0.00  0.00     0.284 C 
ATOM      9  H3  UNL d   1       1.402  -4.157   4.422  0.00  0.00     0.395 HD
ENDBRANCH   1   7
TORSDOF 1
ENDMDL
