MODEL 1
REMARK minimizedAffinity 1.89810252
REMARK minimizedRMSD -1
REMARK  1 active torsions:
REMARK  status: ('A' for Active; 'I' for Inactive)
REMARK    1  A    between atoms: N_2  and  C1_3 
ROOT
ATOM      1  C1  UNL d   1       3.292  -5.042   5.471  0.00  0.00     0.143 A 
ATOM      2  C2  UNL d   1       3.155  -4.056   4.489  0.00  0.00    -0.057 A 
ATOM      3  C3  UNL d   1       1.893  -3.605   4.083  0.00  0.00     0.033 A 
ATOM      4  C4  UNL d   1       0.741  -4.157   4.633  0.00  0.00    -0.042 A 
ATOM      5  C5  UNL d   1       0.852  -5.157   5.593  0.00  0.00     0.033 A 
ATOM      6  C6  UNL d   1       2.116  -5.597   5.999  0.00  0.00    -0.057 A 
ENDROOT
BRANCH   1   7
ATOM      7  N   UNL d   1       4.516  -5.602   5.846  0.00  0.00    -0.732 N 
ATOM      8  C   UNL d   1       5.630  -5.625   4.922  0.00  0.00     0.284 C 
ATOM      9  H3  UNL d   1       4.773  -5.367   6.802  0.00  0.00     0.395 HD
ENDBRANCH   1   7
TORSDOF 1
ENDMDL
