MODEL 1
REMARK minimizedAffinity 7.92688751
REMARK minimizedRMSD -1
REMARK  1 active torsions:
REMARK  status: ('A' for Active; 'I' for Inactive)
REMARK    1  A    between atoms: N_2  and  C1_3 
ROOT
ATOM      1  C1  UNL d   1       3.833  -2.637   5.158  0.00  0.00     0.143 A 
ATOM      2  C2  UNL d   1       2.794  -3.211   4.417  0.00  0.00    -0.057 A 
ATOM      3  C3  UNL d   1       1.913  -2.421   3.669  0.00  0.00     0.033 A 
ATOM      4  C4  UNL d   1       2.037  -1.035   3.673  0.00  0.00    -0.042 A 
ATOM      5  C5  UNL d   1       3.047  -0.441   4.422  0.00  0.00     0.033 A 
ATOM      6  C6  UNL d   1       3.928  -1.236   5.161  0.00  0.00    -0.057 A 
ENDROOT
BRANCH   1   7
ATOM      7  N   UNL d   1       4.681  -3.361   6.000  0.00  0.00    -0.732 N 
ATOM      8  C   UNL d   1       5.995  -3.767   5.550  0.00  0.00     0.284 C 
ATOM      9  H3  UNL d   1       4.655  -3.024   6.959  0.00  0.00     0.395 HD
ENDBRANCH   1   7
TORSDOF 1
ENDMDL
