MODEL 1
REMARK minimizedAffinity -0.718383253
REMARK minimizedRMSD -1
REMARK  0 active torsions:
REMARK  status: ('A' for Active; 'I' for Inactive)
ROOT
ATOM      1  C   UNL d   1      -2.511   0.238   0.575  0.00  0.00     0.023 A 
ATOM      2  C1  UNL d   1      -1.705   1.376   0.593  0.00  0.00     0.003 A 
ATOM      3  C2  UNL d   1      -0.319   1.254   0.475  0.00  0.00     0.048 A 
ATOM      4  C3  UNL d   1       0.254  -0.009   0.338  0.00  0.00     0.023 A 
ATOM      5  C4  UNL d   1      -0.548  -1.151   0.318  0.00  0.00     0.048 A 
ATOM      6  C5  UNL d   1      -1.933  -1.024   0.437  0.00  0.00     0.003 A 
ATOM      7  I   UNL d   1       2.317  -0.194   0.162  0.00  0.00    -0.146 I 
ENDROOT
TORSDOF 0
ENDMDL
