MODEL 1
REMARK minimizedAffinity -3.55255127
REMARK minimizedRMSD -1
REMARK  0 active torsions:
REMARK  status: ('A' for Active; 'I' for Inactive)
ROOT
ATOM      1  C   UNL d   1      -0.068   2.251   0.742  0.00  0.00     0.023 A 
ATOM      2  C1  UNL d   1      -1.279   1.837   1.298  0.00  0.00     0.003 A 
ATOM      3  C2  UNL d   1      -1.659   0.495   1.226  0.00  0.00     0.048 A 
ATOM      4  C3  UNL d   1      -0.823  -0.428   0.599  0.00  0.00     0.023 A 
ATOM      5  C4  UNL d   1       0.390  -0.019   0.043  0.00  0.00     0.048 A 
ATOM      6  C5  UNL d   1       0.766   1.324   0.116  0.00  0.00     0.003 A 
ATOM      7  I   UNL d   1      -1.386  -2.426   0.491  0.00  0.00    -0.146 I 
ENDROOT
TORSDOF 0
ENDMDL
