MODEL 1
REMARK minimizedAffinity -0.399755687
REMARK minimizedRMSD -1
REMARK  0 active torsions:
REMARK  status: ('A' for Active; 'I' for Inactive)
ROOT
ATOM      1  C   UNL d   1      -1.091   0.472   0.710  0.00  0.00     0.023 A 
ATOM      2  C1  UNL d   1      -1.369   1.753   0.232  0.00  0.00     0.003 A 
ATOM      3  C2  UNL d   1      -0.644   2.270  -0.844  0.00  0.00     0.048 A 
ATOM      4  C3  UNL d   1       0.356   1.501  -1.437  0.00  0.00     0.023 A 
ATOM      5  C4  UNL d   1       0.637   0.219  -0.962  0.00  0.00     0.048 A 
ATOM      6  C5  UNL d   1      -0.090  -0.294   0.114  0.00  0.00     0.003 A 
ATOM      7  I   UNL d   1       1.436   2.268  -3.039  0.00  0.00    -0.146 I 
ENDROOT
TORSDOF 0
ENDMDL
