MODEL 1
REMARK minimizedAffinity -3.60618687
REMARK minimizedRMSD -1
REMARK  0 active torsions:
REMARK  status: ('A' for Active; 'I' for Inactive)
ROOT
ATOM      1  C   UNL d   1       1.770   2.729  -3.437  0.00  0.00     0.023 A 
ATOM      2  C1  UNL d   1       0.384   2.603  -3.337  0.00  0.00     0.003 A 
ATOM      3  C2  UNL d   1      -0.175   1.798  -2.342  0.00  0.00     0.048 A 
ATOM      4  C3  UNL d   1       0.658   1.123  -1.450  0.00  0.00     0.023 A 
ATOM      5  C4  UNL d   1       2.045   1.247  -1.546  0.00  0.00     0.048 A 
ATOM      6  C5  UNL d   1       2.599   2.052  -2.542  0.00  0.00     0.003 A 
ATOM      7  I   UNL d   1      -0.172  -0.076   0.031  0.00  0.00    -0.146 I 
ENDROOT
TORSDOF 0
ENDMDL
