MODEL 1
REMARK minimizedAffinity -3.68588209
REMARK minimizedRMSD -1
REMARK  0 active torsions:
REMARK  status: ('A' for Active; 'I' for Inactive)
ROOT
ATOM      1  C   UNL d   1      -1.399  -2.171   1.181  0.00  0.00     0.023 A 
ATOM      2  C1  UNL d   1      -0.006  -2.170   1.097  0.00  0.00     0.003 A 
ATOM      3  C2  UNL d   1       0.652  -1.148   0.410  0.00  0.00     0.048 A 
ATOM      4  C3  UNL d   1      -0.088  -0.130  -0.190  0.00  0.00     0.023 A 
ATOM      5  C4  UNL d   1      -1.481  -0.127  -0.109  0.00  0.00     0.048 A 
ATOM      6  C5  UNL d   1      -2.135  -1.151   0.578  0.00  0.00     0.003 A 
ATOM      7  I   UNL d   1       0.890   1.392  -1.213  0.00  0.00    -0.146 I 
ENDROOT
TORSDOF 0
ENDMDL
