MODEL 1
REMARK minimizedAffinity -3.55751824
REMARK minimizedRMSD -1
REMARK  0 active torsions:
REMARK  status: ('A' for Active; 'I' for Inactive)
ROOT
ATOM      1  C   UNL d   1      -1.255  -2.140   0.974  0.00  0.00     0.023 A 
ATOM      2  C1  UNL d   1      -1.912  -0.970   0.593  0.00  0.00     0.003 A 
ATOM      3  C2  UNL d   1      -1.212   0.042  -0.068  0.00  0.00     0.048 A 
ATOM      4  C3  UNL d   1       0.145  -0.124  -0.346  0.00  0.00     0.023 A 
ATOM      5  C4  UNL d   1       0.806  -1.293   0.033  0.00  0.00     0.048 A 
ATOM      6  C5  UNL d   1       0.102  -2.301   0.694  0.00  0.00     0.003 A 
ATOM      7  I   UNL d   1       1.189   1.380  -1.330  0.00  0.00    -0.146 I 
ENDROOT
TORSDOF 0
ENDMDL
