MODEL 1
REMARK minimizedAffinity -3.73826623
REMARK minimizedRMSD -1
REMARK  0 active torsions:
REMARK  status: ('A' for Active; 'I' for Inactive)
ROOT
ATOM      1  C   UNL d   1      -1.383  -2.488   1.595  0.00  0.00     0.023 A 
ATOM      2  C1  UNL d   1      -0.004  -2.439   1.385  0.00  0.00     0.003 A 
ATOM      3  C2  UNL d   1       0.543  -1.452   0.563  0.00  0.00     0.048 A 
ATOM      4  C3  UNL d   1      -0.293  -0.517  -0.046  0.00  0.00     0.023 A 
ATOM      5  C4  UNL d   1      -1.673  -0.562   0.161  0.00  0.00     0.048 A 
ATOM      6  C5  UNL d   1      -2.216  -1.551   0.983  0.00  0.00     0.003 A 
ATOM      7  I   UNL d   1       0.520   0.952  -1.271  0.00  0.00    -0.146 I 
ENDROOT
TORSDOF 0
ENDMDL
