MODEL 1
REMARK minimizedAffinity -4.35795784
REMARK minimizedRMSD -1
REMARK  0 active torsions:
REMARK  status: ('A' for Active; 'I' for Inactive)
ROOT
ATOM      1  C   UNL d   1      -2.798  -2.304   1.910  0.00  0.00     0.023 A 
ATOM      2  C1  UNL d   1      -1.657  -2.794   1.274  0.00  0.00     0.003 A 
ATOM      3  C2  UNL d   1      -0.764  -1.912   0.661  0.00  0.00     0.048 A 
ATOM      4  C3  UNL d   1      -1.018  -0.541   0.688  0.00  0.00     0.023 A 
ATOM      5  C4  UNL d   1      -2.158  -0.046   1.324  0.00  0.00     0.048 A 
ATOM      6  C5  UNL d   1      -3.048  -0.932   1.935  0.00  0.00     0.003 A 
ATOM      7  I   UNL d   1       0.309   0.773  -0.223  0.00  0.00    -0.146 I 
ENDROOT
TORSDOF 0
ENDMDL
