MODEL 1
REMARK minimizedAffinity -3.62324715
REMARK minimizedRMSD -1
REMARK  0 active torsions:
REMARK  status: ('A' for Active; 'I' for Inactive)
ROOT
ATOM      1  C   UNL d   1      -0.326  -2.285   1.605  0.00  0.00     0.023 A 
ATOM      2  C1  UNL d   1       0.962  -1.989   1.158  0.00  0.00     0.003 A 
ATOM      3  C2  UNL d   1       1.186  -0.863   0.363  0.00  0.00     0.048 A 
ATOM      4  C3  UNL d   1       0.117  -0.037   0.019  0.00  0.00     0.023 A 
ATOM      5  C4  UNL d   1      -1.173  -0.328   0.464  0.00  0.00     0.048 A 
ATOM      6  C5  UNL d   1      -1.392  -1.456   1.258  0.00  0.00     0.003 A 
ATOM      7  I   UNL d   1       0.448   1.640  -1.164  0.00  0.00    -0.146 I 
ENDROOT
TORSDOF 0
ENDMDL
