MODEL 1
REMARK minimizedAffinity -3.94569325
REMARK minimizedRMSD -1
REMARK  0 active torsions:
REMARK  status: ('A' for Active; 'I' for Inactive)
ROOT
ATOM      1  C   UNL d   1      -1.139  -2.667   1.071  0.00  0.00     0.023 A 
ATOM      2  C1  UNL d   1      -2.081  -1.700   0.719  0.00  0.00     0.003 A 
ATOM      3  C2  UNL d   1      -1.670  -0.517   0.100  0.00  0.00     0.048 A 
ATOM      4  C3  UNL d   1      -0.317  -0.308  -0.164  0.00  0.00     0.023 A 
ATOM      5  C4  UNL d   1       0.628  -1.273   0.187  0.00  0.00     0.048 A 
ATOM      6  C5  UNL d   1       0.214  -2.454   0.806  0.00  0.00     0.003 A 
ATOM      7  I   UNL d   1       0.296   1.452  -1.084  0.00  0.00    -0.146 I 
ENDROOT
TORSDOF 0
ENDMDL
