MODEL 1
REMARK minimizedAffinity -3.02972221
REMARK minimizedRMSD -1
REMARK  0 active torsions:
REMARK  status: ('A' for Active; 'I' for Inactive)
ROOT
ATOM      1  C   UNL d   1      -0.908  -1.950   1.385  0.00  0.00     0.023 A 
ATOM      2  C1  UNL d   1      -1.641  -1.094   0.563  0.00  0.00     0.003 A 
ATOM      3  C2  UNL d   1      -0.988  -0.112  -0.185  0.00  0.00     0.048 A 
ATOM      4  C3  UNL d   1       0.399   0.008  -0.106  0.00  0.00     0.023 A 
ATOM      5  C4  UNL d   1       1.137  -0.847   0.715  0.00  0.00     0.048 A 
ATOM      6  C5  UNL d   1       0.479  -1.826   1.461  0.00  0.00     0.003 A 
ATOM      7  I   UNL d   1       1.374   1.469  -1.218  0.00  0.00    -0.146 I 
ENDROOT
TORSDOF 0
ENDMDL
