MODEL 1
REMARK minimizedAffinity -3.67177033
REMARK minimizedRMSD -1
REMARK  0 active torsions:
REMARK  status: ('A' for Active; 'I' for Inactive)
ROOT
ATOM      1  C   UNL d   1       0.985   0.928  -0.261  0.00  0.00     0.023 A 
ATOM      2  C1  UNL d   1      -0.379   1.110  -0.030  0.00  0.00     0.003 A 
ATOM      3  C2  UNL d   1      -1.158   0.048   0.434  0.00  0.00     0.048 A 
ATOM      4  C3  UNL d   1      -0.566  -1.193   0.666  0.00  0.00     0.023 A 
ATOM      5  C4  UNL d   1       0.798  -1.380   0.437  0.00  0.00     0.048 A 
ATOM      6  C5  UNL d   1       1.572  -0.316  -0.028  0.00  0.00     0.003 A 
ATOM      7  I   UNL d   1      -1.724  -2.775   1.358  0.00  0.00    -0.146 I 
ENDROOT
TORSDOF 0
ENDMDL
