MODEL 1
REMARK minimizedAffinity -3.91850924
REMARK minimizedRMSD -1
REMARK  0 active torsions:
REMARK  status: ('A' for Active; 'I' for Inactive)
ROOT
ATOM      1  C   UNL d   1      -1.026  -2.517   0.990  0.00  0.00     0.023 A 
ATOM      2  C1  UNL d   1      -1.700  -1.877  -0.050  0.00  0.00     0.003 A 
ATOM      3  C2  UNL d   1      -1.090  -0.824  -0.735  0.00  0.00     0.048 A 
ATOM      4  C3  UNL d   1       0.195  -0.418  -0.377  0.00  0.00     0.023 A 
ATOM      5  C4  UNL d   1       0.874  -1.057   0.662  0.00  0.00     0.048 A 
ATOM      6  C5  UNL d   1       0.259  -2.108   1.345  0.00  0.00     0.003 A 
ATOM      7  I   UNL d   1       1.105   1.148  -1.396  0.00  0.00    -0.146 I 
ENDROOT
TORSDOF 0
ENDMDL
