MODEL 1
REMARK minimizedAffinity -3.20463991
REMARK minimizedRMSD -1
REMARK  0 active torsions:
REMARK  status: ('A' for Active; 'I' for Inactive)
ROOT
ATOM      1  C   UNL d   1      -0.624  -2.269   1.305  0.00  0.00     0.023 A 
ATOM      2  C1  UNL d   1       0.581  -1.568   1.323  0.00  0.00     0.003 A 
ATOM      3  C2  UNL d   1       0.865  -0.639   0.319  0.00  0.00     0.048 A 
ATOM      4  C3  UNL d   1      -0.062  -0.415  -0.698  0.00  0.00     0.023 A 
ATOM      5  C4  UNL d   1      -1.270  -1.114  -0.719  0.00  0.00     0.048 A 
ATOM      6  C5  UNL d   1      -1.549  -2.043   0.285  0.00  0.00     0.003 A 
ATOM      7  I   UNL d   1       0.357   0.967  -2.192  0.00  0.00    -0.146 I 
ENDROOT
TORSDOF 0
ENDMDL
