MODEL 1
REMARK minimizedAffinity -5.64179373
REMARK minimizedRMSD -1
REMARK  0 active torsions:
REMARK  status: ('A' for Active; 'I' for Inactive)
ROOT
ATOM      1  C   UNL d   1      -2.104  -2.257   1.987  0.00  0.00     0.023 A 
ATOM      2  C1  UNL d   1      -2.512  -0.923   2.004  0.00  0.00     0.003 A 
ATOM      3  C2  UNL d   1      -1.747   0.051   1.358  0.00  0.00     0.048 A 
ATOM      4  C3  UNL d   1      -0.577  -0.317   0.695  0.00  0.00     0.023 A 
ATOM      5  C4  UNL d   1      -0.166  -1.651   0.674  0.00  0.00     0.048 A 
ATOM      6  C5  UNL d   1      -0.933  -2.620   1.323  0.00  0.00     0.003 A 
ATOM      7  I   UNL d   1       0.563   1.130  -0.268  0.00  0.00    -0.146 I 
ENDROOT
TORSDOF 0
ENDMDL
