MODEL 1
REMARK minimizedAffinity -3.10276365
REMARK minimizedRMSD -1
REMARK  0 active torsions:
REMARK  status: ('A' for Active; 'I' for Inactive)
ROOT
ATOM      1  C   UNL d   1      -0.915  -2.150   1.431  0.00  0.00     0.023 A 
ATOM      2  C1  UNL d   1      -1.760  -1.415   0.599  0.00  0.00     0.003 A 
ATOM      3  C2  UNL d   1      -1.239  -0.397  -0.204  0.00  0.00     0.048 A 
ATOM      4  C3  UNL d   1       0.127  -0.121  -0.170  0.00  0.00     0.023 A 
ATOM      5  C4  UNL d   1       0.976  -0.854   0.660  0.00  0.00     0.048 A 
ATOM      6  C5  UNL d   1       0.451  -1.870   1.461  0.00  0.00     0.003 A 
ATOM      7  I   UNL d   1       0.904   1.393  -1.364  0.00  0.00    -0.146 I 
ENDROOT
TORSDOF 0
ENDMDL
