MODEL 1
REMARK minimizedAffinity 2.82975006
REMARK minimizedRMSD -1
REMARK  0 active torsions:
REMARK  status: ('A' for Active; 'I' for Inactive)
ROOT
ATOM      1  C1  BNZ d   1       3.222   1.481  -0.698  0.00  0.00     0.000 A 
ATOM      2  C2  BNZ d   1       2.915   1.604  -2.027  0.00  0.00     0.000 A 
ATOM      3  C3  BNZ d   1       1.615   1.680  -2.441  0.00  0.00     0.000 A 
ATOM      4  C4  BNZ d   1       0.623   1.593  -1.530  0.00  0.00     0.000 A 
ATOM      5  C5  BNZ d   1       0.917   1.460  -0.188  0.00  0.00     0.000 A 
ATOM      6  C6  BNZ d   1       2.227   1.422   0.229  0.00  0.00     0.000 A 
ENDROOT
TORSDOF 0
ENDMDL
