MODEL 1
REMARK minimizedAffinity 2.46689391
REMARK minimizedRMSD -1
REMARK  0 active torsions:
REMARK  status: ('A' for Active; 'I' for Inactive)
ROOT
ATOM      1  C1  BNZ d   1      -3.738   5.354  -5.619  0.00  0.00     0.000 A 
ATOM      2  C2  BNZ d   1      -4.885   5.997  -6.000  0.00  0.00     0.000 A 
ATOM      3  C3  BNZ d   1      -5.994   5.982  -5.200  0.00  0.00     0.000 A 
ATOM      4  C4  BNZ d   1      -5.967   5.292  -4.042  0.00  0.00     0.000 A 
ATOM      5  C5  BNZ d   1      -4.821   4.631  -3.649  0.00  0.00     0.000 A 
ATOM      6  C6  BNZ d   1      -3.694   4.681  -4.437  0.00  0.00     0.000 A 
ENDROOT
TORSDOF 0
ENDMDL
