MODEL 1
REMARK minimizedAffinity 6.69105816
REMARK minimizedRMSD -1
REMARK  0 active torsions:
REMARK  status: ('A' for Active; 'I' for Inactive)
ROOT
ATOM      1  C1  BNZ d   1       1.643   2.082  -2.222  0.00  0.00     0.000 A 
ATOM      2  C2  BNZ d   1       2.984   2.232  -2.461  0.00  0.00     0.000 A 
ATOM      3  C3  BNZ d   1       3.434   3.133  -3.385  0.00  0.00     0.000 A 
ATOM      4  C4  BNZ d   1       2.543   3.854  -4.096  0.00  0.00     0.000 A 
ATOM      5  C5  BNZ d   1       1.189   3.708  -3.874  0.00  0.00     0.000 A 
ATOM      6  C6  BNZ d   1       0.740   2.828  -2.916  0.00  0.00     0.000 A 
ENDROOT
TORSDOF 0
ENDMDL
