MODEL 1
REMARK minimizedAffinity 5.90966415
REMARK minimizedRMSD -1
REMARK  0 active torsions:
REMARK  status: ('A' for Active; 'I' for Inactive)
ROOT
ATOM      1  C1  BNZ d   1      -2.148   1.231   1.968  0.00  0.00     0.000 A 
ATOM      2  C2  BNZ d   1      -1.618   0.100   1.405  0.00  0.00     0.000 A 
ATOM      3  C3  BNZ d   1      -1.263  -0.967   2.181  0.00  0.00     0.000 A 
ATOM      4  C4  BNZ d   1      -1.400  -0.888   3.520  0.00  0.00     0.000 A 
ATOM      5  C5  BNZ d   1      -1.924   0.248   4.104  0.00  0.00     0.000 A 
ATOM      6  C6  BNZ d   1      -2.317   1.306   3.316  0.00  0.00     0.000 A 
ENDROOT
TORSDOF 0
ENDMDL
