MODEL 1
REMARK minimizedAffinity 10.0781708
REMARK minimizedRMSD -1
REMARK  0 active torsions:
REMARK  status: ('A' for Active; 'I' for Inactive)
ROOT
ATOM      1  C1  BNZ d   1      -1.774   0.416   2.986  0.00  0.00     0.000 A 
ATOM      2  C2  BNZ d   1      -0.956  -0.677   2.877  0.00  0.00     0.000 A 
ATOM      3  C3  BNZ d   1      -1.121  -1.576   1.860  0.00  0.00     0.000 A 
ATOM      4  C4  BNZ d   1      -2.127  -1.402   0.979  0.00  0.00     0.000 A 
ATOM      5  C5  BNZ d   1      -2.966  -0.310   1.081  0.00  0.00     0.000 A 
ATOM      6  C6  BNZ d   1      -2.772   0.613   2.083  0.00  0.00     0.000 A 
ENDROOT
TORSDOF 0
ENDMDL
