MODEL 1
REMARK minimizedAffinity 8.79080677
REMARK minimizedRMSD -1
REMARK  0 active torsions:
REMARK  status: ('A' for Active; 'I' for Inactive)
ROOT
ATOM      1  C1  BNZ d   1       6.000  -4.962  -0.012  0.00  0.00     0.000 A 
ATOM      2  C2  BNZ d   1       5.576  -3.759  -0.511  0.00  0.00     0.000 A 
ATOM      3  C3  BNZ d   1       4.253  -3.538  -0.775  0.00  0.00     0.000 A 
ATOM      4  C4  BNZ d   1       3.362  -4.531  -0.577  0.00  0.00     0.000 A 
ATOM      5  C5  BNZ d   1       3.775  -5.752  -0.083  0.00  0.00     0.000 A 
ATOM      6  C6  BNZ d   1       5.102  -5.959   0.218  0.00  0.00     0.000 A 
ENDROOT
TORSDOF 0
ENDMDL
