MODEL 1
REMARK minimizedAffinity 8.66268921
REMARK minimizedRMSD -1
REMARK  0 active torsions:
REMARK  status: ('A' for Active; 'I' for Inactive)
ROOT
ATOM      1  C1  BNZ d   1      -1.391  -1.575   1.937  0.00  0.00     0.000 A 
ATOM      2  C2  BNZ d   1      -2.452  -2.394   1.658  0.00  0.00     0.000 A 
ATOM      3  C3  BNZ d   1      -3.646  -2.238   2.304  0.00  0.00     0.000 A 
ATOM      4  C4  BNZ d   1      -3.765  -1.290   3.256  0.00  0.00     0.000 A 
ATOM      5  C5  BNZ d   1      -2.702  -0.463   3.556  0.00  0.00     0.000 A 
ATOM      6  C6  BNZ d   1      -1.513  -0.598   2.876  0.00  0.00     0.000 A 
ENDROOT
TORSDOF 0
ENDMDL
