MODEL 1
REMARK minimizedAffinity 2.45089674
REMARK minimizedRMSD -1
REMARK  0 active torsions:
REMARK  status: ('A' for Active; 'I' for Inactive)
ROOT
ATOM      1  C1  BNZ d   1      -0.768   4.855  -1.484  0.00  0.00     0.000 A 
ATOM      2  C2  BNZ d   1      -0.112   4.732  -2.680  0.00  0.00     0.000 A 
ATOM      3  C3  BNZ d   1      -0.791   4.817  -3.863  0.00  0.00     0.000 A 
ATOM      4  C4  BNZ d   1      -2.129   4.985  -3.848  0.00  0.00     0.000 A 
ATOM      5  C5  BNZ d   1      -2.806   5.101  -2.651  0.00  0.00     0.000 A 
ATOM      6  C6  BNZ d   1      -2.114   5.054  -1.463  0.00  0.00     0.000 A 
ENDROOT
TORSDOF 0
ENDMDL
