MODEL 1
REMARK minimizedAffinity 6.61724377
REMARK minimizedRMSD -1
REMARK  0 active torsions:
REMARK  status: ('A' for Active; 'I' for Inactive)
ROOT
ATOM      1  C1  BNZ d   1       4.882   3.893  -4.889  0.00  0.00     0.000 A 
ATOM      2  C2  BNZ d   1       5.986   4.550  -4.416  0.00  0.00     0.000 A 
ATOM      3  C3  BNZ d   1       5.998   5.083  -3.157  0.00  0.00     0.000 A 
ATOM      4  C4  BNZ d   1       4.894   4.992  -2.388  0.00  0.00     0.000 A 
ATOM      5  C5  BNZ d   1       3.769   4.340  -2.854  0.00  0.00     0.000 A 
ATOM      6  C6  BNZ d   1       3.775   3.772  -4.108  0.00  0.00     0.000 A 
ENDROOT
TORSDOF 0
ENDMDL
