MODEL 1
REMARK minimizedAffinity 9.9714365
REMARK minimizedRMSD -1
REMARK  0 active torsions:
REMARK  status: ('A' for Active; 'I' for Inactive)
ROOT
ATOM      1  C1  BNZ d   1       4.537  -3.011  -0.698  0.00  0.00     0.000 A 
ATOM      2  C2  BNZ d   1       3.961  -4.215  -1.006  0.00  0.00     0.000 A 
ATOM      3  C3  BNZ d   1       2.782  -4.595  -0.428  0.00  0.00     0.000 A 
ATOM      4  C4  BNZ d   1       2.202  -3.790   0.485  0.00  0.00     0.000 A 
ATOM      5  C5  BNZ d   1       2.775  -2.577   0.813  0.00  0.00     0.000 A 
ATOM      6  C6  BNZ d   1       3.941  -2.180   0.200  0.00  0.00     0.000 A 
ENDROOT
TORSDOF 0
ENDMDL
