MODEL 1
REMARK minimizedAffinity 8.87565136
REMARK minimizedRMSD -1
REMARK  0 active torsions:
REMARK  status: ('A' for Active; 'I' for Inactive)
ROOT
ATOM      1  C1  BNZ d   1       4.843   3.308  -0.124  0.00  0.00     0.000 A 
ATOM      2  C2  BNZ d   1       4.050   2.218  -0.366  0.00  0.00     0.000 A 
ATOM      3  C3  BNZ d   1       3.005   1.915   0.462  0.00  0.00     0.000 A 
ATOM      4  C4  BNZ d   1       2.780   2.677   1.551  0.00  0.00     0.000 A 
ATOM      5  C5  BNZ d   1       3.577   3.774   1.814  0.00  0.00     0.000 A 
ATOM      6  C6  BNZ d   1       4.603   4.098   0.958  0.00  0.00     0.000 A 
ENDROOT
TORSDOF 0
ENDMDL
