MODEL 1
REMARK minimizedAffinity 5.70788002
REMARK minimizedRMSD -1
REMARK  0 active torsions:
REMARK  status: ('A' for Active; 'I' for Inactive)
ROOT
ATOM      1  C1  BNZ d   1      -5.971   0.798  -2.433  0.00  0.00     0.000 A 
ATOM      2  C2  BNZ d   1      -5.965   1.212  -3.738  0.00  0.00     0.000 A 
ATOM      3  C3  BNZ d   1      -5.999   0.306  -4.761  0.00  0.00     0.000 A 
ATOM      4  C4  BNZ d   1      -5.998  -1.013  -4.478  0.00  0.00     0.000 A 
ATOM      5  C5  BNZ d   1      -5.994  -1.447  -3.167  0.00  0.00     0.000 A 
ATOM      6  C6  BNZ d   1      -6.000  -0.531  -2.140  0.00  0.00     0.000 A 
ENDROOT
TORSDOF 0
ENDMDL
