MODEL 1
REMARK minimizedAffinity 6.09110069
REMARK minimizedRMSD -1
REMARK  0 active torsions:
REMARK  status: ('A' for Active; 'I' for Inactive)
ROOT
ATOM      1  C1  BNZ d   1      -3.310   0.828   3.135  0.00  0.00     0.000 A 
ATOM      2  C2  BNZ d   1      -2.175   0.064   3.200  0.00  0.00     0.000 A 
ATOM      3  C3  BNZ d   1      -2.058  -1.080   2.461  0.00  0.00     0.000 A 
ATOM      4  C4  BNZ d   1      -3.090  -1.479   1.690  0.00  0.00     0.000 A 
ATOM      5  C5  BNZ d   1      -4.244  -0.725   1.621  0.00  0.00     0.000 A 
ATOM      6  C6  BNZ d   1      -4.343   0.446   2.336  0.00  0.00     0.000 A 
ENDROOT
TORSDOF 0
ENDMDL
