MODEL 1
REMARK minimizedAffinity 2.56863499
REMARK minimizedRMSD -1
REMARK  1 active torsions:
REMARK  status: ('A' for Active; 'I' for Inactive)
REMARK    1  A    between atoms: N_2  and  C1_3 
ROOT
ATOM      1  C1  UNL d   1      -3.019   2.919  -5.924  0.00  0.00     0.143 A 
ATOM      2  C2  UNL d   1      -2.174   4.033  -5.969  0.00  0.00    -0.057 A 
ATOM      3  C3  UNL d   1      -2.689   5.335  -5.992  0.00  0.00     0.033 A 
ATOM      4  C4  UNL d   1      -4.064   5.545  -6.000  0.00  0.00    -0.042 A 
ATOM      5  C5  UNL d   1      -4.923   4.452  -5.981  0.00  0.00     0.033 A 
ATOM      6  C6  UNL d   1      -4.402   3.154  -5.951  0.00  0.00    -0.057 A 
ENDROOT
BRANCH   1   7
ATOM      7  N   UNL d   1      -2.569   1.598  -5.999  0.00  0.00    -0.732 N 
ATOM      8  C   UNL d   1      -2.581   0.748  -4.827  0.00  0.00     0.284 C 
ATOM      9  H3  UNL d   1      -2.869   1.134  -6.853  0.00  0.00     0.395 HD
ENDBRANCH   1   7
TORSDOF 1
ENDMDL
