MODEL 1
REMARK minimizedAffinity 16.8663044
REMARK minimizedRMSD -1
REMARK  1 active torsions:
REMARK  status: ('A' for Active; 'I' for Inactive)
REMARK    1  A    between atoms: N_2  and  C1_3 
ROOT
ATOM      1  C1  UNL d   1      -4.099   0.645   3.755  0.00  0.00     0.143 A 
ATOM      2  C2  UNL d   1      -3.879  -0.123   4.903  0.00  0.00    -0.057 A 
ATOM      3  C3  UNL d   1      -4.681  -1.231   5.200  0.00  0.00     0.033 A 
ATOM      4  C4  UNL d   1      -5.740  -1.574   4.365  0.00  0.00    -0.042 A 
ATOM      5  C5  UNL d   1      -5.993  -0.810   3.232  0.00  0.00     0.033 A 
ATOM      6  C6  UNL d   1      -5.184   0.292   2.937  0.00  0.00    -0.057 A 
ENDROOT
BRANCH   1   7
ATOM      7  N   UNL d   1      -3.398   1.817   3.456  0.00  0.00    -0.732 N 
ATOM      8  C   UNL d   1      -3.476   2.966   4.332  0.00  0.00     0.284 C 
ATOM      9  H3  UNL d   1      -2.464   1.630   3.098  0.00  0.00     0.395 HD
ENDBRANCH   1   7
TORSDOF 1
ENDMDL
