MODEL 1
REMARK minimizedAffinity 12.7124872
REMARK minimizedRMSD -1
REMARK  1 active torsions:
REMARK  status: ('A' for Active; 'I' for Inactive)
REMARK    1  A    between atoms: N_2  and  C1_3 
ROOT
ATOM      1  C1  UNL d   1       0.040  -3.073  -2.008  0.00  0.00     0.143 A 
ATOM      2  C2  UNL d   1       0.855  -2.358  -2.892  0.00  0.00    -0.057 A 
ATOM      3  C3  UNL d   1       1.576  -1.235  -2.468  0.00  0.00     0.033 A 
ATOM      4  C4  UNL d   1       1.472  -0.789  -1.155  0.00  0.00    -0.042 A 
ATOM      5  C5  UNL d   1       0.649  -1.469  -0.265  0.00  0.00     0.033 A 
ATOM      6  C6  UNL d   1      -0.064  -2.594  -0.693  0.00  0.00    -0.057 A 
ENDROOT
BRANCH   1   7
ATOM      7  N   UNL d   1      -0.778  -4.138  -2.393  0.00  0.00    -0.732 N 
ATOM      8  C   UNL d   1      -0.753  -4.633  -3.752  0.00  0.00     0.284 C 
ATOM      9  H3  UNL d   1      -0.824  -4.868  -1.685  0.00  0.00     0.395 HD
ENDBRANCH   1   7
TORSDOF 1
ENDMDL
