MODEL 1
REMARK minimizedAffinity 9.76473808
REMARK minimizedRMSD -1
REMARK  1 active torsions:
REMARK  status: ('A' for Active; 'I' for Inactive)
REMARK    1  A    between atoms: N_2  and  C1_3 
ROOT
ATOM      1  C1  UNL d   1      -4.216  -0.284   4.476  0.00  0.00     0.143 A 
ATOM      2  C2  UNL d   1      -4.056   0.656   3.453  0.00  0.00    -0.057 A 
ATOM      3  C3  UNL d   1      -3.427   1.885   3.687  0.00  0.00     0.033 A 
ATOM      4  C4  UNL d   1      -2.972   2.209   4.961  0.00  0.00    -0.042 A 
ATOM      5  C5  UNL d   1      -3.143   1.300   5.999  0.00  0.00     0.033 A 
ATOM      6  C6  UNL d   1      -3.765   0.072   5.757  0.00  0.00    -0.057 A 
ENDROOT
BRANCH   1   7
ATOM      7  N   UNL d   1      -4.920  -1.481   4.330  0.00  0.00    -0.732 N 
ATOM      8  C   UNL d   1      -6.000  -1.589   3.372  0.00  0.00     0.284 C 
ATOM      9  H3  UNL d   1      -4.312  -2.296   4.363  0.00  0.00     0.395 HD
ENDBRANCH   1   7
TORSDOF 1
ENDMDL
