MODEL 1
REMARK minimizedAffinity 13.2108221
REMARK minimizedRMSD -1
REMARK  1 active torsions:
REMARK  status: ('A' for Active; 'I' for Inactive)
REMARK    1  A    between atoms: N_2  and  C1_3 
ROOT
ATOM      1  C1  UNL d   1       2.006   2.243  -1.588  0.00  0.00     0.143 A 
ATOM      2  C2  UNL d   1       2.893   1.598  -0.719  0.00  0.00    -0.057 A 
ATOM      3  C3  UNL d   1       3.110   0.217  -0.796  0.00  0.00     0.033 A 
ATOM      4  C4  UNL d   1       2.420  -0.550  -1.729  0.00  0.00    -0.042 A 
ATOM      5  C5  UNL d   1       1.515   0.066  -2.586  0.00  0.00     0.033 A 
ATOM      6  C6  UNL d   1       1.308   1.446  -2.508  0.00  0.00    -0.057 A 
ENDROOT
BRANCH   1   7
ATOM      7  N   UNL d   1       1.673   3.597  -1.496  0.00  0.00    -0.732 N 
ATOM      8  C   UNL d   1       1.475   4.221  -0.205  0.00  0.00     0.284 C 
ATOM      9  H3  UNL d   1       2.189   4.170  -2.160  0.00  0.00     0.395 HD
ENDBRANCH   1   7
TORSDOF 1
ENDMDL
