MODEL 1
REMARK minimizedAffinity 18.6134434
REMARK minimizedRMSD -1
REMARK  1 active torsions:
REMARK  status: ('A' for Active; 'I' for Inactive)
REMARK    1  A    between atoms: N_2  and  C1_3 
ROOT
ATOM      1  C1  UNL d   1      -1.221   1.291   3.587  0.00  0.00     0.143 A 
ATOM      2  C2  UNL d   1      -2.577   1.554   3.366  0.00  0.00    -0.057 A 
ATOM      3  C3  UNL d   1      -3.444   1.841   4.428  0.00  0.00     0.033 A 
ATOM      4  C4  UNL d   1      -2.973   1.840   5.737  0.00  0.00    -0.042 A 
ATOM      5  C5  UNL d   1      -1.635   1.556   5.982  0.00  0.00     0.033 A 
ATOM      6  C6  UNL d   1      -0.773   1.277   4.917  0.00  0.00    -0.057 A 
ENDROOT
BRANCH   1   7
ATOM      7  N   UNL d   1      -0.331   0.903   2.583  0.00  0.00    -0.732 N 
ATOM      8  C   UNL d   1      -0.010  -0.494   2.382  0.00  0.00     0.284 C 
ATOM      9  H3  UNL d   1      -0.465   1.427   1.721  0.00  0.00     0.395 HD
ENDBRANCH   1   7
TORSDOF 1
ENDMDL
