MODEL 1
REMARK minimizedAffinity 2.50707364
REMARK minimizedRMSD -1
REMARK  1 active torsions:
REMARK  status: ('A' for Active; 'I' for Inactive)
REMARK    1  A    between atoms: N_2  and  C1_3 
ROOT
ATOM      1  C1  UNL d   1      -1.019  -3.093  -1.002  0.00  0.00     0.143 A 
ATOM      2  C2  UNL d   1      -0.244  -1.943  -0.824  0.00  0.00    -0.057 A 
ATOM      3  C3  UNL d   1       0.073  -1.471   0.455  0.00  0.00     0.033 A 
ATOM      4  C4  UNL d   1      -0.407  -2.127   1.584  0.00  0.00    -0.042 A 
ATOM      5  C5  UNL d   1      -1.200  -3.259   1.431  0.00  0.00     0.033 A 
ATOM      6  C6  UNL d   1      -1.507  -3.729   0.150  0.00  0.00    -0.057 A 
ENDROOT
BRANCH   1   7
ATOM      7  N   UNL d   1      -1.450  -3.556  -2.248  0.00  0.00    -0.732 N 
ATOM      8  C   UNL d   1      -0.751  -4.633  -2.916  0.00  0.00     0.284 C 
ATOM      9  H3  UNL d   1      -2.464  -3.617  -2.311  0.00  0.00     0.395 HD
ENDBRANCH   1   7
TORSDOF 1
ENDMDL
