MODEL 1
REMARK minimizedAffinity 7.20340776
REMARK minimizedRMSD -1
REMARK  1 active torsions:
REMARK  status: ('A' for Active; 'I' for Inactive)
REMARK    1  A    between atoms: N_2  and  C1_3 
ROOT
ATOM      1  C1  UNL d   1      -1.508  -2.979  -1.269  0.00  0.00     0.143 A 
ATOM      2  C2  UNL d   1      -1.966  -3.606  -0.106  0.00  0.00    -0.057 A 
ATOM      3  C3  UNL d   1      -1.527  -3.199   1.160  0.00  0.00     0.033 A 
ATOM      4  C4  UNL d   1      -0.597  -2.172   1.283  0.00  0.00    -0.042 A 
ATOM      5  C5  UNL d   1      -0.109  -1.551   0.138  0.00  0.00     0.033 A 
ATOM      6  C6  UNL d   1      -0.556  -1.958  -1.122  0.00  0.00    -0.057 A 
ENDROOT
BRANCH   1   7
ATOM      7  N   UNL d   1      -1.832  -3.404  -2.560  0.00  0.00    -0.732 N 
ATOM      8  C   UNL d   1      -0.827  -4.002  -3.413  0.00  0.00     0.284 C 
ATOM      9  H3  UNL d   1      -2.739  -3.862  -2.603  0.00  0.00     0.395 HD
ENDBRANCH   1   7
TORSDOF 1
ENDMDL
