MODEL 1
REMARK minimizedAffinity 8.41914082
REMARK minimizedRMSD -1
REMARK  1 active torsions:
REMARK  status: ('A' for Active; 'I' for Inactive)
REMARK    1  A    between atoms: N_2  and  C1_3 
ROOT
ATOM      1  C1  UNL d   1       1.389   1.615   3.562  0.00  0.00     0.143 A 
ATOM      2  C2  UNL d   1       0.271   2.456   3.584  0.00  0.00    -0.057 A 
ATOM      3  C3  UNL d   1      -0.334   2.829   4.790  0.00  0.00     0.033 A 
ATOM      4  C4  UNL d   1       0.154   2.344   5.999  0.00  0.00    -0.042 A 
ATOM      5  C5  UNL d   1       1.250   1.487   6.000  0.00  0.00     0.033 A 
ATOM      6  C6  UNL d   1       1.853   1.123   4.792  0.00  0.00    -0.057 A 
ENDROOT
BRANCH   1   7
ATOM      7  N   UNL d   1       1.974   1.129   2.390  0.00  0.00    -0.732 N 
ATOM      8  C   UNL d   1       2.995   1.892   1.704  0.00  0.00     0.284 C 
ATOM      9  H3  UNL d   1       2.162   0.130   2.435  0.00  0.00     0.395 HD
ENDBRANCH   1   7
TORSDOF 1
ENDMDL
