MODEL 1
REMARK minimizedAffinity -3.38924718
REMARK minimizedRMSD -1
REMARK  1 active torsions:
REMARK  status: ('A' for Active; 'I' for Inactive)
REMARK    1  A    between atoms: N_2  and  C1_3 
ROOT
ATOM      1  C1  UNL d   1       0.217  -0.178   0.576  0.00  0.00     0.143 A 
ATOM      2  C2  UNL d   1       0.827   1.080   0.519  0.00  0.00    -0.057 A 
ATOM      3  C3  UNL d   1       1.743   1.397  -0.491  0.00  0.00     0.033 A 
ATOM      4  C4  UNL d   1       2.089   0.449  -1.448  0.00  0.00    -0.042 A 
ATOM      5  C5  UNL d   1       1.515  -0.816  -1.396  0.00  0.00     0.033 A 
ATOM      6  C6  UNL d   1       0.595  -1.125  -0.389  0.00  0.00    -0.057 A 
ENDROOT
BRANCH   1   7
ATOM      7  N   UNL d   1      -0.627  -0.587   1.611  0.00  0.00    -0.732 N 
ATOM      8  C   UNL d   1      -1.928   0.023   1.786  0.00  0.00     0.284 C 
ATOM      9  H3  UNL d   1      -0.620  -1.596   1.743  0.00  0.00     0.395 HD
ENDBRANCH   1   7
TORSDOF 1
ENDMDL
