MODEL 1
REMARK minimizedAffinity -3.89598703
REMARK minimizedRMSD -1
REMARK  1 active torsions:
REMARK  status: ('A' for Active; 'I' for Inactive)
REMARK    1  A    between atoms: N_2  and  C1_3 
ROOT
ATOM      1  C1  UNL d   1       1.791   0.844  -1.594  0.00  0.00     0.143 A 
ATOM      2  C2  UNL d   1       1.701  -0.025  -2.687  0.00  0.00    -0.057 A 
ATOM      3  C3  UNL d   1       0.777  -1.077  -2.705  0.00  0.00     0.033 A 
ATOM      4  C4  UNL d   1      -0.056  -1.296  -1.613  0.00  0.00    -0.042 A 
ATOM      5  C5  UNL d   1       0.033  -0.461  -0.505  0.00  0.00     0.033 A 
ATOM      6  C6  UNL d   1       0.953   0.592  -0.497  0.00  0.00    -0.057 A 
ENDROOT
BRANCH   1   7
ATOM      7  N   UNL d   1       2.756   1.847  -1.475  0.00  0.00    -0.732 N 
ATOM      8  C   UNL d   1       4.142   1.512  -1.232  0.00  0.00     0.284 C 
ATOM      9  H3  UNL d   1       2.622   2.597  -2.150  0.00  0.00     0.395 HD
ENDBRANCH   1   7
TORSDOF 1
ENDMDL
