MODEL 1
REMARK minimizedAffinity -1.87461853
REMARK minimizedRMSD -1
REMARK  1 active torsions:
REMARK  status: ('A' for Active; 'I' for Inactive)
REMARK    1  A    between atoms: N_2  and  C1_3 
ROOT
ATOM      1  C1  UNL d   1       0.461  -1.332  -0.798  0.00  0.00     0.143 A 
ATOM      2  C2  UNL d   1       0.977  -0.145  -1.328  0.00  0.00    -0.057 A 
ATOM      3  C3  UNL d   1       0.949   1.049  -0.598  0.00  0.00     0.033 A 
ATOM      4  C4  UNL d   1       0.375   1.084   0.669  0.00  0.00    -0.042 A 
ATOM      5  C5  UNL d   1      -0.167  -0.079   1.206  0.00  0.00     0.033 A 
ATOM      6  C6  UNL d   1      -0.129  -1.270   0.474  0.00  0.00    -0.057 A 
ENDROOT
BRANCH   1   7
ATOM      7  N   UNL d   1       0.370  -2.529  -1.513  0.00  0.00    -0.732 N 
ATOM      8  C   UNL d   1       0.112  -2.519  -2.936  0.00  0.00     0.284 C 
ATOM      9  H3  UNL d   1       1.069  -3.209  -1.222  0.00  0.00     0.395 HD
ENDBRANCH   1   7
TORSDOF 1
ENDMDL
