MODEL 1
REMARK minimizedAffinity -2.28221846
REMARK minimizedRMSD -1
REMARK  1 active torsions:
REMARK  status: ('A' for Active; 'I' for Inactive)
REMARK    1  A    between atoms: N_2  and  C1_3 
ROOT
ATOM      1  C1  UNL d   1       1.326  -2.297  -2.024  0.00  0.00     0.143 A 
ATOM      2  C2  UNL d   1       0.565  -1.237  -2.529  0.00  0.00    -0.057 A 
ATOM      3  C3  UNL d   1       1.053  -0.415  -3.553  0.00  0.00     0.033 A 
ATOM      4  C4  UNL d   1       2.327  -0.623  -4.071  0.00  0.00    -0.042 A 
ATOM      5  C5  UNL d   1       3.111  -1.655  -3.567  0.00  0.00     0.033 A 
ATOM      6  C6  UNL d   1       2.615  -2.476  -2.549  0.00  0.00    -0.057 A 
ENDROOT
BRANCH   1   7
ATOM      7  N   UNL d   1       0.935  -3.087  -0.940  0.00  0.00    -0.732 N 
ATOM      8  C   UNL d   1       0.189  -2.513   0.159  0.00  0.00     0.284 C 
ATOM      9  H3  UNL d   1       0.611  -4.007  -1.227  0.00  0.00     0.395 HD
ENDBRANCH   1   7
TORSDOF 1
ENDMDL
