MODEL 1
REMARK minimizedAffinity -5.78614521
REMARK minimizedRMSD -1
REMARK  1 active torsions:
REMARK  status: ('A' for Active; 'I' for Inactive)
REMARK    1  A    between atoms: N_2  and  C1_3 
ROOT
ATOM      1  C1  UNL d   1       0.545  -1.032  -0.654  0.00  0.00     0.143 A 
ATOM      2  C2  UNL d   1       0.852   0.125  -1.378  0.00  0.00    -0.057 A 
ATOM      3  C3  UNL d   1       1.582   0.062  -2.571  0.00  0.00     0.033 A 
ATOM      4  C4  UNL d   1       2.045  -1.161  -3.047  0.00  0.00    -0.042 A 
ATOM      5  C5  UNL d   1       1.773  -2.320  -2.330  0.00  0.00     0.033 A 
ATOM      6  C6  UNL d   1       1.038  -2.252  -1.143  0.00  0.00    -0.057 A 
ENDROOT
BRANCH   1   7
ATOM      7  N   UNL d   1      -0.092  -1.025   0.590  0.00  0.00    -0.732 N 
ATOM      8  C   UNL d   1      -1.316  -0.278   0.786  0.00  0.00     0.284 C 
ATOM      9  H3  UNL d   1      -0.088  -1.940   1.033  0.00  0.00     0.395 HD
ENDBRANCH   1   7
TORSDOF 1
ENDMDL
