MODEL 1
REMARK minimizedAffinity -5.77832079
REMARK minimizedRMSD -1
REMARK  0 active torsions:
REMARK  status: ('A' for Active; 'I' for Inactive)
ROOT
ATOM      1  C2' OXE d   1      -0.082  -1.951  -0.235  0.00  0.00     0.078 C 
ATOM      2  C1' OXE d   1      -0.390   0.836  -0.367  0.00  0.00     0.078 C 
ATOM      3  C1  OXE d   1       0.951   0.296   0.062  0.00  0.00    -0.078 A 
ATOM      4  C2  OXE d   1       1.079  -1.068   0.168  0.00  0.00    -0.078 A 
ATOM      5  C3  OXE d   1       2.311  -1.621   0.506  0.00  0.00     0.003 A 
ATOM      6  C4  OXE d   1       3.377  -0.797   0.888  0.00  0.00    -0.002 A 
ATOM      7  C5  OXE d   1       3.256   0.595   0.825  0.00  0.00    -0.002 A 
ATOM      8  C6  OXE d   1       2.066   1.156   0.374  0.00  0.00     0.003 A 
ENDROOT
TORSDOF 0
ENDMDL
