MODEL 1
REMARK minimizedAffinity -4.69859886
REMARK minimizedRMSD -1
REMARK  0 active torsions:
REMARK  status: ('A' for Active; 'I' for Inactive)
ROOT
ATOM      1  C2' OXE d   1       1.845   1.180   1.956  0.00  0.00     0.078 C 
ATOM      2  C1' OXE d   1       2.670  -1.485   1.642  0.00  0.00     0.078 C 
ATOM      3  C1  OXE d   1       1.504  -1.007   0.813  0.00  0.00    -0.078 A 
ATOM      4  C2  OXE d   1       1.078   0.284   1.007  0.00  0.00    -0.078 A 
ATOM      5  C3  OXE d   1       0.041   0.792   0.228  0.00  0.00     0.003 A 
ATOM      6  C4  OXE d   1      -0.669  -0.046  -0.640  0.00  0.00    -0.002 A 
ATOM      7  C5  OXE d   1      -0.276  -1.376  -0.823  0.00  0.00    -0.002 A 
ATOM      8  C6  OXE d   1       0.833  -1.859  -0.137  0.00  0.00     0.003 A 
ENDROOT
TORSDOF 0
ENDMDL
