MODEL 1
REMARK minimizedAffinity -3.26322842
REMARK minimizedRMSD -1
REMARK  0 active torsions:
REMARK  status: ('A' for Active; 'I' for Inactive)
ROOT
ATOM      1  C2' OXE d   1       0.727  -2.482  -0.815  0.00  0.00     0.078 C 
ATOM      2  C1' OXE d   1       2.648  -1.598   1.031  0.00  0.00     0.078 C 
ATOM      3  C1  OXE d   1       1.573  -0.625   0.615  0.00  0.00    -0.078 A 
ATOM      4  C2  OXE d   1       0.664  -1.051  -0.324  0.00  0.00    -0.078 A 
ATOM      5  C3  OXE d   1      -0.380  -0.213  -0.702  0.00  0.00     0.003 A 
ATOM      6  C4  OXE d   1      -0.425   1.112  -0.251  0.00  0.00    -0.002 A 
ATOM      7  C5  OXE d   1       0.514   1.578   0.675  0.00  0.00    -0.002 A 
ATOM      8  C6  OXE d   1       1.492   0.711   1.150  0.00  0.00     0.003 A 
ENDROOT
TORSDOF 0
ENDMDL
