MODEL 1
REMARK minimizedAffinity -6.17076015
REMARK minimizedRMSD -1
REMARK  0 active torsions:
REMARK  status: ('A' for Active; 'I' for Inactive)
ROOT
ATOM      1  C2' OXE d   1      -0.645   0.705  -0.179  0.00  0.00     0.078 C 
ATOM      2  C1' OXE d   1      -0.059  -2.022  -0.492  0.00  0.00     0.078 C 
ATOM      3  C1  OXE d   1       1.056  -1.110  -0.046  0.00  0.00    -0.078 A 
ATOM      4  C2  OXE d   1       0.772   0.230   0.060  0.00  0.00    -0.078 A 
ATOM      5  C3  OXE d   1       1.750   1.108   0.520  0.00  0.00     0.003 A 
ATOM      6  C4  OXE d   1       3.061   0.662   0.729  0.00  0.00    -0.002 A 
ATOM      7  C5  OXE d   1       3.381  -0.693   0.589  0.00  0.00    -0.002 A 
ATOM      8  C6  OXE d   1       2.382  -1.597   0.244  0.00  0.00     0.003 A 
ENDROOT
TORSDOF 0
ENDMDL
