MODEL 1
REMARK minimizedAffinity -3.40876079
REMARK minimizedRMSD -1
REMARK  0 active torsions:
REMARK  status: ('A' for Active; 'I' for Inactive)
ROOT
ATOM      1  C2' OXE d   1       2.317  -1.478   1.092  0.00  0.00     0.078 C 
ATOM      2  C1' OXE d   1       2.043   1.291   1.464  0.00  0.00     0.078 C 
ATOM      3  C1  OXE d   1       1.022   0.593   0.600  0.00  0.00    -0.078 A 
ATOM      4  C2  OXE d   1       1.191  -0.754   0.385  0.00  0.00    -0.078 A 
ATOM      5  C3  OXE d   1       0.248  -1.457  -0.359  0.00  0.00     0.003 A 
ATOM      6  C4  OXE d   1      -0.784  -0.778  -1.017  0.00  0.00    -0.002 A 
ATOM      7  C5  OXE d   1      -0.951   0.600  -0.844  0.00  0.00    -0.002 A 
ATOM      8  C6  OXE d   1      -0.084   1.292  -0.006  0.00  0.00     0.003 A 
ENDROOT
TORSDOF 0
ENDMDL
