MODEL 1
REMARK minimizedAffinity -3.18910885
REMARK minimizedRMSD -1
REMARK  0 active torsions:
REMARK  status: ('A' for Active; 'I' for Inactive)
ROOT
ATOM      1  C2' OXE d   1      -0.358  -1.135  -0.487  0.00  0.00     0.078 C 
ATOM      2  C1' OXE d   1      -0.025   1.567   0.201  0.00  0.00     0.078 C 
ATOM      3  C1  OXE d   1       1.180   0.664   0.289  0.00  0.00    -0.078 A 
ATOM      4  C2  OXE d   1       0.997  -0.666  -0.004  0.00  0.00    -0.078 A 
ATOM      5  C3  OXE d   1       2.088  -1.531   0.009  0.00  0.00     0.003 A 
ATOM      6  C4  OXE d   1       3.336  -1.091   0.467  0.00  0.00    -0.002 A 
ATOM      7  C5  OXE d   1       3.534   0.250   0.809  0.00  0.00    -0.002 A 
ATOM      8  C6  OXE d   1       2.480   1.148   0.685  0.00  0.00     0.003 A 
ENDROOT
TORSDOF 0
ENDMDL
