MODEL 1
REMARK minimizedAffinity -6.17874813
REMARK minimizedRMSD -1
REMARK  0 active torsions:
REMARK  status: ('A' for Active; 'I' for Inactive)
ROOT
ATOM      1  C2' OXE d   1      -0.385  -1.773  -0.354  0.00  0.00     0.078 C 
ATOM      2  C1' OXE d   1      -0.893   0.955   0.071  0.00  0.00     0.078 C 
ATOM      3  C1  OXE d   1       0.520   0.464   0.267  0.00  0.00    -0.078 A 
ATOM      4  C2  OXE d   1       0.750  -0.881   0.102  0.00  0.00    -0.078 A 
ATOM      5  C3  OXE d   1       2.045  -1.378   0.217  0.00  0.00     0.003 A 
ATOM      6  C4  OXE d   1       3.087  -0.549   0.649  0.00  0.00    -0.002 A 
ATOM      7  C5  OXE d   1       2.866   0.817   0.861  0.00  0.00    -0.002 A 
ATOM      8  C6  OXE d   1       1.600   1.346   0.634  0.00  0.00     0.003 A 
ENDROOT
TORSDOF 0
ENDMDL
