MODEL 1
REMARK minimizedAffinity -5.86985636
REMARK minimizedRMSD -1
REMARK  0 active torsions:
REMARK  status: ('A' for Active; 'I' for Inactive)
ROOT
ATOM      1  C2' OXE d   1      -0.407   0.954  -0.302  0.00  0.00     0.078 C 
ATOM      2  C1' OXE d   1      -0.018  -1.818  -0.516  0.00  0.00     0.078 C 
ATOM      3  C1  OXE d   1       1.176  -0.965  -0.169  0.00  0.00    -0.078 A 
ATOM      4  C2  OXE d   1       0.987   0.395  -0.112  0.00  0.00    -0.078 A 
ATOM      5  C3  OXE d   1       2.042   1.224   0.258  0.00  0.00     0.003 A 
ATOM      6  C4  OXE d   1       3.330   0.700   0.422  0.00  0.00    -0.002 A 
ATOM      7  C5  OXE d   1       3.554  -0.678   0.330  0.00  0.00    -0.002 A 
ATOM      8  C6  OXE d   1       2.481  -1.527   0.077  0.00  0.00     0.003 A 
ENDROOT
TORSDOF 0
ENDMDL
