MODEL 1
REMARK minimizedAffinity -3.72531533
REMARK minimizedRMSD -1
REMARK  0 active torsions:
REMARK  status: ('A' for Active; 'I' for Inactive)
ROOT
ATOM      1  C2' OXE d   1      -0.029  -1.858  -0.447  0.00  0.00     0.078 C 
ATOM      2  C1' OXE d   1       2.415  -1.393   0.855  0.00  0.00     0.078 C 
ATOM      3  C1  OXE d   1       1.637  -0.195   0.371  0.00  0.00    -0.078 A 
ATOM      4  C2  OXE d   1       0.465  -0.434  -0.306  0.00  0.00    -0.078 A 
ATOM      5  C3  OXE d   1      -0.319   0.637  -0.727  0.00  0.00     0.003 A 
ATOM      6  C4  OXE d   1       0.150   1.950  -0.602  0.00  0.00    -0.002 A 
ATOM      7  C5  OXE d   1       1.360   2.214   0.049  0.00  0.00    -0.002 A 
ATOM      8  C6  OXE d   1       2.093   1.157   0.578  0.00  0.00     0.003 A 
ENDROOT
TORSDOF 0
ENDMDL
