MODEL 1
REMARK minimizedAffinity -2.27388954
REMARK minimizedRMSD -1
REMARK  0 active torsions:
REMARK  status: ('A' for Active; 'I' for Inactive)
ROOT
ATOM      1  C2' OXE d   1       1.408   1.747   0.924  0.00  0.00     0.078 C 
ATOM      2  C1' OXE d   1      -1.028   1.053  -0.286  0.00  0.00     0.078 C 
ATOM      3  C1  OXE d   1       0.037  -0.010  -0.188  0.00  0.00    -0.078 A 
ATOM      4  C2  OXE d   1       1.242   0.351   0.363  0.00  0.00    -0.078 A 
ATOM      5  C3  OXE d   1       2.240  -0.605   0.527  0.00  0.00     0.003 A 
ATOM      6  C4  OXE d   1       2.083  -1.892  -0.003  0.00  0.00    -0.002 A 
ATOM      7  C5  OXE d   1       0.877  -2.269  -0.604  0.00  0.00    -0.002 A 
ATOM      8  C6  OXE d   1      -0.169  -1.355  -0.666  0.00  0.00     0.003 A 
ENDROOT
TORSDOF 0
ENDMDL
