MODEL 1
REMARK minimizedAffinity -3.14895821
REMARK minimizedRMSD -1
REMARK  0 active torsions:
REMARK  status: ('A' for Active; 'I' for Inactive)
ROOT
ATOM      1  C2' OXE d   1      -1.144   0.515  -0.029  0.00  0.00     0.078 C 
ATOM      2  C1' OXE d   1      -0.778  -2.245  -0.387  0.00  0.00     0.078 C 
ATOM      3  C1  OXE d   1       0.429  -1.417  -0.024  0.00  0.00    -0.078 A 
ATOM      4  C2  OXE d   1       0.249  -0.060   0.103  0.00  0.00    -0.078 A 
ATOM      5  C3  OXE d   1       1.318   0.743   0.489  0.00  0.00     0.003 A 
ATOM      6  C4  OXE d   1       2.606   0.205   0.599  0.00  0.00    -0.002 A 
ATOM      7  C5  OXE d   1       2.818  -1.168   0.435  0.00  0.00    -0.002 A 
ATOM      8  C6  OXE d   1       1.735  -1.998   0.165  0.00  0.00     0.003 A 
ENDROOT
TORSDOF 0
ENDMDL
