MODEL 1
REMARK minimizedAffinity -4.08995199
REMARK minimizedRMSD -1
REMARK  0 active torsions:
REMARK  status: ('A' for Active; 'I' for Inactive)
ROOT
ATOM      1  C2' OXE d   1      -0.286  -2.679  -0.655  0.00  0.00     0.078 C 
ATOM      2  C1' OXE d   1       2.303  -1.868   0.066  0.00  0.00     0.078 C 
ATOM      3  C1  OXE d   1       1.225  -0.814   0.013  0.00  0.00    -0.078 A 
ATOM      4  C2  OXE d   1      -0.029  -1.212  -0.386  0.00  0.00    -0.078 A 
ATOM      5  C3  OXE d   1      -1.072  -0.290  -0.400  0.00  0.00     0.003 A 
ATOM      6  C4  OXE d   1      -0.823   1.066  -0.160  0.00  0.00    -0.002 A 
ATOM      7  C5  OXE d   1       0.455   1.499   0.210  0.00  0.00    -0.002 A 
ATOM      8  C6  OXE d   1       1.478   0.567   0.342  0.00  0.00     0.003 A 
ENDROOT
TORSDOF 0
ENDMDL
