MODEL 1
REMARK minimizedAffinity -3.39605951
REMARK minimizedRMSD -1
REMARK  0 active torsions:
REMARK  status: ('A' for Active; 'I' for Inactive)
ROOT
ATOM      1  C1  BNZ d   1       2.284  -0.630   0.107  0.00  0.00     0.000 A 
ATOM      2  C2  BNZ d   1       1.719   0.615   0.175  0.00  0.00     0.000 A 
ATOM      3  C3  BNZ d   1       0.392   0.798  -0.097  0.00  0.00     0.000 A 
ATOM      4  C4  BNZ d   1      -0.359  -0.257  -0.474  0.00  0.00     0.000 A 
ATOM      5  C5  BNZ d   1       0.198  -1.518  -0.556  0.00  0.00     0.000 A 
ATOM      6  C6  BNZ d   1       1.525  -1.704  -0.244  0.00  0.00     0.000 A 
ENDROOT
TORSDOF 0
ENDMDL
