MODEL 1
REMARK minimizedAffinity -3.88569736
REMARK minimizedRMSD -1
REMARK  0 active torsions:
REMARK  status: ('A' for Active; 'I' for Inactive)
ROOT
ATOM      1  C1  BNZ d   1       0.717  -1.073   0.020  0.00  0.00     0.000 A 
ATOM      2  C2  BNZ d   1       1.910  -1.710  -0.196  0.00  0.00     0.000 A 
ATOM      3  C3  BNZ d   1       3.087  -1.014  -0.190  0.00  0.00     0.000 A 
ATOM      4  C4  BNZ d   1       3.065   0.323  -0.009  0.00  0.00     0.000 A 
ATOM      5  C5  BNZ d   1       1.869   0.981   0.200  0.00  0.00     0.000 A 
ATOM      6  C6  BNZ d   1       0.691   0.271   0.232  0.00  0.00     0.000 A 
ENDROOT
TORSDOF 0
ENDMDL
