MODEL 1
REMARK minimizedAffinity -2.66641569
REMARK minimizedRMSD -1
REMARK  0 active torsions:
REMARK  status: ('A' for Active; 'I' for Inactive)
ROOT
ATOM      1  C1  BNZ d   1       2.240  -1.513  -0.159  0.00  0.00     0.000 A 
ATOM      2  C2  BNZ d   1       0.906  -1.264   0.020  0.00  0.00     0.000 A 
ATOM      3  C3  BNZ d   1       0.438   0.017   0.109  0.00  0.00     0.000 A 
ATOM      4  C4  BNZ d   1       1.309   1.046   0.061  0.00  0.00     0.000 A 
ATOM      5  C5  BNZ d   1       2.659   0.811  -0.110  0.00  0.00     0.000 A 
ATOM      6  C6  BNZ d   1       3.121  -0.479  -0.239  0.00  0.00     0.000 A 
ENDROOT
TORSDOF 0
ENDMDL
