MODEL 1
REMARK minimizedAffinity -3.63140225
REMARK minimizedRMSD -1
REMARK  0 active torsions:
REMARK  status: ('A' for Active; 'I' for Inactive)
ROOT
ATOM      1  C1  BNZ d   1      -2.673   1.722  -0.074  0.00  0.00     0.000 A 
ATOM      2  C2  BNZ d   1      -1.827   1.474  -1.122  0.00  0.00     0.000 A 
ATOM      3  C3  BNZ d   1      -0.850   0.523  -1.023  0.00  0.00     0.000 A 
ATOM      4  C4  BNZ d   1      -0.694  -0.149   0.136  0.00  0.00     0.000 A 
ATOM      5  C5  BNZ d   1      -1.533   0.097   1.205  0.00  0.00     0.000 A 
ATOM      6  C6  BNZ d   1      -2.540   1.028   1.088  0.00  0.00     0.000 A 
ENDROOT
TORSDOF 0
ENDMDL
