MODEL 1
REMARK minimizedAffinity -2.47058749
REMARK minimizedRMSD -1
REMARK  0 active torsions:
REMARK  status: ('A' for Active; 'I' for Inactive)
ROOT
ATOM      1  C1  BNZ d   1      -2.548   1.528   0.775  0.00  0.00     0.000 A 
ATOM      2  C2  BNZ d   1      -2.694   0.826  -0.392  0.00  0.00     0.000 A 
ATOM      3  C3  BNZ d   1      -3.709  -0.077  -0.543  0.00  0.00     0.000 A 
ATOM      4  C4  BNZ d   1      -4.551  -0.306   0.485  0.00  0.00     0.000 A 
ATOM      5  C5  BNZ d   1      -4.411   0.387   1.671  0.00  0.00     0.000 A 
ATOM      6  C6  BNZ d   1      -3.412   1.324   1.806  0.00  0.00     0.000 A 
ENDROOT
TORSDOF 0
ENDMDL
