MODEL 1
REMARK minimizedAffinity -3.38671255
REMARK minimizedRMSD -1
REMARK  0 active torsions:
REMARK  status: ('A' for Active; 'I' for Inactive)
ROOT
ATOM      1  C1  BNZ d   1      -0.214  -0.205  -0.311  0.00  0.00     0.000 A 
ATOM      2  C2  BNZ d   1       0.295  -1.476  -0.326  0.00  0.00     0.000 A 
ATOM      3  C3  BNZ d   1       1.643  -1.691  -0.245  0.00  0.00     0.000 A 
ATOM      4  C4  BNZ d   1       2.481  -0.636  -0.190  0.00  0.00     0.000 A 
ATOM      5  C5  BNZ d   1       1.983   0.652  -0.184  0.00  0.00     0.000 A 
ATOM      6  C6  BNZ d   1       0.624   0.864  -0.226  0.00  0.00     0.000 A 
ENDROOT
TORSDOF 0
ENDMDL
