MODEL 1
REMARK minimizedAffinity -1.74795973
REMARK minimizedRMSD -1
REMARK  0 active torsions:
REMARK  status: ('A' for Active; 'I' for Inactive)
ROOT
ATOM      1  C1  BNZ d   1       2.010  -0.903  -0.082  0.00  0.00     0.000 A 
ATOM      2  C2  BNZ d   1       1.287   0.257   0.007  0.00  0.00     0.000 A 
ATOM      3  C3  BNZ d   1      -0.042   0.280  -0.315  0.00  0.00     0.000 A 
ATOM      4  C4  BNZ d   1      -0.635  -0.845  -0.762  0.00  0.00     0.000 A 
ATOM      5  C5  BNZ d   1       0.082  -2.020  -0.865  0.00  0.00     0.000 A 
ATOM      6  C6  BNZ d   1       1.410  -2.049  -0.504  0.00  0.00     0.000 A 
ENDROOT
TORSDOF 0
ENDMDL
