MODEL 1
REMARK minimizedAffinity -1.78086841
REMARK minimizedRMSD -1
REMARK  0 active torsions:
REMARK  status: ('A' for Active; 'I' for Inactive)
ROOT
ATOM      1  C1  BNZ d   1       1.664  -0.096  -0.081  0.00  0.00     0.000 A 
ATOM      2  C2  BNZ d   1       1.156   1.174  -0.012  0.00  0.00     0.000 A 
ATOM      3  C3  BNZ d   1      -0.060   1.472  -0.561  0.00  0.00     0.000 A 
ATOM      4  C4  BNZ d   1      -0.748   0.512  -1.211  0.00  0.00     0.000 A 
ATOM      5  C5  BNZ d   1      -0.244  -0.771  -1.298  0.00  0.00     0.000 A 
ATOM      6  C6  BNZ d   1       0.962  -1.077  -0.711  0.00  0.00     0.000 A 
ENDROOT
TORSDOF 0
ENDMDL
