MODEL 1
REMARK minimizedAffinity -2.14984512
REMARK minimizedRMSD -1
REMARK  0 active torsions:
REMARK  status: ('A' for Active; 'I' for Inactive)
ROOT
ATOM      1  C1  BNZ d   1      -0.213  -0.256   1.299  0.00  0.00     0.000 A 
ATOM      2  C2  BNZ d   1       0.833  -0.869   1.936  0.00  0.00     0.000 A 
ATOM      3  C3  BNZ d   1       1.723  -1.638   1.240  0.00  0.00     0.000 A 
ATOM      4  C4  BNZ d   1       1.544  -1.825  -0.083  0.00  0.00     0.000 A 
ATOM      5  C5  BNZ d   1       0.489  -1.222  -0.738  0.00  0.00     0.000 A 
ATOM      6  C6  BNZ d   1      -0.382  -0.417  -0.041  0.00  0.00     0.000 A 
ENDROOT
TORSDOF 0
ENDMDL
