MODEL 1
REMARK minimizedAffinity -2.37278914
REMARK minimizedRMSD -1
REMARK  0 active torsions:
REMARK  status: ('A' for Active; 'I' for Inactive)
ROOT
ATOM      1  C1  BNZ d   1      -4.324   0.004   0.309  0.00  0.00     0.000 A 
ATOM      2  C2  BNZ d   1      -3.440   0.243  -0.709  0.00  0.00     0.000 A 
ATOM      3  C3  BNZ d   1      -2.144   0.585  -0.446  0.00  0.00     0.000 A 
ATOM      4  C4  BNZ d   1      -1.742   0.726   0.834  0.00  0.00     0.000 A 
ATOM      5  C5  BNZ d   1      -2.623   0.497   1.872  0.00  0.00     0.000 A 
ATOM      6  C6  BNZ d   1      -3.918   0.116   1.603  0.00  0.00     0.000 A 
ENDROOT
TORSDOF 0
ENDMDL
