MODEL 1
REMARK minimizedAffinity 6.05895853
REMARK minimizedRMSD -1
REMARK  0 active torsions:
REMARK  status: ('A' for Active; 'I' for Inactive)
ROOT
ATOM      1  C   UNL d   1       1.976  -4.124   0.343  0.00  0.00     0.078 C 
ATOM      2  C1  UNL d   1       3.381  -4.162  -0.179  0.00  0.00    -0.077 A 
ATOM      3  C2  UNL d   1       4.177  -3.010  -0.193  0.00  0.00    -0.001 A 
ATOM      4  C3  UNL d   1       5.480  -3.058  -0.691  0.00  0.00     0.003 A 
ATOM      5  C4  UNL d   1       5.999  -4.256  -1.180  0.00  0.00    -0.005 A 
ATOM      6  C5  UNL d   1       5.213  -5.407  -1.173  0.00  0.00     0.003 A 
ATOM      7  C6  UNL d   1       3.910  -5.361  -0.675  0.00  0.00    -0.001 A 
ENDROOT
TORSDOF 0
ENDMDL
