MODEL 1
REMARK minimizedAffinity 10.8570232
REMARK minimizedRMSD -1
REMARK  0 active torsions:
REMARK  status: ('A' for Active; 'I' for Inactive)
ROOT
ATOM      1  C   UNL d   1      -5.990   0.013  -3.360  0.00  0.00     0.078 C 
ATOM      2  C1  UNL d   1      -4.604  -0.254  -2.852  0.00  0.00    -0.077 A 
ATOM      3  C2  UNL d   1      -3.873  -1.362  -3.298  0.00  0.00    -0.001 A 
ATOM      4  C3  UNL d   1      -2.588  -1.603  -2.810  0.00  0.00     0.003 A 
ATOM      5  C4  UNL d   1      -2.023  -0.742  -1.871  0.00  0.00    -0.005 A 
ATOM      6  C5  UNL d   1      -2.744   0.362  -1.420  0.00  0.00     0.003 A 
ATOM      7  C6  UNL d   1      -4.029   0.605  -1.907  0.00  0.00    -0.001 A 
ENDROOT
TORSDOF 0
ENDMDL
