MODEL 1
REMARK minimizedAffinity 4.08088827
REMARK minimizedRMSD -1
REMARK  0 active torsions:
REMARK  status: ('A' for Active; 'I' for Inactive)
ROOT
ATOM      1  C   UNL d   1      -4.567   2.549  -5.669  0.00  0.00     0.078 C 
ATOM      2  C1  UNL d   1      -3.766   3.747  -5.252  0.00  0.00    -0.077 A 
ATOM      3  C2  UNL d   1      -4.128   4.502  -4.130  0.00  0.00    -0.001 A 
ATOM      4  C3  UNL d   1      -3.380   5.620  -3.759  0.00  0.00     0.003 A 
ATOM      5  C4  UNL d   1      -2.265   5.995  -4.507  0.00  0.00    -0.005 A 
ATOM      6  C5  UNL d   1      -1.899   5.252  -5.628  0.00  0.00     0.003 A 
ATOM      7  C6  UNL d   1      -2.646   4.133  -5.999  0.00  0.00    -0.001 A 
ENDROOT
TORSDOF 0
ENDMDL
