MODEL 1
REMARK minimizedAffinity -0.747943699
REMARK minimizedRMSD -1
REMARK  0 active torsions:
REMARK  status: ('A' for Active; 'I' for Inactive)
ROOT
ATOM      1  C   UNL d   1       1.950   5.757   5.621  0.00  0.00     0.078 C 
ATOM      2  C1  UNL d   1       3.357   5.819   5.107  0.00  0.00    -0.077 A 
ATOM      3  C2  UNL d   1       3.619   5.951   3.738  0.00  0.00    -0.001 A 
ATOM      4  C3  UNL d   1       4.934   5.998   3.272  0.00  0.00     0.003 A 
ATOM      5  C4  UNL d   1       5.997   5.912   4.168  0.00  0.00    -0.005 A 
ATOM      6  C5  UNL d   1       5.746   5.779   5.532  0.00  0.00     0.003 A 
ATOM      7  C6  UNL d   1       4.432   5.732   6.000  0.00  0.00    -0.001 A 
ENDROOT
TORSDOF 0
ENDMDL
