MODEL 1
REMARK minimizedAffinity 10.7747326
REMARK minimizedRMSD -1
REMARK  0 active torsions:
REMARK  status: ('A' for Active; 'I' for Inactive)
ROOT
ATOM      1  C   UNL d   1      -4.639   1.155  -4.540  0.00  0.00     0.078 C 
ATOM      2  C1  UNL d   1      -4.635   2.626  -4.832  0.00  0.00    -0.077 A 
ATOM      3  C2  UNL d   1      -5.676   3.221  -5.555  0.00  0.00    -0.001 A 
ATOM      4  C3  UNL d   1      -5.654   4.589  -5.828  0.00  0.00     0.003 A 
ATOM      5  C4  UNL d   1      -4.594   5.375  -5.382  0.00  0.00    -0.005 A 
ATOM      6  C5  UNL d   1      -3.552   4.792  -4.663  0.00  0.00     0.003 A 
ATOM      7  C6  UNL d   1      -3.572   3.423  -4.389  0.00  0.00    -0.001 A 
ENDROOT
TORSDOF 0
ENDMDL
