MODEL 1
REMARK minimizedAffinity -1.54817486
REMARK minimizedRMSD -1
REMARK  0 active torsions:
REMARK  status: ('A' for Active; 'I' for Inactive)
ROOT
ATOM      1  C   UNL d   1      -0.101  -4.304  -0.405  0.00  0.00    -0.002 A 
ATOM      2  C1  UNL d   1      -1.241  -3.638   0.023  0.00  0.00     0.010 A 
ATOM      3  C2  UNL d   1      -1.284  -2.242   0.039  0.00  0.00     0.041 A 
ATOM      4  C3  UNL d   1      -0.152  -1.520  -0.387  0.00  0.00    -0.075 A 
ATOM      5  S   UNL d   1       0.024   0.194  -0.453  0.00  0.00     0.015 SA
ATOM      6  C4  UNL d   1       1.616   0.082  -1.051  0.00  0.00     0.022 A 
ATOM      7  C5  UNL d   1       2.020  -1.223  -1.203  0.00  0.00     0.026 A 
ATOM      8  C6  UNL d   1       1.008  -2.168  -0.822  0.00  0.00    -0.082 A 
ATOM      9  C7  UNL d   1       1.020  -3.584  -0.827  0.00  0.00     0.045 A 
ENDROOT
TORSDOF 0
ENDMDL
