MODEL 1
REMARK minimizedAffinity -1.18073082
REMARK minimizedRMSD -1
REMARK  0 active torsions:
REMARK  status: ('A' for Active; 'I' for Inactive)
ROOT
ATOM      1  C   UNL d   1       1.012  -2.918  -0.453  0.00  0.00    -0.002 A 
ATOM      2  C1  UNL d   1       0.859  -1.876  -1.358  0.00  0.00     0.010 A 
ATOM      3  C2  UNL d   1      -0.002  -0.813  -1.078  0.00  0.00     0.041 A 
ATOM      4  C3  UNL d   1      -0.712  -0.814   0.139  0.00  0.00    -0.075 A 
ATOM      5  S   UNL d   1      -1.821   0.383   0.695  0.00  0.00     0.015 SA
ATOM      6  C4  UNL d   1      -2.117  -0.459   2.147  0.00  0.00     0.022 A 
ATOM      7  C5  UNL d   1      -1.396  -1.627   2.222  0.00  0.00     0.026 A 
ATOM      8  C6  UNL d   1      -0.574  -1.851   1.066  0.00  0.00    -0.082 A 
ATOM      9  C7  UNL d   1       0.306  -2.915   0.753  0.00  0.00     0.045 A 
ENDROOT
TORSDOF 0
ENDMDL
