MODEL 1
REMARK minimizedAffinity 1.06176615
REMARK minimizedRMSD -1
REMARK  0 active torsions:
REMARK  status: ('A' for Active; 'I' for Inactive)
ROOT
ATOM      1  C   UNL d   1       0.953  -1.817  -2.361  0.00  0.00    -0.002 A 
ATOM      2  C1  UNL d   1       1.228  -2.344  -1.107  0.00  0.00     0.010 A 
ATOM      3  C2  UNL d   1       0.939  -1.616   0.048  0.00  0.00     0.041 A 
ATOM      4  C3  UNL d   1       0.361  -0.337  -0.079  0.00  0.00    -0.075 A 
ATOM      5  S   UNL d   1      -0.080   0.736   1.197  0.00  0.00     0.015 SA
ATOM      6  C4  UNL d   1      -0.644   1.918   0.107  0.00  0.00     0.022 A 
ATOM      7  C5  UNL d   1      -0.507   1.521  -1.202  0.00  0.00     0.026 A 
ATOM      8  C6  UNL d   1       0.074   0.215  -1.331  0.00  0.00    -0.082 A 
ATOM      9  C7  UNL d   1       0.380  -0.548  -2.483  0.00  0.00     0.045 A 
ENDROOT
TORSDOF 0
ENDMDL
