MODEL 1
REMARK minimizedAffinity -0.908574581
REMARK minimizedRMSD -1
REMARK  0 active torsions:
REMARK  status: ('A' for Active; 'I' for Inactive)
ROOT
ATOM      1  C   UNL d   1      -0.752  -2.420   1.530  0.00  0.00    -0.002 A 
ATOM      2  C1  UNL d   1       0.016  -2.822   0.446  0.00  0.00     0.010 A 
ATOM      3  C2  UNL d   1       0.658  -1.879  -0.359  0.00  0.00     0.041 A 
ATOM      4  C3  UNL d   1       0.515  -0.512  -0.052  0.00  0.00    -0.075 A 
ATOM      5  S   UNL d   1       1.210   0.821  -0.897  0.00  0.00     0.015 SA
ATOM      6  C4  UNL d   1       0.505   1.956   0.162  0.00  0.00     0.022 A 
ATOM      7  C5  UNL d   1      -0.246   1.350   1.141  0.00  0.00     0.026 A 
ATOM      8  C6  UNL d   1      -0.252  -0.082   1.035  0.00  0.00    -0.082 A 
ATOM      9  C7  UNL d   1      -0.891  -1.063   1.831  0.00  0.00     0.045 A 
ENDROOT
TORSDOF 0
ENDMDL
