MODEL 1
REMARK minimizedAffinity -1.34727883
REMARK minimizedRMSD -1
REMARK  0 active torsions:
REMARK  status: ('A' for Active; 'I' for Inactive)
ROOT
ATOM      1  C   UNL d   1      -0.633  -2.879  -0.330  0.00  0.00    -0.002 A 
ATOM      2  C1  UNL d   1       0.121  -2.964   0.831  0.00  0.00     0.010 A 
ATOM      3  C2  UNL d   1       0.650  -1.815   1.421  0.00  0.00     0.041 A 
ATOM      4  C3  UNL d   1       0.405  -0.565   0.818  0.00  0.00    -0.075 A 
ATOM      5  S   UNL d   1       0.952   0.977   1.362  0.00  0.00     0.015 SA
ATOM      6  C4  UNL d   1       0.196   1.785   0.066  0.00  0.00     0.022 A 
ATOM      7  C5  UNL d   1      -0.461   0.916  -0.771  0.00  0.00     0.026 A 
ATOM      8  C6  UNL d   1      -0.352  -0.453  -0.352  0.00  0.00    -0.082 A 
ATOM      9  C7  UNL d   1      -0.874  -1.638  -0.925  0.00  0.00     0.045 A 
ENDROOT
TORSDOF 0
ENDMDL
