MODEL 1
REMARK minimizedAffinity -1.50340641
REMARK minimizedRMSD -1
REMARK  0 active torsions:
REMARK  status: ('A' for Active; 'I' for Inactive)
ROOT
ATOM      1  C   UNL d   1      -0.821  -2.887   0.369  0.00  0.00    -0.002 A 
ATOM      2  C1  UNL d   1       0.033  -2.892  -0.724  0.00  0.00     0.010 A 
ATOM      3  C2  UNL d   1       0.645  -1.713  -1.154  0.00  0.00     0.041 A 
ATOM      4  C3  UNL d   1       0.382  -0.517  -0.458  0.00  0.00    -0.075 A 
ATOM      5  S   UNL d   1       1.019   1.048  -0.803  0.00  0.00     0.015 SA
ATOM      6  C4  UNL d   1       0.174   1.760   0.493  0.00  0.00     0.022 A 
ATOM      7  C5  UNL d   1      -0.582   0.842   1.183  0.00  0.00     0.026 A 
ATOM      8  C6  UNL d   1      -0.473  -0.486   0.647  0.00  0.00    -0.082 A 
ATOM      9  C7  UNL d   1      -1.079  -1.698   1.057  0.00  0.00     0.045 A 
ENDROOT
TORSDOF 0
ENDMDL
