MODEL 1
REMARK minimizedAffinity -2.07499385
REMARK minimizedRMSD -1
REMARK  0 active torsions:
REMARK  status: ('A' for Active; 'I' for Inactive)
ROOT
ATOM      1  C   UNL d   1      -0.381  -3.509  -1.057  0.00  0.00    -0.002 A 
ATOM      2  C1  UNL d   1       0.232  -2.893  -2.138  0.00  0.00     0.010 A 
ATOM      3  C2  UNL d   1       0.466  -1.516  -2.132  0.00  0.00     0.041 A 
ATOM      4  C3  UNL d   1       0.072  -0.763  -1.008  0.00  0.00    -0.075 A 
ATOM      5  S   UNL d   1       0.258   0.935  -0.778  0.00  0.00     0.015 SA
ATOM      6  C4  UNL d   1      -0.471   0.882   0.762  0.00  0.00     0.022 A 
ATOM      7  C5  UNL d   1      -0.853  -0.392   1.107  0.00  0.00     0.026 A 
ATOM      8  C6  UNL d   1      -0.546  -1.362   0.093  0.00  0.00    -0.082 A 
ATOM      9  C7  UNL d   1      -0.771  -2.759   0.055  0.00  0.00     0.045 A 
ENDROOT
TORSDOF 0
ENDMDL
