MODEL 1
REMARK minimizedAffinity -2.75279021
REMARK minimizedRMSD -1
REMARK  0 active torsions:
REMARK  status: ('A' for Active; 'I' for Inactive)
ROOT
ATOM      1  C   UNL d   1      -0.859  -2.385   1.226  0.00  0.00    -0.002 A 
ATOM      2  C1  UNL d   1      -0.027  -2.582   0.133  0.00  0.00     0.010 A 
ATOM      3  C2  UNL d   1       0.527  -1.494  -0.543  0.00  0.00     0.041 A 
ATOM      4  C3  UNL d   1       0.228  -0.191  -0.098  0.00  0.00    -0.075 A 
ATOM      5  S   UNL d   1       0.793   1.292  -0.771  0.00  0.00     0.015 SA
ATOM      6  C4  UNL d   1      -0.057   2.223   0.376  0.00  0.00     0.022 A 
ATOM      7  C5  UNL d   1      -0.760   1.437   1.259  0.00  0.00     0.026 A 
ATOM      8  C6  UNL d   1      -0.606   0.033   1.000  0.00  0.00    -0.082 A 
ATOM      9  C7  UNL d   1      -1.153  -1.091   1.665  0.00  0.00     0.045 A 
ENDROOT
TORSDOF 0
ENDMDL
