MODEL 1
REMARK minimizedAffinity -1.57594645
REMARK minimizedRMSD -1
REMARK  0 active torsions:
REMARK  status: ('A' for Active; 'I' for Inactive)
ROOT
ATOM      1  C   UNL d   1       0.046  -3.114   0.754  0.00  0.00    -0.002 A 
ATOM      2  C1  UNL d   1       0.881  -3.114  -0.354  0.00  0.00     0.010 A 
ATOM      3  C2  UNL d   1       0.981  -1.983  -1.168  0.00  0.00     0.041 A 
ATOM      4  C3  UNL d   1       0.222  -0.842  -0.845  0.00  0.00    -0.075 A 
ATOM      5  S   UNL d   1       0.185   0.657  -1.696  0.00  0.00     0.015 SA
ATOM      6  C4  UNL d   1      -0.940   1.333  -0.609  0.00  0.00     0.022 A 
ATOM      7  C5  UNL d   1      -1.289   0.450   0.386  0.00  0.00     0.026 A 
ATOM      8  C6  UNL d   1      -0.625  -0.817   0.266  0.00  0.00    -0.082 A 
ATOM      9  C7  UNL d   1      -0.706  -1.979   1.071  0.00  0.00     0.045 A 
ENDROOT
TORSDOF 0
ENDMDL
