MODEL 1
REMARK minimizedAffinity 0.431315333
REMARK minimizedRMSD -1
REMARK  0 active torsions:
REMARK  status: ('A' for Active; 'I' for Inactive)
ROOT
ATOM      1  C   UNL d   1       1.318  -0.395  -0.679  0.00  0.00     0.020 A 
ATOM      2  C1  UNL d   1       1.584   0.084  -1.960  0.00  0.00     0.020 A 
ATOM      3  C2  UNL d   1       1.437   1.444  -2.242  0.00  0.00     0.034 A 
ATOM      4  C3  UNL d   1       1.022   2.329  -1.240  0.00  0.00     0.017 A 
ATOM      5  C4  UNL d   1       0.755   1.847   0.046  0.00  0.00     0.017 A 
ATOM      6  C5  UNL d   1       0.905   0.484   0.323  0.00  0.00     0.034 A 
ATOM      7 Cl   UNL d   1       0.239   2.878   1.334  0.00  0.00    -0.070 Cl
ATOM      8 Cl1  UNL d   1       0.860   3.998  -1.658  0.00  0.00    -0.070 Cl
ENDROOT
TORSDOF 0
ENDMDL
