MODEL 1
REMARK minimizedAffinity 3.82202291
REMARK minimizedRMSD -1
REMARK  0 active torsions:
REMARK  status: ('A' for Active; 'I' for Inactive)
ROOT
ATOM      1  C   UNL d   1       0.958   2.251  -2.548  0.00  0.00     0.020 A 
ATOM      2  C1  UNL d   1       0.490   3.544  -2.316  0.00  0.00     0.020 A 
ATOM      3  C2  UNL d   1       0.510   4.072  -1.023  0.00  0.00     0.034 A 
ATOM      4  C3  UNL d   1       0.998   3.308   0.042  0.00  0.00     0.017 A 
ATOM      5  C4  UNL d   1       1.468   2.010  -0.192  0.00  0.00     0.017 A 
ATOM      6  C5  UNL d   1       1.446   1.486  -1.488  0.00  0.00     0.034 A 
ATOM      7 Cl   UNL d   1       2.085   1.006   1.073  0.00  0.00    -0.070 Cl
ATOM      8 Cl1  UNL d   1       0.993   4.024   1.614  0.00  0.00    -0.070 Cl
ENDROOT
TORSDOF 0
ENDMDL
