MODEL 1
REMARK minimizedAffinity -1.02232301
REMARK minimizedRMSD -1
REMARK  0 active torsions:
REMARK  status: ('A' for Active; 'I' for Inactive)
ROOT
ATOM      1  C   UNL d   1       1.186  -0.073   0.380  0.00  0.00     0.020 A 
ATOM      2  C1  UNL d   1       1.112  -0.041  -1.012  0.00  0.00     0.020 A 
ATOM      3  C2  UNL d   1       0.978   1.180  -1.676  0.00  0.00     0.034 A 
ATOM      4  C3  UNL d   1       0.918   2.374  -0.948  0.00  0.00     0.017 A 
ATOM      5  C4  UNL d   1       0.993   2.341   0.449  0.00  0.00     0.017 A 
ATOM      6  C5  UNL d   1       1.127   1.115   1.109  0.00  0.00     0.034 A 
ATOM      7 Cl   UNL d   1       0.926   3.773   1.415  0.00  0.00    -0.070 Cl
ATOM      8 Cl1  UNL d   1       0.753   3.848  -1.835  0.00  0.00    -0.070 Cl
ENDROOT
TORSDOF 0
ENDMDL
