MODEL 1
REMARK minimizedAffinity 5.42018032
REMARK minimizedRMSD -1
REMARK  0 active torsions:
REMARK  status: ('A' for Active; 'I' for Inactive)
ROOT
ATOM      1  C   UNL d   1       1.541   0.212  -0.815  0.00  0.00     0.020 A 
ATOM      2  C1  UNL d   1       1.107   0.842  -1.981  0.00  0.00     0.020 A 
ATOM      3  C2  UNL d   1       0.846   2.214  -1.979  0.00  0.00     0.034 A 
ATOM      4  C3  UNL d   1       1.019   2.961  -0.808  0.00  0.00     0.017 A 
ATOM      5  C4  UNL d   1       1.455   2.328   0.362  0.00  0.00     0.017 A 
ATOM      6  C5  UNL d   1       1.715   0.954   0.354  0.00  0.00     0.034 A 
ATOM      7 Cl   UNL d   1       1.692   3.183   1.845  0.00  0.00    -0.070 Cl
ATOM      8 Cl1  UNL d   1       0.678   4.653  -0.877  0.00  0.00    -0.070 Cl
ENDROOT
TORSDOF 0
ENDMDL
