MODEL 1
REMARK minimizedAffinity -0.280390352
REMARK minimizedRMSD -1
REMARK  0 active torsions:
REMARK  status: ('A' for Active; 'I' for Inactive)
ROOT
ATOM      1  C   UNL d   1       1.024  -0.282  -0.674  0.00  0.00     0.020 A 
ATOM      2  C1  UNL d   1       1.012   0.140  -2.003  0.00  0.00     0.020 A 
ATOM      3  C2  UNL d   1       0.951   1.503  -2.301  0.00  0.00     0.034 A 
ATOM      4  C3  UNL d   1       0.903   2.448  -1.270  0.00  0.00     0.017 A 
ATOM      5  C4  UNL d   1       0.916   2.023   0.063  0.00  0.00     0.017 A 
ATOM      6  C5  UNL d   1       0.976   0.657   0.356  0.00  0.00     0.034 A 
ATOM      7 Cl   UNL d   1       0.859   3.130   1.389  0.00  0.00    -0.070 Cl
ATOM      8 Cl1  UNL d   1       0.830   4.117  -1.713  0.00  0.00    -0.070 Cl
ENDROOT
TORSDOF 0
ENDMDL
