MODEL 1
REMARK minimizedAffinity 6.79392529
REMARK minimizedRMSD -1
REMARK  0 active torsions:
REMARK  status: ('A' for Active; 'I' for Inactive)
ROOT
ATOM      1  C   UNL d   1      -3.316   2.308   1.484  0.00  0.00     0.020 A 
ATOM      2  C1  UNL d   1      -3.627   1.098   2.102  0.00  0.00     0.020 A 
ATOM      3  C2  UNL d   1      -3.445   0.950   3.479  0.00  0.00     0.034 A 
ATOM      4  C3  UNL d   1      -2.952   2.015   4.242  0.00  0.00     0.017 A 
ATOM      5  C4  UNL d   1      -2.640   3.229   3.621  0.00  0.00     0.017 A 
ATOM      6  C5  UNL d   1      -2.824   3.372   2.242  0.00  0.00     0.034 A 
ATOM      7 Cl   UNL d   1      -2.027   4.588   4.496  0.00  0.00    -0.070 Cl
ATOM      8 Cl1  UNL d   1      -2.753   1.762   5.940  0.00  0.00    -0.070 Cl
ENDROOT
TORSDOF 0
ENDMDL
