MODEL 1
REMARK minimizedAffinity 6.87728024
REMARK minimizedRMSD -1
REMARK  0 active torsions:
REMARK  status: ('A' for Active; 'I' for Inactive)
ROOT
ATOM      1  C   UNL d   1       2.177   0.426  -0.777  0.00  0.00     0.020 A 
ATOM      2  C1  UNL d   1       1.398  -0.097  -1.808  0.00  0.00     0.020 A 
ATOM      3  C2  UNL d   1       0.627   0.755  -2.602  0.00  0.00     0.034 A 
ATOM      4  C3  UNL d   1       0.634   2.134  -2.366  0.00  0.00     0.017 A 
ATOM      5  C4  UNL d   1       1.417   2.658  -1.331  0.00  0.00     0.017 A 
ATOM      6  C5  UNL d   1       2.186   1.801  -0.539  0.00  0.00     0.034 A 
ATOM      7 Cl   UNL d   1       1.477   4.349  -0.980  0.00  0.00    -0.070 Cl
ATOM      8 Cl1  UNL d   1      -0.342   3.129  -3.388  0.00  0.00    -0.070 Cl
ENDROOT
TORSDOF 0
ENDMDL
