MODEL 1
REMARK minimizedAffinity 1.77507257
REMARK minimizedRMSD -1
REMARK  0 active torsions:
REMARK  status: ('A' for Active; 'I' for Inactive)
ROOT
ATOM      1  C   UNL d   1       0.628  -0.662  -1.057  0.00  0.00     0.020 A 
ATOM      2  C1  UNL d   1       0.637  -0.661   0.337  0.00  0.00     0.020 A 
ATOM      3  C2  UNL d   1       0.817   0.536   1.033  0.00  0.00     0.034 A 
ATOM      4  C3  UNL d   1       0.987   1.738   0.336  0.00  0.00     0.017 A 
ATOM      5  C4  UNL d   1       0.977   1.736  -1.064  0.00  0.00     0.017 A 
ATOM      6  C5  UNL d   1       0.797   0.534  -1.756  0.00  0.00     0.034 A 
ATOM      7 Cl   UNL d   1       1.180   3.178  -1.994  0.00  0.00    -0.070 Cl
ATOM      8 Cl1  UNL d   1       1.203   3.181   1.261  0.00  0.00    -0.070 Cl
ENDROOT
TORSDOF 0
ENDMDL
