MODEL 1
REMARK minimizedAffinity -4.37362576
REMARK minimizedRMSD -1
REMARK  0 active torsions:
REMARK  status: ('A' for Active; 'I' for Inactive)
ROOT
ATOM      1  C   UNL d   1       0.964   3.537  -0.540  0.00  0.00     0.020 A 
ATOM      2  C1  UNL d   1       1.426   3.074   0.692  0.00  0.00     0.020 A 
ATOM      3  C2  UNL d   1       1.884   1.760   0.816  0.00  0.00     0.034 A 
ATOM      4  C3  UNL d   1       1.881   0.906  -0.292  0.00  0.00     0.017 A 
ATOM      5  C4  UNL d   1       1.417   1.371  -1.527  0.00  0.00     0.017 A 
ATOM      6  C5  UNL d   1       0.959   2.687  -1.647  0.00  0.00     0.034 A 
ATOM      7 Cl   UNL d   1       1.383   0.376  -2.940  0.00  0.00    -0.070 Cl
ATOM      8 Cl1  UNL d   1       2.462  -0.706  -0.065  0.00  0.00    -0.070 Cl
ENDROOT
TORSDOF 0
ENDMDL
