MODEL 1
REMARK minimizedAffinity 11.7374449
REMARK minimizedRMSD -1
REMARK  0 active torsions:
REMARK  status: ('A' for Active; 'I' for Inactive)
ROOT
ATOM      1  C   UNL d   1       0.564   0.692  -2.337  0.00  0.00     0.020 A 
ATOM      2  C1  UNL d   1       1.629   1.137  -1.554  0.00  0.00     0.020 A 
ATOM      3  C2  UNL d   1       1.731   2.488  -1.218  0.00  0.00     0.034 A 
ATOM      4  C3  UNL d   1       0.768   3.400  -1.664  0.00  0.00     0.017 A 
ATOM      5  C4  UNL d   1      -0.301   2.952  -2.450  0.00  0.00     0.017 A 
ATOM      6  C5  UNL d   1      -0.398   1.598  -2.784  0.00  0.00     0.034 A 
ATOM      7 Cl   UNL d   1      -1.529   4.017  -3.038  0.00  0.00    -0.070 Cl
ATOM      8 Cl1  UNL d   1       0.957   5.056  -1.210  0.00  0.00    -0.070 Cl
ENDROOT
TORSDOF 0
ENDMDL
