MODEL 1
REMARK minimizedAffinity 4.31266117
REMARK minimizedRMSD -1
REMARK  0 active torsions:
REMARK  status: ('A' for Active; 'I' for Inactive)
ROOT
ATOM      1  C   UNL d   1       2.241   0.118  -1.059  0.00  0.00     0.020 A 
ATOM      2  C1  UNL d   1       2.428   0.192   0.321  0.00  0.00     0.020 A 
ATOM      3  C2  UNL d   1       2.071   1.352   1.012  0.00  0.00     0.034 A 
ATOM      4  C3  UNL d   1       1.525   2.442   0.325  0.00  0.00     0.017 A 
ATOM      5  C4  UNL d   1       1.338   2.366  -1.060  0.00  0.00     0.017 A 
ATOM      6  C5  UNL d   1       1.697   1.203  -1.748  0.00  0.00     0.034 A 
ATOM      7 Cl   UNL d   1       0.670   3.670  -1.978  0.00  0.00    -0.070 Cl
ATOM      8 Cl1  UNL d   1       1.105   3.843   1.244  0.00  0.00    -0.070 Cl
ENDROOT
TORSDOF 0
ENDMDL
