MODEL 1
REMARK minimizedAffinity 1.3208046
REMARK minimizedRMSD -1
REMARK  0 active torsions:
REMARK  status: ('A' for Active; 'I' for Inactive)
ROOT
ATOM      1  C   UNL d   1       0.674   1.788  -2.919  0.00  0.00     0.020 A 
ATOM      2  C1  UNL d   1       0.320   2.864  -2.105  0.00  0.00     0.020 A 
ATOM      3  C2  UNL d   1       0.631   2.842  -0.744  0.00  0.00     0.034 A 
ATOM      4  C3  UNL d   1       1.300   1.743  -0.193  0.00  0.00     0.017 A 
ATOM      5  C4  UNL d   1       1.655   0.664  -1.010  0.00  0.00     0.017 A 
ATOM      6  C5  UNL d   1       1.340   0.691  -2.372  0.00  0.00     0.034 A 
ATOM      7 Cl   UNL d   1       2.480  -0.727  -0.402  0.00  0.00    -0.070 Cl
ATOM      8 Cl1  UNL d   1       1.654   1.784   1.498  0.00  0.00    -0.070 Cl
ENDROOT
TORSDOF 0
ENDMDL
