MODEL 1
REMARK minimizedAffinity 6.20207882
REMARK minimizedRMSD -1
REMARK  0 active torsions:
REMARK  status: ('A' for Active; 'I' for Inactive)
ROOT
ATOM      1  C   UNL d   1       0.593   1.698  -2.535  0.00  0.00     0.020 A 
ATOM      2  C1  UNL d   1       0.689   0.791  -1.480  0.00  0.00     0.020 A 
ATOM      3  C2  UNL d   1       0.915   1.252  -0.181  0.00  0.00     0.034 A 
ATOM      4  C3  UNL d   1       1.046   2.623   0.066  0.00  0.00     0.017 A 
ATOM      5  C4  UNL d   1       0.949   3.533  -0.993  0.00  0.00     0.017 A 
ATOM      6  C5  UNL d   1       0.723   3.066  -2.292  0.00  0.00     0.034 A 
ATOM      7 Cl   UNL d   1       1.100   5.240  -0.766  0.00  0.00    -0.070 Cl
ATOM      8 Cl1  UNL d   1       1.323   3.122   1.697  0.00  0.00    -0.070 Cl
ENDROOT
TORSDOF 0
ENDMDL
