MODEL 1
REMARK minimizedAffinity 0.524541616
REMARK minimizedRMSD -1
REMARK  0 active torsions:
REMARK  status: ('A' for Active; 'I' for Inactive)
ROOT
ATOM      1  C   UNL d   1       1.866  -0.177  -0.828  0.00  0.00     0.020 A 
ATOM      2  C1  UNL d   1       1.254  -0.156  -2.080  0.00  0.00     0.020 A 
ATOM      3  C2  UNL d   1       0.376  -1.179  -2.447  0.00  0.00     0.034 A 
ATOM      4  C3  UNL d   1       0.109  -2.228  -1.560  0.00  0.00     0.017 A 
ATOM      5  C4  UNL d   1       0.724  -2.248  -0.303  0.00  0.00     0.017 A 
ATOM      6  C5  UNL d   1       1.601  -1.222   0.059  0.00  0.00     0.034 A 
ATOM      7 Cl   UNL d   1       0.443  -3.509   0.846  0.00  0.00    -0.070 Cl
ATOM      8 Cl1  UNL d   1      -0.987  -3.459  -2.079  0.00  0.00    -0.070 Cl
ENDROOT
TORSDOF 0
ENDMDL
