MODEL 1
REMARK minimizedAffinity 3.37802196
REMARK minimizedRMSD -1
REMARK  0 active torsions:
REMARK  status: ('A' for Active; 'I' for Inactive)
ROOT
ATOM      1  C   UNL d   1       0.703   1.462  -1.006  0.00  0.00     0.020 A 
ATOM      2  C1  UNL d   1       0.764   2.227  -2.169  0.00  0.00     0.020 A 
ATOM      3  C2  UNL d   1       1.089   3.584  -2.097  0.00  0.00     0.034 A 
ATOM      4  C3  UNL d   1       1.355   4.178  -0.858  0.00  0.00     0.017 A 
ATOM      5  C4  UNL d   1       1.294   3.409   0.310  0.00  0.00     0.017 A 
ATOM      6  C5  UNL d   1       0.968   2.051   0.231  0.00  0.00     0.034 A 
ATOM      7 Cl   UNL d   1       1.609   4.072   1.875  0.00  0.00    -0.070 Cl
ATOM      8 Cl1  UNL d   1       1.752   5.860  -0.842  0.00  0.00    -0.070 Cl
ENDROOT
TORSDOF 0
ENDMDL
