MODEL 1
REMARK minimizedAffinity 12.1726284
REMARK minimizedRMSD -1
REMARK  0 active torsions:
REMARK  status: ('A' for Active; 'I' for Inactive)
ROOT
ATOM      1  C   UNL d   1       1.583   0.931  -1.422  0.00  0.00     0.020 A 
ATOM      2  C1  UNL d   1       0.307   0.420  -1.657  0.00  0.00     0.020 A 
ATOM      3  C2  UNL d   1      -0.755   1.287  -1.923  0.00  0.00     0.034 A 
ATOM      4  C3  UNL d   1      -0.543   2.671  -1.954  0.00  0.00     0.017 A 
ATOM      5  C4  UNL d   1       0.738   3.183  -1.718  0.00  0.00     0.017 A 
ATOM      6  C5  UNL d   1       1.798   2.310  -1.453  0.00  0.00     0.034 A 
ATOM      7 Cl   UNL d   1       1.078   4.877  -1.740  0.00  0.00    -0.070 Cl
ATOM      8 Cl1  UNL d   1      -1.901   3.684  -2.289  0.00  0.00    -0.070 Cl
ENDROOT
TORSDOF 0
ENDMDL
