MODEL 1
REMARK minimizedAffinity 5.89437437
REMARK minimizedRMSD -1
REMARK  0 active torsions:
REMARK  status: ('A' for Active; 'I' for Inactive)
ROOT
ATOM      1  C   UNL d   1       1.837  -0.839  -1.301  0.00  0.00     0.020 A 
ATOM      2  C1  UNL d   1       1.399  -0.054  -2.366  0.00  0.00     0.020 A 
ATOM      3  C2  UNL d   1       1.009   1.269  -2.144  0.00  0.00     0.034 A 
ATOM      4  C3  UNL d   1       1.056   1.810  -0.854  0.00  0.00     0.017 A 
ATOM      5  C4  UNL d   1       1.495   1.020   0.215  0.00  0.00     0.017 A 
ATOM      6  C5  UNL d   1       1.885  -0.303  -0.013  0.00  0.00     0.034 A 
ATOM      7 Cl   UNL d   1       1.581   1.617   1.834  0.00  0.00    -0.070 Cl
ATOM      8 Cl1  UNL d   1       0.558   3.452  -0.653  0.00  0.00    -0.070 Cl
ENDROOT
TORSDOF 0
ENDMDL
