MODEL 1
REMARK minimizedAffinity 6.43224812
REMARK minimizedRMSD -1
REMARK  0 active torsions:
REMARK  status: ('A' for Active; 'I' for Inactive)
ROOT
ATOM      1  C   UNL d   1       0.641   0.225  -1.665  0.00  0.00     0.020 A 
ATOM      2  C1  UNL d   1       1.614   0.683  -0.778  0.00  0.00     0.020 A 
ATOM      3  C2  UNL d   1       1.752   2.052  -0.540  0.00  0.00     0.034 A 
ATOM      4  C3  UNL d   1       0.916   2.968  -1.189  0.00  0.00     0.017 A 
ATOM      5  C4  UNL d   1      -0.061   2.507  -2.079  0.00  0.00     0.017 A 
ATOM      6  C5  UNL d   1      -0.195   1.135  -2.314  0.00  0.00     0.034 A 
ATOM      7 Cl   UNL d   1      -1.129   3.576  -2.918  0.00  0.00    -0.070 Cl
ATOM      8 Cl1  UNL d   1       1.142   4.646  -0.846  0.00  0.00    -0.070 Cl
ENDROOT
TORSDOF 0
ENDMDL
