MODEL 1
REMARK minimizedAffinity 8.86540699
REMARK minimizedRMSD -1
REMARK  2 active torsions:
REMARK  status: ('A' for Active; 'I' for Inactive)
REMARK    1  A    between atoms: C1_2  and  C2_3 
REMARK    2  A    between atoms: C2_3  and  C3_4 
ROOT
ATOM      1  C3  UNL d   1       3.673  -2.411   4.954  0.00  0.00    -0.075 A 
ATOM      2  C4  UNL d   1       4.839  -1.652   5.127  0.00  0.00     0.002 A 
ATOM      3  C5  UNL d   1       5.996  -2.237   5.642  0.00  0.00     0.002 A 
ATOM      4  C6  UNL d   1       5.999  -3.584   6.000  0.00  0.00    -0.004 A 
ATOM      5  C7  UNL d   1       4.841  -4.344   5.847  0.00  0.00     0.002 A 
ATOM      6  C8  UNL d   1       3.684  -3.761   5.328  0.00  0.00     0.002 A 
ENDROOT
BRANCH   1   7
ATOM      7  C2  UNL d   1       2.427  -1.791   4.369  0.00  0.00     0.056 C 
BRANCH   7   8
ATOM      8  C1  UNL d   1       2.610  -0.341   3.906  0.00  0.00     0.007 C 
ATOM      9  C   UNL d   1       2.215  -0.121   2.452  0.00  0.00     0.009 C 
ENDBRANCH   7   8
ENDBRANCH   1   7
TORSDOF 2
ENDMDL
