MODEL 1
REMARK minimizedAffinity 11.1384096
REMARK minimizedRMSD -1
REMARK  2 active torsions:
REMARK  status: ('A' for Active; 'I' for Inactive)
REMARK    1  A    between atoms: C1_2  and  C2_3 
REMARK    2  A    between atoms: C2_3  and  C3_4 
ROOT
ATOM      1  C3  UNL d   1       0.815  -0.673   1.003  0.00  0.00    -0.075 A 
ATOM      2  C4  UNL d   1       1.406  -1.505   0.041  0.00  0.00     0.002 A 
ATOM      3  C5  UNL d   1       0.640  -2.054  -0.988  0.00  0.00     0.002 A 
ATOM      4  C6  UNL d   1      -0.725  -1.787  -1.063  0.00  0.00    -0.004 A 
ATOM      5  C7  UNL d   1      -1.326  -0.975  -0.103  0.00  0.00     0.002 A 
ATOM      6  C8  UNL d   1      -0.561  -0.421   0.925  0.00  0.00     0.002 A 
ENDROOT
BRANCH   1   7
ATOM      7  C2  UNL d   1       1.644  -0.052   2.102  0.00  0.00     0.056 C 
BRANCH   7   8
ATOM      8  C1  UNL d   1       2.625  -1.023   2.767  0.00  0.00     0.007 C 
ATOM      9  C   UNL d   1       2.006  -1.811   3.914  0.00  0.00     0.009 C 
ENDBRANCH   7   8
ENDBRANCH   1   7
TORSDOF 2
ENDMDL
