MODEL 1
REMARK minimizedAffinity 0.533822119
REMARK minimizedRMSD -1
REMARK  2 active torsions:
REMARK  status: ('A' for Active; 'I' for Inactive)
REMARK    1  A    between atoms: C1_2  and  C2_3 
REMARK    2  A    between atoms: C2_3  and  C3_4 
ROOT
ATOM      1  C3  UNL d   1       2.140   1.723   1.024  0.00  0.00    -0.075 A 
ATOM      2  C4  UNL d   1       3.078   2.289   0.149  0.00  0.00     0.002 A 
ATOM      3  C5  UNL d   1       2.755   3.420  -0.601  0.00  0.00     0.002 A 
ATOM      4  C6  UNL d   1       1.489   3.992  -0.494  0.00  0.00    -0.004 A 
ATOM      5  C7  UNL d   1       0.544   3.428   0.360  0.00  0.00     0.002 A 
ATOM      6  C8  UNL d   1       0.866   2.299   1.115  0.00  0.00     0.002 A 
ENDROOT
BRANCH   1   7
ATOM      7  C2  UNL d   1       2.494   0.516   1.860  0.00  0.00     0.056 C 
BRANCH   7   8
ATOM      8  C1  UNL d   1       1.392  -0.548   1.917  0.00  0.00     0.007 C 
ATOM      9  C   UNL d   1       1.711  -1.691   2.871  0.00  0.00     0.009 C 
ENDBRANCH   7   8
ENDBRANCH   1   7
TORSDOF 2
ENDMDL
