MODEL 1
REMARK minimizedAffinity -3.32393169
REMARK minimizedRMSD -1
REMARK  0 active torsions:
REMARK  status: ('A' for Active; 'I' for Inactive)
ROOT
ATOM      1  O1  BZF d   1       0.526   1.494   2.983  0.00  0.00    -0.204 OA
ATOM      2  C2  BZF d   1      -0.466   0.635   3.415  0.00  0.00     0.174 A 
ATOM      3  C3  BZF d   1      -1.041   0.004   2.371  0.00  0.00    -0.012 A 
ATOM      4  C3A BZF d   1      -0.305   0.431   1.221  0.00  0.00    -0.107 A 
ATOM      5  C4  BZF d   1      -0.391   0.139  -0.110  0.00  0.00     0.055 A 
ATOM      6  C5  BZF d   1       0.430   0.782  -0.981  0.00  0.00    -0.016 A 
ATOM      7  C6  BZF d   1       1.344   1.725  -0.557  0.00  0.00     0.022 A 
ATOM      8  C7  BZF d   1       1.468   2.045   0.754  0.00  0.00     0.029 A 
ATOM      9  C7A BZF d   1       0.663   1.373   1.640  0.00  0.00     0.058 A 
ENDROOT
TORSDOF 0
ENDMDL
