MODEL 1
REMARK minimizedAffinity -5.74983311
REMARK minimizedRMSD -1
REMARK  0 active torsions:
REMARK  status: ('A' for Active; 'I' for Inactive)
ROOT
ATOM      1  O1  BZF d   1       1.834  -0.819  -0.899  0.00  0.00    -0.204 OA
ATOM      2  C2  BZF d   1       0.572  -1.369  -0.787  0.00  0.00     0.174 A 
ATOM      3  C3  BZF d   1      -0.194  -0.640   0.051  0.00  0.00    -0.012 A 
ATOM      4  C3A BZF d   1       0.612   0.483   0.417  0.00  0.00    -0.107 A 
ATOM      5  C4  BZF d   1       0.400   1.571   1.215  0.00  0.00     0.055 A 
ATOM      6  C5  BZF d   1       1.418   2.447   1.422  0.00  0.00    -0.016 A 
ATOM      7  C6  BZF d   1       2.661   2.264   0.851  0.00  0.00     0.022 A 
ATOM      8  C7  BZF d   1       2.918   1.203   0.048  0.00  0.00     0.029 A 
ATOM      9  C7A BZF d   1       1.881   0.333  -0.189  0.00  0.00     0.058 A 
ENDROOT
TORSDOF 0
ENDMDL
