MODEL 1
REMARK minimizedAffinity -1.43951702
REMARK minimizedRMSD -1
REMARK  0 active torsions:
REMARK  status: ('A' for Active; 'I' for Inactive)
ROOT
ATOM      1  O1  BZF d   1       0.026  -0.112  -1.902  0.00  0.00    -0.204 OA
ATOM      2  C2  BZF d   1       0.210  -0.278  -0.543  0.00  0.00     0.174 A 
ATOM      3  C3  BZF d   1      -0.822  -0.956  -0.000  0.00  0.00    -0.012 A 
ATOM      4  C3A BZF d   1      -1.661  -1.311  -1.103  0.00  0.00    -0.107 A 
ATOM      5  C4  BZF d   1      -2.832  -2.006  -1.206  0.00  0.00     0.055 A 
ATOM      6  C5  BZF d   1      -3.432  -2.113  -2.421  0.00  0.00    -0.016 A 
ATOM      7  C6  BZF d   1      -2.892  -1.534  -3.550  0.00  0.00     0.022 A 
ATOM      8  C7  BZF d   1      -1.730  -0.839  -3.499  0.00  0.00     0.029 A 
ATOM      9  C7A BZF d   1      -1.104  -0.757  -2.279  0.00  0.00     0.058 A 
ENDROOT
TORSDOF 0
ENDMDL
