MODEL 1
REMARK minimizedAffinity -4.32840967
REMARK minimizedRMSD -1
REMARK  0 active torsions:
REMARK  status: ('A' for Active; 'I' for Inactive)
ROOT
ATOM      1  O1  BZF d   1      -0.599  -0.875   1.358  0.00  0.00    -0.204 OA
ATOM      2  C2  BZF d   1      -0.784  -1.246   0.040  0.00  0.00     0.174 A 
ATOM      3  C3  BZF d   1      -0.444  -0.241  -0.792  0.00  0.00    -0.012 A 
ATOM      4  C3A BZF d   1       0.067   0.792   0.055  0.00  0.00    -0.107 A 
ATOM      5  C4  BZF d   1       0.579   2.036  -0.186  0.00  0.00     0.055 A 
ATOM      6  C5  BZF d   1       0.921   2.824   0.867  0.00  0.00    -0.016 A 
ATOM      7  C6  BZF d   1       0.760   2.403   2.171  0.00  0.00     0.022 A 
ATOM      8  C7  BZF d   1       0.261   1.177   2.459  0.00  0.00     0.029 A 
ATOM      9  C7A BZF d   1      -0.054   0.365   1.397  0.00  0.00     0.058 A 
ENDROOT
TORSDOF 0
ENDMDL
