MODEL 1
REMARK minimizedAffinity -1.96476912
REMARK minimizedRMSD -1
REMARK  0 active torsions:
REMARK  status: ('A' for Active; 'I' for Inactive)
ROOT
ATOM      1  O1  BZF d   1      -0.612  -0.647   1.138  0.00  0.00    -0.204 OA
ATOM      2  C2  BZF d   1      -0.332  -1.226  -0.085  0.00  0.00     0.174 A 
ATOM      3  C3  BZF d   1       0.369  -0.378  -0.866  0.00  0.00    -0.012 A 
ATOM      4  C3A BZF d   1       0.617   0.769  -0.048  0.00  0.00    -0.107 A 
ATOM      5  C4  BZF d   1       1.280   1.945  -0.256  0.00  0.00     0.055 A 
ATOM      6  C5  BZF d   1       1.276   2.887   0.723  0.00  0.00    -0.016 A 
ATOM      7  C6  BZF d   1       0.616   2.690   1.918  0.00  0.00     0.022 A 
ATOM      8  C7  BZF d   1      -0.051   1.538   2.173  0.00  0.00     0.029 A 
ATOM      9  C7A BZF d   1      -0.021   0.570   1.198  0.00  0.00     0.058 A 
ENDROOT
TORSDOF 0
ENDMDL
