MODEL 1
REMARK minimizedAffinity -2.21979451
REMARK minimizedRMSD -1
REMARK  0 active torsions:
REMARK  status: ('A' for Active; 'I' for Inactive)
ROOT
ATOM      1  O1  BZF d   1       0.852  -0.358  -0.970  0.00  0.00    -0.204 OA
ATOM      2  C2  BZF d   1       0.058  -1.458  -1.232  0.00  0.00     0.174 A 
ATOM      3  C3  BZF d   1      -0.898  -1.593  -0.291  0.00  0.00    -0.012 A 
ATOM      4  C3A BZF d   1      -0.747  -0.458   0.566  0.00  0.00    -0.107 A 
ATOM      5  C4  BZF d   1      -1.414  -0.023   1.675  0.00  0.00     0.055 A 
ATOM      6  C5  BZF d   1      -0.969   1.087   2.321  0.00  0.00    -0.016 A 
ATOM      7  C6  BZF d   1       0.142   1.782   1.889  0.00  0.00     0.022 A 
ATOM      8  C7  BZF d   1       0.833   1.392   0.791  0.00  0.00     0.029 A 
ATOM      9  C7A BZF d   1       0.366   0.290   0.117  0.00  0.00     0.058 A 
ENDROOT
TORSDOF 0
ENDMDL
