MODEL 1
REMARK minimizedAffinity -3.83254027
REMARK minimizedRMSD -1
REMARK  0 active torsions:
REMARK  status: ('A' for Active; 'I' for Inactive)
ROOT
ATOM      1  O1  BZF d   1       0.811   2.713   0.275  0.00  0.00    -0.204 OA
ATOM      2  C2  BZF d   1       1.044   2.862   1.628  0.00  0.00     0.174 A 
ATOM      3  C3  BZF d   1       0.615   1.780   2.310  0.00  0.00    -0.012 A 
ATOM      4  C3A BZF d   1       0.165   0.861   1.311  0.00  0.00    -0.107 A 
ATOM      5  C4  BZF d   1      -0.359  -0.399   1.363  0.00  0.00     0.055 A 
ATOM      6  C5  BZF d   1      -0.765  -0.994   0.210  0.00  0.00    -0.016 A 
ATOM      7  C6  BZF d   1      -0.667  -0.357  -1.009  0.00  0.00     0.022 A 
ATOM      8  C7  BZF d   1      -0.149   0.891  -1.112  0.00  0.00     0.029 A 
ATOM      9  C7A BZF d   1       0.293   1.482   0.047  0.00  0.00     0.058 A 
ENDROOT
TORSDOF 0
ENDMDL
