MODEL 1
REMARK minimizedAffinity -2.2219708
REMARK minimizedRMSD -1
REMARK  0 active torsions:
REMARK  status: ('A' for Active; 'I' for Inactive)
ROOT
ATOM      1  O1  BZF d   1      -4.634  -2.858  -2.794  0.00  0.00    -0.204 OA
ATOM      2  C2  BZF d   1      -4.891  -3.515  -1.607  0.00  0.00     0.174 A 
ATOM      3  C3  BZF d   1      -3.751  -3.722  -0.917  0.00  0.00    -0.012 A 
ATOM      4  C3A BZF d   1      -2.727  -3.077  -1.681  0.00  0.00    -0.107 A 
ATOM      5  C4  BZF d   1      -1.382  -2.920  -1.505  0.00  0.00     0.055 A 
ATOM      6  C5  BZF d   1      -0.657  -2.300  -2.473  0.00  0.00    -0.016 A 
ATOM      7  C6  BZF d   1      -1.243  -1.830  -3.630  0.00  0.00     0.022 A 
ATOM      8  C7  BZF d   1      -2.575  -1.958  -3.847  0.00  0.00     0.029 A 
ATOM      9  C7A BZF d   1      -3.315  -2.554  -2.856  0.00  0.00     0.058 A 
ENDROOT
TORSDOF 0
ENDMDL
