MODEL 1
REMARK minimizedAffinity -3.2595315
REMARK minimizedRMSD -1
REMARK  0 active torsions:
REMARK  status: ('A' for Active; 'I' for Inactive)
ROOT
ATOM      1  O1  BZF d   1       0.675   0.109  -1.150  0.00  0.00    -0.204 OA
ATOM      2  C2  BZF d   1      -0.070  -1.026  -0.894  0.00  0.00     0.174 A 
ATOM      3  C3  BZF d   1      -0.467  -1.056   0.394  0.00  0.00    -0.012 A 
ATOM      4  C3A BZF d   1      -0.016   0.180   0.956  0.00  0.00    -0.107 A 
ATOM      5  C4  BZF d   1      -0.121   0.742   2.197  0.00  0.00     0.055 A 
ATOM      6  C5  BZF d   1       0.493   1.929   2.439  0.00  0.00    -0.016 A 
ATOM      7  C6  BZF d   1       1.224   2.580   1.467  0.00  0.00     0.022 A 
ATOM      8  C7  BZF d   1       1.352   2.065   0.220  0.00  0.00     0.029 A 
ATOM      9  C7A BZF d   1       0.705   0.881  -0.038  0.00  0.00     0.058 A 
ENDROOT
TORSDOF 0
ENDMDL
