MODEL 1
REMARK minimizedAffinity -2.08895326
REMARK minimizedRMSD -1
REMARK  0 active torsions:
REMARK  status: ('A' for Active; 'I' for Inactive)
ROOT
ATOM      1  O1  BZF d   1      -1.084   5.953  -4.404  0.00  0.00    -0.204 OA
ATOM      2  C2  BZF d   1      -1.674   5.949  -5.653  0.00  0.00     0.174 A 
ATOM      3  C3  BZF d   1      -3.018   5.910  -5.547  0.00  0.00    -0.012 A 
ATOM      4  C3A BZF d   1      -3.287   5.981  -4.143  0.00  0.00    -0.107 A 
ATOM      5  C4  BZF d   1      -4.437   5.999  -3.407  0.00  0.00     0.055 A 
ATOM      6  C5  BZF d   1      -4.354   6.000  -2.051  0.00  0.00    -0.016 A 
ATOM      7  C6  BZF d   1      -3.138   5.977  -1.399  0.00  0.00     0.022 A 
ATOM      8  C7  BZF d   1      -1.970   5.964  -2.086  0.00  0.00     0.029 A 
ATOM      9  C7A BZF d   1      -2.051   5.997  -3.457  0.00  0.00     0.058 A 
ENDROOT
TORSDOF 0
ENDMDL
