MODEL 1
REMARK minimizedAffinity -4.01234388
REMARK minimizedRMSD -1
REMARK  0 active torsions:
REMARK  status: ('A' for Active; 'I' for Inactive)
ROOT
ATOM      1  O1  BZF d   1       1.778   1.207   0.614  0.00  0.00    -0.204 OA
ATOM      2  C2  BZF d   1       1.500   2.273   1.448  0.00  0.00     0.174 A 
ATOM      3  C3  BZF d   1       0.193   2.291   1.780  0.00  0.00    -0.012 A 
ATOM      4  C3A BZF d   1      -0.363   1.113   1.187  0.00  0.00    -0.107 A 
ATOM      5  C4  BZF d   1      -1.616   0.570   1.176  0.00  0.00     0.055 A 
ATOM      6  C5  BZF d   1      -1.842  -0.551   0.442  0.00  0.00    -0.016 A 
ATOM      7  C6  BZF d   1      -0.843  -1.151  -0.296  0.00  0.00     0.022 A 
ATOM      8  C7  BZF d   1       0.417  -0.651  -0.312  0.00  0.00     0.029 A 
ATOM      9  C7A BZF d   1       0.657   0.463   0.455  0.00  0.00     0.058 A 
ENDROOT
TORSDOF 0
ENDMDL
