MODEL 1
REMARK minimizedAffinity -2.1712501
REMARK minimizedRMSD -1
REMARK  0 active torsions:
REMARK  status: ('A' for Active; 'I' for Inactive)
ROOT
ATOM      1  O1  BZF d   1       2.694  -0.195  -1.001  0.00  0.00    -0.204 OA
ATOM      2  C2  BZF d   1       3.013   1.067  -0.541  0.00  0.00     0.174 A 
ATOM      3  C3  BZF d   1       1.938   1.660   0.016  0.00  0.00    -0.012 A 
ATOM      4  C3A BZF d   1       0.903   0.673  -0.021  0.00  0.00    -0.107 A 
ATOM      5  C4  BZF d   1      -0.397   0.658   0.399  0.00  0.00     0.055 A 
ATOM      6  C5  BZF d   1      -1.160  -0.438   0.148  0.00  0.00    -0.016 A 
ATOM      7  C6  BZF d   1      -0.659  -1.533  -0.524  0.00  0.00     0.022 A 
ATOM      8  C7  BZF d   1       0.626  -1.567  -0.956  0.00  0.00     0.029 A 
ATOM      9  C7A BZF d   1       1.409  -0.474  -0.675  0.00  0.00     0.058 A 
ENDROOT
TORSDOF 0
ENDMDL
