MODEL 1
REMARK minimizedAffinity -4.06610107
REMARK minimizedRMSD -1
REMARK  0 active torsions:
REMARK  status: ('A' for Active; 'I' for Inactive)
ROOT
ATOM      1  O1  BZF d   1      -5.008  -3.709  -2.623  0.00  0.00    -0.204 OA
ATOM      2  C2  BZF d   1      -5.123  -4.389  -1.427  0.00  0.00     0.174 A 
ATOM      3  C3  BZF d   1      -4.034  -4.189  -0.656  0.00  0.00    -0.012 A 
ATOM      4  C3A BZF d   1      -3.227  -3.256  -1.380  0.00  0.00    -0.107 A 
ATOM      5  C4  BZF d   1      -2.027  -2.656  -1.125  0.00  0.00     0.055 A 
ATOM      6  C5  BZF d   1      -1.477  -1.850  -2.071  0.00  0.00    -0.016 A 
ATOM      7  C6  BZF d   1      -2.095  -1.627  -3.284  0.00  0.00     0.022 A 
ATOM      8  C7  BZF d   1      -3.289  -2.196  -3.581  0.00  0.00     0.029 A 
ATOM      9  C7A BZF d   1      -3.863  -2.984  -2.614  0.00  0.00     0.058 A 
ENDROOT
TORSDOF 0
ENDMDL
