MODEL 1
REMARK minimizedAffinity -6.16125917
REMARK minimizedRMSD -1
REMARK  0 active torsions:
REMARK  status: ('A' for Active; 'I' for Inactive)
ROOT
ATOM      1  O1  BZF d   1       2.532   0.389  -0.074  0.00  0.00    -0.204 OA
ATOM      2  C2  BZF d   1       3.285   1.471   0.339  0.00  0.00     0.174 A 
ATOM      3  C3  BZF d   1       2.532   2.331   1.056  0.00  0.00    -0.012 A 
ATOM      4  C3A BZF d   1       1.251   1.705   1.170  0.00  0.00    -0.107 A 
ATOM      5  C4  BZF d   1       0.083   2.061   1.782  0.00  0.00     0.055 A 
ATOM      6  C5  BZF d   1      -1.006   1.260   1.644  0.00  0.00    -0.016 A 
ATOM      7  C6  BZF d   1      -0.965   0.101   0.897  0.00  0.00     0.022 A 
ATOM      8  C7  BZF d   1       0.173  -0.296   0.276  0.00  0.00     0.029 A 
ATOM      9  C7A BZF d   1       1.284   0.494   0.441  0.00  0.00     0.058 A 
ENDROOT
TORSDOF 0
ENDMDL
