MODEL 1
REMARK minimizedAffinity -5.97471046
REMARK minimizedRMSD -1
REMARK  2 active torsions:
REMARK  status: ('A' for Active; 'I' for Inactive)
REMARK    1  A    between atoms: C1_2  and  C2_3 
REMARK    2  A    between atoms: C2_3  and  C3_4 
ROOT
ATOM      1  C3  UNL d   1      -0.322  -0.156   0.500  0.00  0.00    -0.075 A 
ATOM      2  C4  UNL d   1      -1.004  -0.548   1.661  0.00  0.00     0.002 A 
ATOM      3  C5  UNL d   1      -0.529  -1.604   2.439  0.00  0.00     0.002 A 
ATOM      4  C6  UNL d   1       0.624  -2.288   2.062  0.00  0.00    -0.004 A 
ATOM      5  C7  UNL d   1       1.300  -1.918   0.901  0.00  0.00     0.002 A 
ATOM      6  C8  UNL d   1       0.830  -0.859   0.123  0.00  0.00     0.002 A 
ENDROOT
BRANCH   1   7
ATOM      7  C2  UNL d   1      -0.814   1.005  -0.331  0.00  0.00     0.056 C 
BRANCH   7   8
ATOM      8  C1  UNL d   1      -1.967   0.651  -1.276  0.00  0.00     0.007 C 
ATOM      9  C   UNL d   1      -2.039   1.555  -2.499  0.00  0.00     0.009 C 
ENDBRANCH   7   8
ENDBRANCH   1   7
TORSDOF 2
ENDMDL
