MODEL 1
REMARK minimizedAffinity -5.15885019
REMARK minimizedRMSD -1
REMARK  2 active torsions:
REMARK  status: ('A' for Active; 'I' for Inactive)
REMARK    1  A    between atoms: C1_2  and  C2_3 
REMARK    2  A    between atoms: C2_3  and  C3_4 
ROOT
ATOM      1  C3  UNL d   1      -0.088   0.080  -0.062  0.00  0.00    -0.075 A 
ATOM      2  C4  UNL d   1       1.146  -0.510  -0.372  0.00  0.00     0.002 A 
ATOM      3  C5  UNL d   1       1.586  -1.638   0.321  0.00  0.00     0.002 A 
ATOM      4  C6  UNL d   1       0.805  -2.183   1.337  0.00  0.00    -0.004 A 
ATOM      5  C7  UNL d   1      -0.415  -1.596   1.665  0.00  0.00     0.002 A 
ATOM      6  C8  UNL d   1      -0.860  -0.469   0.970  0.00  0.00     0.002 A 
ENDROOT
BRANCH   1   7
ATOM      7  C2  UNL d   1      -0.583   1.284  -0.828  0.00  0.00     0.056 C 
BRANCH   7   8
ATOM      8  C1  UNL d   1      -1.617   0.953  -1.910  0.00  0.00     0.007 C 
ATOM      9  C   UNL d   1      -1.703   2.011  -3.001  0.00  0.00     0.009 C 
ENDBRANCH   7   8
ENDBRANCH   1   7
TORSDOF 2
ENDMDL
