MODEL 1
REMARK minimizedAffinity -4.3964529
REMARK minimizedRMSD -1
REMARK  2 active torsions:
REMARK  status: ('A' for Active; 'I' for Inactive)
REMARK    1  A    between atoms: C1_2  and  C2_3 
REMARK    2  A    between atoms: C2_3  and  C3_4 
ROOT
ATOM      1  C3  UNL d   1       0.218   0.018   0.301  0.00  0.00    -0.075 A 
ATOM      2  C4  UNL d   1       1.587  -0.176   0.070  0.00  0.00     0.002 A 
ATOM      3  C5  UNL d   1       2.180  -1.413   0.326  0.00  0.00     0.002 A 
ATOM      4  C6  UNL d   1       1.416  -2.465   0.824  0.00  0.00    -0.004 A 
ATOM      5  C7  UNL d   1       0.058  -2.279   1.073  0.00  0.00     0.002 A 
ATOM      6  C8  UNL d   1      -0.539  -1.044   0.814  0.00  0.00     0.002 A 
ENDROOT
BRANCH   1   7
ATOM      7  C2  UNL d   1      -0.436   1.345  -0.002  0.00  0.00     0.056 C 
BRANCH   7   8
ATOM      8  C1  UNL d   1      -1.233   1.364  -1.311  0.00  0.00     0.007 C 
ATOM      9  C   UNL d   1      -1.048   2.648  -2.108  0.00  0.00     0.009 C 
ENDBRANCH   7   8
ENDBRANCH   1   7
TORSDOF 2
ENDMDL
