MODEL 1
REMARK minimizedAffinity -3.42452478
REMARK minimizedRMSD -1
REMARK  2 active torsions:
REMARK  status: ('A' for Active; 'I' for Inactive)
REMARK    1  A    between atoms: C1_2  and  C2_3 
REMARK    2  A    between atoms: C2_3  and  C3_4 
ROOT
ATOM      1  C3  UNL d   1       0.581  -0.119  -0.116  0.00  0.00    -0.075 A 
ATOM      2  C4  UNL d   1       1.830  -0.456  -0.659  0.00  0.00     0.002 A 
ATOM      3  C5  UNL d   1       2.663  -1.367  -0.008  0.00  0.00     0.002 A 
ATOM      4  C6  UNL d   1       2.264  -1.943   1.196  0.00  0.00    -0.004 A 
ATOM      5  C7  UNL d   1       1.033  -1.603   1.753  0.00  0.00     0.002 A 
ATOM      6  C8  UNL d   1       0.196  -0.695   1.102  0.00  0.00     0.002 A 
ENDROOT
BRANCH   1   7
ATOM      7  C2  UNL d   1      -0.338   0.843  -0.830  0.00  0.00     0.056 C 
BRANCH   7   8
ATOM      8  C1  UNL d   1      -1.146   0.207  -1.966  0.00  0.00     0.007 C 
ATOM      9  C   UNL d   1      -2.170   1.154  -2.577  0.00  0.00     0.009 C 
ENDBRANCH   7   8
ENDBRANCH   1   7
TORSDOF 2
ENDMDL
