MODEL 1
REMARK minimizedAffinity -1.9914242
REMARK minimizedRMSD -1
REMARK  2 active torsions:
REMARK  status: ('A' for Active; 'I' for Inactive)
REMARK    1  A    between atoms: C1_2  and  C2_3 
REMARK    2  A    between atoms: C2_3  and  C3_4 
ROOT
ATOM      1  C3  UNL d   1       0.328  -0.031  -0.055  0.00  0.00    -0.075 A 
ATOM      2  C4  UNL d   1      -0.757  -0.805   0.385  0.00  0.00     0.002 A 
ATOM      3  C5  UNL d   1      -0.546  -1.943   1.163  0.00  0.00     0.002 A 
ATOM      4  C6  UNL d   1       0.749  -2.329   1.502  0.00  0.00    -0.004 A 
ATOM      5  C7  UNL d   1       1.835  -1.577   1.057  0.00  0.00     0.002 A 
ATOM      6  C8  UNL d   1       1.627  -0.435   0.282  0.00  0.00     0.002 A 
ENDROOT
BRANCH   1   7
ATOM      7  C2  UNL d   1       0.105   1.219  -0.872  0.00  0.00     0.056 C 
BRANCH   7   8
ATOM      8  C1  UNL d   1      -1.372   1.561  -1.098  0.00  0.00     0.007 C 
ATOM      9  C   UNL d   1      -1.617   2.344  -2.381  0.00  0.00     0.009 C 
ENDBRANCH   7   8
ENDBRANCH   1   7
TORSDOF 2
ENDMDL
