MODEL 1
REMARK minimizedAffinity -2.54543781
REMARK minimizedRMSD -1
REMARK  2 active torsions:
REMARK  status: ('A' for Active; 'I' for Inactive)
REMARK    1  A    between atoms: C1_2  and  C2_3 
REMARK    2  A    between atoms: C2_3  and  C3_4 
ROOT
ATOM      1  C3  UNL d   1      -0.235  -1.120   0.544  0.00  0.00    -0.075 A 
ATOM      2  C4  UNL d   1       0.275  -0.146  -0.327  0.00  0.00     0.002 A 
ATOM      3  C5  UNL d   1      -0.035   1.201  -0.142  0.00  0.00     0.002 A 
ATOM      4  C6  UNL d   1      -0.865   1.591   0.907  0.00  0.00    -0.004 A 
ATOM      5  C7  UNL d   1      -1.391   0.630   1.768  0.00  0.00     0.002 A 
ATOM      6  C8  UNL d   1      -1.078  -0.719   1.589  0.00  0.00     0.002 A 
ENDROOT
BRANCH   1   7
ATOM      7  C2  UNL d   1       0.120  -2.577   0.367  0.00  0.00     0.056 C 
BRANCH   7   8
ATOM      8  C1  UNL d   1       1.329  -3.029   1.194  0.00  0.00     0.007 C 
ATOM      9  C   UNL d   1       2.214  -1.874   1.644  0.00  0.00     0.009 C 
ENDBRANCH   7   8
ENDBRANCH   1   7
TORSDOF 2
ENDMDL
