MODEL 1
REMARK minimizedAffinity -4.54239368
REMARK minimizedRMSD -1
REMARK  2 active torsions:
REMARK  status: ('A' for Active; 'I' for Inactive)
REMARK    1  A    between atoms: C1_2  and  C2_3 
REMARK    2  A    between atoms: C2_3  and  C3_4 
ROOT
ATOM      1  C3  UNL d   1      -0.214   0.682  -0.412  0.00  0.00    -0.075 A 
ATOM      2  C4  UNL d   1       1.158   0.565  -0.676  0.00  0.00     0.002 A 
ATOM      3  C5  UNL d   1       1.902  -0.473  -0.112  0.00  0.00     0.002 A 
ATOM      4  C6  UNL d   1       1.287  -1.398   0.728  0.00  0.00    -0.004 A 
ATOM      5  C7  UNL d   1      -0.073  -1.282   1.010  0.00  0.00     0.002 A 
ATOM      6  C8  UNL d   1      -0.820  -0.247   0.444  0.00  0.00     0.002 A 
ENDROOT
BRANCH   1   7
ATOM      7  C2  UNL d   1      -1.031   1.785  -1.042  0.00  0.00     0.056 C 
BRANCH   7   8
ATOM      8  C1  UNL d   1      -2.242   1.288  -1.838  0.00  0.00     0.007 C 
ATOM      9  C   UNL d   1      -2.124   1.547  -3.334  0.00  0.00     0.009 C 
ENDBRANCH   7   8
ENDBRANCH   1   7
TORSDOF 2
ENDMDL
