MODEL 1
REMARK minimizedAffinity -5.32564211
REMARK minimizedRMSD -1
REMARK  2 active torsions:
REMARK  status: ('A' for Active; 'I' for Inactive)
REMARK    1  A    between atoms: C1_2  and  C2_3 
REMARK    2  A    between atoms: C2_3  and  C3_4 
ROOT
ATOM      1  C3  UNL d   1       0.897  -0.165   0.092  0.00  0.00    -0.075 A 
ATOM      2  C4  UNL d   1      -0.226  -0.905   0.491  0.00  0.00     0.002 A 
ATOM      3  C5  UNL d   1      -0.078  -2.053   1.269  0.00  0.00     0.002 A 
ATOM      4  C6  UNL d   1       1.192  -2.481   1.650  0.00  0.00    -0.004 A 
ATOM      5  C7  UNL d   1       2.316  -1.762   1.247  0.00  0.00     0.002 A 
ATOM      6  C8  UNL d   1       2.170  -0.611   0.471  0.00  0.00     0.002 A 
ENDROOT
BRANCH   1   7
ATOM      7  C2  UNL d   1       0.741   1.095  -0.726  0.00  0.00     0.056 C 
BRANCH   7   8
ATOM      8  C1  UNL d   1      -0.709   1.571  -0.868  0.00  0.00     0.007 C 
ATOM      9  C   UNL d   1      -0.974   2.306  -2.175  0.00  0.00     0.009 C 
ENDBRANCH   7   8
ENDBRANCH   1   7
TORSDOF 2
ENDMDL
