MODEL 1
REMARK minimizedAffinity -2.29172373
REMARK minimizedRMSD -1
REMARK  2 active torsions:
REMARK  status: ('A' for Active; 'I' for Inactive)
REMARK    1  A    between atoms: C1_2  and  C2_3 
REMARK    2  A    between atoms: C2_3  and  C3_4 
ROOT
ATOM      1  C3  UNL d   1       1.123  -0.807   0.390  0.00  0.00    -0.075 A 
ATOM      2  C4  UNL d   1       1.554   0.418  -0.140  0.00  0.00     0.002 A 
ATOM      3  C5  UNL d   1       0.638   1.308  -0.702  0.00  0.00     0.002 A 
ATOM      4  C6  UNL d   1      -0.715   0.981  -0.752  0.00  0.00    -0.004 A 
ATOM      5  C7  UNL d   1      -1.152  -0.240  -0.244  0.00  0.00     0.002 A 
ATOM      6  C8  UNL d   1      -0.239  -1.131   0.324  0.00  0.00     0.002 A 
ENDROOT
BRANCH   1   7
ATOM      7  C2  UNL d   1       2.104  -1.762   1.027  0.00  0.00     0.056 C 
BRANCH   7   8
ATOM      8  C1  UNL d   1       3.365  -1.085   1.576  0.00  0.00     0.007 C 
ATOM      9  C   UNL d   1       3.382  -0.994   3.096  0.00  0.00     0.009 C 
ENDBRANCH   7   8
ENDBRANCH   1   7
TORSDOF 2
ENDMDL
