MODEL 1
REMARK minimizedAffinity -3.97702241
REMARK minimizedRMSD -1
REMARK  2 active torsions:
REMARK  status: ('A' for Active; 'I' for Inactive)
REMARK    1  A    between atoms: C1_2  and  C2_3 
REMARK    2  A    between atoms: C2_3  and  C3_4 
ROOT
ATOM      1  C3  UNL d   1      -0.246   0.651  -0.387  0.00  0.00    -0.075 A 
ATOM      2  C4  UNL d   1       1.128   0.473  -0.605  0.00  0.00     0.002 A 
ATOM      3  C5  UNL d   1       1.814  -0.572   0.014  0.00  0.00     0.002 A 
ATOM      4  C6  UNL d   1       1.140  -1.444   0.866  0.00  0.00    -0.004 A 
ATOM      5  C7  UNL d   1      -0.221  -1.266   1.103  0.00  0.00     0.002 A 
ATOM      6  C8  UNL d   1      -0.911  -0.224   0.481  0.00  0.00     0.002 A 
ENDROOT
BRANCH   1   7
ATOM      7  C2  UNL d   1      -1.000   1.762  -1.077  0.00  0.00     0.056 C 
BRANCH   7   8
ATOM      8  C1  UNL d   1      -2.267   1.298  -1.803  0.00  0.00     0.007 C 
ATOM      9  C   UNL d   1      -2.488   2.002  -3.135  0.00  0.00     0.009 C 
ENDBRANCH   7   8
ENDBRANCH   1   7
TORSDOF 2
ENDMDL
