MODEL 1
REMARK minimizedAffinity -5.26314688
REMARK minimizedRMSD -1
REMARK  2 active torsions:
REMARK  status: ('A' for Active; 'I' for Inactive)
REMARK    1  A    between atoms: C1_2  and  C2_3 
REMARK    2  A    between atoms: C2_3  and  C3_4 
ROOT
ATOM      1  C3  UNL d   1       0.050  -0.182   0.254  0.00  0.00    -0.075 A 
ATOM      2  C4  UNL d   1       1.437  -0.188   0.047  0.00  0.00     0.002 A 
ATOM      3  C5  UNL d   1       2.205  -1.291   0.423  0.00  0.00     0.002 A 
ATOM      4  C6  UNL d   1       1.598  -2.395   1.018  0.00  0.00    -0.004 A 
ATOM      5  C7  UNL d   1       0.223  -2.393   1.243  0.00  0.00     0.002 A 
ATOM      6  C8  UNL d   1      -0.547  -1.293   0.864  0.00  0.00     0.002 A 
ENDROOT
BRANCH   1   7
ATOM      7  C2  UNL d   1      -0.790   0.996  -0.177  0.00  0.00     0.056 C 
BRANCH   7   8
ATOM      8  C1  UNL d   1      -0.680   1.328  -1.669  0.00  0.00     0.007 C 
ATOM      9  C   UNL d   1      -2.007   1.220  -2.408  0.00  0.00     0.009 C 
ENDBRANCH   7   8
ENDBRANCH   1   7
TORSDOF 2
ENDMDL
