MODEL 1
REMARK minimizedAffinity -3.69696259
REMARK minimizedRMSD -1
REMARK  2 active torsions:
REMARK  status: ('A' for Active; 'I' for Inactive)
REMARK    1  A    between atoms: C1_2  and  C2_3 
REMARK    2  A    between atoms: C2_3  and  C3_4 
ROOT
ATOM      1  C3  UNL d   1       0.678  -1.083   0.168  0.00  0.00    -0.075 A 
ATOM      2  C4  UNL d   1       1.315  -0.034  -0.511  0.00  0.00     0.002 A 
ATOM      3  C5  UNL d   1       0.663   1.184  -0.703  0.00  0.00     0.002 A 
ATOM      4  C6  UNL d   1      -0.635   1.366  -0.228  0.00  0.00    -0.004 A 
ATOM      5  C7  UNL d   1      -1.283   0.325   0.433  0.00  0.00     0.002 A 
ATOM      6  C8  UNL d   1      -0.631  -0.894   0.631  0.00  0.00     0.002 A 
ENDROOT
BRANCH   1   7
ATOM      7  C2  UNL d   1       1.389  -2.394   0.405  0.00  0.00     0.056 C 
BRANCH   7   8
ATOM      8  C1  UNL d   1       2.085  -2.489   1.767  0.00  0.00     0.007 C 
ATOM      9  C   UNL d   1       3.205  -1.472   1.942  0.00  0.00     0.009 C 
ENDBRANCH   7   8
ENDBRANCH   1   7
TORSDOF 2
ENDMDL
