MODEL 1
REMARK minimizedAffinity -4.19307947
REMARK minimizedRMSD -1
REMARK  1 active torsions:
REMARK  status: ('A' for Active; 'I' for Inactive)
REMARK    1  A    between atoms: N_2  and  C1_3 
ROOT
ATOM      1  C1  UNL d   1       0.229  -0.098  -0.110  0.00  0.00     0.143 A 
ATOM      2  C2  UNL d   1       1.237   0.506   0.650  0.00  0.00    -0.057 A 
ATOM      3  C3  UNL d   1       2.370  -0.211   1.053  0.00  0.00     0.033 A 
ATOM      4  C4  UNL d   1       2.501  -1.557   0.727  0.00  0.00    -0.042 A 
ATOM      5  C5  UNL d   1       1.500  -2.184  -0.005  0.00  0.00     0.033 A 
ATOM      6  C6  UNL d   1       0.374  -1.461  -0.411  0.00  0.00    -0.057 A 
ENDROOT
BRANCH   1   7
ATOM      7  N   UNL d   1      -0.968   0.534  -0.457  0.00  0.00    -0.732 N 
ATOM      8  C   UNL d   1      -2.026   0.695   0.516  0.00  0.00     0.284 C 
ATOM      9  H3  UNL d   1      -0.819   1.348  -1.049  0.00  0.00     0.395 HD
ENDBRANCH   1   7
TORSDOF 1
ENDMDL
