MODEL 1
REMARK minimizedAffinity -1.05483186
REMARK minimizedRMSD -1
REMARK  1 active torsions:
REMARK  status: ('A' for Active; 'I' for Inactive)
REMARK    1  A    between atoms: N_2  and  C1_3 
ROOT
ATOM      1  C1  UNL d   1       1.055  -1.287  -0.317  0.00  0.00     0.143 A 
ATOM      2  C2  UNL d   1      -0.260  -1.724  -0.508  0.00  0.00    -0.057 A 
ATOM      3  C3  UNL d   1      -1.335  -0.827  -0.485  0.00  0.00     0.033 A 
ATOM      4  C4  UNL d   1      -1.115   0.524  -0.240  0.00  0.00    -0.042 A 
ATOM      5  C5  UNL d   1       0.181   0.978  -0.023  0.00  0.00     0.033 A 
ATOM      6  C6  UNL d   1       1.251   0.078  -0.054  0.00  0.00    -0.057 A 
ENDROOT
BRANCH   1   7
ATOM      7  N   UNL d   1       2.155  -2.143  -0.231  0.00  0.00    -0.732 N 
ATOM      8  C   UNL d   1       3.481  -1.618   0.012  0.00  0.00     0.284 C 
ATOM      9  H3  UNL d   1       1.944  -2.995   0.283  0.00  0.00     0.395 HD
ENDBRANCH   1   7
TORSDOF 1
ENDMDL
