MODEL 1
REMARK minimizedAffinity -3.44090939
REMARK minimizedRMSD -1
REMARK  1 active torsions:
REMARK  status: ('A' for Active; 'I' for Inactive)
REMARK    1  A    between atoms: N_2  and  C1_3 
ROOT
ATOM      1  C1  UNL d   1       0.340  -0.998   0.054  0.00  0.00     0.143 A 
ATOM      2  C2  UNL d   1      -0.462  -1.244  -1.065  0.00  0.00    -0.057 A 
ATOM      3  C3  UNL d   1      -1.368  -0.285  -1.535  0.00  0.00     0.033 A 
ATOM      4  C4  UNL d   1      -1.509   0.930  -0.872  0.00  0.00    -0.042 A 
ATOM      5  C5  UNL d   1      -0.741   1.186   0.257  0.00  0.00     0.033 A 
ATOM      6  C6  UNL d   1       0.167   0.227   0.717  0.00  0.00    -0.057 A 
ENDROOT
BRANCH   1   7
ATOM      7  N   UNL d   1       1.188  -1.948   0.628  0.00  0.00    -0.732 N 
ATOM      8  C   UNL d   1       2.585  -1.648   0.856  0.00  0.00     0.284 C 
ATOM      9  H3  UNL d   1       0.743  -2.458   1.388  0.00  0.00     0.395 HD
ENDBRANCH   1   7
TORSDOF 1
ENDMDL
