MODEL 1
REMARK minimizedAffinity -4.99294138
REMARK minimizedRMSD -1
REMARK  1 active torsions:
REMARK  status: ('A' for Active; 'I' for Inactive)
REMARK    1  A    between atoms: N_2  and  C1_3 
ROOT
ATOM      1  C1  UNL d   1       0.954  -0.691   0.089  0.00  0.00     0.143 A 
ATOM      2  C2  UNL d   1       1.823  -1.788   0.110  0.00  0.00    -0.057 A 
ATOM      3  C3  UNL d   1       3.208  -1.615   0.228  0.00  0.00     0.033 A 
ATOM      4  C4  UNL d   1       3.751  -0.336   0.299  0.00  0.00    -0.042 A 
ATOM      5  C5  UNL d   1       2.909   0.769   0.256  0.00  0.00     0.033 A 
ATOM      6  C6  UNL d   1       1.527   0.589   0.144  0.00  0.00    -0.057 A 
ENDROOT
BRANCH   1   7
ATOM      7  N   UNL d   1      -0.422  -0.794  -0.126  0.00  0.00    -0.732 N 
ATOM      8  C   UNL d   1      -1.150   0.279  -0.769  0.00  0.00     0.284 C 
ATOM      9  H3  UNL d   1      -0.700  -1.725  -0.429  0.00  0.00     0.395 HD
ENDBRANCH   1   7
TORSDOF 1
ENDMDL
