MODEL 1
REMARK minimizedAffinity -4.66447973
REMARK minimizedRMSD -1
REMARK  1 active torsions:
REMARK  status: ('A' for Active; 'I' for Inactive)
REMARK    1  A    between atoms: N_2  and  C1_3 
ROOT
ATOM      1  C1  UNL d   1       0.164   0.178  -0.117  0.00  0.00     0.143 A 
ATOM      2  C2  UNL d   1       1.150   0.962   0.492  0.00  0.00    -0.057 A 
ATOM      3  C3  UNL d   1       2.329   0.392   0.986  0.00  0.00     0.033 A 
ATOM      4  C4  UNL d   1       2.531  -0.982   0.906  0.00  0.00    -0.042 A 
ATOM      5  C5  UNL d   1       1.553  -1.784   0.328  0.00  0.00     0.033 A 
ATOM      6  C6  UNL d   1       0.381  -1.208  -0.169  0.00  0.00    -0.057 A 
ENDROOT
BRANCH   1   7
ATOM      7  N   UNL d   1      -1.072   0.673  -0.539  0.00  0.00    -0.732 N 
ATOM      8  C   UNL d   1      -2.145   0.882   0.409  0.00  0.00     0.284 C 
ATOM      9  H3  UNL d   1      -0.979   1.413  -1.231  0.00  0.00     0.395 HD
ENDBRANCH   1   7
TORSDOF 1
ENDMDL
