MODEL 1
REMARK minimizedAffinity -4.9168849
REMARK minimizedRMSD -1
REMARK  1 active torsions:
REMARK  status: ('A' for Active; 'I' for Inactive)
REMARK    1  A    between atoms: N_2  and  C1_3 
ROOT
ATOM      1  C1  UNL d   1       0.052  -0.024   0.104  0.00  0.00     0.143 A 
ATOM      2  C2  UNL d   1       0.245  -1.369  -0.229  0.00  0.00    -0.057 A 
ATOM      3  C3  UNL d   1       1.436  -2.033   0.091  0.00  0.00     0.033 A 
ATOM      4  C4  UNL d   1       2.469  -1.352   0.726  0.00  0.00    -0.042 A 
ATOM      5  C5  UNL d   1       2.309  -0.008   1.044  0.00  0.00     0.033 A 
ATOM      6  C6  UNL d   1       1.115   0.647   0.728  0.00  0.00    -0.057 A 
ENDROOT
BRANCH   1   7
ATOM      7  N   UNL d   1      -1.070   0.717  -0.274  0.00  0.00    -0.732 N 
ATOM      8  C   UNL d   1      -2.159   0.933   0.655  0.00  0.00     0.284 C 
ATOM      9  H3  UNL d   1      -0.826   1.537  -0.825  0.00  0.00     0.395 HD
ENDBRANCH   1   7
TORSDOF 1
ENDMDL
