MODEL 1
REMARK minimizedAffinity -3.30291653
REMARK minimizedRMSD -1
REMARK  1 active torsions:
REMARK  status: ('A' for Active; 'I' for Inactive)
REMARK    1  A    between atoms: N_2  and  C1_3 
ROOT
ATOM      1  C1  UNL d   1       1.181   0.056  -0.082  0.00  0.00     0.143 A 
ATOM      2  C2  UNL d   1       2.300  -0.776  -0.196  0.00  0.00    -0.057 A 
ATOM      3  C3  UNL d   1       3.599  -0.265  -0.089  0.00  0.00     0.033 A 
ATOM      4  C4  UNL d   1       3.803   1.098   0.106  0.00  0.00    -0.042 A 
ATOM      5  C5  UNL d   1       2.706   1.947   0.197  0.00  0.00     0.033 A 
ATOM      6  C6  UNL d   1       1.411   1.429   0.096  0.00  0.00    -0.057 A 
ENDROOT
BRANCH   1   7
ATOM      7  N   UNL d   1      -0.133  -0.377  -0.277  0.00  0.00    -0.732 N 
ATOM      8  C   UNL d   1      -1.242   0.537  -0.109  0.00  0.00     0.284 C 
ATOM      9  H3  UNL d   1      -0.222  -0.996  -1.080  0.00  0.00     0.395 HD
ENDBRANCH   1   7
TORSDOF 1
ENDMDL
