MODEL 1
REMARK minimizedAffinity -4.94718218
REMARK minimizedRMSD -1
REMARK  1 active torsions:
REMARK  status: ('A' for Active; 'I' for Inactive)
REMARK    1  A    between atoms: N_2  and  C1_3 
ROOT
ATOM      1  C1  UNL d   1      -0.010   0.211  -0.337  0.00  0.00     0.143 A 
ATOM      2  C2  UNL d   1       0.144  -1.108  -0.777  0.00  0.00    -0.057 A 
ATOM      3  C3  UNL d   1       1.270  -1.863  -0.429  0.00  0.00     0.033 A 
ATOM      4  C4  UNL d   1       2.280  -1.301   0.345  0.00  0.00    -0.042 A 
ATOM      5  C5  UNL d   1       2.160   0.017   0.773  0.00  0.00     0.033 A 
ATOM      6  C6  UNL d   1       1.030   0.764   0.428  0.00  0.00    -0.057 A 
ENDROOT
BRANCH   1   7
ATOM      7  N   UNL d   1      -1.059   1.045  -0.730  0.00  0.00    -0.732 N 
ATOM      8  C   UNL d   1      -2.302   1.066   0.010  0.00  0.00     0.284 C 
ATOM      9  H3  UNL d   1      -0.735   1.964  -1.025  0.00  0.00     0.395 HD
ENDBRANCH   1   7
TORSDOF 1
ENDMDL
