MODEL 1
REMARK minimizedAffinity -4.12585449
REMARK minimizedRMSD -1
REMARK  1 active torsions:
REMARK  status: ('A' for Active; 'I' for Inactive)
REMARK    1  A    between atoms: N_2  and  C1_3 
ROOT
ATOM      1  C1  UNL d   1      -1.112   0.369  -0.371  0.00  0.00     0.143 A 
ATOM      2  C2  UNL d   1      -0.714  -0.959  -0.560  0.00  0.00    -0.057 A 
ATOM      3  C3  UNL d   1       0.618  -1.351  -0.375  0.00  0.00     0.033 A 
ATOM      4  C4  UNL d   1       1.583  -0.413  -0.025  0.00  0.00    -0.042 A 
ATOM      5  C5  UNL d   1       1.215   0.917   0.143  0.00  0.00     0.033 A 
ATOM      6  C6  UNL d   1      -0.117   1.301  -0.037  0.00  0.00    -0.057 A 
ENDROOT
BRANCH   1   7
ATOM      7  N   UNL d   1      -2.400   0.840  -0.636  0.00  0.00    -0.732 N 
ATOM      8  C   UNL d   1      -3.333   1.080   0.444  0.00  0.00     0.284 C 
ATOM      9  H3  UNL d   1      -2.412   1.552  -1.362  0.00  0.00     0.395 HD
ENDBRANCH   1   7
TORSDOF 1
ENDMDL
