MODEL 1
REMARK minimizedAffinity 1.56060326
REMARK minimizedRMSD -1
REMARK  1 active torsions:
REMARK  status: ('A' for Active; 'I' for Inactive)
REMARK    1  A    between atoms: C3_4  and  O_7 
ROOT
ATOM      1  C   UNL d   1      -4.085   5.981   3.867  0.00  0.00    -0.033 A 
ATOM      2  C1  UNL d   1      -4.125   5.991   5.263  0.00  0.00     0.039 A 
ATOM      3  C2  UNL d   1      -2.937   5.996   5.997  0.00  0.00    -0.080 A 
ATOM      4  C3  UNL d   1      -1.718   5.992   5.324  0.00  0.00     0.150 A 
ATOM      5  C4  UNL d   1      -1.671   5.986   3.934  0.00  0.00    -0.007 A 
ATOM      6  C5  UNL d   1      -2.858   5.979   3.203  0.00  0.00     0.039 A 
ENDROOT
BRANCH   4   7
ATOM      7  O   UNL d   1      -0.532   5.992   5.997  0.00  0.00    -0.526 OA
ATOM      8  H5  UNL d   1      -0.720   5.967   6.950  0.00  0.00     0.418 HD
ENDBRANCH   4   7
TORSDOF 1
ENDMDL
