MODEL 1
REMARK minimizedAffinity 5.86588478
REMARK minimizedRMSD -1
REMARK  1 active torsions:
REMARK  status: ('A' for Active; 'I' for Inactive)
REMARK    1  A    between atoms: C3_4  and  O_7 
ROOT
ATOM      1  C   UNL d   1      -5.931  -1.991   1.028  0.00  0.00    -0.033 A 
ATOM      2  C1  UNL d   1      -4.720  -1.496   1.515  0.00  0.00     0.039 A 
ATOM      3  C2  UNL d   1      -3.574  -1.544   0.719  0.00  0.00    -0.080 A 
ATOM      4  C3  UNL d   1      -3.652  -2.089  -0.560  0.00  0.00     0.150 A 
ATOM      5  C4  UNL d   1      -4.856  -2.580  -1.053  0.00  0.00    -0.007 A 
ATOM      6  C5  UNL d   1      -6.000  -2.532  -0.257  0.00  0.00     0.039 A 
ENDROOT
BRANCH   4   7
ATOM      7  O   UNL d   1      -2.559  -2.162  -1.371  0.00  0.00    -0.526 OA
ATOM      8  H5  UNL d   1      -1.793  -1.811  -0.888  0.00  0.00     0.418 HD
ENDBRANCH   4   7
TORSDOF 1
ENDMDL
