MODEL 1
REMARK minimizedAffinity 2.85564566
REMARK minimizedRMSD -1
REMARK  1 active torsions:
REMARK  status: ('A' for Active; 'I' for Inactive)
REMARK    1  A    between atoms: C3_4  and  O_7 
ROOT
ATOM      1  C   UNL d   1       4.098   5.010   0.899  0.00  0.00    -0.033 A 
ATOM      2  C1  UNL d   1       5.267   4.355   1.292  0.00  0.00     0.039 A 
ATOM      3  C2  UNL d   1       5.762   4.524   2.587  0.00  0.00    -0.080 A 
ATOM      4  C3  UNL d   1       5.079   5.348   3.478  0.00  0.00     0.150 A 
ATOM      5  C4  UNL d   1       3.912   6.000   3.094  0.00  0.00    -0.007 A 
ATOM      6  C5  UNL d   1       3.419   5.831   1.800  0.00  0.00     0.039 A 
ENDROOT
BRANCH   4   7
ATOM      7  O   UNL d   1       5.526   5.547   4.750  0.00  0.00    -0.526 OA
ATOM      8  H5  UNL d   1       6.357   5.057   4.864  0.00  0.00     0.418 HD
ENDBRANCH   4   7
TORSDOF 1
ENDMDL
