MODEL 1
REMARK minimizedAffinity -3.4769938
REMARK minimizedRMSD -1
REMARK  1 active torsions:
REMARK  status: ('A' for Active; 'I' for Inactive)
REMARK    1  A    between atoms: C3_4  and  O_7 
ROOT
ATOM      1  C   UNL d   1       5.095  -5.984   5.850  0.00  0.00    -0.033 A 
ATOM      2  C1  UNL d   1       5.993  -4.924   5.990  0.00  0.00     0.039 A 
ATOM      3  C2  UNL d   1       5.723  -3.694   5.388  0.00  0.00    -0.080 A 
ATOM      4  C3  UNL d   1       4.553  -3.537   4.649  0.00  0.00     0.150 A 
ATOM      5  C4  UNL d   1       3.653  -4.588   4.508  0.00  0.00    -0.007 A 
ATOM      6  C5  UNL d   1       3.924  -5.816   5.110  0.00  0.00     0.039 A 
ENDROOT
BRANCH   4   7
ATOM      7  O   UNL d   1       4.249  -2.356   4.039  0.00  0.00    -0.526 OA
ATOM      8  H5  UNL d   1       4.975  -1.731   4.199  0.00  0.00     0.418 HD
ENDBRANCH   4   7
TORSDOF 1
ENDMDL
