MODEL 1
REMARK minimizedAffinity -0.258156151
REMARK minimizedRMSD -1
REMARK  1 active torsions:
REMARK  status: ('A' for Active; 'I' for Inactive)
REMARK    1  A    between atoms: C3_4  and  O_7 
ROOT
ATOM      1  C   UNL d   1       4.845   5.551   0.875  0.00  0.00    -0.033 A 
ATOM      2  C1  UNL d   1       5.992   5.187   1.582  0.00  0.00     0.039 A 
ATOM      3  C2  UNL d   1       5.998   5.230   2.978  0.00  0.00    -0.080 A 
ATOM      4  C3  UNL d   1       4.851   5.638   3.653  0.00  0.00     0.150 A 
ATOM      5  C4  UNL d   1       3.703   5.999   2.956  0.00  0.00    -0.007 A 
ATOM      6  C5  UNL d   1       3.700   5.955   1.562  0.00  0.00     0.039 A 
ENDROOT
BRANCH   4   7
ATOM      7  O   UNL d   1       4.810   5.701   5.015  0.00  0.00    -0.526 OA
ATOM      8  H5  UNL d   1       5.683   5.451   5.361  0.00  0.00     0.418 HD
ENDBRANCH   4   7
TORSDOF 1
ENDMDL
