MODEL 1
REMARK minimizedAffinity 8.603508
REMARK minimizedRMSD -1
REMARK  1 active torsions:
REMARK  status: ('A' for Active; 'I' for Inactive)
REMARK    1  A    between atoms: C3_4  and  O_7 
ROOT
ATOM      1  C   UNL d   1      -2.216   5.353   1.568  0.00  0.00    -0.033 A 
ATOM      2  C1  UNL d   1      -1.010   5.994   1.278  0.00  0.00     0.039 A 
ATOM      3  C2  UNL d   1      -0.445   5.881   0.006  0.00  0.00    -0.080 A 
ATOM      4  C3  UNL d   1      -1.095   5.126  -0.966  0.00  0.00     0.150 A 
ATOM      5  C4  UNL d   1      -2.299   4.488  -0.685  0.00  0.00    -0.007 A 
ATOM      6  C5  UNL d   1      -2.861   4.601   0.585  0.00  0.00     0.039 A 
ENDROOT
BRANCH   4   7
ATOM      7  O   UNL d   1      -0.580   4.983  -2.220  0.00  0.00    -0.526 OA
ATOM      8  H5  UNL d   1       0.268   5.455  -2.259  0.00  0.00     0.418 HD
ENDBRANCH   4   7
TORSDOF 1
ENDMDL
