MODEL 1
REMARK minimizedAffinity 6.03508663
REMARK minimizedRMSD -1
REMARK  1 active torsions:
REMARK  status: ('A' for Active; 'I' for Inactive)
REMARK    1  A    between atoms: C3_4  and  O_7 
ROOT
ATOM      1  C   UNL d   1      -1.367   5.438   4.828  0.00  0.00    -0.033 A 
ATOM      2  C1  UNL d   1      -2.027   5.812   6.000  0.00  0.00     0.039 A 
ATOM      3  C2  UNL d   1      -3.411   6.000   5.994  0.00  0.00    -0.080 A 
ATOM      4  C3  UNL d   1      -4.121   5.808   4.812  0.00  0.00     0.150 A 
ATOM      5  C4  UNL d   1      -3.470   5.431   3.642  0.00  0.00    -0.007 A 
ATOM      6  C5  UNL d   1      -2.089   5.246   3.650  0.00  0.00     0.039 A 
ENDROOT
BRANCH   4   7
ATOM      7  O   UNL d   1      -5.472   5.984   4.757  0.00  0.00    -0.526 OA
ATOM      8  H5  UNL d   1      -5.782   6.271   5.632  0.00  0.00     0.418 HD
ENDBRANCH   4   7
TORSDOF 1
ENDMDL
