MODEL 1
REMARK minimizedAffinity 11.6214809
REMARK minimizedRMSD -1
REMARK  1 active torsions:
REMARK  status: ('A' for Active; 'I' for Inactive)
REMARK    1  A    between atoms: C3_4  and  O_7 
ROOT
ATOM      1  C   UNL d   1      -5.999  -1.865   0.739  0.00  0.00    -0.033 A 
ATOM      2  C1  UNL d   1      -5.999  -1.417  -0.583  0.00  0.00     0.039 A 
ATOM      3  C2  UNL d   1      -4.790  -1.191  -1.246  0.00  0.00    -0.080 A 
ATOM      4  C3  UNL d   1      -3.591  -1.418  -0.576  0.00  0.00     0.150 A 
ATOM      5  C4  UNL d   1      -3.584  -1.868   0.740  0.00  0.00    -0.007 A 
ATOM      6  C5  UNL d   1      -4.791  -2.092   1.400  0.00  0.00     0.039 A 
ENDROOT
BRANCH   4   7
ATOM      7  O   UNL d   1      -2.387  -1.207  -1.179  0.00  0.00    -0.526 OA
ATOM      8  H5  UNL d   1      -2.547  -0.869  -2.076  0.00  0.00     0.418 HD
ENDBRANCH   4   7
TORSDOF 1
ENDMDL
