MODEL 1
REMARK minimizedAffinity 3.4232769
REMARK minimizedRMSD -1
REMARK  1 active torsions:
REMARK  status: ('A' for Active; 'I' for Inactive)
REMARK    1  A    between atoms: C3_4  and  O_7 
ROOT
ATOM      1  C   UNL d   1      -2.561   1.204  -0.479  0.00  0.00    -0.033 A 
ATOM      2  C1  UNL d   1      -3.016   2.139   0.453  0.00  0.00     0.039 A 
ATOM      3  C2  UNL d   1      -2.868   1.895   1.820  0.00  0.00    -0.080 A 
ATOM      4  C3  UNL d   1      -2.262   0.714   2.241  0.00  0.00     0.150 A 
ATOM      5  C4  UNL d   1      -1.803  -0.220   1.318  0.00  0.00    -0.007 A 
ATOM      6  C5  UNL d   1      -1.953   0.025  -0.046  0.00  0.00     0.039 A 
ENDROOT
BRANCH   4   7
ATOM      7  O   UNL d   1      -2.099   0.429   3.564  0.00  0.00    -0.526 OA
ATOM      8  H5  UNL d   1      -2.490   1.151   4.084  0.00  0.00     0.418 HD
ENDBRANCH   4   7
TORSDOF 1
ENDMDL
