MODEL 1
REMARK minimizedAffinity 12.1922779
REMARK minimizedRMSD -1
REMARK  1 active torsions:
REMARK  status: ('A' for Active; 'I' for Inactive)
REMARK    1  A    between atoms: C3_4  and  O_7 
ROOT
ATOM      1  C   UNL d   1       1.016   0.653  -2.642  0.00  0.00    -0.033 A 
ATOM      2  C1  UNL d   1       1.211  -0.715  -2.839  0.00  0.00     0.039 A 
ATOM      3  C2  UNL d   1       2.380  -1.328  -2.385  0.00  0.00    -0.080 A 
ATOM      4  C3  UNL d   1       3.345  -0.564  -1.735  0.00  0.00     0.150 A 
ATOM      5  C4  UNL d   1       3.155   0.799  -1.531  0.00  0.00    -0.007 A 
ATOM      6  C5  UNL d   1       1.988   1.410  -1.986  0.00  0.00     0.039 A 
ENDROOT
BRANCH   4   7
ATOM      7  O   UNL d   1       4.504  -1.117  -1.278  0.00  0.00    -0.526 OA
ATOM      8  H5  UNL d   1       4.509  -2.059  -1.514  0.00  0.00     0.418 HD
ENDBRANCH   4   7
TORSDOF 1
ENDMDL
