MODEL 1
REMARK minimizedAffinity 4.95887041
REMARK minimizedRMSD -1
REMARK  1 active torsions:
REMARK  status: ('A' for Active; 'I' for Inactive)
REMARK    1  A    between atoms: C3_4  and  O_7 
ROOT
ATOM      1  C   UNL d   1      -2.720  -0.928  -0.042  0.00  0.00    -0.033 A 
ATOM      2  C1  UNL d   1      -3.419  -0.859   1.164  0.00  0.00     0.039 A 
ATOM      3  C2  UNL d   1      -2.883  -0.156   2.245  0.00  0.00    -0.080 A 
ATOM      4  C3  UNL d   1      -1.650   0.474   2.106  0.00  0.00     0.150 A 
ATOM      5  C4  UNL d   1      -0.950   0.413   0.905  0.00  0.00    -0.007 A 
ATOM      6  C5  UNL d   1      -1.486  -0.291  -0.172  0.00  0.00     0.039 A 
ENDROOT
BRANCH   4   7
ATOM      7  O   UNL d   1      -1.084   1.169   3.134  0.00  0.00    -0.526 OA
ATOM      8  H5  UNL d   1      -1.667   1.101   3.908  0.00  0.00     0.418 HD
ENDBRANCH   4   7
TORSDOF 1
ENDMDL
