MODEL 1
REMARK minimizedAffinity 6.39670992
REMARK minimizedRMSD -1
REMARK  1 active torsions:
REMARK  status: ('A' for Active; 'I' for Inactive)
REMARK    1  A    between atoms: C3_4  and  O_7 
ROOT
ATOM      1  C   UNL d   1       0.341   5.997  -0.788  0.00  0.00    -0.033 A 
ATOM      2  C1  UNL d   1      -0.155   5.999  -2.093  0.00  0.00     0.039 A 
ATOM      3  C2  UNL d   1       0.725   5.998  -3.177  0.00  0.00    -0.080 A 
ATOM      4  C3  UNL d   1       2.097   5.995  -2.942  0.00  0.00     0.150 A 
ATOM      5  C4  UNL d   1       2.599   5.989  -1.645  0.00  0.00    -0.007 A 
ATOM      6  C5  UNL d   1       1.718   5.991  -0.564  0.00  0.00     0.039 A 
ENDROOT
BRANCH   4   7
ATOM      7  O   UNL d   1       2.996   5.998  -3.968  0.00  0.00    -0.526 OA
ATOM      8  H5  UNL d   1       2.506   6.031  -4.806  0.00  0.00     0.418 HD
ENDBRANCH   4   7
TORSDOF 1
ENDMDL
