MODEL 1
REMARK minimizedAffinity 1.54493821
REMARK minimizedRMSD -1
REMARK  1 active torsions:
REMARK  status: ('A' for Active; 'I' for Inactive)
REMARK    1  A    between atoms: C3_4  and  O_7 
ROOT
ATOM      1  C   UNL d   1       4.103   5.237  -0.057  0.00  0.00    -0.033 A 
ATOM      2  C1  UNL d   1       3.436   5.876   0.991  0.00  0.00     0.039 A 
ATOM      3  C2  UNL d   1       4.049   6.000   2.239  0.00  0.00    -0.080 A 
ATOM      4  C3  UNL d   1       5.328   5.482   2.426  0.00  0.00     0.150 A 
ATOM      5  C4  UNL d   1       6.000   4.849   1.386  0.00  0.00    -0.007 A 
ATOM      6  C5  UNL d   1       5.385   4.725   0.141  0.00  0.00     0.039 A 
ENDROOT
BRANCH   4   7
ATOM      7  O   UNL d   1       5.965   5.575   3.628  0.00  0.00    -0.526 OA
ATOM      8  H5  UNL d   1       5.369   6.012   4.259  0.00  0.00     0.418 HD
ENDBRANCH   4   7
TORSDOF 1
ENDMDL
