MODEL 1
REMARK minimizedAffinity 6.99730682
REMARK minimizedRMSD -1
REMARK  1 active torsions:
REMARK  status: ('A' for Active; 'I' for Inactive)
REMARK    1  A    between atoms: C3_4  and  O_7 
ROOT
ATOM      1  C   UNL d   1       2.538  -0.940  -2.496  0.00  0.00    -0.033 A 
ATOM      2  C1  UNL d   1       2.034  -0.634  -3.762  0.00  0.00     0.039 A 
ATOM      3  C2  UNL d   1       1.223   0.488  -3.940  0.00  0.00    -0.080 A 
ATOM      4  C3  UNL d   1       0.923   1.295  -2.846  0.00  0.00     0.150 A 
ATOM      5  C4  UNL d   1       1.424   0.998  -1.583  0.00  0.00    -0.007 A 
ATOM      6  C5  UNL d   1       2.233  -0.123  -1.407  0.00  0.00     0.039 A 
ENDROOT
BRANCH   4   7
ATOM      7  O   UNL d   1       0.131   2.397  -2.970  0.00  0.00    -0.526 OA
ATOM      8  H5  UNL d   1      -0.166   2.461  -3.893  0.00  0.00     0.418 HD
ENDBRANCH   4   7
TORSDOF 1
ENDMDL
