MODEL 1
REMARK minimizedAffinity 4.68196678
REMARK minimizedRMSD -1
REMARK  1 active torsions:
REMARK  status: ('A' for Active; 'I' for Inactive)
REMARK    1  A    between atoms: C3_4  and  O_7 
ROOT
ATOM      1  C   UNL d   1       5.147   5.761   2.269  0.00  0.00    -0.033 A 
ATOM      2  C1  UNL d   1       3.808   6.000   1.954  0.00  0.00     0.039 A 
ATOM      3  C2  UNL d   1       3.314   5.662   0.693  0.00  0.00    -0.080 A 
ATOM      4  C3  UNL d   1       4.168   5.085  -0.243  0.00  0.00     0.150 A 
ATOM      5  C4  UNL d   1       5.502   4.840   0.065  0.00  0.00    -0.007 A 
ATOM      6  C5  UNL d   1       5.994   5.179   1.324  0.00  0.00     0.039 A 
ENDROOT
BRANCH   4   7
ATOM      7  O   UNL d   1       3.733   4.742  -1.489  0.00  0.00    -0.526 OA
ATOM      8  H5  UNL d   1       2.798   4.996  -1.569  0.00  0.00     0.418 HD
ENDBRANCH   4   7
TORSDOF 1
ENDMDL
