MODEL 1
REMARK minimizedAffinity 7.19484997
REMARK minimizedRMSD -1
REMARK  0 active torsions:
REMARK  status: ('A' for Active; 'I' for Inactive)
ROOT
ATOM      1  C   UNL d   1       1.315   2.787   0.396  0.00  0.00     0.124 A 
ATOM      2  C1  UNL d   1       2.326   1.837   0.451  0.00  0.00     0.062 A 
ATOM      3  C2  UNL d   1       2.022   0.504   0.713  0.00  0.00     0.162 A 
ATOM      4  C3  UNL d   1       0.699   0.112   0.920  0.00  0.00    -0.034 A 
ATOM      5  C4  UNL d   1      -0.312   1.073   0.863  0.00  0.00     0.162 A 
ATOM      6  C5  UNL d   1      -0.003   2.404   0.602  0.00  0.00     0.062 A 
ATOM      7  F   UNL d   1      -0.981   3.320   0.549  0.00  0.00    -0.097 F 
ATOM      8  F1  UNL d   1      -1.595   0.731   1.058  0.00  0.00    -0.096 F 
ATOM      9  I   UNL d   1       0.239  -1.879   1.311  0.00  0.00    -0.060 I 
ATOM     10  F2  UNL d   1       3.019  -0.391   0.760  0.00  0.00    -0.096 F 
ATOM     11  F3  UNL d   1       3.601   2.205   0.254  0.00  0.00    -0.097 F 
ATOM     12  F4  UNL d   1       1.611   4.068   0.145  0.00  0.00    -0.092 F 
ENDROOT
TORSDOF 0
ENDMDL
