MODEL 1
REMARK minimizedAffinity 4.34978056
REMARK minimizedRMSD -1
REMARK  0 active torsions:
REMARK  status: ('A' for Active; 'I' for Inactive)
ROOT
ATOM      1  C   UNL d   1       0.926   4.475   0.192  0.00  0.00     0.124 A 
ATOM      2  C1  UNL d   1      -0.176   3.666   0.433  0.00  0.00     0.062 A 
ATOM      3  C2  UNL d   1      -0.028   2.283   0.498  0.00  0.00     0.162 A 
ATOM      4  C3  UNL d   1       1.227   1.700   0.325  0.00  0.00    -0.034 A 
ATOM      5  C4  UNL d   1       2.331   2.520   0.083  0.00  0.00     0.162 A 
ATOM      6  C5  UNL d   1       2.178   3.901   0.018  0.00  0.00     0.062 A 
ATOM      7  F   UNL d   1       3.244   4.681  -0.214  0.00  0.00    -0.097 F 
ATOM      8  F1  UNL d   1       3.552   1.993  -0.089  0.00  0.00    -0.096 F 
ATOM      9  I   UNL d   1       1.451  -0.367   0.423  0.00  0.00    -0.060 I 
ATOM     10  F2  UNL d   1      -1.111   1.526   0.732  0.00  0.00    -0.096 F 
ATOM     11  F3  UNL d   1      -1.386   4.217   0.601  0.00  0.00    -0.097 F 
ATOM     12  F4  UNL d   1       0.782   5.804   0.129  0.00  0.00    -0.092 F 
ENDROOT
TORSDOF 0
ENDMDL
