MODEL 1
REMARK minimizedAffinity 15.9030113
REMARK minimizedRMSD -1
REMARK  0 active torsions:
REMARK  status: ('A' for Active; 'I' for Inactive)
ROOT
ATOM      1  C   UNL d   1      -0.124   1.766   0.764  0.00  0.00     0.124 A 
ATOM      2  C1  UNL d   1      -0.975   2.819   0.458  0.00  0.00     0.062 A 
ATOM      3  C2  UNL d   1      -2.338   2.592   0.292  0.00  0.00     0.162 A 
ATOM      4  C3  UNL d   1      -2.859   1.305   0.431  0.00  0.00    -0.034 A 
ATOM      5  C4  UNL d   1      -1.996   0.251   0.738  0.00  0.00     0.162 A 
ATOM      6  C5  UNL d   1      -0.635   0.484   0.903  0.00  0.00     0.062 A 
ATOM      7  F   UNL d   1       0.186  -0.535   1.198  0.00  0.00    -0.097 F 
ATOM      8  F1  UNL d   1      -2.464  -0.998   0.879  0.00  0.00    -0.096 F 
ATOM      9  I   UNL d   1      -4.896   0.961   0.183  0.00  0.00    -0.060 I 
ATOM     10  F2  UNL d   1      -3.137   3.628  -0.003  0.00  0.00    -0.096 F 
ATOM     11  F3  UNL d   1      -0.484   4.059   0.322  0.00  0.00    -0.097 F 
ATOM     12  F4  UNL d   1       1.187   1.988   0.923  0.00  0.00    -0.092 F 
ENDROOT
TORSDOF 0
ENDMDL
