MODEL 1
REMARK minimizedAffinity 6.65330839
REMARK minimizedRMSD -1
REMARK  0 active torsions:
REMARK  status: ('A' for Active; 'I' for Inactive)
ROOT
ATOM      1  C   UNL d   1       0.408   2.864   0.831  0.00  0.00     0.124 A 
ATOM      2  C1  UNL d   1      -0.546   2.847   1.839  0.00  0.00     0.062 A 
ATOM      3  C2  UNL d   1      -0.945   1.640   2.406  0.00  0.00     0.162 A 
ATOM      4  C3  UNL d   1      -0.389   0.439   1.966  0.00  0.00    -0.034 A 
ATOM      5  C4  UNL d   1       0.570   0.463   0.951  0.00  0.00     0.162 A 
ATOM      6  C5  UNL d   1       0.965   1.673   0.388  0.00  0.00     0.062 A 
ATOM      7  F   UNL d   1       1.887   1.687  -0.585  0.00  0.00    -0.097 F 
ATOM      8  F1  UNL d   1       1.125  -0.673   0.505  0.00  0.00    -0.096 F 
ATOM      9  I   UNL d   1      -0.982  -1.369   2.810  0.00  0.00    -0.060 I 
ATOM     10  F2  UNL d   1      -1.869   1.654   3.378  0.00  0.00    -0.096 F 
ATOM     11  F3  UNL d   1      -1.086   3.997   2.268  0.00  0.00    -0.097 F 
ATOM     12  F4  UNL d   1       0.789   4.027   0.288  0.00  0.00    -0.092 F 
ENDROOT
TORSDOF 0
ENDMDL
