MODEL 1
REMARK minimizedAffinity 15.2112017
REMARK minimizedRMSD -1
REMARK  0 active torsions:
REMARK  status: ('A' for Active; 'I' for Inactive)
ROOT
ATOM      1  C   UNL d   1       1.197  -0.144  -2.578  0.00  0.00     0.124 A 
ATOM      2  C1  UNL d   1       2.088  -0.691  -1.665  0.00  0.00     0.062 A 
ATOM      3  C2  UNL d   1       2.440   0.016  -0.519  0.00  0.00     0.162 A 
ATOM      4  C3  UNL d   1       1.899   1.279  -0.278  0.00  0.00    -0.034 A 
ATOM      5  C4  UNL d   1       1.004   1.824  -1.201  0.00  0.00     0.162 A 
ATOM      6  C5  UNL d   1       0.655   1.113  -2.345  0.00  0.00     0.062 A 
ATOM      7  F   UNL d   1      -0.206   1.643  -3.225  0.00  0.00    -0.097 F 
ATOM      8  F1  UNL d   1       0.465   3.036  -1.000  0.00  0.00    -0.096 F 
ATOM      9  I   UNL d   1       2.422   2.340   1.434  0.00  0.00    -0.060 I 
ATOM     10  F2  UNL d   1       3.304  -0.537   0.345  0.00  0.00    -0.096 F 
ATOM     11  F3  UNL d   1       2.613  -1.904  -1.889  0.00  0.00    -0.097 F 
ATOM     12  F4  UNL d   1       0.861  -0.826  -3.680  0.00  0.00    -0.092 F 
ENDROOT
TORSDOF 0
ENDMDL
