MODEL 1
REMARK minimizedAffinity 12.3411636
REMARK minimizedRMSD -1
REMARK  0 active torsions:
REMARK  status: ('A' for Active; 'I' for Inactive)
ROOT
ATOM      1  C   UNL d   1      -4.178   2.629   0.232  0.00  0.00     0.124 A 
ATOM      2  C1  UNL d   1      -2.809   2.838   0.144  0.00  0.00     0.062 A 
ATOM      3  C2  UNL d   1      -1.937   2.125   0.961  0.00  0.00     0.162 A 
ATOM      4  C3  UNL d   1      -2.432   1.193   1.874  0.00  0.00    -0.034 A 
ATOM      5  C4  UNL d   1      -3.810   0.989   1.958  0.00  0.00     0.162 A 
ATOM      6  C5  UNL d   1      -4.677   1.704   1.139  0.00  0.00     0.062 A 
ATOM      7  F   UNL d   1      -6.000   1.500   1.226  0.00  0.00    -0.097 F 
ATOM      8  F1  UNL d   1      -4.319   0.101   2.825  0.00  0.00    -0.096 F 
ATOM      9  I   UNL d   1      -1.131   0.124   3.097  0.00  0.00    -0.060 I 
ATOM     10  F2  UNL d   1      -0.619   2.348   0.853  0.00  0.00    -0.096 F 
ATOM     11  F3  UNL d   1      -2.324   3.732  -0.731  0.00  0.00    -0.097 F 
ATOM     12  F4  UNL d   1      -5.015   3.317  -0.554  0.00  0.00    -0.092 F 
ENDROOT
TORSDOF 0
ENDMDL
