MODEL 1
REMARK minimizedAffinity 17.6098938
REMARK minimizedRMSD -1
REMARK  0 active torsions:
REMARK  status: ('A' for Active; 'I' for Inactive)
ROOT
ATOM      1  C   UNL d   1       2.681  -4.243   0.443  0.00  0.00     0.124 A 
ATOM      2  C1  UNL d   1       2.258  -4.233  -0.879  0.00  0.00     0.062 A 
ATOM      3  C2  UNL d   1       0.912  -4.051  -1.182  0.00  0.00     0.162 A 
ATOM      4  C3  UNL d   1      -0.022  -3.876  -0.161  0.00  0.00    -0.034 A 
ATOM      5  C4  UNL d   1       0.410  -3.889   1.167  0.00  0.00     0.162 A 
ATOM      6  C5  UNL d   1       1.757  -4.071   1.465  0.00  0.00     0.062 A 
ATOM      7  F   UNL d   1       2.163  -4.081   2.742  0.00  0.00    -0.097 F 
ATOM      8  F1  UNL d   1      -0.461  -3.724   2.173  0.00  0.00    -0.096 F 
ATOM      9  I   UNL d   1      -2.036  -3.604  -0.610  0.00  0.00    -0.060 I 
ATOM     10  F2  UNL d   1       0.532  -4.045  -2.468  0.00  0.00    -0.096 F 
ATOM     11  F3  UNL d   1       3.149  -4.400  -1.867  0.00  0.00    -0.097 F 
ATOM     12  F4  UNL d   1       3.976  -4.420   0.732  0.00  0.00    -0.092 F 
ENDROOT
TORSDOF 0
ENDMDL
