MODEL 1
REMARK minimizedAffinity 12.2205667
REMARK minimizedRMSD -1
REMARK  0 active torsions:
REMARK  status: ('A' for Active; 'I' for Inactive)
ROOT
ATOM      1  C   UNL d   1       1.567  -2.381   1.398  0.00  0.00     0.124 A 
ATOM      2  C1  UNL d   1       2.762  -2.095   0.754  0.00  0.00     0.062 A 
ATOM      3  C2  UNL d   1       3.554  -3.126   0.256  0.00  0.00     0.162 A 
ATOM      4  C3  UNL d   1       3.151  -4.454   0.399  0.00  0.00    -0.034 A 
ATOM      5  C4  UNL d   1       1.948  -4.734   1.049  0.00  0.00     0.162 A 
ATOM      6  C5  UNL d   1       1.161  -3.700   1.545  0.00  0.00     0.062 A 
ATOM      7  F   UNL d   1       0.006  -3.979   2.167  0.00  0.00    -0.097 F 
ATOM      8  F1  UNL d   1       1.531  -6.000   1.204  0.00  0.00    -0.096 F 
ATOM      9  I   UNL d   1       4.331  -5.999  -0.345  0.00  0.00    -0.060 I 
ATOM     10  F2  UNL d   1       4.704  -2.820  -0.363  0.00  0.00    -0.096 F 
ATOM     11  F3  UNL d   1       3.157  -0.822   0.612  0.00  0.00    -0.097 F 
ATOM     12  F4  UNL d   1       0.808  -1.387   1.878  0.00  0.00    -0.092 F 
ENDROOT
TORSDOF 0
ENDMDL
