MODEL 1
REMARK minimizedAffinity 11.6009035
REMARK minimizedRMSD -1
REMARK  0 active torsions:
REMARK  status: ('A' for Active; 'I' for Inactive)
ROOT
ATOM      1  C   UNL d   1       3.234   0.663  -2.317  0.00  0.00     0.124 A 
ATOM      2  C1  UNL d   1       2.004   0.641  -1.674  0.00  0.00     0.062 A 
ATOM      3  C2  UNL d   1       1.847   1.265  -0.440  0.00  0.00     0.162 A 
ATOM      4  C3  UNL d   1       2.924   1.919   0.159  0.00  0.00    -0.034 A 
ATOM      5  C4  UNL d   1       4.158   1.936  -0.493  0.00  0.00     0.162 A 
ATOM      6  C5  UNL d   1       4.310   1.310  -1.726  0.00  0.00     0.062 A 
ATOM      7  F   UNL d   1       5.499   1.333  -2.345  0.00  0.00    -0.097 F 
ATOM      8  F1  UNL d   1       5.215   2.555   0.056  0.00  0.00    -0.096 F 
ATOM      9  I   UNL d   1       2.695   2.853   2.005  0.00  0.00    -0.060 I 
ATOM     10  F2  UNL d   1       0.647   1.228   0.158  0.00  0.00    -0.096 F 
ATOM     11  F3  UNL d   1       0.963   0.016  -2.243  0.00  0.00    -0.097 F 
ATOM     12  F4  UNL d   1       3.382   0.061  -3.504  0.00  0.00    -0.092 F 
ENDROOT
TORSDOF 0
ENDMDL
