MODEL 1
REMARK minimizedAffinity 5.19719124
REMARK minimizedRMSD -1
REMARK  0 active torsions:
REMARK  status: ('A' for Active; 'I' for Inactive)
ROOT
ATOM      1  C   UNL d   1       3.644   0.839   0.617  0.00  0.00     0.124 A 
ATOM      2  C1  UNL d   1       2.618  -0.094   0.558  0.00  0.00     0.062 A 
ATOM      3  C2  UNL d   1       1.294   0.326   0.478  0.00  0.00     0.162 A 
ATOM      4  C3  UNL d   1       0.988   1.687   0.454  0.00  0.00    -0.034 A 
ATOM      5  C4  UNL d   1       2.025   2.619   0.514  0.00  0.00     0.162 A 
ATOM      6  C5  UNL d   1       3.347   2.194   0.595  0.00  0.00     0.062 A 
ATOM      7  F   UNL d   1       4.337   3.097   0.651  0.00  0.00    -0.097 F 
ATOM      8  F1  UNL d   1       1.766   3.935   0.493  0.00  0.00    -0.096 F 
ATOM      9  I   UNL d   1      -0.991   2.320   0.333  0.00  0.00    -0.060 I 
ATOM     10  F2  UNL d   1       0.323  -0.597   0.422  0.00  0.00    -0.096 F 
ATOM     11  F3  UNL d   1       2.903  -1.404   0.581  0.00  0.00    -0.097 F 
ATOM     12  F4  UNL d   1       4.918   0.431   0.696  0.00  0.00    -0.092 F 
ENDROOT
TORSDOF 0
ENDMDL
