MODEL 1
REMARK minimizedAffinity 6.58431911
REMARK minimizedRMSD -1
REMARK  0 active torsions:
REMARK  status: ('A' for Active; 'I' for Inactive)
ROOT
ATOM      1  C   UNL d   1       3.390   2.216   0.107  0.00  0.00     0.124 A 
ATOM      2  C1  UNL d   1       2.759   3.404  -0.233  0.00  0.00     0.062 A 
ATOM      3  C2  UNL d   1       1.378   3.524  -0.108  0.00  0.00     0.162 A 
ATOM      4  C3  UNL d   1       0.618   2.452   0.360  0.00  0.00    -0.034 A 
ATOM      5  C4  UNL d   1       1.260   1.259   0.699  0.00  0.00     0.162 A 
ATOM      6  C5  UNL d   1       2.641   1.145   0.573  0.00  0.00     0.062 A 
ATOM      7  F   UNL d   1       3.249  -0.004   0.901  0.00  0.00    -0.097 F 
ATOM      8  F1  UNL d   1       0.560   0.209   1.153  0.00  0.00    -0.096 F 
ATOM      9  I   UNL d   1      -1.447   2.627   0.549  0.00  0.00    -0.060 I 
ATOM     10  F2  UNL d   1       0.795   4.684  -0.444  0.00  0.00    -0.096 F 
ATOM     11  F3  UNL d   1       3.481   4.440  -0.684  0.00  0.00    -0.097 F 
ATOM     12  F4  UNL d   1       4.719   2.103  -0.016  0.00  0.00    -0.092 F 
ENDROOT
TORSDOF 0
ENDMDL
