MODEL 1
REMARK minimizedAffinity 11.1418524
REMARK minimizedRMSD -1
REMARK  0 active torsions:
REMARK  status: ('A' for Active; 'I' for Inactive)
ROOT
ATOM      1  C   UNL d   1      -2.350   2.618  -0.428  0.00  0.00     0.124 A 
ATOM      2  C1  UNL d   1      -2.066   1.599   0.470  0.00  0.00     0.062 A 
ATOM      3  C2  UNL d   1      -0.771   1.432   0.951  0.00  0.00     0.162 A 
ATOM      4  C3  UNL d   1       0.251   2.285   0.535  0.00  0.00    -0.034 A 
ATOM      5  C4  UNL d   1      -0.043   3.307  -0.370  0.00  0.00     0.162 A 
ATOM      6  C5  UNL d   1      -1.339   3.471  -0.848  0.00  0.00     0.062 A 
ATOM      7  F   UNL d   1      -1.612   4.455  -1.716  0.00  0.00    -0.097 F 
ATOM      8  F1  UNL d   1       0.915   4.146  -0.792  0.00  0.00    -0.096 F 
ATOM      9  I   UNL d   1       2.189   2.038   1.251  0.00  0.00    -0.060 I 
ATOM     10  F2  UNL d   1      -0.524   0.439   1.819  0.00  0.00    -0.096 F 
ATOM     11  F3  UNL d   1      -3.041   0.774   0.877  0.00  0.00    -0.097 F 
ATOM     12  F4  UNL d   1      -3.598   2.777  -0.890  0.00  0.00    -0.092 F 
ENDROOT
TORSDOF 0
ENDMDL
