MODEL 1
REMARK minimizedAffinity 4.92412186
REMARK minimizedRMSD -1
REMARK  0 active torsions:
REMARK  status: ('A' for Active; 'I' for Inactive)
ROOT
ATOM      1  C   UNL d   1       3.750   2.920   1.452  0.00  0.00     0.124 A 
ATOM      2  C1  UNL d   1       4.442   1.717   1.427  0.00  0.00     0.062 A 
ATOM      3  C2  UNL d   1       3.860   0.585   0.864  0.00  0.00     0.162 A 
ATOM      4  C3  UNL d   1       2.578   0.651   0.319  0.00  0.00    -0.034 A 
ATOM      5  C4  UNL d   1       1.887   1.864   0.348  0.00  0.00     0.162 A 
ATOM      6  C5  UNL d   1       2.474   2.992   0.912  0.00  0.00     0.062 A 
ATOM      7  F   UNL d   1       1.803   4.153   0.934  0.00  0.00    -0.097 F 
ATOM      8  F1  UNL d   1       0.653   1.962  -0.168  0.00  0.00    -0.096 F 
ATOM      9  I   UNL d   1       1.704  -1.039  -0.525  0.00  0.00    -0.060 I 
ATOM     10  F2  UNL d   1       4.552  -0.563   0.854  0.00  0.00    -0.096 F 
ATOM     11  F3  UNL d   1       5.676   1.645   1.949  0.00  0.00    -0.097 F 
ATOM     12  F4  UNL d   1       4.312   4.007   1.995  0.00  0.00    -0.092 F 
ENDROOT
TORSDOF 0
ENDMDL
