MODEL 1
REMARK minimizedAffinity 14.7634392
REMARK minimizedRMSD -1
REMARK  0 active torsions:
REMARK  status: ('A' for Active; 'I' for Inactive)
ROOT
ATOM      1  C   UNL d   1      -1.459   2.332   0.624  0.00  0.00     0.124 A 
ATOM      2  C1  UNL d   1      -0.365   2.949   0.033  0.00  0.00     0.062 A 
ATOM      3  C2  UNL d   1       0.919   2.457   0.253  0.00  0.00     0.162 A 
ATOM      4  C3  UNL d   1       1.115   1.341   1.067  0.00  0.00    -0.034 A 
ATOM      5  C4  UNL d   1       0.010   0.727   1.659  0.00  0.00     0.162 A 
ATOM      6  C5  UNL d   1      -1.271   1.223   1.436  0.00  0.00     0.062 A 
ATOM      7  F   UNL d   1      -2.327   0.626   2.008  0.00  0.00    -0.097 F 
ATOM      8  F1  UNL d   1       0.163  -0.347   2.447  0.00  0.00    -0.096 F 
ATOM      9  I   UNL d   1       3.033   0.603   1.398  0.00  0.00    -0.060 I 
ATOM     10  F2  UNL d   1       1.958   3.072  -0.331  0.00  0.00    -0.096 F 
ATOM     11  F3  UNL d   1      -0.544   4.021  -0.751  0.00  0.00    -0.097 F 
ATOM     12  F4  UNL d   1      -2.693   2.808   0.412  0.00  0.00    -0.092 F 
ENDROOT
TORSDOF 0
ENDMDL
