MODEL 1
REMARK minimizedAffinity 8.69683361
REMARK minimizedRMSD -1
REMARK  0 active torsions:
REMARK  status: ('A' for Active; 'I' for Inactive)
ROOT
ATOM      1  C   UNL d   1      -0.752  -3.727   2.338  0.00  0.00     0.124 A 
ATOM      2  C1  UNL d   1      -1.829  -4.577   2.551  0.00  0.00     0.062 A 
ATOM      3  C2  UNL d   1      -2.470  -5.177   1.472  0.00  0.00     0.162 A 
ATOM      4  C3  UNL d   1      -2.036  -4.932   0.169  0.00  0.00    -0.034 A 
ATOM      5  C4  UNL d   1      -0.953  -4.075  -0.037  0.00  0.00     0.162 A 
ATOM      6  C5  UNL d   1      -0.315  -3.477   1.045  0.00  0.00     0.062 A 
ATOM      7  F   UNL d   1       0.725  -2.657   0.837  0.00  0.00    -0.097 F 
ATOM      8  F1  UNL d   1      -0.510  -3.817  -1.276  0.00  0.00    -0.096 F 
ATOM      9  I   UNL d   1      -2.993  -5.828  -1.447  0.00  0.00    -0.060 I 
ATOM     10  F2  UNL d   1      -3.508  -5.994   1.707  0.00  0.00    -0.096 F 
ATOM     11  F3  UNL d   1      -2.253  -4.819   3.800  0.00  0.00    -0.097 F 
ATOM     12  F4  UNL d   1      -0.137  -3.150   3.378  0.00  0.00    -0.092 F 
ENDROOT
TORSDOF 0
ENDMDL
