MODEL 1
REMARK minimizedAffinity 16.2792778
REMARK minimizedRMSD -1
REMARK  0 active torsions:
REMARK  status: ('A' for Active; 'I' for Inactive)
ROOT
ATOM      1  C   UNL d   1       1.135   3.077   0.566  0.00  0.00     0.124 A 
ATOM      2  C1  UNL d   1      -0.127   2.692   0.997  0.00  0.00     0.062 A 
ATOM      3  C2  UNL d   1      -0.381   1.363   1.321  0.00  0.00     0.162 A 
ATOM      4  C3  UNL d   1       0.629   0.407   1.216  0.00  0.00    -0.034 A 
ATOM      5  C4  UNL d   1       1.896   0.801   0.781  0.00  0.00     0.162 A 
ATOM      6  C5  UNL d   1       2.145   2.131   0.459  0.00  0.00     0.062 A 
ATOM      7  F   UNL d   1       3.366   2.500   0.043  0.00  0.00    -0.097 F 
ATOM      8  F1  UNL d   1       2.891  -0.092   0.669  0.00  0.00    -0.096 F 
ATOM      9  I   UNL d   1       0.253  -1.582   1.699  0.00  0.00    -0.060 I 
ATOM     10  F2  UNL d   1      -1.610   1.020   1.734  0.00  0.00    -0.096 F 
ATOM     11  F3  UNL d   1      -1.105   3.604   1.100  0.00  0.00    -0.097 F 
ATOM     12  F4  UNL d   1       1.377   4.356   0.254  0.00  0.00    -0.092 F 
ENDROOT
TORSDOF 0
ENDMDL
