MODEL 1
REMARK minimizedAffinity 6.70153618
REMARK minimizedRMSD -1
REMARK  0 active torsions:
REMARK  status: ('A' for Active; 'I' for Inactive)
ROOT
ATOM      1  C   UNL d   1      -0.636   3.449   1.589  0.00  0.00     0.124 A 
ATOM      2  C1  UNL d   1       0.079   3.281   0.412  0.00  0.00     0.062 A 
ATOM      3  C2  UNL d   1       1.384   2.799   0.448  0.00  0.00     0.162 A 
ATOM      4  C3  UNL d   1       1.983   2.480   1.667  0.00  0.00    -0.034 A 
ATOM      5  C4  UNL d   1       1.257   2.653   2.848  0.00  0.00     0.162 A 
ATOM      6  C5  UNL d   1      -0.047   3.135   2.806  0.00  0.00     0.062 A 
ATOM      7  F   UNL d   1      -0.737   3.296   3.944  0.00  0.00    -0.097 F 
ATOM      8  F1  UNL d   1       1.802   2.356   4.037  0.00  0.00    -0.096 F 
ATOM      9  I   UNL d   1       3.935   1.760   1.727  0.00  0.00    -0.060 I 
ATOM     10  F2  UNL d   1       2.052   2.647  -0.705  0.00  0.00    -0.096 F 
ATOM     11  F3  UNL d   1      -0.488   3.584  -0.765  0.00  0.00    -0.097 F 
ATOM     12  F4  UNL d   1      -1.892   3.913   1.551  0.00  0.00    -0.092 F 
ENDROOT
TORSDOF 0
ENDMDL
