MODEL 1
REMARK minimizedAffinity 18.8516502
REMARK minimizedRMSD -1
REMARK  0 active torsions:
REMARK  status: ('A' for Active; 'I' for Inactive)
ROOT
ATOM      1  C   UNL d   1       3.048  -0.396  -0.044  0.00  0.00     0.124 A 
ATOM      2  C1  UNL d   1       2.607  -0.990  -1.219  0.00  0.00     0.062 A 
ATOM      3  C2  UNL d   1       1.794  -0.282  -2.099  0.00  0.00     0.162 A 
ATOM      4  C3  UNL d   1       1.415   1.028  -1.808  0.00  0.00    -0.034 A 
ATOM      5  C4  UNL d   1       1.861   1.619  -0.624  0.00  0.00     0.162 A 
ATOM      6  C5  UNL d   1       2.674   0.907   0.252  0.00  0.00     0.062 A 
ATOM      7  F   UNL d   1       3.099   1.483   1.387  0.00  0.00    -0.097 F 
ATOM      8  F1  UNL d   1       1.516   2.877  -0.313  0.00  0.00    -0.096 F 
ATOM      9  I   UNL d   1       0.199   2.090  -3.121  0.00  0.00    -0.060 I 
ATOM     10  F2  UNL d   1       1.383  -0.881  -3.226  0.00  0.00    -0.096 F 
ATOM     11  F3  UNL d   1       2.966  -2.249  -1.507  0.00  0.00    -0.097 F 
ATOM     12  F4  UNL d   1       3.830  -1.080   0.802  0.00  0.00    -0.092 F 
ENDROOT
TORSDOF 0
ENDMDL
