MODEL 1
REMARK minimizedAffinity 8.91438866
REMARK minimizedRMSD -1
REMARK  1 active torsions:
REMARK  status: ('A' for Active; 'I' for Inactive)
REMARK    1  A    between atoms: C1_2  and  C2_3 
ROOT
ATOM      1  C2  UNL d   1      -0.318   2.684  -0.050  0.00  0.00    -0.073 A 
ATOM      2  C3  UNL d   1      -0.383   3.888  -0.760  0.00  0.00    -0.002 A 
ATOM      3  C4  UNL d   1       0.273   5.024  -0.285  0.00  0.00     0.004 A 
ATOM      4  C5  UNL d   1       1.007   4.966   0.900  0.00  0.00    -0.004 A 
ATOM      5  C6  UNL d   1       1.094   3.769   1.618  0.00  0.00    -0.075 A 
ATOM      6  C7  UNL d   1       1.877   3.691   2.896  0.00  0.00     0.076 C 
ATOM      7  C8  UNL d   1       0.429   2.633   1.136  0.00  0.00     0.001 A 
ENDROOT
BRANCH   1   8
ATOM      8  C1  UNL d   1      -1.020   1.453  -0.563  0.00  0.00     0.053 C 
ATOM      9  C   UNL d   1      -2.528   1.544  -0.389  0.00  0.00     0.018 C 
ENDBRANCH   1   8
TORSDOF 1
ENDMDL
