MODEL 1
REMARK minimizedAffinity 9.53587341
REMARK minimizedRMSD -1
REMARK  1 active torsions:
REMARK  status: ('A' for Active; 'I' for Inactive)
REMARK    1  A    between atoms: C1_2  and  C2_3 
ROOT
ATOM      1  C2  UNL d   1       0.078   3.558   0.820  0.00  0.00    -0.073 A 
ATOM      2  C3  UNL d   1       0.547   4.198  -0.334  0.00  0.00    -0.002 A 
ATOM      3  C4  UNL d   1      -0.010   5.410  -0.743  0.00  0.00     0.004 A 
ATOM      4  C5  UNL d   1      -1.034   5.999  -0.000  0.00  0.00    -0.004 A 
ATOM      5  C6  UNL d   1      -1.507   5.381   1.162  0.00  0.00    -0.075 A 
ATOM      6  C7  UNL d   1      -2.609   6.000   1.970  0.00  0.00     0.076 C 
ATOM      7  C8  UNL d   1      -0.945   4.162   1.565  0.00  0.00     0.001 A 
ENDROOT
BRANCH   1   8
ATOM      8  C1  UNL d   1       0.681   2.252   1.269  0.00  0.00     0.053 C 
ATOM      9  C   UNL d   1       0.623   2.087   2.779  0.00  0.00     0.018 C 
ENDBRANCH   1   8
TORSDOF 1
ENDMDL
