MODEL 1
REMARK minimizedAffinity 11.9794044
REMARK minimizedRMSD -1
REMARK  1 active torsions:
REMARK  status: ('A' for Active; 'I' for Inactive)
REMARK    1  A    between atoms: C1_2  and  C2_3 
ROOT
ATOM      1  C2  UNL d   1      -2.634  -0.463  -0.004  0.00  0.00    -0.073 A 
ATOM      2  C3  UNL d   1      -3.418   0.694  -0.082  0.00  0.00    -0.002 A 
ATOM      3  C4  UNL d   1      -4.320   1.004   0.937  0.00  0.00     0.004 A 
ATOM      4  C5  UNL d   1      -4.441   0.167   2.046  0.00  0.00    -0.004 A 
ATOM      5  C6  UNL d   1      -3.658  -0.987   2.148  0.00  0.00    -0.075 A 
ATOM      6  C7  UNL d   1      -3.778  -1.900   3.333  0.00  0.00     0.076 C 
ATOM      7  C8  UNL d   1      -2.757  -1.294   1.119  0.00  0.00     0.001 A 
ENDROOT
BRANCH   1   8
ATOM      8  C1  UNL d   1      -1.655  -0.799  -1.099  0.00  0.00     0.053 C 
ATOM      9  C   UNL d   1      -0.441   0.116  -1.079  0.00  0.00     0.018 C 
ENDBRANCH   1   8
TORSDOF 1
ENDMDL
