MODEL 1
REMARK minimizedAffinity 3.42958498
REMARK minimizedRMSD -1
REMARK  1 active torsions:
REMARK  status: ('A' for Active; 'I' for Inactive)
REMARK    1  A    between atoms: C1_2  and  C2_3 
ROOT
ATOM      1  C2  UNL d   1      -5.266   2.512  -3.337  0.00  0.00    -0.073 A 
ATOM      2  C3  UNL d   1      -5.451   1.447  -4.226  0.00  0.00    -0.002 A 
ATOM      3  C4  UNL d   1      -5.819   1.690  -5.550  0.00  0.00     0.004 A 
ATOM      4  C5  UNL d   1      -5.999   2.997  -6.000  0.00  0.00    -0.004 A 
ATOM      5  C6  UNL d   1      -5.808   4.076  -5.130  0.00  0.00    -0.075 A 
ATOM      6  C7  UNL d   1      -6.000   5.488  -5.598  0.00  0.00     0.076 C 
ATOM      7  C8  UNL d   1      -5.441   3.824  -3.801  0.00  0.00     0.001 A 
ENDROOT
BRANCH   1   8
ATOM      8  C1  UNL d   1      -4.863   2.255  -1.908  0.00  0.00     0.053 C 
ATOM      9  C   UNL d   1      -4.416   0.818  -1.691  0.00  0.00     0.018 C 
ENDBRANCH   1   8
TORSDOF 1
ENDMDL
