MODEL 1
REMARK minimizedAffinity 8.88075352
REMARK minimizedRMSD -1
REMARK  1 active torsions:
REMARK  status: ('A' for Active; 'I' for Inactive)
REMARK    1  A    between atoms: C1_2  and  C2_3 
ROOT
ATOM      1  C2  UNL d   1      -5.258  -1.709   4.195  0.00  0.00    -0.073 A 
ATOM      2  C3  UNL d   1      -3.886  -1.828   3.950  0.00  0.00    -0.002 A 
ATOM      3  C4  UNL d   1      -3.202  -0.822   3.266  0.00  0.00     0.004 A 
ATOM      4  C5  UNL d   1      -3.881   0.314   2.826  0.00  0.00    -0.004 A 
ATOM      5  C6  UNL d   1      -5.250   0.457   3.072  0.00  0.00    -0.075 A 
ATOM      6  C7  UNL d   1      -5.995   1.672   2.603  0.00  0.00     0.076 C 
ATOM      7  C8  UNL d   1      -5.930  -0.558   3.757  0.00  0.00     0.001 A 
ENDROOT
BRANCH   1   8
ATOM      8  C1  UNL d   1      -6.000  -2.789   4.939  0.00  0.00     0.053 C 
ATOM      9  C   UNL d   1      -5.989  -4.110   4.186  0.00  0.00     0.018 C 
ENDBRANCH   1   8
TORSDOF 1
ENDMDL
