MODEL 1
REMARK minimizedAffinity 4.7302599
REMARK minimizedRMSD -1
REMARK  0 active torsions:
REMARK  status: ('A' for Active; 'I' for Inactive)
ROOT
ATOM      1  C1  BNZ d   1       1.963   1.766   0.868  0.00  0.00     0.000 A 
ATOM      2  C2  BNZ d   1       2.672   1.562  -0.286  0.00  0.00     0.000 A 
ATOM      3  C3  BNZ d   1       3.456   0.453  -0.439  0.00  0.00     0.000 A 
ATOM      4  C4  BNZ d   1       3.562  -0.429   0.575  0.00  0.00     0.000 A 
ATOM      5  C5  BNZ d   1       2.861  -0.233   1.748  0.00  0.00     0.000 A 
ATOM      6  C6  BNZ d   1       2.042   0.864   1.884  0.00  0.00     0.000 A 
ENDROOT
TORSDOF 0
ENDMDL
