MODEL 1
REMARK minimizedAffinity 0.0238998905
REMARK minimizedRMSD -1
REMARK  0 active torsions:
REMARK  status: ('A' for Active; 'I' for Inactive)
ROOT
ATOM      1  C1  BNZ d   1       2.101   0.863   0.087  0.00  0.00     0.000 A 
ATOM      2  C2  BNZ d   1       2.415   1.489  -1.090  0.00  0.00     0.000 A 
ATOM      3  C3  BNZ d   1       3.643   1.320  -1.667  0.00  0.00     0.000 A 
ATOM      4  C4  BNZ d   1       4.567   0.558  -1.047  0.00  0.00     0.000 A 
ATOM      5  C5  BNZ d   1       4.269  -0.072   0.145  0.00  0.00     0.000 A 
ATOM      6  C6  BNZ d   1       3.019   0.069   0.703  0.00  0.00     0.000 A 
ENDROOT
TORSDOF 0
ENDMDL
