MODEL 1
REMARK minimizedAffinity 10.0827742
REMARK minimizedRMSD -1
REMARK  0 active torsions:
REMARK  status: ('A' for Active; 'I' for Inactive)
ROOT
ATOM      1  C1  BNZ d   1       1.525   1.102   1.661  0.00  0.00     0.000 A 
ATOM      2  C2  BNZ d   1       2.385   0.037   1.624  0.00  0.00     0.000 A 
ATOM      3  C3  BNZ d   1       3.341  -0.057   0.651  0.00  0.00     0.000 A 
ATOM      4  C4  BNZ d   1       3.409   0.892  -0.305  0.00  0.00     0.000 A 
ATOM      5  C5  BNZ d   1       2.543   1.966  -0.287  0.00  0.00     0.000 A 
ATOM      6  C6  BNZ d   1       1.607   2.078   0.716  0.00  0.00     0.000 A 
ENDROOT
TORSDOF 0
ENDMDL
