MODEL 1
REMARK minimizedAffinity 7.86215925
REMARK minimizedRMSD -1
REMARK  0 active torsions:
REMARK  status: ('A' for Active; 'I' for Inactive)
ROOT
ATOM      1  C1  BNZ d   1       5.767   5.787  -4.821  0.00  0.00     0.000 A 
ATOM      2  C2  BNZ d   1       5.065   5.641  -3.654  0.00  0.00     0.000 A 
ATOM      3  C3  BNZ d   1       3.699   5.645  -3.654  0.00  0.00     0.000 A 
ATOM      4  C4  BNZ d   1       3.036   5.836  -4.813  0.00  0.00     0.000 A 
ATOM      5  C5  BNZ d   1       3.729   5.994  -5.997  0.00  0.00     0.000 A 
ATOM      6  C6  BNZ d   1       5.105   5.950  -5.998  0.00  0.00     0.000 A 
ENDROOT
TORSDOF 0
ENDMDL
