MODEL 1
REMARK minimizedAffinity 7.07388353
REMARK minimizedRMSD -1
REMARK  0 active torsions:
REMARK  status: ('A' for Active; 'I' for Inactive)
ROOT
ATOM      1  C1  BNZ d   1      -6.000  -4.968  -2.996  0.00  0.00     0.000 A 
ATOM      2  C2  BNZ d   1      -5.650  -3.753  -3.525  0.00  0.00     0.000 A 
ATOM      3  C3  BNZ d   1      -4.470  -3.155  -3.183  0.00  0.00     0.000 A 
ATOM      4  C4  BNZ d   1      -3.660  -3.751  -2.284  0.00  0.00     0.000 A 
ATOM      5  C5  BNZ d   1      -4.003  -4.971  -1.735  0.00  0.00     0.000 A 
ATOM      6  C6  BNZ d   1      -5.173  -5.589  -2.111  0.00  0.00     0.000 A 
ENDROOT
TORSDOF 0
ENDMDL
