MODEL 1
REMARK minimizedAffinity 2.89265418
REMARK minimizedRMSD -1
REMARK  0 active torsions:
REMARK  status: ('A' for Active; 'I' for Inactive)
ROOT
ATOM      1  C1  BNZ d   1      -2.802  -3.737   1.086  0.00  0.00     0.000 A 
ATOM      2  C2  BNZ d   1      -3.462  -4.923   1.266  0.00  0.00     0.000 A 
ATOM      3  C3  BNZ d   1      -2.834  -5.993   1.839  0.00  0.00     0.000 A 
ATOM      4  C4  BNZ d   1      -1.537  -5.889   2.195  0.00  0.00     0.000 A 
ATOM      5  C5  BNZ d   1      -0.855  -4.703   2.011  0.00  0.00     0.000 A 
ATOM      6  C6  BNZ d   1      -1.502  -3.615   1.469  0.00  0.00     0.000 A 
ENDROOT
TORSDOF 0
ENDMDL
