MODEL 1
REMARK minimizedAffinity 10.3470354
REMARK minimizedRMSD -1
REMARK  0 active torsions:
REMARK  status: ('A' for Active; 'I' for Inactive)
ROOT
ATOM      1  C1  BNZ d   1      -4.758  -4.140  -2.989  0.00  0.00     0.000 A 
ATOM      2  C2  BNZ d   1      -3.389  -4.150  -3.050  0.00  0.00     0.000 A 
ATOM      3  C3  BNZ d   1      -2.666  -5.094  -2.376  0.00  0.00     0.000 A 
ATOM      4  C4  BNZ d   1      -3.308  -6.000  -1.611  0.00  0.00     0.000 A 
ATOM      5  C5  BNZ d   1      -4.687  -5.997  -1.532  0.00  0.00     0.000 A 
ATOM      6  C6  BNZ d   1      -5.413  -5.069  -2.243  0.00  0.00     0.000 A 
ENDROOT
TORSDOF 0
ENDMDL
