MODEL 1
REMARK minimizedAffinity 1.30947363
REMARK minimizedRMSD -1
REMARK  0 active torsions:
REMARK  status: ('A' for Active; 'I' for Inactive)
ROOT
ATOM      1  C1  BNZ d   1      -1.464  -3.776   1.520  0.00  0.00     0.000 A 
ATOM      2  C2  BNZ d   1      -1.230  -4.945   2.195  0.00  0.00     0.000 A 
ATOM      3  C3  BNZ d   1      -2.100  -5.994   2.099  0.00  0.00     0.000 A 
ATOM      4  C4  BNZ d   1      -3.222  -5.861   1.363  0.00  0.00     0.000 A 
ATOM      5  C5  BNZ d   1      -3.477  -4.686   0.684  0.00  0.00     0.000 A 
ATOM      6  C6  BNZ d   1      -2.579  -3.645   0.751  0.00  0.00     0.000 A 
ENDROOT
TORSDOF 0
ENDMDL
