MODEL 1
REMARK minimizedAffinity 7.42423534
REMARK minimizedRMSD -1
REMARK  0 active torsions:
REMARK  status: ('A' for Active; 'I' for Inactive)
ROOT
ATOM      1  C1  BNZ d   1      -4.124  -4.831   1.138  0.00  0.00     0.000 A 
ATOM      2  C2  BNZ d   1      -3.398  -3.670   1.159  0.00  0.00     0.000 A 
ATOM      3  C3  BNZ d   1      -2.094  -3.667   1.570  0.00  0.00     0.000 A 
ATOM      4  C4  BNZ d   1      -1.530  -4.816   1.995  0.00  0.00     0.000 A 
ATOM      5  C5  BNZ d   1      -2.252  -5.993   1.988  0.00  0.00     0.000 A 
ATOM      6  C6  BNZ d   1      -3.552  -5.999   1.537  0.00  0.00     0.000 A 
ENDROOT
TORSDOF 0
ENDMDL
