MODEL 1
REMARK minimizedAffinity -0.225446239
REMARK minimizedRMSD -1
REMARK  0 active torsions:
REMARK  status: ('A' for Active; 'I' for Inactive)
ROOT
ATOM      1  C1  BNZ d   1       2.606   1.065   1.061  0.00  0.00     0.000 A 
ATOM      2  C2  BNZ d   1       2.827   1.018  -0.290  0.00  0.00     0.000 A 
ATOM      3  C3  BNZ d   1       3.836   0.254  -0.807  0.00  0.00     0.000 A 
ATOM      4  C4  BNZ d   1       4.646  -0.428   0.028  0.00  0.00     0.000 A 
ATOM      5  C5  BNZ d   1       4.442  -0.384   1.392  0.00  0.00     0.000 A 
ATOM      6  C6  BNZ d   1       3.401   0.355   1.907  0.00  0.00     0.000 A 
ENDROOT
TORSDOF 0
ENDMDL
