MODEL 1
REMARK minimizedAffinity 1.03111386
REMARK minimizedRMSD -1
REMARK  0 active torsions:
REMARK  status: ('A' for Active; 'I' for Inactive)
ROOT
ATOM      1  C1  BNZ d   1       4.347  -0.037  -0.010  0.00  0.00     0.000 A 
ATOM      2  C2  BNZ d   1       3.724   0.730  -0.959  0.00  0.00     0.000 A 
ATOM      3  C3  BNZ d   1       2.606   1.454  -0.650  0.00  0.00     0.000 A 
ATOM      4  C4  BNZ d   1       2.090   1.379   0.593  0.00  0.00     0.000 A 
ATOM      5  C5  BNZ d   1       2.701   0.603   1.558  0.00  0.00     0.000 A 
ATOM      6  C6  BNZ d   1       3.849  -0.093   1.255  0.00  0.00     0.000 A 
ENDROOT
TORSDOF 0
ENDMDL
