MODEL 1
REMARK minimizedAffinity -1.78491378
REMARK minimizedRMSD -1
REMARK  0 active torsions:
REMARK  status: ('A' for Active; 'I' for Inactive)
ROOT
ATOM      1  C1  BNZ d   1      -3.144   6.000  -2.987  0.00  0.00     0.000 A 
ATOM      2  C2  BNZ d   1      -4.513   6.000  -3.018  0.00  0.00     0.000 A 
ATOM      3  C3  BNZ d   1      -5.239   5.661  -1.910  0.00  0.00     0.000 A 
ATOM      4  C4  BNZ d   1      -4.595   5.285  -0.786  0.00  0.00     0.000 A 
ATOM      5  C5  BNZ d   1      -3.215   5.270  -0.742  0.00  0.00     0.000 A 
ATOM      6  C6  BNZ d   1      -2.489   5.649  -1.847  0.00  0.00     0.000 A 
ENDROOT
TORSDOF 0
ENDMDL
