MODEL 1
REMARK minimizedAffinity 4.8422575
REMARK minimizedRMSD -1
REMARK  0 active torsions:
REMARK  status: ('A' for Active; 'I' for Inactive)
ROOT
ATOM      1  C1  BNZ d   1      -2.021  -2.668  -4.375  0.00  0.00     0.000 A 
ATOM      2  C2  BNZ d   1      -2.770  -2.096  -3.381  0.00  0.00     0.000 A 
ATOM      3  C3  BNZ d   1      -2.894  -2.702  -2.162  0.00  0.00     0.000 A 
ATOM      4  C4  BNZ d   1      -2.304  -3.897  -1.952  0.00  0.00     0.000 A 
ATOM      5  C5  BNZ d   1      -1.554  -4.490  -2.947  0.00  0.00     0.000 A 
ATOM      6  C6  BNZ d   1      -1.399  -3.859  -4.160  0.00  0.00     0.000 A 
ENDROOT
TORSDOF 0
ENDMDL
