MODEL 1
REMARK minimizedAffinity 6.95026445
REMARK minimizedRMSD -1
REMARK  0 active torsions:
REMARK  status: ('A' for Active; 'I' for Inactive)
ROOT
ATOM      1  C1  BNZ d   1       2.834   6.000  -4.566  0.00  0.00     0.000 A 
ATOM      2  C2  BNZ d   1       3.379   5.999  -5.823  0.00  0.00     0.000 A 
ATOM      3  C3  BNZ d   1       4.734   5.973  -5.998  0.00  0.00     0.000 A 
ATOM      4  C4  BNZ d   1       5.543   5.989  -4.919  0.00  0.00     0.000 A 
ATOM      5  C5  BNZ d   1       5.009   5.999  -3.646  0.00  0.00     0.000 A 
ATOM      6  C6  BNZ d   1       3.644   5.986  -3.472  0.00  0.00     0.000 A 
ENDROOT
TORSDOF 0
ENDMDL
