MODEL 1
REMARK minimizedAffinity 1.41135657
REMARK minimizedRMSD -1
REMARK  0 active torsions:
REMARK  status: ('A' for Active; 'I' for Inactive)
ROOT
ATOM      1  C1  BNZ d   1       2.797   1.396  -0.563  0.00  0.00     0.000 A 
ATOM      2  C2  BNZ d   1       3.453   0.556  -1.422  0.00  0.00     0.000 A 
ATOM      3  C3  BNZ d   1       4.206  -0.481  -0.948  0.00  0.00     0.000 A 
ATOM      4  C4  BNZ d   1       4.335  -0.652   0.384  0.00  0.00     0.000 A 
ATOM      5  C5  BNZ d   1       3.687   0.192   1.263  0.00  0.00     0.000 A 
ATOM      6  C6  BNZ d   1       2.898   1.211   0.781  0.00  0.00     0.000 A 
ENDROOT
TORSDOF 0
ENDMDL
