MODEL 1
REMARK minimizedAffinity 0.485934287
REMARK minimizedRMSD -1
REMARK  0 active torsions:
REMARK  status: ('A' for Active; 'I' for Inactive)
ROOT
ATOM      1  C1  BNZ d   1      -3.771   1.614   3.927  0.00  0.00     0.000 A 
ATOM      2  C2  BNZ d   1      -3.106   2.782   3.663  0.00  0.00     0.000 A 
ATOM      3  C3  BNZ d   1      -1.929   2.776   2.968  0.00  0.00     0.000 A 
ATOM      4  C4  BNZ d   1      -1.398   1.600   2.574  0.00  0.00     0.000 A 
ATOM      5  C5  BNZ d   1      -2.051   0.414   2.840  0.00  0.00     0.000 A 
ATOM      6  C6  BNZ d   1      -3.256   0.427   3.506  0.00  0.00     0.000 A 
ENDROOT
TORSDOF 0
ENDMDL
