MODEL 1
REMARK minimizedAffinity 3.39903903
REMARK minimizedRMSD -1
REMARK  0 active torsions:
REMARK  status: ('A' for Active; 'I' for Inactive)
ROOT
ATOM      1  C1  BNZ d   1       0.268   2.895   1.570  0.00  0.00     0.000 A 
ATOM      2  C2  BNZ d   1       1.176   1.891   1.773  0.00  0.00     0.000 A 
ATOM      3  C3  BNZ d   1       0.763   0.632   2.111  0.00  0.00     0.000 A 
ATOM      4  C4  BNZ d   1      -0.552   0.390   2.286  0.00  0.00     0.000 A 
ATOM      5  C5  BNZ d   1      -1.479   1.395   2.094  0.00  0.00     0.000 A 
ATOM      6  C6  BNZ d   1      -1.063   2.651   1.715  0.00  0.00     0.000 A 
ENDROOT
TORSDOF 0
ENDMDL
