MODEL 1
REMARK minimizedAffinity 12.2718811
REMARK minimizedRMSD -1
REMARK  0 active torsions:
REMARK  status: ('A' for Active; 'I' for Inactive)
ROOT
ATOM      1  N1  IND d   1      -1.339  -4.297   1.002  0.00  0.00    -0.196 N 
ATOM      2  C2  IND d   1      -2.568  -3.703   1.087  0.00  0.00     0.054 A 
ATOM      3  C3  IND d   1      -2.517  -2.634   1.913  0.00  0.00    -0.031 A 
ATOM      4  C4  IND d   1      -0.502  -1.617   3.151  0.00  0.00     0.051 A 
ATOM      5  C5  IND d   1       0.823  -1.831   3.410  0.00  0.00    -0.031 A 
ATOM      6  C6  IND d   1       1.509  -2.898   2.867  0.00  0.00     0.015 A 
ATOM      7  C7  IND d   1       0.896  -3.788   2.031  0.00  0.00    -0.016 A 
ATOM      8  C8  IND d   1      -0.450  -3.578   1.771  0.00  0.00    -0.047 A 
ATOM      9  C9  IND d   1      -1.163  -2.522   2.353  0.00  0.00    -0.096 A 
ATOM     10  HN1 IND d   1      -1.153  -5.001   0.544  0.00  0.00     0.298 HD
ENDROOT
TORSDOF 0
ENDMDL
