MODEL 1
REMARK minimizedAffinity 10.9326553
REMARK minimizedRMSD -1
REMARK  0 active torsions:
REMARK  status: ('A' for Active; 'I' for Inactive)
ROOT
ATOM      1  N1  IND d   1      -6.000   1.222  -3.308  0.00  0.00    -0.196 N 
ATOM      2  C2  IND d   1      -5.783  -0.026  -3.824  0.00  0.00     0.054 A 
ATOM      3  C3  IND d   1      -5.397  -0.878  -2.848  0.00  0.00    -0.031 A 
ATOM      4  C4  IND d   1      -5.153  -0.465  -0.319  0.00  0.00     0.051 A 
ATOM      5  C5  IND d   1      -5.206   0.526   0.621  0.00  0.00    -0.031 A 
ATOM      6  C6  IND d   1      -5.537   1.825   0.293  0.00  0.00     0.015 A 
ATOM      7  C7  IND d   1      -5.838   2.180  -0.991  0.00  0.00    -0.016 A 
ATOM      8  C8  IND d   1      -5.777   1.179  -1.949  0.00  0.00    -0.047 A 
ATOM      9  C9  IND d   1      -5.402  -0.132  -1.630  0.00  0.00    -0.096 A 
ATOM     10  HN1 IND d   1      -6.235   1.916  -3.757  0.00  0.00     0.298 HD
ENDROOT
TORSDOF 0
ENDMDL
