MODEL 1
REMARK minimizedAffinity 7.06838512
REMARK minimizedRMSD -1
REMARK  0 active torsions:
REMARK  status: ('A' for Active; 'I' for Inactive)
ROOT
ATOM      1  N1  IND d   1       0.313  -0.861   4.398  0.00  0.00    -0.196 N 
ATOM      2  C2  IND d   1      -0.530   0.066   4.946  0.00  0.00     0.054 A 
ATOM      3  C3  IND d   1      -1.630   0.216   4.175  0.00  0.00    -0.031 A 
ATOM      4  C4  IND d   1      -2.302  -1.030   2.025  0.00  0.00     0.051 A 
ATOM      5  C5  IND d   1      -1.838  -1.941   1.118  0.00  0.00    -0.031 A 
ATOM      6  C6  IND d   1      -0.610  -2.553   1.262  0.00  0.00     0.015 A 
ATOM      7  C7  IND d   1       0.199  -2.284   2.330  0.00  0.00    -0.016 A 
ATOM      8  C8  IND d   1      -0.266  -1.354   3.249  0.00  0.00    -0.047 A 
ATOM      9  C9  IND d   1      -1.493  -0.698   3.086  0.00  0.00    -0.096 A 
ATOM     10  HN1 IND d   1       1.076  -1.096   4.717  0.00  0.00     0.298 HD
ENDROOT
TORSDOF 0
ENDMDL
