MODEL 1
REMARK minimizedAffinity 18.7552509
REMARK minimizedRMSD -1
REMARK  0 active torsions:
REMARK  status: ('A' for Active; 'I' for Inactive)
ROOT
ATOM      1  N1  IND d   1       5.991   4.517  -2.388  0.00  0.00    -0.196 N 
ATOM      2  C2  IND d   1       5.049   4.503  -3.378  0.00  0.00     0.054 A 
ATOM      3  C3  IND d   1       3.911   3.923  -2.936  0.00  0.00    -0.031 A 
ATOM      4  C4  IND d   1       3.339   3.018  -0.595  0.00  0.00     0.051 A 
ATOM      5  C5  IND d   1       3.891   2.779   0.632  0.00  0.00    -0.031 A 
ATOM      6  C6  IND d   1       5.197   3.117   0.922  0.00  0.00     0.015 A 
ATOM      7  C7  IND d   1       6.000   3.719  -0.005  0.00  0.00    -0.016 A 
ATOM      8  C8  IND d   1       5.444   3.957  -1.255  0.00  0.00    -0.047 A 
ATOM      9  C9  IND d   1       4.133   3.577  -1.568  0.00  0.00    -0.096 A 
ATOM     10  HN1 IND d   1       6.791   4.825  -2.461  0.00  0.00     0.298 HD
ENDROOT
TORSDOF 0
ENDMDL
