MODEL 1
REMARK minimizedAffinity 12.6447277
REMARK minimizedRMSD -1
REMARK  0 active torsions:
REMARK  status: ('A' for Active; 'I' for Inactive)
ROOT
ATOM      1  N1  IND d   1       5.230   5.570  -3.226  0.00  0.00    -0.196 N 
ATOM      2  C2  IND d   1       5.405   4.465  -4.013  0.00  0.00     0.054 A 
ATOM      3  C3  IND d   1       5.755   3.400  -3.257  0.00  0.00    -0.031 A 
ATOM      4  C4  IND d   1       6.000   3.217  -0.701  0.00  0.00     0.051 A 
ATOM      5  C5  IND d   1       5.976   3.969   0.440  0.00  0.00    -0.031 A 
ATOM      6  C6  IND d   1       5.695   5.320   0.417  0.00  0.00     0.015 A 
ATOM      7  C7  IND d   1       5.414   5.970  -0.752  0.00  0.00    -0.016 A 
ATOM      8  C8  IND d   1       5.443   5.210  -1.913  0.00  0.00    -0.047 A 
ATOM      9  C9  IND d   1       5.770   3.848  -1.901  0.00  0.00    -0.096 A 
ATOM     10  HN1 IND d   1       5.023   6.356  -3.504  0.00  0.00     0.298 HD
ENDROOT
TORSDOF 0
ENDMDL
