MODEL 1
REMARK minimizedAffinity 8.92031193
REMARK minimizedRMSD -1
REMARK  0 active torsions:
REMARK  status: ('A' for Active; 'I' for Inactive)
ROOT
ATOM      1  N1  IND d   1       4.404   4.794   0.442  0.00  0.00    -0.196 N 
ATOM      2  C2  IND d   1       5.606   5.037   1.047  0.00  0.00     0.054 A 
ATOM      3  C3  IND d   1       5.999   3.959   1.762  0.00  0.00    -0.031 A 
ATOM      4  C4  IND d   1       4.878   1.654   1.996  0.00  0.00     0.051 A 
ATOM      5  C5  IND d   1       3.745   0.968   1.658  0.00  0.00    -0.031 A 
ATOM      6  C6  IND d   1       2.756   1.532   0.879  0.00  0.00     0.015 A 
ATOM      7  C7  IND d   1       2.868   2.806   0.398  0.00  0.00    -0.016 A 
ATOM      8  C8  IND d   1       4.013   3.508   0.745  0.00  0.00    -0.047 A 
ATOM      9  C9  IND d   1       5.001   2.956   1.571  0.00  0.00    -0.096 A 
ATOM     10  HN1 IND d   1       3.966   5.350  -0.046  0.00  0.00     0.298 HD
ENDROOT
TORSDOF 0
ENDMDL
