MODEL 1
REMARK minimizedAffinity 15.6077185
REMARK minimizedRMSD -1
REMARK  0 active torsions:
REMARK  status: ('A' for Active; 'I' for Inactive)
ROOT
ATOM      1  N1  IND d   1      -0.716   0.375   5.189  0.00  0.00    -0.196 N 
ATOM      2  C2  IND d   1      -1.875   0.781   4.588  0.00  0.00     0.054 A 
ATOM      3  C3  IND d   1      -2.005   0.199   3.375  0.00  0.00    -0.031 A 
ATOM      4  C4  IND d   1      -0.489  -1.531   2.219  0.00  0.00     0.051 A 
ATOM      5  C5  IND d   1       0.704  -2.182   2.360  0.00  0.00    -0.031 A 
ATOM      6  C6  IND d   1       1.500  -2.013   3.475  0.00  0.00     0.015 A 
ATOM      7  C7  IND d   1       1.125  -1.191   4.500  0.00  0.00    -0.016 A 
ATOM      8  C8  IND d   1      -0.083  -0.523   4.357  0.00  0.00    -0.047 A 
ATOM      9  C9  IND d   1      -0.874  -0.658   3.209  0.00  0.00    -0.096 A 
ATOM     10  HN1 IND d   1      -0.430   0.636   5.956  0.00  0.00     0.298 HD
ENDROOT
TORSDOF 0
ENDMDL
