MODEL 1
REMARK minimizedAffinity 26.2479992
REMARK minimizedRMSD -1
REMARK  0 active torsions:
REMARK  status: ('A' for Active; 'I' for Inactive)
ROOT
ATOM      1  N1  IND d   1       2.921  -4.672   0.146  0.00  0.00    -0.196 N 
ATOM      2  C2  IND d   1       3.911  -4.193  -0.666  0.00  0.00     0.054 A 
ATOM      3  C3  IND d   1       4.101  -2.873  -0.447  0.00  0.00    -0.031 A 
ATOM      4  C4  IND d   1       2.971  -1.320   1.268  0.00  0.00     0.051 A 
ATOM      5  C5  IND d   1       1.977  -1.294   2.206  0.00  0.00    -0.031 A 
ATOM      6  C6  IND d   1       1.234  -2.415   2.514  0.00  0.00     0.015 A 
ATOM      7  C7  IND d   1       1.466  -3.613   1.900  0.00  0.00    -0.016 A 
ATOM      8  C8  IND d   1       2.469  -3.643   0.941  0.00  0.00    -0.047 A 
ATOM      9  C9  IND d   1       3.198  -2.497   0.595  0.00  0.00    -0.096 A 
ATOM     10  HN1 IND d   1       2.629  -5.481   0.157  0.00  0.00     0.298 HD
ENDROOT
TORSDOF 0
ENDMDL
