MODEL 1
REMARK minimizedAffinity 16.3731117
REMARK minimizedRMSD -1
REMARK  0 active torsions:
REMARK  status: ('A' for Active; 'I' for Inactive)
ROOT
ATOM      1  N1  IND d   1      -5.195   4.671   5.992  0.00  0.00    -0.196 N 
ATOM      2  C2  IND d   1      -5.659   5.574   5.078  0.00  0.00     0.054 A 
ATOM      3  C3  IND d   1      -5.961   4.954   3.915  0.00  0.00    -0.031 A 
ATOM      4  C4  IND d   1      -5.867   2.450   3.325  0.00  0.00     0.051 A 
ATOM      5  C5  IND d   1      -5.473   1.240   3.824  0.00  0.00    -0.031 A 
ATOM      6  C6  IND d   1      -4.958   1.109   5.097  0.00  0.00     0.015 A 
ATOM      7  C7  IND d   1      -4.828   2.186   5.928  0.00  0.00    -0.016 A 
ATOM      8  C8  IND d   1      -5.221   3.417   5.422  0.00  0.00    -0.047 A 
ATOM      9  C9  IND d   1      -5.704   3.563   4.115  0.00  0.00    -0.096 A 
ATOM     10  HN1 IND d   1      -4.931   4.855   6.790  0.00  0.00     0.298 HD
ENDROOT
TORSDOF 0
ENDMDL
