MODEL 1
REMARK minimizedAffinity 20.3474464
REMARK minimizedRMSD -1
REMARK  0 active torsions:
REMARK  status: ('A' for Active; 'I' for Inactive)
ROOT
ATOM      1  N1  IND d   1       4.675   4.062  -2.553  0.00  0.00    -0.196 N 
ATOM      2  C2  IND d   1       5.338   5.076  -1.919  0.00  0.00     0.054 A 
ATOM      3  C3  IND d   1       4.461   6.000  -1.465  0.00  0.00    -0.031 A 
ATOM      4  C4  IND d   1       1.888   6.000  -1.563  0.00  0.00     0.051 A 
ATOM      5  C5  IND d   1       0.830   5.303  -2.075  0.00  0.00    -0.031 A 
ATOM      6  C6  IND d   1       1.003   4.132  -2.784  0.00  0.00     0.015 A 
ATOM      7  C7  IND d   1       2.245   3.606  -2.999  0.00  0.00    -0.016 A 
ATOM      8  C8  IND d   1       3.322   4.314  -2.487  0.00  0.00    -0.047 A 
ATOM      9  C9  IND d   1       3.156   5.525  -1.803  0.00  0.00    -0.096 A 
ATOM     10  HN1 IND d   1       5.042   3.382  -2.929  0.00  0.00     0.298 HD
ENDROOT
TORSDOF 0
ENDMDL
