MODEL 1
REMARK minimizedAffinity 15.1810188
REMARK minimizedRMSD -1
REMARK  0 active torsions:
REMARK  status: ('A' for Active; 'I' for Inactive)
ROOT
ATOM      1  N1  IND d   1      -1.716   0.395   4.535  0.00  0.00    -0.196 N 
ATOM      2  C2  IND d   1      -2.849   0.961   5.048  0.00  0.00     0.054 A 
ATOM      3  C3  IND d   1      -3.846   0.929   4.135  0.00  0.00    -0.031 A 
ATOM      4  C4  IND d   1      -3.866  -0.094   1.773  0.00  0.00     0.051 A 
ATOM      5  C5  IND d   1      -3.053  -0.690   0.850  0.00  0.00    -0.031 A 
ATOM      6  C6  IND d   1      -1.727  -0.963   1.115  0.00  0.00     0.015 A 
ATOM      7  C7  IND d   1      -1.164  -0.659   2.322  0.00  0.00    -0.016 A 
ATOM      8  C8  IND d   1      -1.985  -0.047   3.259  0.00  0.00    -0.047 A 
ATOM      9  C9  IND d   1      -3.321   0.271   2.981  0.00  0.00    -0.096 A 
ATOM     10  HN1 IND d   1      -0.961   0.327   4.942  0.00  0.00     0.298 HD
ENDROOT
TORSDOF 0
ENDMDL
