MODEL 1
REMARK minimizedAffinity 8.10830116
REMARK minimizedRMSD -1
REMARK  0 active torsions:
REMARK  status: ('A' for Active; 'I' for Inactive)
ROOT
ATOM      1  N1  IND d   1       1.973   2.945   0.312  0.00  0.00    -0.196 N 
ATOM      2  C2  IND d   1       2.669   1.774   0.423  0.00  0.00     0.054 A 
ATOM      3  C3  IND d   1       3.023   1.320  -0.800  0.00  0.00    -0.031 A 
ATOM      4  C4  IND d   1       2.652   2.390  -3.112  0.00  0.00     0.051 A 
ATOM      5  C5  IND d   1       2.034   3.443  -3.725  0.00  0.00    -0.031 A 
ATOM      6  C6  IND d   1       1.352   4.406  -3.009  0.00  0.00     0.015 A 
ATOM      7  C7  IND d   1       1.273   4.356  -1.646  0.00  0.00    -0.016 A 
ATOM      8  C8  IND d   1       1.893   3.284  -1.021  0.00  0.00    -0.047 A 
ATOM      9  C9  IND d   1       2.550   2.281  -1.745  0.00  0.00    -0.096 A 
ATOM     10  HN1 IND d   1       1.640   3.395   0.965  0.00  0.00     0.298 HD
ENDROOT
TORSDOF 0
ENDMDL
