MODEL 1
REMARK minimizedAffinity 16.8570957
REMARK minimizedRMSD -1
REMARK  0 active torsions:
REMARK  status: ('A' for Active; 'I' for Inactive)
ROOT
ATOM      1  N1  IND d   1      -4.768  -4.302   0.756  0.00  0.00    -0.196 N 
ATOM      2  C2  IND d   1      -3.916  -4.978   1.584  0.00  0.00     0.054 A 
ATOM      3  C3  IND d   1      -2.826  -4.225   1.854  0.00  0.00    -0.031 A 
ATOM      4  C4  IND d   1      -2.280  -1.817   1.125  0.00  0.00     0.051 A 
ATOM      5  C5  IND d   1      -2.738  -0.801   0.333  0.00  0.00    -0.031 A 
ATOM      6  C6  IND d   1      -3.921  -0.901  -0.370  0.00  0.00     0.015 A 
ATOM      7  C7  IND d   1      -4.699  -2.022  -0.299  0.00  0.00    -0.016 A 
ATOM      8  C8  IND d   1      -4.234  -3.058   0.499  0.00  0.00    -0.047 A 
ATOM      9  C9  IND d   1      -3.013  -2.978   1.181  0.00  0.00    -0.096 A 
ATOM     10  HN1 IND d   1      -5.511  -4.603   0.447  0.00  0.00     0.298 HD
ENDROOT
TORSDOF 0
ENDMDL
