MODEL 1
REMARK minimizedAffinity 8.42815876
REMARK minimizedRMSD -1
REMARK  0 active torsions:
REMARK  status: ('A' for Active; 'I' for Inactive)
ROOT
ATOM      1  N1  IND d   1       4.427   3.684   2.128  0.00  0.00    -0.196 N 
ATOM      2  C2  IND d   1       5.653   3.932   1.576  0.00  0.00     0.054 A 
ATOM      3  C3  IND d   1       5.823   3.192   0.458  0.00  0.00    -0.031 A 
ATOM      4  C4  IND d   1       4.183   1.584  -0.706  0.00  0.00     0.051 A 
ATOM      5  C5  IND d   1       2.954   1.005  -0.556  0.00  0.00    -0.031 A 
ATOM      6  C6  IND d   1       2.136   1.297   0.516  0.00  0.00     0.015 A 
ATOM      7  C7  IND d   1       2.513   2.192   1.477  0.00  0.00    -0.016 A 
ATOM      8  C8  IND d   1       3.763   2.777   1.332  0.00  0.00    -0.047 A 
ATOM      9  C9  IND d   1       4.616   2.452   0.269  0.00  0.00    -0.096 A 
ATOM     10  HN1 IND d   1       4.122   4.035   2.851  0.00  0.00     0.298 HD
ENDROOT
TORSDOF 0
ENDMDL
