MODEL 1
REMARK minimizedAffinity 12.7409258
REMARK minimizedRMSD -1
REMARK  0 active torsions:
REMARK  status: ('A' for Active; 'I' for Inactive)
ROOT
ATOM      1  N1  IND d   1       3.020   3.376  -4.439  0.00  0.00    -0.196 N 
ATOM      2  C2  IND d   1       4.346   3.111  -4.239  0.00  0.00     0.054 A 
ATOM      3  C3  IND d   1       4.514   2.366  -3.123  0.00  0.00    -0.031 A 
ATOM      4  C4  IND d   1       2.746   1.385  -1.530  0.00  0.00     0.051 A 
ATOM      5  C5  IND d   1       1.402   1.386  -1.281  0.00  0.00    -0.031 A 
ATOM      6  C6  IND d   1       0.511   2.061  -2.089  0.00  0.00     0.015 A 
ATOM      7  C7  IND d   1       0.931   2.755  -3.188  0.00  0.00    -0.016 A 
ATOM      8  C8  IND d   1       2.295   2.763  -3.441  0.00  0.00    -0.047 A 
ATOM      9  C9  IND d   1       3.209   2.114  -2.600  0.00  0.00    -0.096 A 
ATOM     10  HN1 IND d   1       2.694   3.847  -5.080  0.00  0.00     0.298 HD
ENDROOT
TORSDOF 0
ENDMDL
