MODEL 1
REMARK minimizedAffinity 14.4469528
REMARK minimizedRMSD -1
REMARK  0 active torsions:
REMARK  status: ('A' for Active; 'I' for Inactive)
ROOT
ATOM      1  N1  IND d   1       2.602   2.329  -3.464  0.00  0.00    -0.196 N 
ATOM      2  C2  IND d   1       2.081   2.630  -2.237  0.00  0.00     0.054 A 
ATOM      3  C3  IND d   1       2.880   3.508  -1.590  0.00  0.00    -0.031 A 
ATOM      4  C4  IND d   1       5.036   4.660  -2.398  0.00  0.00     0.051 A 
ATOM      5  C5  IND d   1       5.925   4.676  -3.437  0.00  0.00    -0.031 A 
ATOM      6  C6  IND d   1       5.746   3.897  -4.561  0.00  0.00     0.015 A 
ATOM      7  C7  IND d   1       4.661   3.077  -4.695  0.00  0.00    -0.016 A 
ATOM      8  C8  IND d   1       3.760   3.053  -3.639  0.00  0.00    -0.047 A 
ATOM      9  C9  IND d   1       3.959   3.809  -2.477  0.00  0.00    -0.096 A 
ATOM     10  HN1 IND d   1       2.262   1.779  -4.032  0.00  0.00     0.298 HD
ENDROOT
TORSDOF 0
ENDMDL
