MODEL 1
REMARK minimizedAffinity -5.46231174
REMARK minimizedRMSD -1
REMARK  0 active torsions:
REMARK  status: ('A' for Active; 'I' for Inactive)
ROOT
ATOM      1  C1  DEN d   1      -0.835  -0.165  -0.355  0.00  0.00     0.130 A 
ATOM      2  C2  DEN d   1       0.289  -0.908  -0.918  0.00  0.00    -0.031 A 
ATOM      3  C3  DEN d   1       1.301  -1.079   0.144  0.00  0.00     0.027 A 
ATOM      4  C4  DEN d   1       1.235  -0.274   2.593  0.00  0.00     0.027 A 
ATOM      5  C5  DEN d   1       0.492   0.410   3.530  0.00  0.00    -0.003 A 
ATOM      6  C6  DEN d   1      -0.719   0.974   3.231  0.00  0.00     0.001 A 
ATOM      7  C7  DEN d   1      -1.246   0.827   1.975  0.00  0.00     0.017 A 
ATOM      8  C8  DEN d   1      -0.500   0.145   1.023  0.00  0.00    -0.094 A 
ATOM      9  C9  DEN d   1       0.718  -0.429   1.348  0.00  0.00    -0.072 A 
ENDROOT
TORSDOF 0
ENDMDL
