MODEL 1
REMARK minimizedAffinity -4.65877628
REMARK minimizedRMSD -1
REMARK  0 active torsions:
REMARK  status: ('A' for Active; 'I' for Inactive)
ROOT
ATOM      1  C1  DEN d   1      -0.912  -0.301  -0.808  0.00  0.00     0.130 A 
ATOM      2  C2  DEN d   1       0.313  -0.864  -1.370  0.00  0.00    -0.031 A 
ATOM      3  C3  DEN d   1       1.385  -0.719  -0.365  0.00  0.00     0.027 A 
ATOM      4  C4  DEN d   1       1.267   0.313   1.996  0.00  0.00     0.027 A 
ATOM      5  C5  DEN d   1       0.444   0.932   2.911  0.00  0.00    -0.003 A 
ATOM      6  C6  DEN d   1      -0.869   1.212   2.639  0.00  0.00     0.001 A 
ATOM      7  C7  DEN d   1      -1.410   0.831   1.440  0.00  0.00     0.017 A 
ATOM      8  C8  DEN d   1      -0.585   0.213   0.510  0.00  0.00    -0.094 A 
ATOM      9  C9  DEN d   1       0.737  -0.072   0.808  0.00  0.00    -0.072 A 
ENDROOT
TORSDOF 0
ENDMDL
