MODEL 1
REMARK minimizedAffinity -2.1063838
REMARK minimizedRMSD -1
REMARK  0 active torsions:
REMARK  status: ('A' for Active; 'I' for Inactive)
ROOT
ATOM      1  C1  DEN d   1       0.930   0.188  -0.022  0.00  0.00     0.130 A 
ATOM      2  C2  DEN d   1      -0.438  -0.086   0.409  0.00  0.00    -0.031 A 
ATOM      3  C3  DEN d   1      -1.229  -0.449  -0.784  0.00  0.00     0.027 A 
ATOM      4  C4  DEN d   1      -0.471  -0.618  -3.243  0.00  0.00     0.027 A 
ATOM      5  C5  DEN d   1       0.596  -0.468  -4.102  0.00  0.00    -0.003 A 
ATOM      6  C6  DEN d   1       1.829  -0.059  -3.670  0.00  0.00     0.001 A 
ATOM      7  C7  DEN d   1       2.039   0.171  -2.336  0.00  0.00     0.017 A 
ATOM      8  C8  DEN d   1       0.967   0.028  -1.465  0.00  0.00    -0.094 A 
ATOM      9  C9  DEN d   1      -0.269  -0.398  -1.919  0.00  0.00    -0.072 A 
ENDROOT
TORSDOF 0
ENDMDL
