MODEL 1
REMARK minimizedAffinity -5.2361455
REMARK minimizedRMSD -1
REMARK  0 active torsions:
REMARK  status: ('A' for Active; 'I' for Inactive)
ROOT
ATOM      1  C1  DEN d   1       1.578  -1.201   0.037  0.00  0.00     0.130 A 
ATOM      2  C2  DEN d   1       0.988  -1.102  -1.295  0.00  0.00    -0.031 A 
ATOM      3  C3  DEN d   1      -0.247  -0.300  -1.189  0.00  0.00     0.027 A 
ATOM      4  C4  DEN d   1      -1.294   0.798   0.897  0.00  0.00     0.027 A 
ATOM      5  C5  DEN d   1      -1.161   0.981   2.255  0.00  0.00    -0.003 A 
ATOM      6  C6  DEN d   1      -0.133   0.426   2.970  0.00  0.00     0.001 A 
ATOM      7  C7  DEN d   1       0.829  -0.302   2.320  0.00  0.00     0.017 A 
ATOM      8  C8  DEN d   1       0.697  -0.497   0.952  0.00  0.00    -0.094 A 
ATOM      9  C9  DEN d   1      -0.343   0.082   0.246  0.00  0.00    -0.072 A 
ENDROOT
TORSDOF 0
ENDMDL
