MODEL 1
REMARK minimizedAffinity -6.26711655
REMARK minimizedRMSD -1
REMARK  0 active torsions:
REMARK  status: ('A' for Active; 'I' for Inactive)
ROOT
ATOM      1  C1  DEN d   1       0.642  -0.447   0.156  0.00  0.00     0.130 A 
ATOM      2  C2  DEN d   1      -0.637  -0.058  -0.433  0.00  0.00    -0.031 A 
ATOM      3  C3  DEN d   1      -1.407   0.676   0.592  0.00  0.00     0.027 A 
ATOM      4  C4  DEN d   1      -0.744   1.248   3.018  0.00  0.00     0.027 A 
ATOM      5  C5  DEN d   1       0.240   1.118   3.974  0.00  0.00    -0.003 A 
ATOM      6  C6  DEN d   1       1.402   0.434   3.737  0.00  0.00     0.001 A 
ATOM      7  C7  DEN d   1       1.630  -0.109   2.499  0.00  0.00     0.017 A 
ATOM      8  C8  DEN d   1       0.640   0.012   1.533  0.00  0.00    -0.094 A 
ATOM      9  C9  DEN d   1      -0.523   0.718   1.789  0.00  0.00    -0.072 A 
ENDROOT
TORSDOF 0
ENDMDL
