MODEL 1
REMARK minimizedAffinity -0.209672228
REMARK minimizedRMSD -1
REMARK  0 active torsions:
REMARK  status: ('A' for Active; 'I' for Inactive)
ROOT
ATOM      1  C1  DEN d   1       0.411   0.730  -0.292  0.00  0.00     0.130 A 
ATOM      2  C2  DEN d   1      -0.203  -0.415  -0.960  0.00  0.00    -0.031 A 
ATOM      3  C3  DEN d   1      -1.124  -1.061  -0.003  0.00  0.00     0.027 A 
ATOM      4  C4  DEN d   1      -1.661  -0.400   2.431  0.00  0.00     0.027 A 
ATOM      5  C5  DEN d   1      -1.377   0.494   3.440  0.00  0.00    -0.003 A 
ATOM      6  C6  DEN d   1      -0.460   1.500   3.289  0.00  0.00     0.001 A 
ATOM      7  C7  DEN d   1       0.174   1.664   2.085  0.00  0.00     0.017 A 
ATOM      8  C8  DEN d   1      -0.102   0.763   1.066  0.00  0.00    -0.094 A 
ATOM      9  C9  DEN d   1      -1.041  -0.240   1.235  0.00  0.00    -0.072 A 
ENDROOT
TORSDOF 0
ENDMDL
