MODEL 1
REMARK minimizedAffinity -3.84225178
REMARK minimizedRMSD -1
REMARK  0 active torsions:
REMARK  status: ('A' for Active; 'I' for Inactive)
ROOT
ATOM      1  C1  DEN d   1      -0.762  -0.731  -2.035  0.00  0.00     0.130 A 
ATOM      2  C2  DEN d   1       0.344  -0.604  -1.090  0.00  0.00    -0.031 A 
ATOM      3  C3  DEN d   1       1.440   0.120  -1.765  0.00  0.00     0.027 A 
ATOM      4  C4  DEN d   1       1.529   1.056  -4.166  0.00  0.00     0.027 A 
ATOM      5  C5  DEN d   1       0.834   1.183  -5.349  0.00  0.00    -0.003 A 
ATOM      6  C6  DEN d   1      -0.419   0.655  -5.519  0.00  0.00     0.001 A 
ATOM      7  C7  DEN d   1      -1.033   0.015  -4.475  0.00  0.00     0.017 A 
ATOM      8  C8  DEN d   1      -0.335  -0.123  -3.283  0.00  0.00    -0.094 A 
ATOM      9  C9  DEN d   1       0.925   0.428  -3.126  0.00  0.00    -0.072 A 
ENDROOT
TORSDOF 0
ENDMDL
