MODEL 1
REMARK minimizedAffinity -4.45994806
REMARK minimizedRMSD -1
REMARK  0 active torsions:
REMARK  status: ('A' for Active; 'I' for Inactive)
ROOT
ATOM      1  C1  DEN d   1      -0.894  -0.621  -0.950  0.00  0.00     0.130 A 
ATOM      2  C2  DEN d   1       0.449  -1.096  -1.272  0.00  0.00    -0.031 A 
ATOM      3  C3  DEN d   1       1.348  -0.709  -0.165  0.00  0.00     0.027 A 
ATOM      4  C4  DEN d   1       0.792   0.568   2.005  0.00  0.00     0.027 A 
ATOM      5  C5  DEN d   1      -0.212   1.187   2.718  0.00  0.00    -0.003 A 
ATOM      6  C6  DEN d   1      -1.494   1.276   2.246  0.00  0.00     0.001 A 
ATOM      7  C7  DEN d   1      -1.818   0.698   1.047  0.00  0.00     0.017 A 
ATOM      8  C8  DEN d   1      -0.811   0.078   0.320  0.00  0.00    -0.094 A 
ATOM      9  C9  DEN d   1       0.477  -0.012   0.820  0.00  0.00    -0.072 A 
ENDROOT
TORSDOF 0
ENDMDL
