MODEL 1
REMARK minimizedAffinity 7.31067753
REMARK minimizedRMSD -1
REMARK  0 active torsions:
REMARK  status: ('A' for Active; 'I' for Inactive)
ROOT
ATOM      1  C   UNL d   1      -2.251  -6.000  -5.426  0.00  0.00     0.077 C 
ATOM      2  C1  UNL d   1      -0.962  -5.992  -4.660  0.00  0.00    -0.074 A 
ATOM      3  C2  UNL d   1      -0.957  -5.998  -3.261  0.00  0.00    -0.005 A 
ATOM      4  C3  UNL d   1       0.250  -6.000  -2.562  0.00  0.00     0.006 A 
ATOM      5  C4  UNL d   1       1.462  -5.997  -3.254  0.00  0.00    -0.005 A 
ATOM      6  C5  UNL d   1       1.477  -5.992  -4.652  0.00  0.00    -0.074 A 
ATOM      7  C6  UNL d   1       2.771  -5.999  -5.410  0.00  0.00     0.077 C 
ATOM      8  C7  UNL d   1       0.260  -5.997  -5.347  0.00  0.00    -0.001 A 
ENDROOT
TORSDOF 0
ENDMDL
