MODEL 1
REMARK minimizedAffinity 3.40655422
REMARK minimizedRMSD -1
REMARK  0 active torsions:
REMARK  status: ('A' for Active; 'I' for Inactive)
ROOT
ATOM      1  C   UNL d   1       2.966  -4.871  -4.531  0.00  0.00     0.077 C 
ATOM      2  C1  UNL d   1       1.523  -5.259  -4.657  0.00  0.00    -0.074 A 
ATOM      3  C2  UNL d   1       0.984  -5.630  -5.893  0.00  0.00    -0.005 A 
ATOM      4  C3  UNL d   1      -0.358  -5.998  -5.993  0.00  0.00     0.006 A 
ATOM      5  C4  UNL d   1      -1.172  -6.000  -4.860  0.00  0.00    -0.005 A 
ATOM      6  C5  UNL d   1      -0.650  -5.633  -3.616  0.00  0.00    -0.074 A 
ATOM      7  C6  UNL d   1      -1.509  -5.638  -2.386  0.00  0.00     0.077 C 
ATOM      8  C7  UNL d   1       0.701  -5.271  -3.522  0.00  0.00    -0.001 A 
ENDROOT
TORSDOF 0
ENDMDL
