MODEL 1
REMARK minimizedAffinity 5.04097652
REMARK minimizedRMSD -1
REMARK  0 active torsions:
REMARK  status: ('A' for Active; 'I' for Inactive)
ROOT
ATOM      1  C   UNL d   1       1.490  -5.998  -6.000  0.00  0.00     0.077 C 
ATOM      2  C1  UNL d   1       0.435  -5.945  -4.935  0.00  0.00    -0.074 A 
ATOM      3  C2  UNL d   1      -0.923  -5.999  -5.265  0.00  0.00    -0.005 A 
ATOM      4  C3  UNL d   1      -1.892  -5.958  -4.263  0.00  0.00     0.006 A 
ATOM      5  C4  UNL d   1      -1.515  -5.862  -2.923  0.00  0.00    -0.005 A 
ATOM      6  C5  UNL d   1      -0.162  -5.808  -2.574  0.00  0.00    -0.074 A 
ATOM      7  C6  UNL d   1       0.262  -5.714  -1.138  0.00  0.00     0.077 C 
ATOM      8  C7  UNL d   1       0.807  -5.856  -3.586  0.00  0.00    -0.001 A 
ENDROOT
TORSDOF 0
ENDMDL
