MODEL 1
REMARK minimizedAffinity 2.87278843
REMARK minimizedRMSD -1
REMARK  0 active torsions:
REMARK  status: ('A' for Active; 'I' for Inactive)
ROOT
ATOM      1  C   UNL d   1      -2.961  -6.000  -1.835  0.00  0.00     0.077 C 
ATOM      2  C1  UNL d   1      -1.867  -5.730  -2.825  0.00  0.00    -0.074 A 
ATOM      3  C2  UNL d   1      -2.155  -5.219  -4.094  0.00  0.00    -0.005 A 
ATOM      4  C3  UNL d   1      -1.126  -4.964  -5.000  0.00  0.00     0.006 A 
ATOM      5  C4  UNL d   1       0.200  -5.219  -4.647  0.00  0.00    -0.005 A 
ATOM      6  C5  UNL d   1       0.508  -5.729  -3.382  0.00  0.00    -0.074 A 
ATOM      7  C6  UNL d   1       1.928  -5.999  -2.983  0.00  0.00     0.077 C 
ATOM      8  C7  UNL d   1      -0.532  -5.976  -2.475  0.00  0.00    -0.001 A 
ENDROOT
TORSDOF 0
ENDMDL
