MODEL 1
REMARK minimizedAffinity 0.632194936
REMARK minimizedRMSD -1
REMARK  0 active torsions:
REMARK  status: ('A' for Active; 'I' for Inactive)
ROOT
ATOM      1  C   UNL d   1      -4.482  -5.967  -3.502  0.00  0.00     0.077 C 
ATOM      2  C1  UNL d   1      -2.982  -5.966  -3.465  0.00  0.00    -0.074 A 
ATOM      3  C2  UNL d   1      -2.293  -5.992  -2.248  0.00  0.00    -0.005 A 
ATOM      4  C3  UNL d   1      -0.898  -6.000  -2.230  0.00  0.00     0.006 A 
ATOM      5  C4  UNL d   1      -0.180  -5.982  -3.426  0.00  0.00    -0.005 A 
ATOM      6  C5  UNL d   1      -0.852  -5.956  -4.653  0.00  0.00    -0.074 A 
ATOM      7  C6  UNL d   1      -0.095  -5.947  -5.948  0.00  0.00     0.077 C 
ATOM      8  C7  UNL d   1      -2.253  -5.956  -4.663  0.00  0.00    -0.001 A 
ENDROOT
TORSDOF 0
ENDMDL
