MODEL 1
REMARK minimizedAffinity -1.77023232
REMARK minimizedRMSD -1
REMARK  0 active torsions:
REMARK  status: ('A' for Active; 'I' for Inactive)
ROOT
ATOM      1  C   UNL d   1       2.136  -6.000  -3.081  0.00  0.00     0.077 C 
ATOM      2  C1  UNL d   1       0.813  -5.992  -3.786  0.00  0.00    -0.074 A 
ATOM      3  C2  UNL d   1       0.743  -5.996  -5.183  0.00  0.00    -0.005 A 
ATOM      4  C3  UNL d   1      -0.495  -5.997  -5.826  0.00  0.00     0.006 A 
ATOM      5  C4  UNL d   1      -1.674  -5.995  -5.079  0.00  0.00    -0.005 A 
ATOM      6  C5  UNL d   1      -1.624  -5.992  -3.682  0.00  0.00    -0.074 A 
ATOM      7  C6  UNL d   1      -2.881  -6.000  -2.864  0.00  0.00     0.077 C 
ATOM      8  C7  UNL d   1      -0.376  -5.997  -3.043  0.00  0.00    -0.001 A 
ENDROOT
TORSDOF 0
ENDMDL
