MODEL 1
REMARK minimizedAffinity 5.70113373
REMARK minimizedRMSD -1
REMARK  0 active torsions:
REMARK  status: ('A' for Active; 'I' for Inactive)
ROOT
ATOM      1  C   UNL d   1       0.349   0.404  -2.144  0.00  0.00     0.077 C 
ATOM      2  C1  UNL d   1       0.766  -0.294  -0.884  0.00  0.00    -0.074 A 
ATOM      3  C2  UNL d   1       0.054  -1.399  -0.405  0.00  0.00    -0.005 A 
ATOM      4  C3  UNL d   1       0.460  -2.043   0.763  0.00  0.00     0.006 A 
ATOM      5  C4  UNL d   1       1.578  -1.590   1.464  0.00  0.00    -0.005 A 
ATOM      6  C5  UNL d   1       2.302  -0.488   1.000  0.00  0.00    -0.074 A 
ATOM      7  C6  UNL d   1       3.512   0.006   1.736  0.00  0.00     0.077 C 
ATOM      8  C7  UNL d   1       1.893   0.151  -0.179  0.00  0.00    -0.001 A 
ENDROOT
TORSDOF 0
ENDMDL
