MODEL 1
REMARK minimizedAffinity -2.85028243
REMARK minimizedRMSD -1
REMARK  0 active torsions:
REMARK  status: ('A' for Active; 'I' for Inactive)
ROOT
ATOM      1  C   UNL d   1       0.048  -5.982  -5.697  0.00  0.00     0.077 C 
ATOM      2  C1  UNL d   1      -0.690  -5.995  -4.392  0.00  0.00    -0.074 A 
ATOM      3  C2  UNL d   1       0.000  -5.997  -3.176  0.00  0.00    -0.005 A 
ATOM      4  C3  UNL d   1      -0.700  -6.000  -1.969  0.00  0.00     0.006 A 
ATOM      5  C4  UNL d   1      -2.096  -6.000  -1.967  0.00  0.00    -0.005 A 
ATOM      6  C5  UNL d   1      -2.803  -5.997  -3.173  0.00  0.00    -0.074 A 
ATOM      7  C6  UNL d   1      -4.303  -5.987  -3.188  0.00  0.00     0.077 C 
ATOM      8  C7  UNL d   1      -2.092  -5.987  -4.381  0.00  0.00    -0.001 A 
ENDROOT
TORSDOF 0
ENDMDL
