MODEL 1
REMARK minimizedAffinity 2.76929545
REMARK minimizedRMSD -1
REMARK  0 active torsions:
REMARK  status: ('A' for Active; 'I' for Inactive)
ROOT
ATOM      1  C   UNL d   1      -3.524  -6.000  -2.650  0.00  0.00     0.077 C 
ATOM      2  C1  UNL d   1      -2.036  -5.992  -2.843  0.00  0.00    -0.074 A 
ATOM      3  C2  UNL d   1      -1.170  -5.997  -1.745  0.00  0.00    -0.005 A 
ATOM      4  C3  UNL d   1       0.212  -5.999  -1.940  0.00  0.00     0.006 A 
ATOM      5  C4  UNL d   1       0.739  -5.996  -3.231  0.00  0.00    -0.005 A 
ATOM      6  C5  UNL d   1      -0.112  -5.993  -4.341  0.00  0.00    -0.074 A 
ATOM      7  C6  UNL d   1       0.439  -6.000  -5.736  0.00  0.00     0.077 C 
ATOM      8  C7  UNL d   1      -1.499  -5.998  -4.137  0.00  0.00    -0.001 A 
ENDROOT
TORSDOF 0
ENDMDL
