MODEL 1
REMARK minimizedAffinity 6.85045385
REMARK minimizedRMSD -1
REMARK  0 active torsions:
REMARK  status: ('A' for Active; 'I' for Inactive)
ROOT
ATOM      1  C   UNL d   1       2.222  -6.000  -2.981  0.00  0.00     0.077 C 
ATOM      2  C1  UNL d   1       0.927  -5.984  -3.737  0.00  0.00    -0.074 A 
ATOM      3  C2  UNL d   1       0.910  -6.000  -5.135  0.00  0.00    -0.005 A 
ATOM      4  C3  UNL d   1      -0.302  -5.995  -5.824  0.00  0.00     0.006 A 
ATOM      5  C4  UNL d   1      -1.509  -5.974  -5.123  0.00  0.00    -0.005 A 
ATOM      6  C5  UNL d   1      -1.512  -5.959  -3.725  0.00  0.00    -0.074 A 
ATOM      7  C6  UNL d   1      -2.800  -5.947  -2.956  0.00  0.00     0.077 C 
ATOM      8  C7  UNL d   1      -0.289  -5.972  -3.040  0.00  0.00    -0.001 A 
ENDROOT
TORSDOF 0
ENDMDL
