MODEL 1
REMARK minimizedAffinity -3.73996711
REMARK minimizedRMSD -1
REMARK  0 active torsions:
REMARK  status: ('A' for Active; 'I' for Inactive)
ROOT
ATOM      1  C   UNL d   1      -3.454  -5.997  -3.107  0.00  0.00     0.077 C 
ATOM      2  C1  UNL d   1      -2.138  -5.692  -3.759  0.00  0.00    -0.074 A 
ATOM      3  C2  UNL d   1      -2.046  -5.514  -5.143  0.00  0.00    -0.005 A 
ATOM      4  C3  UNL d   1      -0.817  -5.221  -5.733  0.00  0.00     0.006 A 
ATOM      5  C4  UNL d   1       0.330  -5.103  -4.947  0.00  0.00    -0.005 A 
ATOM      6  C5  UNL d   1       0.257  -5.277  -3.562  0.00  0.00    -0.074 A 
ATOM      7  C6  UNL d   1       1.478  -5.144  -2.701  0.00  0.00     0.077 C 
ATOM      8  C7  UNL d   1      -0.983  -5.564  -2.975  0.00  0.00    -0.001 A 
ENDROOT
TORSDOF 0
ENDMDL
