MODEL 1
REMARK minimizedAffinity 8.99480915
REMARK minimizedRMSD -1
REMARK  0 active torsions:
REMARK  status: ('A' for Active; 'I' for Inactive)
ROOT
ATOM      1  C   UNL d   1       2.373  -5.661  -1.807  0.00  0.00     0.077 C 
ATOM      2  C1  UNL d   1       1.225  -5.771  -2.766  0.00  0.00    -0.074 A 
ATOM      3  C2  UNL d   1       1.444  -5.831  -4.146  0.00  0.00    -0.005 A 
ATOM      4  C3  UNL d   1       0.367  -5.942  -5.025  0.00  0.00     0.006 A 
ATOM      5  C4  UNL d   1      -0.938  -5.994  -4.534  0.00  0.00    -0.005 A 
ATOM      6  C5  UNL d   1      -1.177  -5.935  -3.157  0.00  0.00    -0.074 A 
ATOM      7  C6  UNL d   1      -2.573  -5.999  -2.612  0.00  0.00     0.077 C 
ATOM      8  C7  UNL d   1      -0.089  -5.831  -2.280  0.00  0.00    -0.001 A 
ENDROOT
TORSDOF 0
ENDMDL
