MODEL 1
REMARK minimizedAffinity 0.657583714
REMARK minimizedRMSD -1
REMARK  0 active torsions:
REMARK  status: ('A' for Active; 'I' for Inactive)
ROOT
ATOM      1  C   UNL d   1      -2.549  -5.995  -2.179  0.00  0.00     0.077 C 
ATOM      2  C1  UNL d   1      -1.567  -5.999  -3.313  0.00  0.00    -0.074 A 
ATOM      3  C2  UNL d   1      -2.003  -5.987  -4.642  0.00  0.00    -0.005 A 
ATOM      4  C3  UNL d   1      -1.078  -5.981  -5.686  0.00  0.00     0.006 A 
ATOM      5  C4  UNL d   1       0.290  -5.988  -5.413  0.00  0.00    -0.005 A 
ATOM      6  C5  UNL d   1       0.745  -6.000  -4.090  0.00  0.00    -0.074 A 
ATOM      7  C6  UNL d   1       2.212  -5.998  -3.779  0.00  0.00     0.077 C 
ATOM      8  C7  UNL d   1      -0.191  -5.998  -3.047  0.00  0.00    -0.001 A 
ENDROOT
TORSDOF 0
ENDMDL
