MODEL 1
REMARK minimizedAffinity 7.33700895
REMARK minimizedRMSD -1
REMARK  0 active torsions:
REMARK  status: ('A' for Active; 'I' for Inactive)
ROOT
ATOM      1  C   UNL d   1       0.305  -5.110  -1.646  0.00  0.00     0.077 C 
ATOM      2  C1  UNL d   1       0.240  -5.427  -3.111  0.00  0.00    -0.074 A 
ATOM      3  C2  UNL d   1      -0.989  -5.598  -3.755  0.00  0.00    -0.005 A 
ATOM      4  C3  UNL d   1      -1.034  -5.883  -5.120  0.00  0.00     0.006 A 
ATOM      5  C4  UNL d   1       0.148  -6.000  -5.853  0.00  0.00    -0.005 A 
ATOM      6  C5  UNL d   1       1.387  -5.831  -5.225  0.00  0.00    -0.074 A 
ATOM      7  C6  UNL d   1       2.666  -5.943  -6.000  0.00  0.00     0.077 C 
ATOM      8  C7  UNL d   1       1.423  -5.538  -3.855  0.00  0.00    -0.001 A 
ENDROOT
TORSDOF 0
ENDMDL
