MODEL 1
REMARK minimizedAffinity 10.1735926
REMARK minimizedRMSD -1
REMARK  0 active torsions:
REMARK  status: ('A' for Active; 'I' for Inactive)
ROOT
ATOM      1  C   UNL d   1      -4.138  -5.895  -2.464  0.00  0.00     0.077 C 
ATOM      2  C1  UNL d   1      -2.841  -5.938  -3.216  0.00  0.00    -0.074 A 
ATOM      3  C2  UNL d   1      -2.822  -5.952  -4.615  0.00  0.00    -0.005 A 
ATOM      4  C3  UNL d   1      -1.608  -5.983  -5.301  0.00  0.00     0.006 A 
ATOM      5  C4  UNL d   1      -0.403  -5.999  -4.597  0.00  0.00    -0.005 A 
ATOM      6  C5  UNL d   1      -0.403  -5.985  -3.199  0.00  0.00    -0.074 A 
ATOM      7  C6  UNL d   1       0.884  -5.993  -2.427  0.00  0.00     0.077 C 
ATOM      8  C7  UNL d   1      -1.626  -5.947  -2.517  0.00  0.00    -0.001 A 
ENDROOT
TORSDOF 0
ENDMDL
