MODEL 1
REMARK minimizedAffinity 15.8442659
REMARK minimizedRMSD -1
REMARK  0 active torsions:
REMARK  status: ('A' for Active; 'I' for Inactive)
ROOT
ATOM      1  N1  IND d   1      -2.123   0.478   0.179  0.00  0.00    -0.196 N 
ATOM      2  C2  IND d   1      -2.613  -0.693  -0.329  0.00  0.00     0.054 A 
ATOM      3  C3  IND d   1      -2.207  -1.739   0.425  0.00  0.00    -0.031 A 
ATOM      4  C4  IND d   1      -0.818  -1.752   2.593  0.00  0.00     0.051 A 
ATOM      5  C5  IND d   1      -0.114  -0.928   3.425  0.00  0.00    -0.031 A 
ATOM      6  C6  IND d   1      -0.043   0.434   3.216  0.00  0.00     0.015 A 
ATOM      7  C7  IND d   1      -0.687   1.027   2.167  0.00  0.00    -0.016 A 
ATOM      8  C8  IND d   1      -1.398   0.193   1.316  0.00  0.00    -0.047 A 
ATOM      9  C9  IND d   1      -1.438  -1.195   1.499  0.00  0.00    -0.096 A 
ATOM     10  HN1 IND d   1      -2.246   1.260  -0.156  0.00  0.00     0.298 HD
ENDROOT
TORSDOF 0
ENDMDL
