MODEL 1
REMARK minimizedAffinity 7.20243216
REMARK minimizedRMSD -1
REMARK  0 active torsions:
REMARK  status: ('A' for Active; 'I' for Inactive)
ROOT
ATOM      1  N1  IND d   1      -3.374  -3.994  -6.000  0.00  0.00    -0.196 N 
ATOM      2  C2  IND d   1      -4.726  -3.790  -5.984  0.00  0.00     0.054 A 
ATOM      3  C3  IND d   1      -5.000  -2.466  -5.943  0.00  0.00    -0.031 A 
ATOM      4  C4  IND d   1      -3.390  -0.459  -6.000  0.00  0.00     0.051 A 
ATOM      5  C5  IND d   1      -2.060  -0.144  -5.979  0.00  0.00    -0.031 A 
ATOM      6  C6  IND d   1      -1.080  -1.116  -5.966  0.00  0.00     0.015 A 
ATOM      7  C7  IND d   1      -1.396  -2.445  -5.986  0.00  0.00    -0.016 A 
ATOM      8  C8  IND d   1      -2.745  -2.769  -6.000  0.00  0.00    -0.047 A 
ATOM      9  C9  IND d   1      -3.744  -1.787  -5.970  0.00  0.00    -0.096 A 
ATOM     10  HN1 IND d   1      -2.983  -4.760  -6.009  0.00  0.00     0.298 HD
ENDROOT
TORSDOF 0
ENDMDL
