MODEL 1
REMARK minimizedAffinity 8.20737267
REMARK minimizedRMSD -1
REMARK  0 active torsions:
REMARK  status: ('A' for Active; 'I' for Inactive)
ROOT
ATOM      1  N1  IND d   1      -3.984   1.508   1.100  0.00  0.00    -0.196 N 
ATOM      2  C2  IND d   1      -4.039   0.284   0.494  0.00  0.00     0.054 A 
ATOM      3  C3  IND d   1      -2.884  -0.391   0.692  0.00  0.00    -0.031 A 
ATOM      4  C4  IND d   1      -0.811   0.281   2.063  0.00  0.00     0.051 A 
ATOM      5  C5  IND d   1      -0.278   1.322   2.769  0.00  0.00    -0.031 A 
ATOM      6  C6  IND d   1      -0.968   2.501   2.962  0.00  0.00     0.015 A 
ATOM      7  C7  IND d   1      -2.227   2.680   2.462  0.00  0.00    -0.016 A 
ATOM      8  C8  IND d   1      -2.769   1.627   1.738  0.00  0.00    -0.047 A 
ATOM      9  C9  IND d   1      -2.057   0.444   1.503  0.00  0.00    -0.096 A 
ATOM     10  HN1 IND d   1      -4.604   2.104   1.085  0.00  0.00     0.298 HD
ENDROOT
TORSDOF 0
ENDMDL
