MODEL 1
REMARK minimizedAffinity 2.54882288
REMARK minimizedRMSD -1
REMARK  0 active torsions:
REMARK  status: ('A' for Active; 'I' for Inactive)
ROOT
ATOM      1  N1  IND d   1       4.264  -6.000   3.754  0.00  0.00    -0.196 N 
ATOM      2  C2  IND d   1       5.112  -5.636   2.745  0.00  0.00     0.054 A 
ATOM      3  C3  IND d   1       4.410  -5.198   1.676  0.00  0.00    -0.031 A 
ATOM      4  C4  IND d   1       1.868  -4.898   1.400  0.00  0.00     0.051 A 
ATOM      5  C5  IND d   1       0.680  -5.130   2.035  0.00  0.00    -0.031 A 
ATOM      6  C6  IND d   1       0.626  -5.672   3.303  0.00  0.00     0.015 A 
ATOM      7  C7  IND d   1       1.762  -5.994   3.990  0.00  0.00    -0.016 A 
ATOM      8  C8  IND d   1       2.969  -5.766   3.344  0.00  0.00    -0.047 A 
ATOM      9  C9  IND d   1       3.030  -5.255   2.041  0.00  0.00    -0.096 A 
ATOM     10  HN1 IND d   1       4.500  -6.321   4.515  0.00  0.00     0.298 HD
ENDROOT
TORSDOF 0
ENDMDL
