MODEL 1
REMARK minimizedAffinity 8.39414215
REMARK minimizedRMSD -1
REMARK  0 active torsions:
REMARK  status: ('A' for Active; 'I' for Inactive)
ROOT
ATOM      1  N1  IND d   1       5.999  -4.941   5.997  0.00  0.00    -0.196 N 
ATOM      2  C2  IND d   1       6.000  -5.999   5.131  0.00  0.00     0.054 A 
ATOM      3  C3  IND d   1       5.882  -5.565   3.857  0.00  0.00    -0.031 A 
ATOM      4  C4  IND d   1       5.776  -3.156   2.953  0.00  0.00     0.051 A 
ATOM      5  C5  IND d   1       5.706  -1.854   3.363  0.00  0.00    -0.031 A 
ATOM      6  C6  IND d   1       5.733  -1.507   4.698  0.00  0.00     0.015 A 
ATOM      7  C7  IND d   1       5.843  -2.454   5.678  0.00  0.00    -0.016 A 
ATOM      8  C8  IND d   1       5.908  -3.777   5.266  0.00  0.00    -0.047 A 
ATOM      9  C9  IND d   1       5.838  -4.138   3.914  0.00  0.00    -0.096 A 
ATOM     10  HN1 IND d   1       6.047  -4.994   6.854  0.00  0.00     0.298 HD
ENDROOT
TORSDOF 0
ENDMDL
