MODEL 1
REMARK minimizedAffinity 8.39343739
REMARK minimizedRMSD -1
REMARK  0 active torsions:
REMARK  status: ('A' for Active; 'I' for Inactive)
ROOT
ATOM      1  N1  IND d   1      -3.822   1.751   2.254  0.00  0.00    -0.196 N 
ATOM      2  C2  IND d   1      -2.878   1.016   1.593  0.00  0.00     0.054 A 
ATOM      3  C3  IND d   1      -2.465  -0.018   2.360  0.00  0.00    -0.031 A 
ATOM      4  C4  IND d   1      -3.278  -0.754   4.689  0.00  0.00     0.051 A 
ATOM      5  C5  IND d   1      -4.102  -0.375   5.712  0.00  0.00    -0.031 A 
ATOM      6  C6  IND d   1      -4.893   0.753   5.631  0.00  0.00     0.015 A 
ATOM      7  C7  IND d   1      -4.897   1.541   4.516  0.00  0.00    -0.016 A 
ATOM      8  C8  IND d   1      -4.057   1.164   3.478  0.00  0.00    -0.047 A 
ATOM      9  C9  IND d   1      -3.220   0.044   3.571  0.00  0.00    -0.096 A 
ATOM     10  HN1 IND d   1      -4.205   2.461   1.956  0.00  0.00     0.298 HD
ENDROOT
TORSDOF 0
ENDMDL
