MODEL 1
REMARK minimizedAffinity -1.04746151
REMARK minimizedRMSD -1
REMARK  0 active torsions:
REMARK  status: ('A' for Active; 'I' for Inactive)
ROOT
ATOM      1  N1  IND d   1      -4.172  -3.688  -5.990  0.00  0.00    -0.196 N 
ATOM      2  C2  IND d   1      -5.302  -2.919  -5.961  0.00  0.00     0.054 A 
ATOM      3  C3  IND d   1      -4.977  -1.607  -5.922  0.00  0.00    -0.031 A 
ATOM      4  C4  IND d   1      -2.657  -0.493  -6.000  0.00  0.00     0.051 A 
ATOM      5  C5  IND d   1      -1.322  -0.784  -5.993  0.00  0.00    -0.031 A 
ATOM      6  C6  IND d   1      -0.859  -2.084  -5.987  0.00  0.00     0.015 A 
ATOM      7  C7  IND d   1      -1.718  -3.146  -6.000  0.00  0.00    -0.016 A 
ATOM      8  C8  IND d   1      -3.075  -2.855  -6.000  0.00  0.00    -0.047 A 
ATOM      9  C9  IND d   1      -3.551  -1.538  -5.963  0.00  0.00    -0.096 A 
ATOM     10  HN1 IND d   1      -4.150  -4.547  -6.000  0.00  0.00     0.298 HD
ENDROOT
TORSDOF 0
ENDMDL
