MODEL 1
REMARK minimizedAffinity 5.34066153
REMARK minimizedRMSD -1
REMARK  0 active torsions:
REMARK  status: ('A' for Active; 'I' for Inactive)
ROOT
ATOM      1  N1  IND d   1      -1.281  -3.165  -5.979  0.00  0.00    -0.196 N 
ATOM      2  C2  IND d   1      -0.828  -1.875  -5.972  0.00  0.00     0.054 A 
ATOM      3  C3  IND d   1      -1.868  -1.011  -5.986  0.00  0.00    -0.031 A 
ATOM      4  C4  IND d   1      -4.396  -1.494  -5.920  0.00  0.00     0.051 A 
ATOM      5  C5  IND d   1      -5.298  -2.520  -5.956  0.00  0.00    -0.031 A 
ATOM      6  C6  IND d   1      -4.899  -3.840  -5.999  0.00  0.00     0.015 A 
ATOM      7  C7  IND d   1      -3.578  -4.185  -5.996  0.00  0.00    -0.016 A 
ATOM      8  C8  IND d   1      -2.659  -3.146  -5.968  0.00  0.00    -0.047 A 
ATOM      9  C9  IND d   1      -3.057  -1.803  -5.967  0.00  0.00    -0.096 A 
ATOM     10  HN1 IND d   1      -0.789  -3.870  -5.988  0.00  0.00     0.298 HD
ENDROOT
TORSDOF 0
ENDMDL
