MODEL 1
REMARK minimizedAffinity -1.07523823
REMARK minimizedRMSD -1
REMARK  0 active torsions:
REMARK  status: ('A' for Active; 'I' for Inactive)
ROOT
ATOM      1  N1  IND d   1      -6.000   3.119   3.020  0.00  0.00    -0.196 N 
ATOM      2  C2  IND d   1      -5.353   3.406   1.850  0.00  0.00     0.054 A 
ATOM      3  C3  IND d   1      -4.557   2.375   1.488  0.00  0.00    -0.031 A 
ATOM      4  C4  IND d   1      -4.240   0.080   2.611  0.00  0.00     0.051 A 
ATOM      5  C5  IND d   1      -4.591  -0.632   3.723  0.00  0.00    -0.031 A 
ATOM      6  C6  IND d   1      -5.449  -0.122   4.675  0.00  0.00     0.015 A 
ATOM      7  C7  IND d   1      -6.000   1.122   4.545  0.00  0.00    -0.016 A 
ATOM      8  C8  IND d   1      -5.640   1.851   3.420  0.00  0.00    -0.047 A 
ATOM      9  C9  IND d   1      -4.736   1.355   2.472  0.00  0.00    -0.096 A 
ATOM     10  HN1 IND d   1      -6.540   3.643   3.435  0.00  0.00     0.298 HD
ENDROOT
TORSDOF 0
ENDMDL
