MODEL 1
REMARK minimizedAffinity 9.57878399
REMARK minimizedRMSD -1
REMARK  0 active torsions:
REMARK  status: ('A' for Active; 'I' for Inactive)
ROOT
ATOM      1  N1  IND d   1      -4.854   0.448   4.415  0.00  0.00    -0.196 N 
ATOM      2  C2  IND d   1      -5.794   1.437   4.506  0.00  0.00     0.054 A 
ATOM      3  C3  IND d   1      -5.740   2.239   3.419  0.00  0.00    -0.031 A 
ATOM      4  C4  IND d   1      -4.256   2.055   1.323  0.00  0.00     0.051 A 
ATOM      5  C5  IND d   1      -3.217   1.339   0.798  0.00  0.00    -0.031 A 
ATOM      6  C6  IND d   1      -2.662   0.265   1.464  0.00  0.00     0.015 A 
ATOM      7  C7  IND d   1      -3.134  -0.140   2.680  0.00  0.00    -0.016 A 
ATOM      8  C8  IND d   1      -4.184   0.589   3.220  0.00  0.00    -0.047 A 
ATOM      9  C9  IND d   1      -4.724   1.706   2.568  0.00  0.00    -0.096 A 
ATOM     10  HN1 IND d   1      -4.707  -0.159   5.005  0.00  0.00     0.298 HD
ENDROOT
TORSDOF 0
ENDMDL
