MODEL 1
REMARK minimizedAffinity 8.13467598
REMARK minimizedRMSD -1
REMARK  0 active torsions:
REMARK  status: ('A' for Active; 'I' for Inactive)
ROOT
ATOM      1  N1  IND d   1       3.934   1.819  -5.819  0.00  0.00    -0.196 N 
ATOM      2  C2  IND d   1       4.432   3.081  -5.649  0.00  0.00     0.054 A 
ATOM      3  C3  IND d   1       4.220   3.504  -4.383  0.00  0.00    -0.031 A 
ATOM      4  C4  IND d   1       3.168   2.252  -2.395  0.00  0.00     0.051 A 
ATOM      5  C5  IND d   1       2.532   1.087  -2.070  0.00  0.00    -0.031 A 
ATOM      6  C6  IND d   1       2.329   0.085  -2.997  0.00  0.00     0.015 A 
ATOM      7  C7  IND d   1       2.767   0.206  -4.285  0.00  0.00    -0.016 A 
ATOM      8  C8  IND d   1       3.406   1.391  -4.620  0.00  0.00    -0.047 A 
ATOM      9  C9  IND d   1       3.577   2.429  -3.695  0.00  0.00    -0.096 A 
ATOM     10  HN1 IND d   1       3.947   1.369  -6.551  0.00  0.00     0.298 HD
ENDROOT
TORSDOF 0
ENDMDL
