MODEL 1
REMARK minimizedAffinity 9.57432365
REMARK minimizedRMSD -1
REMARK  0 active torsions:
REMARK  status: ('A' for Active; 'I' for Inactive)
ROOT
ATOM      1  N1  IND d   1      -3.792  -0.718  -5.959  0.00  0.00    -0.196 N 
ATOM      2  C2  IND d   1      -2.614  -0.026  -5.927  0.00  0.00     0.054 A 
ATOM      3  C3  IND d   1      -1.567  -0.882  -5.898  0.00  0.00    -0.031 A 
ATOM      4  C4  IND d   1      -1.554  -3.454  -6.000  0.00  0.00     0.051 A 
ATOM      5  C5  IND d   1      -2.388  -4.536  -6.000  0.00  0.00    -0.031 A 
ATOM      6  C6  IND d   1      -3.761  -4.399  -5.989  0.00  0.00     0.015 A 
ATOM      7  C7  IND d   1      -4.353  -3.167  -5.989  0.00  0.00    -0.016 A 
ATOM      8  C8  IND d   1      -3.509  -2.066  -5.981  0.00  0.00    -0.047 A 
ATOM      9  C9  IND d   1      -2.115  -2.200  -5.949  0.00  0.00    -0.096 A 
ATOM     10  HN1 IND d   1      -4.578  -0.370  -5.964  0.00  0.00     0.298 HD
ENDROOT
TORSDOF 0
ENDMDL
