MODEL 1
REMARK minimizedAffinity 2.02298784
REMARK minimizedRMSD -1
REMARK  0 active torsions:
REMARK  status: ('A' for Active; 'I' for Inactive)
ROOT
ATOM      1  N1  IND d   1      -3.454  -0.123  -5.990  0.00  0.00    -0.196 N 
ATOM      2  C2  IND d   1      -2.107  -0.360  -6.000  0.00  0.00     0.054 A 
ATOM      3  C3  IND d   1      -1.864  -1.689  -5.968  0.00  0.00    -0.031 A 
ATOM      4  C4  IND d   1      -3.522  -3.658  -6.000  0.00  0.00     0.051 A 
ATOM      5  C5  IND d   1      -4.859  -3.941  -5.955  0.00  0.00    -0.031 A 
ATOM      6  C6  IND d   1      -5.814  -2.946  -5.921  0.00  0.00     0.015 A 
ATOM      7  C7  IND d   1      -5.468  -1.625  -5.943  0.00  0.00    -0.016 A 
ATOM      8  C8  IND d   1      -4.112  -1.333  -5.982  0.00  0.00    -0.047 A 
ATOM      9  C9  IND d   1      -3.136  -2.339  -5.973  0.00  0.00    -0.096 A 
ATOM     10  HN1 IND d   1      -3.827   0.652  -5.990  0.00  0.00     0.298 HD
ENDROOT
TORSDOF 0
ENDMDL
