MODEL 1
REMARK minimizedAffinity 11.0612535
REMARK minimizedRMSD -1
REMARK  0 active torsions:
REMARK  status: ('A' for Active; 'I' for Inactive)
ROOT
ATOM      1  N1  IND d   1       2.031  -3.793   2.200  0.00  0.00    -0.196 N 
ATOM      2  C2  IND d   1       1.325  -4.962   2.254  0.00  0.00     0.054 A 
ATOM      3  C3  IND d   1       2.150  -5.999   2.525  0.00  0.00    -0.031 A 
ATOM      4  C4  IND d   1       4.677  -5.992   3.015  0.00  0.00     0.051 A 
ATOM      5  C5  IND d   1       5.766  -5.168   3.045  0.00  0.00    -0.031 A 
ATOM      6  C6  IND d   1       5.664  -3.815   2.792  0.00  0.00     0.015 A 
ATOM      7  C7  IND d   1       4.461  -3.232   2.510  0.00  0.00    -0.016 A 
ATOM      8  C8  IND d   1       3.354  -4.068   2.472  0.00  0.00    -0.047 A 
ATOM      9  C9  IND d   1       3.458  -5.448   2.686  0.00  0.00    -0.096 A 
ATOM     10  HN1 IND d   1       1.705  -3.017   2.026  0.00  0.00     0.298 HD
ENDROOT
TORSDOF 0
ENDMDL
