MODEL 1
REMARK minimizedAffinity -0.194872499
REMARK minimizedRMSD -1
REMARK  0 active torsions:
REMARK  status: ('A' for Active; 'I' for Inactive)
ROOT
ATOM      1  N1  IND d   1      -4.877  -4.249  -5.996  0.00  0.00    -0.196 N 
ATOM      2  C2  IND d   1      -5.989  -3.454  -5.974  0.00  0.00     0.054 A 
ATOM      3  C3  IND d   1      -5.634  -2.150  -5.933  0.00  0.00    -0.031 A 
ATOM      4  C4  IND d   1      -3.288  -1.091  -5.998  0.00  0.00     0.051 A 
ATOM      5  C5  IND d   1      -1.960  -1.413  -5.983  0.00  0.00    -0.031 A 
ATOM      6  C6  IND d   1      -1.528  -2.724  -5.974  0.00  0.00     0.015 A 
ATOM      7  C7  IND d   1      -2.411  -3.765  -5.992  0.00  0.00    -0.016 A 
ATOM      8  C8  IND d   1      -3.761  -3.442  -6.000  0.00  0.00    -0.047 A 
ATOM      9  C9  IND d   1      -4.206  -2.114  -5.966  0.00  0.00    -0.096 A 
ATOM     10  HN1 IND d   1      -4.875  -5.109  -6.006  0.00  0.00     0.298 HD
ENDROOT
TORSDOF 0
ENDMDL
