MODEL 1
REMARK minimizedAffinity -2.41858149
REMARK minimizedRMSD -1
REMARK  0 active torsions:
REMARK  status: ('A' for Active; 'I' for Inactive)
ROOT
ATOM      1  N1  IND d   1      -1.930  -3.002  -5.999  0.00  0.00    -0.196 N 
ATOM      2  C2  IND d   1      -1.561  -1.686  -5.994  0.00  0.00     0.054 A 
ATOM      3  C3  IND d   1      -2.654  -0.891  -6.000  0.00  0.00    -0.031 A 
ATOM      4  C4  IND d   1      -5.145  -1.535  -5.914  0.00  0.00     0.051 A 
ATOM      5  C5  IND d   1      -5.980  -2.616  -5.944  0.00  0.00    -0.031 A 
ATOM      6  C6  IND d   1      -5.497  -3.908  -5.991  0.00  0.00     0.015 A 
ATOM      7  C7  IND d   1      -4.156  -4.168  -6.000  0.00  0.00    -0.016 A 
ATOM      8  C8  IND d   1      -3.306  -3.072  -5.977  0.00  0.00    -0.047 A 
ATOM      9  C9  IND d   1      -3.790  -1.757  -5.972  0.00  0.00    -0.096 A 
ATOM     10  HN1 IND d   1      -1.393  -3.674  -6.013  0.00  0.00     0.298 HD
ENDROOT
TORSDOF 0
ENDMDL
