MODEL 1
REMARK minimizedAffinity -2.74336123
REMARK minimizedRMSD -1
REMARK  1 active torsions:
REMARK  status: ('A' for Active; 'I' for Inactive)
REMARK    1  A    between atoms: C3_4  and  O_7 
ROOT
ATOM      1  C   UNL d   1       2.108  -2.141   1.044  0.00  0.00    -0.033 A 
ATOM      2  C1  UNL d   1       0.740  -2.152   1.320  0.00  0.00     0.039 A 
ATOM      3  C2  UNL d   1      -0.036  -1.021   1.060  0.00  0.00    -0.080 A 
ATOM      4  C3  UNL d   1       0.567   0.112   0.523  0.00  0.00     0.150 A 
ATOM      5  C4  UNL d   1       1.929   0.129   0.241  0.00  0.00    -0.007 A 
ATOM      6  C5  UNL d   1       2.703  -1.001   0.503  0.00  0.00     0.039 A 
ENDROOT
BRANCH   4   7
ATOM      7  O   UNL d   1      -0.148   1.242   0.256  0.00  0.00    -0.526 OA
ATOM      8  H5  UNL d   1      -1.069   1.094   0.528  0.00  0.00     0.418 HD
ENDBRANCH   4   7
TORSDOF 1
ENDMDL
