MODEL 1
REMARK minimizedAffinity -4.64717484
REMARK minimizedRMSD -1
REMARK  1 active torsions:
REMARK  status: ('A' for Active; 'I' for Inactive)
REMARK    1  A    between atoms: C3_4  and  O_7 
ROOT
ATOM      1  C   UNL d   1       1.603  -2.448   1.286  0.00  0.00    -0.033 A 
ATOM      2  C1  UNL d   1       2.535  -1.756   0.511  0.00  0.00     0.039 A 
ATOM      3  C2  UNL d   1       2.139  -0.643  -0.232  0.00  0.00    -0.080 A 
ATOM      4  C3  UNL d   1       0.809  -0.232  -0.192  0.00  0.00     0.150 A 
ATOM      5  C4  UNL d   1      -0.125  -0.916   0.581  0.00  0.00    -0.007 A 
ATOM      6  C5  UNL d   1       0.273  -2.027   1.322  0.00  0.00     0.039 A 
ENDROOT
BRANCH   4   7
ATOM      7  O   UNL d   1       0.373   0.845  -0.904  0.00  0.00    -0.526 OA
ATOM      8  H5  UNL d   1       1.121   1.200  -1.413  0.00  0.00     0.418 HD
ENDBRANCH   4   7
TORSDOF 1
ENDMDL
