MODEL 1
REMARK minimizedAffinity -4.80931664
REMARK minimizedRMSD -1
REMARK  1 active torsions:
REMARK  status: ('A' for Active; 'I' for Inactive)
REMARK    1  A    between atoms: C3_4  and  O_7 
ROOT
ATOM      1  C   UNL d   1      -0.222  -0.661   1.270  0.00  0.00    -0.033 A 
ATOM      2  C1  UNL d   1       0.422  -1.841   1.649  0.00  0.00     0.039 A 
ATOM      3  C2  UNL d   1       1.738  -2.080   1.247  0.00  0.00    -0.080 A 
ATOM      4  C3  UNL d   1       2.398  -1.132   0.469  0.00  0.00     0.150 A 
ATOM      5  C4  UNL d   1       1.763   0.046   0.091  0.00  0.00    -0.007 A 
ATOM      6  C5  UNL d   1       0.449   0.283   0.492  0.00  0.00     0.039 A 
ENDROOT
BRANCH   4   7
ATOM      7  O   UNL d   1       3.680  -1.323   0.049  0.00  0.00    -0.526 OA
ATOM      8  H5  UNL d   1       3.980  -2.193   0.361  0.00  0.00     0.418 HD
ENDBRANCH   4   7
TORSDOF 1
ENDMDL
