MODEL 1
REMARK minimizedAffinity -2.2375145
REMARK minimizedRMSD -1
REMARK  1 active torsions:
REMARK  status: ('A' for Active; 'I' for Inactive)
REMARK    1  A    between atoms: C3_4  and  O_7 
ROOT
ATOM      1  C   UNL d   1      -2.561   1.333  -3.537  0.00  0.00    -0.033 A 
ATOM      2  C1  UNL d   1      -1.180   1.219  -3.709  0.00  0.00     0.039 A 
ATOM      3  C2  UNL d   1      -0.362   0.907  -2.621  0.00  0.00    -0.080 A 
ATOM      4  C3  UNL d   1      -0.937   0.710  -1.369  0.00  0.00     0.150 A 
ATOM      5  C4  UNL d   1      -2.313   0.818  -1.191  0.00  0.00    -0.007 A 
ATOM      6  C5  UNL d   1      -3.127   1.132  -2.278  0.00  0.00     0.039 A 
ENDROOT
BRANCH   4   7
ATOM      7  O   UNL d   1      -0.180   0.408  -0.276  0.00  0.00    -0.526 OA
ATOM      8  H5  UNL d   1       0.754   0.394  -0.544  0.00  0.00     0.418 HD
ENDBRANCH   4   7
TORSDOF 1
ENDMDL
