MODEL 1
REMARK minimizedAffinity -2.70876765
REMARK minimizedRMSD -1
REMARK  1 active torsions:
REMARK  status: ('A' for Active; 'I' for Inactive)
REMARK    1  A    between atoms: C3_4  and  O_7 
ROOT
ATOM      1  C   UNL d   1       0.936  -0.589  -1.153  0.00  0.00    -0.033 A 
ATOM      2  C1  UNL d   1       2.250  -1.037  -1.303  0.00  0.00     0.039 A 
ATOM      3  C2  UNL d   1       3.112  -1.057  -0.204  0.00  0.00    -0.080 A 
ATOM      4  C3  UNL d   1       2.648  -0.628   1.036  0.00  0.00     0.150 A 
ATOM      5  C4  UNL d   1       1.339  -0.184   1.193  0.00  0.00    -0.007 A 
ATOM      6  C5  UNL d   1       0.480  -0.164   0.095  0.00  0.00     0.039 A 
ENDROOT
BRANCH   4   7
ATOM      7  O   UNL d   1       3.454  -0.625   2.136  0.00  0.00    -0.526 OA
ATOM      8  H5  UNL d   1       4.338  -0.929   1.871  0.00  0.00     0.418 HD
ENDBRANCH   4   7
TORSDOF 1
ENDMDL
