MODEL 1
REMARK minimizedAffinity -4.19067049
REMARK minimizedRMSD -1
REMARK  1 active torsions:
REMARK  status: ('A' for Active; 'I' for Inactive)
REMARK    1  A    between atoms: C3_4  and  O_7 
ROOT
ATOM      1  C   UNL d   1       0.265   1.346  -0.020  0.00  0.00    -0.033 A 
ATOM      2  C1  UNL d   1       1.581   0.907  -0.172  0.00  0.00     0.039 A 
ATOM      3  C2  UNL d   1       1.910  -0.424   0.092  0.00  0.00    -0.080 A 
ATOM      4  C3  UNL d   1       0.914  -1.305   0.506  0.00  0.00     0.150 A 
ATOM      5  C4  UNL d   1      -0.400  -0.875   0.656  0.00  0.00    -0.007 A 
ATOM      6  C5  UNL d   1      -0.726   0.455   0.393  0.00  0.00     0.039 A 
ENDROOT
BRANCH   4   7
ATOM      7  O   UNL d   1       1.187  -2.612   0.780  0.00  0.00    -0.526 OA
ATOM      8  H5  UNL d   1       2.141  -2.758   0.660  0.00  0.00     0.418 HD
ENDBRANCH   4   7
TORSDOF 1
ENDMDL
