MODEL 1
REMARK minimizedAffinity -4.24507713
REMARK minimizedRMSD -1
REMARK  1 active torsions:
REMARK  status: ('A' for Active; 'I' for Inactive)
REMARK    1  A    between atoms: C3_4  and  O_7 
ROOT
ATOM      1  C   UNL d   1       0.696   0.421  -0.442  0.00  0.00    -0.033 A 
ATOM      2  C1  UNL d   1      -0.177  -0.477   0.176  0.00  0.00     0.039 A 
ATOM      3  C2  UNL d   1       0.311  -1.667   0.719  0.00  0.00    -0.080 A 
ATOM      4  C3  UNL d   1       1.672  -1.946   0.640  0.00  0.00     0.150 A 
ATOM      5  C4  UNL d   1       2.549  -1.055   0.030  0.00  0.00    -0.007 A 
ATOM      6  C5  UNL d   1       2.059   0.132  -0.513  0.00  0.00     0.039 A 
ENDROOT
BRANCH   4   7
ATOM      7  O   UNL d   1       2.194  -3.097   1.151  0.00  0.00    -0.526 OA
ATOM      8  H5  UNL d   1       1.468  -3.629   1.516  0.00  0.00     0.418 HD
ENDBRANCH   4   7
TORSDOF 1
ENDMDL
