MODEL 1
REMARK minimizedAffinity -2.71636581
REMARK minimizedRMSD -1
REMARK  1 active torsions:
REMARK  status: ('A' for Active; 'I' for Inactive)
REMARK    1  A    between atoms: C3_4  and  O_7 
ROOT
ATOM      1  C   UNL d   1       1.083   1.024  -0.006  0.00  0.00    -0.033 A 
ATOM      2  C1  UNL d   1       2.312   0.759   0.600  0.00  0.00     0.039 A 
ATOM      3  C2  UNL d   1       2.756  -0.557   0.737  0.00  0.00    -0.080 A 
ATOM      4  C3  UNL d   1       1.963  -1.599   0.264  0.00  0.00     0.150 A 
ATOM      5  C4  UNL d   1       0.739  -1.342  -0.345  0.00  0.00    -0.007 A 
ATOM      6  C5  UNL d   1       0.297  -0.027  -0.480  0.00  0.00     0.039 A 
ENDROOT
BRANCH   4   7
ATOM      7  O   UNL d   1       2.352  -2.900   0.379  0.00  0.00    -0.526 OA
ATOM      8  H5  UNL d   1       3.204  -2.926   0.845  0.00  0.00     0.418 HD
ENDBRANCH   4   7
TORSDOF 1
ENDMDL
