MODEL 1
REMARK minimizedAffinity -3.54003525
REMARK minimizedRMSD -1
REMARK  1 active torsions:
REMARK  status: ('A' for Active; 'I' for Inactive)
REMARK    1  A    between atoms: C3_4  and  O_7 
ROOT
ATOM      1  C   UNL d   1       2.028  -2.369   0.811  0.00  0.00    -0.033 A 
ATOM      2  C1  UNL d   1       2.579  -1.125   1.126  0.00  0.00     0.039 A 
ATOM      3  C2  UNL d   1       1.863   0.045   0.864  0.00  0.00    -0.080 A 
ATOM      4  C3  UNL d   1       0.598  -0.043   0.289  0.00  0.00     0.150 A 
ATOM      5  C4  UNL d   1       0.041  -1.279  -0.024  0.00  0.00    -0.007 A 
ATOM      6  C5  UNL d   1       0.759  -2.446   0.237  0.00  0.00     0.039 A 
ENDROOT
BRANCH   4   7
ATOM      7  O   UNL d   1      -0.137   1.071   0.010  0.00  0.00    -0.526 OA
ATOM      8  H5  UNL d   1       0.385   1.853   0.253  0.00  0.00     0.418 HD
ENDBRANCH   4   7
TORSDOF 1
ENDMDL
