MODEL 1
REMARK minimizedAffinity -1.78151035
REMARK minimizedRMSD -1
REMARK  1 active torsions:
REMARK  status: ('A' for Active; 'I' for Inactive)
REMARK    1  A    between atoms: C3_4  and  O_7 
ROOT
ATOM      1  C   UNL d   1      -1.294   0.757   0.977  0.00  0.00    -0.033 A 
ATOM      2  C1  UNL d   1      -0.531   1.097  -0.142  0.00  0.00     0.039 A 
ATOM      3  C2  UNL d   1       0.668   0.430  -0.399  0.00  0.00    -0.080 A 
ATOM      4  C3  UNL d   1       1.092  -0.573   0.468  0.00  0.00     0.150 A 
ATOM      5  C4  UNL d   1       0.335  -0.919   1.582  0.00  0.00    -0.007 A 
ATOM      6  C5  UNL d   1      -0.862  -0.252   1.838  0.00  0.00     0.039 A 
ENDROOT
BRANCH   4   7
ATOM      7  O   UNL d   1       2.258  -1.249   0.260  0.00  0.00    -0.526 OA
ATOM      8  H5  UNL d   1       2.689  -0.883  -0.530  0.00  0.00     0.418 HD
ENDBRANCH   4   7
TORSDOF 1
ENDMDL
