MODEL 1
REMARK minimizedAffinity -4.77231789
REMARK minimizedRMSD -1
REMARK  1 active torsions:
REMARK  status: ('A' for Active; 'I' for Inactive)
REMARK    1  A    between atoms: C3_4  and  O_7 
ROOT
ATOM      1  C   UNL d   1       1.314  -2.445   1.326  0.00  0.00    -0.033 A 
ATOM      2  C1  UNL d   1       2.171  -1.645   0.568  0.00  0.00     0.039 A 
ATOM      3  C2  UNL d   1       1.668  -0.543  -0.126  0.00  0.00    -0.080 A 
ATOM      4  C3  UNL d   1       0.309  -0.252  -0.054  0.00  0.00     0.150 A 
ATOM      5  C4  UNL d   1      -0.550  -1.042   0.703  0.00  0.00    -0.007 A 
ATOM      6  C5  UNL d   1      -0.047  -2.143   1.395  0.00  0.00     0.039 A 
ENDROOT
BRANCH   4   7
ATOM      7  O   UNL d   1      -0.228   0.811  -0.718  0.00  0.00    -0.526 OA
ATOM      8  H5  UNL d   1       0.478   1.248  -1.221  0.00  0.00     0.418 HD
ENDBRANCH   4   7
TORSDOF 1
ENDMDL
