MODEL 1
REMARK minimizedAffinity -5.31901693
REMARK minimizedRMSD -1
REMARK  1 active torsions:
REMARK  status: ('A' for Active; 'I' for Inactive)
REMARK    1  A    between atoms: C3_4  and  O_7 
ROOT
ATOM      1  C   UNL d   1      -0.476  -0.381   1.565  0.00  0.00    -0.033 A 
ATOM      2  C1  UNL d   1       0.059   0.185   0.407  0.00  0.00     0.039 A 
ATOM      3  C2  UNL d   1       1.315  -0.217  -0.053  0.00  0.00    -0.080 A 
ATOM      4  C3  UNL d   1       2.023  -1.185   0.654  0.00  0.00     0.150 A 
ATOM      5  C4  UNL d   1       1.494  -1.756   1.807  0.00  0.00    -0.007 A 
ATOM      6  C5  UNL d   1       0.240  -1.352   2.264  0.00  0.00     0.039 A 
ENDROOT
BRANCH   4   7
ATOM      7  O   UNL d   1       3.255  -1.606   0.248  0.00  0.00    -0.526 OA
ATOM      8  H5  UNL d   1       3.505  -1.104  -0.546  0.00  0.00     0.418 HD
ENDBRANCH   4   7
TORSDOF 1
ENDMDL
