MODEL 1
REMARK minimizedAffinity -4.00711918
REMARK minimizedRMSD -1
REMARK  1 active torsions:
REMARK  status: ('A' for Active; 'I' for Inactive)
REMARK    1  A    between atoms: C3_4  and  O_7 
ROOT
ATOM      1  C   UNL d   1      -0.991  -0.204   0.442  0.00  0.00    -0.033 A 
ATOM      2  C1  UNL d   1      -0.612  -1.409   1.038  0.00  0.00     0.039 A 
ATOM      3  C2  UNL d   1       0.703  -1.865   0.921  0.00  0.00    -0.080 A 
ATOM      4  C3  UNL d   1       1.627  -1.107   0.207  0.00  0.00     0.150 A 
ATOM      5  C4  UNL d   1       1.257   0.096  -0.386  0.00  0.00    -0.007 A 
ATOM      6  C5  UNL d   1      -0.056   0.549  -0.269  0.00  0.00     0.039 A 
ENDROOT
BRANCH   4   7
ATOM      7  O   UNL d   1       2.920  -1.513   0.061  0.00  0.00    -0.526 OA
ATOM      8  H5  UNL d   1       3.023  -2.375   0.498  0.00  0.00     0.418 HD
ENDBRANCH   4   7
TORSDOF 1
ENDMDL
