MODEL 1
REMARK minimizedAffinity -4.32137346
REMARK minimizedRMSD -1
REMARK  1 active torsions:
REMARK  status: ('A' for Active; 'I' for Inactive)
REMARK    1  A    between atoms: C3_4  and  O_7 
ROOT
ATOM      1  C   UNL d   1       1.905  -2.346   0.722  0.00  0.00    -0.033 A 
ATOM      2  C1  UNL d   1       0.550  -2.308   1.059  0.00  0.00     0.039 A 
ATOM      3  C2  UNL d   1      -0.211  -1.172   0.775  0.00  0.00    -0.080 A 
ATOM      4  C3  UNL d   1       0.394  -0.083   0.153  0.00  0.00     0.150 A 
ATOM      5  C4  UNL d   1       1.742  -0.115  -0.189  0.00  0.00    -0.007 A 
ATOM      6  C5  UNL d   1       2.500  -1.250   0.097  0.00  0.00     0.039 A 
ENDROOT
BRANCH   4   7
ATOM      7  O   UNL d   1      -0.306   1.049  -0.140  0.00  0.00    -0.526 OA
ATOM      8  H5  UNL d   1      -1.217   0.939   0.180  0.00  0.00     0.418 HD
ENDBRANCH   4   7
TORSDOF 1
ENDMDL
