MODEL 1
REMARK minimizedAffinity -1.45631778
REMARK minimizedRMSD -1
REMARK  0 active torsions:
REMARK  status: ('A' for Active; 'I' for Inactive)
ROOT
ATOM      1  C1  BNZ d   1       1.637  -0.667  -0.353  0.00  0.00     0.000 A 
ATOM      2  C2  BNZ d   1       1.798  -0.755   1.004  0.00  0.00     0.000 A 
ATOM      3  C3  BNZ d   1       1.048   0.015   1.849  0.00  0.00     0.000 A 
ATOM      4  C4  BNZ d   1       0.168   0.898   1.335  0.00  0.00     0.000 A 
ATOM      5  C5  BNZ d   1       0.000   1.005  -0.031  0.00  0.00     0.000 A 
ATOM      6  C6  BNZ d   1       0.729   0.201  -0.877  0.00  0.00     0.000 A 
ENDROOT
TORSDOF 0
ENDMDL
