MODEL 1
REMARK minimizedAffinity 0.635029435
REMARK minimizedRMSD -1
REMARK  0 active torsions:
REMARK  status: ('A' for Active; 'I' for Inactive)
ROOT
ATOM      1  C1  BNZ d   1       0.520   0.282   0.366  0.00  0.00     0.000 A 
ATOM      2  C2  BNZ d   1       1.182  -0.747   0.982  0.00  0.00     0.000 A 
ATOM      3  C3  BNZ d   1       1.673  -0.604   2.249  0.00  0.00     0.000 A 
ATOM      4  C4  BNZ d   1       1.537   0.578   2.884  0.00  0.00     0.000 A 
ATOM      5  C5  BNZ d   1       0.880   1.628   2.273  0.00  0.00     0.000 A 
ATOM      6  C6  BNZ d   1       0.353   1.468   1.012  0.00  0.00     0.000 A 
ENDROOT
TORSDOF 0
ENDMDL
