MODEL 1
REMARK minimizedAffinity -0.999173641
REMARK minimizedRMSD -1
REMARK  0 active torsions:
REMARK  status: ('A' for Active; 'I' for Inactive)
ROOT
ATOM      1  C1  BNZ d   1      -5.485   2.227  -1.239  0.00  0.00     0.000 A 
ATOM      2  C2  BNZ d   1      -4.418   1.537  -0.728  0.00  0.00     0.000 A 
ATOM      3  C3  BNZ d   1      -3.139   1.971  -0.935  0.00  0.00     0.000 A 
ATOM      4  C4  BNZ d   1      -2.926   3.071  -1.686  0.00  0.00     0.000 A 
ATOM      5  C5  BNZ d   1      -3.990   3.772  -2.217  0.00  0.00     0.000 A 
ATOM      6  C6  BNZ d   1      -5.278   3.354  -1.973  0.00  0.00     0.000 A 
ENDROOT
TORSDOF 0
ENDMDL
