MODEL 1
REMARK minimizedAffinity -1.06020093
REMARK minimizedRMSD -1
REMARK  0 active torsions:
REMARK  status: ('A' for Active; 'I' for Inactive)
ROOT
ATOM      1  C1  BNZ d   1       2.628  -1.329   3.391  0.00  0.00     0.000 A 
ATOM      2  C2  BNZ d   1       1.296  -1.085   3.597  0.00  0.00     0.000 A 
ATOM      3  C3  BNZ d   1       0.515  -0.575   2.598  0.00  0.00     0.000 A 
ATOM      4  C4  BNZ d   1       1.074  -0.272   1.408  0.00  0.00     0.000 A 
ATOM      5  C5  BNZ d   1       2.417  -0.504   1.188  0.00  0.00     0.000 A 
ATOM      6  C6  BNZ d   1       3.192  -1.054   2.183  0.00  0.00     0.000 A 
ENDROOT
TORSDOF 0
ENDMDL
