MODEL 1
REMARK minimizedAffinity -1.97866309
REMARK minimizedRMSD -1
REMARK  0 active torsions:
REMARK  status: ('A' for Active; 'I' for Inactive)
ROOT
ATOM      1  C1  BNZ d   1       1.438  -0.340   1.425  0.00  0.00     0.000 A 
ATOM      2  C2  BNZ d   1       1.560  -0.665   0.100  0.00  0.00     0.000 A 
ATOM      3  C3  BNZ d   1       0.731  -0.111  -0.836  0.00  0.00     0.000 A 
ATOM      4  C4  BNZ d   1      -0.242   0.735  -0.442  0.00  0.00     0.000 A 
ATOM      5  C5  BNZ d   1      -0.383   1.066   0.891  0.00  0.00     0.000 A 
ATOM      6  C6  BNZ d   1       0.477   0.536   1.826  0.00  0.00     0.000 A 
ENDROOT
TORSDOF 0
ENDMDL
