MODEL 1
REMARK minimizedAffinity -4.18832111
REMARK minimizedRMSD -1
REMARK  0 active torsions:
REMARK  status: ('A' for Active; 'I' for Inactive)
ROOT
ATOM      1  C1  BNZ d   1       1.208   2.900   2.626  0.00  0.00     0.000 A 
ATOM      2  C2  BNZ d   1       0.311   2.975   1.593  0.00  0.00     0.000 A 
ATOM      3  C3  BNZ d   1       0.471   3.892   0.592  0.00  0.00     0.000 A 
ATOM      4  C4  BNZ d   1       1.504   4.758   0.645  0.00  0.00     0.000 A 
ATOM      5  C5  BNZ d   1       2.411   4.702   1.685  0.00  0.00     0.000 A 
ATOM      6  C6  BNZ d   1       2.268   3.752   2.670  0.00  0.00     0.000 A 
ENDROOT
TORSDOF 0
ENDMDL
