MODEL 1
REMARK minimizedAffinity -3.71778893
REMARK minimizedRMSD -1
REMARK  0 active torsions:
REMARK  status: ('A' for Active; 'I' for Inactive)
ROOT
ATOM      1  C1  BNZ d   1       0.841   0.249   0.836  0.00  0.00     0.000 A 
ATOM      2  C2  BNZ d   1       0.394   1.203  -0.038  0.00  0.00     0.000 A 
ATOM      3  C3  BNZ d   1      -0.004   2.432   0.410  0.00  0.00     0.000 A 
ATOM      4  C4  BNZ d   1       0.007   2.690   1.734  0.00  0.00     0.000 A 
ATOM      5  C5  BNZ d   1       0.446   1.735   2.629  0.00  0.00     0.000 A 
ATOM      6  C6  BNZ d   1       0.883   0.513   2.170  0.00  0.00     0.000 A 
ENDROOT
TORSDOF 0
ENDMDL
