MODEL 1
REMARK minimizedAffinity -1.40886474
REMARK minimizedRMSD -1
REMARK  0 active torsions:
REMARK  status: ('A' for Active; 'I' for Inactive)
ROOT
ATOM      1  C1  BNZ d   1       0.898   0.569  -0.145  0.00  0.00     0.000 A 
ATOM      2  C2  BNZ d   1       0.485   1.796   0.300  0.00  0.00     0.000 A 
ATOM      3  C3  BNZ d   1       0.428   2.074   1.637  0.00  0.00     0.000 A 
ATOM      4  C4  BNZ d   1       0.745   1.112   2.528  0.00  0.00     0.000 A 
ATOM      5  C5  BNZ d   1       1.154  -0.134   2.095  0.00  0.00     0.000 A 
ATOM      6  C6  BNZ d   1       1.247  -0.397   0.748  0.00  0.00     0.000 A 
ENDROOT
TORSDOF 0
ENDMDL
