MODEL 1
REMARK minimizedAffinity -2.84635592
REMARK minimizedRMSD -1
REMARK  2 active torsions:
REMARK  status: ('A' for Active; 'I' for Inactive)
REMARK    1  A    between atoms: C2'_3  and  C1'_4 
REMARK    2  A    between atoms: C1'_4  and  C1_5 
ROOT
ATOM      1  C1  I4B d   1       0.756  -0.258  -0.929  0.00  0.00    -0.075 A 
ATOM      2  C2  I4B d   1       0.798  -1.613  -0.716  0.00  0.00     0.003 A 
ATOM      3  C3  I4B d   1       1.860  -2.386  -1.244  0.00  0.00     0.002 A 
ATOM      4  C4  I4B d   1       2.826  -1.775  -2.018  0.00  0.00    -0.004 A 
ATOM      5  C5  I4B d   1       2.795  -0.397  -2.214  0.00  0.00     0.002 A 
ATOM      6  C6  I4B d   1       1.760   0.368  -1.656  0.00  0.00     0.003 A 
ENDROOT
BRANCH   1   7
ATOM      7  C1' I4B d   1      -0.398   0.522  -0.385  0.00  0.00     0.060 C 
BRANCH   7   8
ATOM      8  C2' I4B d   1      -1.032  -0.294   0.723  0.00  0.00    -0.013 C 
ATOM      9  C4' I4B d   1      -0.278  -0.136   2.017  0.00  0.00     0.013 C 
ATOM     10  C3' I4B d   1      -2.456   0.151   0.869  0.00  0.00     0.013 C 
ENDBRANCH   7   8
ENDBRANCH   1   7
TORSDOF 2
ENDMDL
