MODEL 1
REMARK minimizedAffinity -1.91526973
REMARK minimizedRMSD -1
REMARK  2 active torsions:
REMARK  status: ('A' for Active; 'I' for Inactive)
REMARK    1  A    between atoms: C2'_3  and  C1'_4 
REMARK    2  A    between atoms: C1'_4  and  C1_5 
ROOT
ATOM      1  C1  I4B d   1      -1.176   0.083   0.275  0.00  0.00    -0.075 A 
ATOM      2  C2  I4B d   1      -1.063   1.189  -0.530  0.00  0.00     0.003 A 
ATOM      3  C3  I4B d   1       0.170   1.489  -1.159  0.00  0.00     0.002 A 
ATOM      4  C4  I4B d   1       1.268   0.690  -0.918  0.00  0.00    -0.004 A 
ATOM      5  C5  I4B d   1       1.145  -0.444  -0.121  0.00  0.00     0.002 A 
ATOM      6  C6  I4B d   1      -0.087  -0.757   0.470  0.00  0.00     0.003 A 
ENDROOT
BRANCH   1   7
ATOM      7  C1' I4B d   1      -2.483  -0.186   0.950  0.00  0.00     0.060 C 
BRANCH   7   8
ATOM      8  C2' I4B d   1      -2.856   1.045   1.752  0.00  0.00    -0.013 C 
ATOM      9  C4' I4B d   1      -4.275   1.467   1.475  0.00  0.00     0.013 C 
ATOM     10  C3' I4B d   1      -2.659   0.728   3.205  0.00  0.00     0.013 C 
ENDBRANCH   7   8
ENDBRANCH   1   7
TORSDOF 2
ENDMDL
