MODEL 1
REMARK minimizedAffinity 1.46771157
REMARK minimizedRMSD -1
REMARK  2 active torsions:
REMARK  status: ('A' for Active; 'I' for Inactive)
REMARK    1  A    between atoms: C2'_3  and  C1'_4 
REMARK    2  A    between atoms: C1'_4  and  C1_5 
ROOT
ATOM      1  C1  I4B d   1      -0.697   0.323   0.978  0.00  0.00    -0.075 A 
ATOM      2  C2  I4B d   1      -0.179   1.394   0.294  0.00  0.00     0.003 A 
ATOM      3  C3  I4B d   1       0.857   1.202  -0.653  0.00  0.00     0.002 A 
ATOM      4  C4  I4B d   1       1.375  -0.063  -0.845  0.00  0.00    -0.004 A 
ATOM      5  C5  I4B d   1       0.833  -1.150  -0.168  0.00  0.00     0.002 A 
ATOM      6  C6  I4B d   1      -0.219  -0.959   0.741  0.00  0.00     0.003 A 
ENDROOT
BRANCH   1   7
ATOM      7  C1' I4B d   1      -1.768   0.567   1.994  0.00  0.00     0.060 C 
BRANCH   7   8
ATOM      8  C2' I4B d   1      -3.046   0.904   1.253  0.00  0.00    -0.013 C 
ATOM      9  C4' I4B d   1      -4.036  -0.228   1.331  0.00  0.00     0.013 C 
ATOM     10  C3' I4B d   1      -3.610   2.159   1.851  0.00  0.00     0.013 C 
ENDBRANCH   7   8
ENDBRANCH   1   7
TORSDOF 2
ENDMDL
