MODEL 1
REMARK minimizedAffinity -2.01060486
REMARK minimizedRMSD -1
REMARK  2 active torsions:
REMARK  status: ('A' for Active; 'I' for Inactive)
REMARK    1  A    between atoms: C2'_3  and  C1'_4 
REMARK    2  A    between atoms: C1'_4  and  C1_5 
ROOT
ATOM      1  C1  I4B d   1       0.406   0.631  -1.133  0.00  0.00    -0.075 A 
ATOM      2  C2  I4B d   1       1.486   1.163  -0.473  0.00  0.00     0.003 A 
ATOM      3  C3  I4B d   1       2.786   1.038  -1.018  0.00  0.00     0.002 A 
ATOM      4  C4  I4B d   1       2.967   0.334  -2.191  0.00  0.00    -0.004 A 
ATOM      5  C5  I4B d   1       1.869  -0.185  -2.870  0.00  0.00     0.002 A 
ATOM      6  C6  I4B d   1       0.579  -0.026  -2.345  0.00  0.00     0.003 A 
ENDROOT
BRANCH   1   7
ATOM      7  C1' I4B d   1      -0.950   0.752  -0.513  0.00  0.00     0.060 C 
BRANCH   7   8
ATOM      8  C2' I4B d   1      -0.867   0.208   0.899  0.00  0.00    -0.013 C 
ATOM      9  C4' I4B d   1      -2.155   0.436   1.647  0.00  0.00     0.013 C 
ATOM     10  C3' I4B d   1      -0.542  -1.253   0.814  0.00  0.00     0.013 C 
ENDBRANCH   7   8
ENDBRANCH   1   7
TORSDOF 2
ENDMDL
