MODEL 1
REMARK minimizedAffinity -0.858076513
REMARK minimizedRMSD -1
REMARK  2 active torsions:
REMARK  status: ('A' for Active; 'I' for Inactive)
REMARK    1  A    between atoms: C2'_3  and  C1'_4 
REMARK    2  A    between atoms: C1'_4  and  C1_5 
ROOT
ATOM      1  C1  I4B d   1       0.167   0.846  -0.867  0.00  0.00    -0.075 A 
ATOM      2  C2  I4B d   1      -0.234   0.524   0.406  0.00  0.00     0.003 A 
ATOM      3  C3  I4B d   1       0.327   1.195   1.520  0.00  0.00     0.002 A 
ATOM      4  C4  I4B d   1       1.314   2.137   1.320  0.00  0.00    -0.004 A 
ATOM      5  C5  I4B d   1       1.703   2.478   0.028  0.00  0.00     0.002 A 
ATOM      6  C6  I4B d   1       1.117   1.837  -1.074  0.00  0.00     0.003 A 
ENDROOT
BRANCH   1   7
ATOM      7  C1' I4B d   1      -0.422   0.095  -2.019  0.00  0.00     0.060 C 
BRANCH   7   8
ATOM      8  C2' I4B d   1       0.538  -1.017  -2.391  0.00  0.00    -0.013 C 
ATOM      9  C4' I4B d   1       1.865  -0.464  -2.841  0.00  0.00     0.013 C 
ATOM     10  C3' I4B d   1       0.700  -1.908  -1.196  0.00  0.00     0.013 C 
ENDBRANCH   7   8
ENDBRANCH   1   7
TORSDOF 2
ENDMDL
