MODEL 1
REMARK minimizedAffinity -0.625695646
REMARK minimizedRMSD -1
REMARK  2 active torsions:
REMARK  status: ('A' for Active; 'I' for Inactive)
REMARK    1  A    between atoms: C2'_3  and  C1'_4 
REMARK    2  A    between atoms: C1'_4  and  C1_5 
ROOT
ATOM      1  C1  I4B d   1      -0.959  -0.188   0.770  0.00  0.00    -0.075 A 
ATOM      2  C2  I4B d   1      -0.317  -1.389   0.942  0.00  0.00     0.003 A 
ATOM      3  C3  I4B d   1       0.207  -2.083  -0.176  0.00  0.00     0.002 A 
ATOM      4  C4  I4B d   1       0.022  -1.569  -1.443  0.00  0.00    -0.004 A 
ATOM      5  C5  I4B d   1      -0.609  -0.340  -1.613  0.00  0.00     0.002 A 
ATOM      6  C6  I4B d   1      -1.092   0.361  -0.499  0.00  0.00     0.003 A 
ENDROOT
BRANCH   1   7
ATOM      7  C1' I4B d   1      -1.529   0.502   1.968  0.00  0.00     0.060 C 
BRANCH   7   8
ATOM      8  C2' I4B d   1      -2.983   0.816   1.679  0.00  0.00    -0.013 C 
ATOM      9  C4' I4B d   1      -3.820  -0.437   1.673  0.00  0.00     0.013 C 
ATOM     10  C3' I4B d   1      -3.464   1.782   2.720  0.00  0.00     0.013 C 
ENDBRANCH   7   8
ENDBRANCH   1   7
TORSDOF 2
ENDMDL
