MODEL 1
REMARK minimizedAffinity -4.0076623
REMARK minimizedRMSD -1
REMARK  2 active torsions:
REMARK  status: ('A' for Active; 'I' for Inactive)
REMARK    1  A    between atoms: C2'_3  and  C1'_4 
REMARK    2  A    between atoms: C1'_4  and  C1_5 
ROOT
ATOM      1  C1  I4B d   1       1.092  -1.055   0.081  0.00  0.00    -0.075 A 
ATOM      2  C2  I4B d   1       1.063  -2.426   0.024  0.00  0.00     0.003 A 
ATOM      3  C3  I4B d   1       1.753  -3.112  -1.004  0.00  0.00     0.002 A 
ATOM      4  C4  I4B d   1       2.413  -2.391  -1.978  0.00  0.00    -0.004 A 
ATOM      5  C5  I4B d   1       2.461  -1.002  -1.906  0.00  0.00     0.002 A 
ATOM      6  C6  I4B d   1       1.807  -0.330  -0.864  0.00  0.00     0.003 A 
ENDROOT
BRANCH   1   7
ATOM      7  C1' I4B d   1       0.325  -0.362   1.161  0.00  0.00     0.060 C 
BRANCH   7   8
ATOM      8  C2' I4B d   1      -1.095  -0.162   0.671  0.00  0.00    -0.013 C 
ATOM      9  C4' I4B d   1      -1.972   0.404   1.757  0.00  0.00     0.013 C 
ATOM     10  C3' I4B d   1      -1.050   0.750  -0.519  0.00  0.00     0.013 C 
ENDBRANCH   7   8
ENDBRANCH   1   7
TORSDOF 2
ENDMDL
