MODEL 1
REMARK minimizedAffinity 0.00711114518
REMARK minimizedRMSD -1
REMARK  2 active torsions:
REMARK  status: ('A' for Active; 'I' for Inactive)
REMARK    1  A    between atoms: C2'_3  and  C1'_4 
REMARK    2  A    between atoms: C1'_4  and  C1_5 
ROOT
ATOM      1  C1  I4B d   1      -0.306  -0.073   0.492  0.00  0.00    -0.075 A 
ATOM      2  C2  I4B d   1       0.619  -0.934  -0.043  0.00  0.00     0.003 A 
ATOM      3  C3  I4B d   1       1.627  -0.448  -0.910  0.00  0.00     0.002 A 
ATOM      4  C4  I4B d   1       1.641   0.888  -1.254  0.00  0.00    -0.004 A 
ATOM      5  C5  I4B d   1       0.716   1.763  -0.693  0.00  0.00     0.002 A 
ATOM      6  C6  I4B d   1      -0.257   1.282   0.195  0.00  0.00     0.003 A 
ENDROOT
BRANCH   1   7
ATOM      7  C1' I4B d   1      -1.377  -0.626   1.378  0.00  0.00     0.060 C 
BRANCH   7   8
ATOM      8  C2' I4B d   1      -2.561   0.318   1.325  0.00  0.00    -0.013 C 
ATOM      9  C4' I4B d   1      -3.854  -0.437   1.167  0.00  0.00     0.013 C 
ATOM     10  C3' I4B d   1      -2.560   1.133   2.584  0.00  0.00     0.013 C 
ENDBRANCH   7   8
ENDBRANCH   1   7
TORSDOF 2
ENDMDL
