MODEL 1
REMARK minimizedAffinity -0.280228227
REMARK minimizedRMSD -1
REMARK  2 active torsions:
REMARK  status: ('A' for Active; 'I' for Inactive)
REMARK    1  A    between atoms: C2'_3  and  C1'_4 
REMARK    2  A    between atoms: C1'_4  and  C1_5 
ROOT
ATOM      1  C1  I4B d   1       0.502  -0.060  -0.877  0.00  0.00    -0.075 A 
ATOM      2  C2  I4B d   1       0.687  -1.420  -0.858  0.00  0.00     0.003 A 
ATOM      3  C3  I4B d   1       1.897  -1.981  -1.333  0.00  0.00     0.002 A 
ATOM      4  C4  I4B d   1       2.868  -1.156  -1.862  0.00  0.00    -0.004 A 
ATOM      5  C5  I4B d   1       2.688   0.225  -1.859  0.00  0.00     0.002 A 
ATOM      6  C6  I4B d   1       1.503   0.777  -1.352  0.00  0.00     0.003 A 
ENDROOT
BRANCH   1   7
ATOM      7  C1' I4B d   1      -0.801   0.497  -0.397  0.00  0.00     0.060 C 
BRANCH   7   8
ATOM      8  C2' I4B d   1      -1.196  -0.254   0.858  0.00  0.00    -0.013 C 
ATOM      9  C4' I4B d   1      -0.195  -0.037   1.961  0.00  0.00     0.013 C 
ATOM     10  C3' I4B d   1      -2.562   0.212   1.266  0.00  0.00     0.013 C 
ENDBRANCH   7   8
ENDBRANCH   1   7
TORSDOF 2
ENDMDL
