MODEL 1
REMARK minimizedAffinity -2.59012365
REMARK minimizedRMSD -1
REMARK  2 active torsions:
REMARK  status: ('A' for Active; 'I' for Inactive)
REMARK    1  A    between atoms: C2'_3  and  C1'_4 
REMARK    2  A    between atoms: C1'_4  and  C1_5 
ROOT
ATOM      1  C1  I4B d   1      -0.586   0.319   0.318  0.00  0.00    -0.075 A 
ATOM      2  C2  I4B d   1      -1.715   0.833  -0.270  0.00  0.00     0.003 A 
ATOM      3  C3  I4B d   1      -2.921   0.926   0.465  0.00  0.00     0.002 A 
ATOM      4  C4  I4B d   1      -2.967   0.452   1.760  0.00  0.00    -0.004 A 
ATOM      5  C5  I4B d   1      -1.816  -0.048   2.362  0.00  0.00     0.002 A 
ATOM      6  C6  I4B d   1      -0.614  -0.103   1.641  0.00  0.00     0.003 A 
ENDROOT
BRANCH   1   7
ATOM      7  C1' I4B d   1       0.663   0.204  -0.497  0.00  0.00     0.060 C 
BRANCH   7   8
ATOM      8  C2' I4B d   1       0.424  -0.835  -1.573  0.00  0.00    -0.013 C 
ATOM      9  C4' I4B d   1       1.351  -0.632  -2.742  0.00  0.00     0.013 C 
ATOM     10  C3' I4B d   1       0.615  -2.190  -0.959  0.00  0.00     0.013 C 
ENDBRANCH   7   8
ENDBRANCH   1   7
TORSDOF 2
ENDMDL
