MODEL 1
REMARK minimizedAffinity -1.13415015
REMARK minimizedRMSD -1
REMARK  2 active torsions:
REMARK  status: ('A' for Active; 'I' for Inactive)
REMARK    1  A    between atoms: C2'_3  and  C1'_4 
REMARK    2  A    between atoms: C1'_4  and  C1_5 
ROOT
ATOM      1  C1  I4B d   1      -0.660   0.028   0.160  0.00  0.00    -0.075 A 
ATOM      2  C2  I4B d   1      -0.802  -0.069   1.522  0.00  0.00     0.003 A 
ATOM      3  C3  I4B d   1      -2.036   0.255   2.135  0.00  0.00     0.002 A 
ATOM      4  C4  I4B d   1      -3.080   0.717   1.360  0.00  0.00    -0.004 A 
ATOM      5  C5  I4B d   1      -2.942   0.794  -0.023  0.00  0.00     0.002 A 
ATOM      6  C6  I4B d   1      -1.729   0.435  -0.629  0.00  0.00     0.003 A 
ENDROOT
BRANCH   1   7
ATOM      7  C1' I4B d   1       0.667  -0.291  -0.451  0.00  0.00     0.060 C 
BRANCH   7   8
ATOM      8  C2' I4B d   1       1.187   0.965  -1.120  0.00  0.00    -0.013 C 
ATOM      9  C4' I4B d   1       1.536   2.020  -0.104  0.00  0.00     0.013 C 
ATOM     10  C3' I4B d   1       2.383   0.591  -1.944  0.00  0.00     0.013 C 
ENDBRANCH   7   8
ENDBRANCH   1   7
TORSDOF 2
ENDMDL
