MODEL 1
REMARK minimizedAffinity -2.94957876
REMARK minimizedRMSD -1
REMARK  2 active torsions:
REMARK  status: ('A' for Active; 'I' for Inactive)
REMARK    1  A    between atoms: C2'_3  and  C1'_4 
REMARK    2  A    between atoms: C1'_4  and  C1_5 
ROOT
ATOM      1  C1  I4B d   1      -0.408   0.344   0.119  0.00  0.00    -0.075 A 
ATOM      2  C2  I4B d   1       0.569  -0.458  -0.416  0.00  0.00     0.003 A 
ATOM      3  C3  I4B d   1       1.644   0.115  -1.139  0.00  0.00     0.002 A 
ATOM      4  C4  I4B d   1       1.674   1.479  -1.344  0.00  0.00    -0.004 A 
ATOM      5  C5  I4B d   1       0.695   2.292  -0.782  0.00  0.00     0.002 A 
ATOM      6  C6  I4B d   1      -0.347   1.723  -0.035  0.00  0.00     0.003 A 
ENDROOT
BRANCH   1   7
ATOM      7  C1' I4B d   1      -1.546  -0.297   0.849  0.00  0.00     0.060 C 
BRANCH   7   8
ATOM      8  C2' I4B d   1      -2.546   0.787   1.198  0.00  0.00    -0.013 C 
ATOM      9  C4' I4B d   1      -3.960   0.287   1.065  0.00  0.00     0.013 C 
ATOM     10  C3' I4B d   1      -2.263   1.244   2.598  0.00  0.00     0.013 C 
ENDBRANCH   7   8
ENDBRANCH   1   7
TORSDOF 2
ENDMDL
