MODEL 1
REMARK minimizedAffinity -3.82256651
REMARK minimizedRMSD -1
REMARK  0 active torsions:
REMARK  status: ('A' for Active; 'I' for Inactive)
ROOT
ATOM      1  C   UNL d   1       0.491  -0.795   0.147  0.00  0.00     0.172 C 
ATOM      2  N   UNL d   1      -0.725  -1.109   0.860  0.00  0.00    -0.070 N 
ATOM      3  C1  UNL d   1      -1.101  -2.354   1.287  0.00  0.00    -0.004 A 
ATOM      4  C2  UNL d   1      -2.318  -2.233   1.923  0.00  0.00    -0.047 A 
ATOM      5  C3  UNL d   1      -2.687  -0.868   1.874  0.00  0.00    -0.047 A 
ATOM      6  C4  UNL d   1      -1.683  -0.195   1.210  0.00  0.00    -0.004 A 
ENDROOT
TORSDOF 0
ENDMDL
