MODEL 1
REMARK minimizedAffinity -2.40551066
REMARK minimizedRMSD -1
REMARK  0 active torsions:
REMARK  status: ('A' for Active; 'I' for Inactive)
ROOT
ATOM      1  C   UNL d   1      -0.367  -2.310   1.060  0.00  0.00     0.172 C 
ATOM      2  N   UNL d   1       0.027  -0.989   0.632  0.00  0.00    -0.070 N 
ATOM      3  C1  UNL d   1       1.295  -0.608   0.281  0.00  0.00    -0.004 A 
ATOM      4  C2  UNL d   1       1.255   0.725  -0.066  0.00  0.00    -0.047 A 
ATOM      5  C3  UNL d   1      -0.084   1.161   0.082  0.00  0.00    -0.047 A 
ATOM      6  C4  UNL d   1      -0.822   0.080   0.515  0.00  0.00    -0.004 A 
ENDROOT
TORSDOF 0
ENDMDL
