MODEL 1
REMARK minimizedAffinity -3.91123939
REMARK minimizedRMSD -1
REMARK  0 active torsions:
REMARK  status: ('A' for Active; 'I' for Inactive)
ROOT
ATOM      1  C   UNL d   1       0.773  -0.771   0.410  0.00  0.00     0.172 C 
ATOM      2  N   UNL d   1      -0.472  -1.415   0.759  0.00  0.00    -0.070 N 
ATOM      3  C1  UNL d   1      -0.627  -2.742   1.061  0.00  0.00    -0.004 A 
ATOM      4  C2  UNL d   1      -1.959  -2.959   1.338  0.00  0.00    -0.047 A 
ATOM      5  C3  UNL d   1      -2.628  -1.720   1.197  0.00  0.00    -0.047 A 
ATOM      6  C4  UNL d   1      -1.684  -0.782   0.838  0.00  0.00    -0.004 A 
ENDROOT
TORSDOF 0
ENDMDL
