MODEL 1
REMARK minimizedAffinity -3.05361724
REMARK minimizedRMSD -1
REMARK  0 active torsions:
REMARK  status: ('A' for Active; 'I' for Inactive)
ROOT
ATOM      1  C   UNL d   1      -1.748  -2.539   0.756  0.00  0.00     0.172 C 
ATOM      2  N   UNL d   1      -0.740  -1.544   0.469  0.00  0.00    -0.070 N 
ATOM      3  C1  UNL d   1      -0.975  -0.219   0.220  0.00  0.00    -0.004 A 
ATOM      4  C2  UNL d   1       0.240   0.390  -0.005  0.00  0.00    -0.047 A 
ATOM      5  C3  UNL d   1       1.240  -0.604   0.112  0.00  0.00    -0.047 A 
ATOM      6  C4  UNL d   1       0.605  -1.792   0.406  0.00  0.00    -0.004 A 
ENDROOT
TORSDOF 0
ENDMDL
