MODEL 1
REMARK minimizedAffinity -1.90676439
REMARK minimizedRMSD -1
REMARK  0 active torsions:
REMARK  status: ('A' for Active; 'I' for Inactive)
ROOT
ATOM      1  C   UNL d   1      -1.880  -2.868   1.331  0.00  0.00     0.172 C 
ATOM      2  N   UNL d   1      -0.903  -1.860   0.990  0.00  0.00    -0.070 N 
ATOM      3  C1  UNL d   1      -1.175  -0.547   0.710  0.00  0.00    -0.004 A 
ATOM      4  C2  UNL d   1       0.021   0.081   0.436  0.00  0.00    -0.047 A 
ATOM      5  C3  UNL d   1       1.046  -0.887   0.554  0.00  0.00    -0.047 A 
ATOM      6  C4  UNL d   1       0.446  -2.080   0.898  0.00  0.00    -0.004 A 
ENDROOT
TORSDOF 0
ENDMDL
