MODEL 1
REMARK minimizedAffinity -1.51637852
REMARK minimizedRMSD -1
REMARK  0 active torsions:
REMARK  status: ('A' for Active; 'I' for Inactive)
ROOT
ATOM      1  C   UNL d   1      -2.295  -2.252   1.964  0.00  0.00     0.172 C 
ATOM      2  N   UNL d   1      -0.922  -2.125   1.537  0.00  0.00    -0.070 N 
ATOM      3  C1  UNL d   1       0.161  -2.697   2.150  0.00  0.00    -0.004 A 
ATOM      4  C2  UNL d   1       1.286  -2.339   1.440  0.00  0.00    -0.047 A 
ATOM      5  C3  UNL d   1       0.866  -1.523   0.363  0.00  0.00    -0.047 A 
ATOM      6  C4  UNL d   1      -0.506  -1.407   0.447  0.00  0.00    -0.004 A 
ENDROOT
TORSDOF 0
ENDMDL
