MODEL 1
REMARK minimizedAffinity -4.03264284
REMARK minimizedRMSD -1
REMARK  0 active torsions:
REMARK  status: ('A' for Active; 'I' for Inactive)
ROOT
ATOM      1  C   UNL d   1       0.762   0.839  -0.043  0.00  0.00     0.172 C 
ATOM      2  N   UNL d   1       0.176  -0.406   0.394  0.00  0.00    -0.070 N 
ATOM      3  C1  UNL d   1      -1.150  -0.610   0.673  0.00  0.00    -0.004 A 
ATOM      4  C2  UNL d   1      -1.303  -1.925   1.056  0.00  0.00    -0.047 A 
ATOM      5  C3  UNL d   1      -0.026  -2.532   1.007  0.00  0.00    -0.047 A 
ATOM      6  C4  UNL d   1       0.871  -1.569   0.594  0.00  0.00    -0.004 A 
ENDROOT
TORSDOF 0
ENDMDL
