MODEL 1
REMARK minimizedAffinity -2.23409653
REMARK minimizedRMSD -1
REMARK  0 active torsions:
REMARK  status: ('A' for Active; 'I' for Inactive)
ROOT
ATOM      1  C   UNL d   1       0.790   2.954  -0.524  0.00  0.00     0.172 C 
ATOM      2  N   UNL d   1       0.961   2.641  -1.924  0.00  0.00    -0.070 N 
ATOM      3  C1  UNL d   1       0.118   3.017  -2.935  0.00  0.00    -0.004 A 
ATOM      4  C2  UNL d   1       0.629   2.526  -4.116  0.00  0.00    -0.047 A 
ATOM      5  C3  UNL d   1       1.822   1.830  -3.804  0.00  0.00    -0.047 A 
ATOM      6  C4  UNL d   1       2.003   1.917  -2.440  0.00  0.00    -0.004 A 
ENDROOT
TORSDOF 0
ENDMDL
