MODEL 1
REMARK minimizedAffinity -3.82198334
REMARK minimizedRMSD -1
REMARK  0 active torsions:
REMARK  status: ('A' for Active; 'I' for Inactive)
ROOT
ATOM      1  C   UNL d   1      -0.007   1.161   0.285  0.00  0.00     0.172 C 
ATOM      2  N   UNL d   1      -0.137  -0.269   0.430  0.00  0.00    -0.070 N 
ATOM      3  C1  UNL d   1       0.889  -1.143   0.673  0.00  0.00    -0.004 A 
ATOM      4  C2  UNL d   1       0.355  -2.412   0.744  0.00  0.00    -0.047 A 
ATOM      5  C3  UNL d   1      -1.040  -2.296   0.534  0.00  0.00    -0.047 A 
ATOM      6  C4  UNL d   1      -1.317  -0.959   0.343  0.00  0.00    -0.004 A 
ENDROOT
TORSDOF 0
ENDMDL
