MODEL 1
REMARK minimizedAffinity -3.89082623
REMARK minimizedRMSD -1
REMARK  0 active torsions:
REMARK  status: ('A' for Active; 'I' for Inactive)
ROOT
ATOM      1  C   UNL d   1      -0.664   0.320  -0.005  0.00  0.00     0.172 C 
ATOM      2  N   UNL d   1      -1.467  -0.571   0.800  0.00  0.00    -0.070 N 
ATOM      3  C1  UNL d   1      -2.553  -0.209   1.551  0.00  0.00    -0.004 A 
ATOM      4  C2  UNL d   1      -3.038  -1.343   2.165  0.00  0.00    -0.047 A 
ATOM      5  C3  UNL d   1      -2.214  -2.424   1.771  0.00  0.00    -0.047 A 
ATOM      6  C4  UNL d   1      -1.249  -1.918   0.926  0.00  0.00    -0.004 A 
ENDROOT
TORSDOF 0
ENDMDL
