MODEL 1
REMARK minimizedAffinity -3.40947032
REMARK minimizedRMSD -1
REMARK  0 active torsions:
REMARK  status: ('A' for Active; 'I' for Inactive)
ROOT
ATOM      1  C   UNL d   1       1.181  -0.791   0.015  0.00  0.00     0.172 C 
ATOM      2  N   UNL d   1      -0.042  -1.403   0.478  0.00  0.00    -0.070 N 
ATOM      3  C1  UNL d   1      -0.139  -2.610   1.118  0.00  0.00    -0.004 A 
ATOM      4  C2  UNL d   1      -1.470  -2.836   1.394  0.00  0.00    -0.047 A 
ATOM      5  C3  UNL d   1      -2.199  -1.726   0.902  0.00  0.00    -0.047 A 
ATOM      6  C4  UNL d   1      -1.290  -0.855   0.340  0.00  0.00    -0.004 A 
ENDROOT
TORSDOF 0
ENDMDL
