MODEL 1
REMARK minimizedAffinity -0.387870014
REMARK minimizedRMSD -1
REMARK  0 active torsions:
REMARK  status: ('A' for Active; 'I' for Inactive)
ROOT
ATOM      1  C   UNL d   1      -0.433   0.898  -0.048  0.00  0.00     0.172 C 
ATOM      2  N   UNL d   1      -0.295  -0.477   0.374  0.00  0.00    -0.070 N 
ATOM      3  C1  UNL d   1      -1.306  -1.272   0.842  0.00  0.00    -0.004 A 
ATOM      4  C2  UNL d   1      -0.769  -2.507   1.136  0.00  0.00    -0.047 A 
ATOM      5  C3  UNL d   1       0.612  -2.451   0.834  0.00  0.00    -0.047 A 
ATOM      6  C4  UNL d   1       0.878  -1.183   0.364  0.00  0.00    -0.004 A 
ENDROOT
TORSDOF 0
ENDMDL
