MODEL 1
REMARK minimizedAffinity -4.37576294
REMARK minimizedRMSD -1
REMARK  0 active torsions:
REMARK  status: ('A' for Active; 'I' for Inactive)
ROOT
ATOM      1  C   UNL d   1       0.253   0.903  -0.058  0.00  0.00     0.172 C 
ATOM      2  N   UNL d   1      -0.269  -0.406   0.257  0.00  0.00    -0.070 N 
ATOM      3  C1  UNL d   1      -1.594  -0.750   0.289  0.00  0.00    -0.004 A 
ATOM      4  C2  UNL d   1      -1.676  -2.083   0.629  0.00  0.00    -0.047 A 
ATOM      5  C3  UNL d   1      -0.354  -2.556   0.808  0.00  0.00    -0.047 A 
ATOM      6  C4  UNL d   1       0.497  -1.497   0.572  0.00  0.00    -0.004 A 
ENDROOT
TORSDOF 0
ENDMDL
