MODEL 1
REMARK minimizedAffinity -3.80915284
REMARK minimizedRMSD -1
REMARK  0 active torsions:
REMARK  status: ('A' for Active; 'I' for Inactive)
ROOT
ATOM      1  C   UNL d   1       1.594  -1.003   0.433  0.00  0.00     0.172 C 
ATOM      2  N   UNL d   1       0.239  -1.497   0.508  0.00  0.00    -0.070 N 
ATOM      3  C1  UNL d   1      -0.207  -2.478   1.352  0.00  0.00    -0.004 A 
ATOM      4  C2  UNL d   1      -1.553  -2.658   1.115  0.00  0.00    -0.047 A 
ATOM      5  C3  UNL d   1      -1.928  -1.754   0.093  0.00  0.00    -0.047 A 
ATOM      6  C4  UNL d   1      -0.799  -1.048  -0.265  0.00  0.00    -0.004 A 
ENDROOT
TORSDOF 0
ENDMDL
