MODEL 1
REMARK minimizedAffinity -4.04960966
REMARK minimizedRMSD -1
REMARK  0 active torsions:
REMARK  status: ('A' for Active; 'I' for Inactive)
ROOT
ATOM      1  C   UNL d   1       0.094   0.767  -0.363  0.00  0.00     0.172 C 
ATOM      2  N   UNL d   1      -0.434  -0.489   0.117  0.00  0.00    -0.070 N 
ATOM      3  C1  UNL d   1      -1.757  -0.773   0.322  0.00  0.00    -0.004 A 
ATOM      4  C2  UNL d   1      -1.845  -2.070   0.779  0.00  0.00    -0.047 A 
ATOM      5  C3  UNL d   1      -0.528  -2.583   0.852  0.00  0.00    -0.047 A 
ATOM      6  C4  UNL d   1       0.326  -1.584   0.437  0.00  0.00    -0.004 A 
ENDROOT
TORSDOF 0
ENDMDL
