MODEL 1
REMARK minimizedAffinity -1.98411655
REMARK minimizedRMSD -1
REMARK  1 active torsions:
REMARK  status: ('A' for Active; 'I' for Inactive)
REMARK    1  A    between atoms: C3_4  and  O_7 
ROOT
ATOM      1  C   UNL d   1       2.442  -2.135   2.697  0.00  0.00    -0.033 A 
ATOM      2  C1  UNL d   1       2.764  -1.782   1.385  0.00  0.00     0.039 A 
ATOM      3  C2  UNL d   1       1.875  -1.015   0.628  0.00  0.00    -0.080 A 
ATOM      4  C3  UNL d   1       0.671  -0.607   1.195  0.00  0.00     0.150 A 
ATOM      5  C4  UNL d   1       0.346  -0.952   2.503  0.00  0.00    -0.007 A 
ATOM      6  C5  UNL d   1       1.234  -1.719   3.256  0.00  0.00     0.039 A 
ENDROOT
BRANCH   4   7
ATOM      7  O   UNL d   1      -0.230   0.138   0.495  0.00  0.00    -0.526 OA
ATOM      8  H5  UNL d   1       0.116   0.276  -0.403  0.00  0.00     0.418 HD
ENDBRANCH   4   7
TORSDOF 1
ENDMDL
