MODEL 1
REMARK minimizedAffinity -2.85415435
REMARK minimizedRMSD -1
REMARK  1 active torsions:
REMARK  status: ('A' for Active; 'I' for Inactive)
REMARK    1  A    between atoms: C3_4  and  O_7 
ROOT
ATOM      1  C   UNL d   1       1.028  -1.537   1.985  0.00  0.00    -0.033 A 
ATOM      2  C1  UNL d   1       2.256  -1.502   1.321  0.00  0.00     0.039 A 
ATOM      3  C2  UNL d   1       3.429  -1.246   2.032  0.00  0.00    -0.080 A 
ATOM      4  C3  UNL d   1       3.362  -1.028   3.405  0.00  0.00     0.150 A 
ATOM      5  C4  UNL d   1       2.143  -1.065   4.074  0.00  0.00    -0.007 A 
ATOM      6  C5  UNL d   1       0.972  -1.320   3.362  0.00  0.00     0.039 A 
ENDROOT
BRANCH   4   7
ATOM      7  O   UNL d   1       4.480  -0.770   4.142  0.00  0.00    -0.526 OA
ATOM      8  H5  UNL d   1       5.245  -0.747   3.542  0.00  0.00     0.418 HD
ENDBRANCH   4   7
TORSDOF 1
ENDMDL
