MODEL 1
REMARK minimizedAffinity -2.74180532
REMARK minimizedRMSD -1
REMARK  1 active torsions:
REMARK  status: ('A' for Active; 'I' for Inactive)
REMARK    1  A    between atoms: C3_4  and  O_7 
ROOT
ATOM      1  C   UNL d   1       0.342   3.838  -3.715  0.00  0.00    -0.033 A 
ATOM      2  C1  UNL d   1       0.186   3.087  -2.548  0.00  0.00     0.039 A 
ATOM      3  C2  UNL d   1      -0.862   2.171  -2.440  0.00  0.00    -0.080 A 
ATOM      4  C3  UNL d   1      -1.745   2.014  -3.505  0.00  0.00     0.150 A 
ATOM      5  C4  UNL d   1      -1.593   2.755  -4.672  0.00  0.00    -0.007 A 
ATOM      6  C5  UNL d   1      -0.547   3.671  -4.777  0.00  0.00     0.039 A 
ENDROOT
BRANCH   4   7
ATOM      7  O   UNL d   1      -2.786   1.135  -3.444  0.00  0.00    -0.526 OA
ATOM      8  H5  UNL d   1      -2.782   0.714  -2.568  0.00  0.00     0.418 HD
ENDBRANCH   4   7
TORSDOF 1
ENDMDL
