MODEL 1
REMARK minimizedAffinity -1.68567705
REMARK minimizedRMSD -1
REMARK  1 active torsions:
REMARK  status: ('A' for Active; 'I' for Inactive)
REMARK    1  A    between atoms: C3_4  and  O_7 
ROOT
ATOM      1  C   UNL d   1      -2.086  -5.282  -4.182  0.00  0.00    -0.033 A 
ATOM      2  C1  UNL d   1      -1.893  -6.000  -5.364  0.00  0.00     0.039 A 
ATOM      3  C2  UNL d   1      -0.644  -5.997  -5.989  0.00  0.00    -0.080 A 
ATOM      4  C3  UNL d   1       0.402  -5.274  -5.421  0.00  0.00     0.150 A 
ATOM      5  C4  UNL d   1       0.218  -4.561  -4.241  0.00  0.00    -0.007 A 
ATOM      6  C5  UNL d   1      -1.030  -4.564  -3.620  0.00  0.00     0.039 A 
ENDROOT
BRANCH   4   7
ATOM      7  O   UNL d   1       1.637  -5.238  -5.997  0.00  0.00    -0.526 OA
ATOM      8  H5  UNL d   1       1.608  -5.753  -6.820  0.00  0.00     0.418 HD
ENDBRANCH   4   7
TORSDOF 1
ENDMDL
