MODEL 1
REMARK minimizedAffinity 0.579691648
REMARK minimizedRMSD -1
REMARK  1 active torsions:
REMARK  status: ('A' for Active; 'I' for Inactive)
REMARK    1  A    between atoms: C3_4  and  O_7 
ROOT
ATOM      1  C   UNL d   1      -2.798  -5.431  -4.502  0.00  0.00    -0.033 A 
ATOM      2  C1  UNL d   1      -2.347  -5.996  -5.697  0.00  0.00     0.039 A 
ATOM      3  C2  UNL d   1      -0.984  -5.998  -5.999  0.00  0.00    -0.080 A 
ATOM      4  C3  UNL d   1      -0.084  -5.434  -5.099  0.00  0.00     0.150 A 
ATOM      5  C4  UNL d   1      -0.526  -4.874  -3.905  0.00  0.00    -0.007 A 
ATOM      6  C5  UNL d   1      -1.888  -4.871  -3.606  0.00  0.00     0.039 A 
ENDROOT
BRANCH   4   7
ATOM      7  O   UNL d   1       1.256  -5.409  -5.352  0.00  0.00    -0.526 OA
ATOM      8  H5  UNL d   1       1.411  -5.806  -6.226  0.00  0.00     0.418 HD
ENDBRANCH   4   7
TORSDOF 1
ENDMDL
