MODEL 1
REMARK minimizedAffinity 2.2106111
REMARK minimizedRMSD -1
REMARK  1 active torsions:
REMARK  status: ('A' for Active; 'I' for Inactive)
REMARK    1  A    between atoms: C3_4  and  O_7 
ROOT
ATOM      1  C   UNL d   1       0.547  -5.344  -4.996  0.00  0.00    -0.033 A 
ATOM      2  C1  UNL d   1      -0.432  -5.486  -5.981  0.00  0.00     0.039 A 
ATOM      3  C2  UNL d   1      -1.784  -5.469  -5.632  0.00  0.00    -0.080 A 
ATOM      4  C3  UNL d   1      -2.143  -5.307  -4.297  0.00  0.00     0.150 A 
ATOM      5  C4  UNL d   1      -1.173  -5.161  -3.311  0.00  0.00    -0.007 A 
ATOM      6  C5  UNL d   1       0.176  -5.180  -3.661  0.00  0.00     0.039 A 
ENDROOT
BRANCH   4   7
ATOM      7  O   UNL d   1      -3.449  -5.289  -3.908  0.00  0.00    -0.526 OA
ATOM      8  H5  UNL d   1      -4.006  -5.429  -4.692  0.00  0.00     0.418 HD
ENDBRANCH   4   7
TORSDOF 1
ENDMDL
