MODEL 1
REMARK minimizedAffinity 2.15471101
REMARK minimizedRMSD -1
REMARK  1 active torsions:
REMARK  status: ('A' for Active; 'I' for Inactive)
REMARK    1  A    between atoms: C3_4  and  O_7 
ROOT
ATOM      1  C   UNL d   1      -4.707  -0.674  -0.528  0.00  0.00    -0.033 A 
ATOM      2  C1  UNL d   1      -5.677  -0.117  -1.363  0.00  0.00     0.039 A 
ATOM      3  C2  UNL d   1      -5.296   0.577  -2.514  0.00  0.00    -0.080 A 
ATOM      4  C3  UNL d   1      -3.943   0.705  -2.817  0.00  0.00     0.150 A 
ATOM      5  C4  UNL d   1      -2.971   0.149  -1.992  0.00  0.00    -0.007 A 
ATOM      6  C5  UNL d   1      -3.354  -0.542  -0.843  0.00  0.00     0.039 A 
ENDROOT
BRANCH   4   7
ATOM      7  O   UNL d   1      -3.522   1.377  -3.926  0.00  0.00    -0.526 OA
ATOM      8  H5  UNL d   1      -4.302   1.731  -4.386  0.00  0.00     0.418 HD
ENDBRANCH   4   7
TORSDOF 1
ENDMDL
