MODEL 1
REMARK minimizedAffinity 5.40863657
REMARK minimizedRMSD -1
REMARK  1 active torsions:
REMARK  status: ('A' for Active; 'I' for Inactive)
REMARK    1  A    between atoms: C3_4  and  O_7 
ROOT
ATOM      1  C   UNL d   1      -5.061   0.003   0.359  0.00  0.00    -0.033 A 
ATOM      2  C1  UNL d   1      -5.988   0.450  -0.586  0.00  0.00     0.039 A 
ATOM      3  C2  UNL d   1      -5.999  -0.101  -1.869  0.00  0.00    -0.080 A 
ATOM      4  C3  UNL d   1      -5.082  -1.096  -2.194  0.00  0.00     0.150 A 
ATOM      5  C4  UNL d   1      -4.159  -1.548  -1.257  0.00  0.00    -0.007 A 
ATOM      6  C5  UNL d   1      -4.148  -0.997   0.024  0.00  0.00     0.039 A 
ENDROOT
BRANCH   4   7
ATOM      7  O   UNL d   1      -5.052  -1.659  -3.435  0.00  0.00    -0.526 OA
ATOM      8  H5  UNL d   1      -5.727  -1.228  -3.985  0.00  0.00     0.418 HD
ENDBRANCH   4   7
TORSDOF 1
ENDMDL
