MODEL 1
REMARK minimizedAffinity 0.543968618
REMARK minimizedRMSD -1
REMARK  1 active torsions:
REMARK  status: ('A' for Active; 'I' for Inactive)
REMARK    1  A    between atoms: C3_4  and  O_7 
ROOT
ATOM      1  C   UNL d   1      -5.289   0.736  -3.254  0.00  0.00    -0.033 A 
ATOM      2  C1  UNL d   1      -5.997  -0.125  -2.414  0.00  0.00     0.039 A 
ATOM      3  C2  UNL d   1      -5.666  -0.210  -1.060  0.00  0.00    -0.080 A 
ATOM      4  C3  UNL d   1      -4.628   0.570  -0.560  0.00  0.00     0.150 A 
ATOM      5  C4  UNL d   1      -3.920   1.433  -1.390  0.00  0.00    -0.007 A 
ATOM      6  C5  UNL d   1      -4.251   1.516  -2.742  0.00  0.00     0.039 A 
ENDROOT
BRANCH   4   7
ATOM      7  O   UNL d   1      -4.265   0.517   0.754  0.00  0.00    -0.526 OA
ATOM      8  H5  UNL d   1      -4.822  -0.143   1.200  0.00  0.00     0.418 HD
ENDBRANCH   4   7
TORSDOF 1
ENDMDL
