MODEL 1
REMARK minimizedAffinity 1.15062034
REMARK minimizedRMSD -1
REMARK  1 active torsions:
REMARK  status: ('A' for Active; 'I' for Inactive)
REMARK    1  A    between atoms: C3_4  and  O_7 
ROOT
ATOM      1  C   UNL d   1      -4.899  -0.508  -0.017  0.00  0.00    -0.033 A 
ATOM      2  C1  UNL d   1      -5.349  -1.067  -1.215  0.00  0.00     0.039 A 
ATOM      3  C2  UNL d   1      -4.984  -0.495  -2.435  0.00  0.00    -0.080 A 
ATOM      4  C3  UNL d   1      -4.169   0.633  -2.444  0.00  0.00     0.150 A 
ATOM      5  C4  UNL d   1      -3.713   1.193  -1.255  0.00  0.00    -0.007 A 
ATOM      6  C5  UNL d   1      -4.080   0.621  -0.038  0.00  0.00     0.039 A 
ENDROOT
BRANCH   4   7
ATOM      7  O   UNL d   1      -3.790   1.229  -3.610  0.00  0.00    -0.526 OA
ATOM      8  H5  UNL d   1      -4.203   0.751  -4.349  0.00  0.00     0.418 HD
ENDBRANCH   4   7
TORSDOF 1
ENDMDL
