MODEL 1
REMARK minimizedAffinity 3.36216855
REMARK minimizedRMSD -1
REMARK  1 active torsions:
REMARK  status: ('A' for Active; 'I' for Inactive)
REMARK    1  A    between atoms: C3_4  and  O_7 
ROOT
ATOM      1  C   UNL d   1      -0.335  -0.350   0.495  0.00  0.00    -0.033 A 
ATOM      2  C1  UNL d   1       0.514  -1.449   0.344  0.00  0.00     0.039 A 
ATOM      3  C2  UNL d   1      -0.020  -2.731   0.206  0.00  0.00    -0.080 A 
ATOM      4  C3  UNL d   1      -1.402  -2.902   0.219  0.00  0.00     0.150 A 
ATOM      5  C4  UNL d   1      -2.253  -1.811   0.365  0.00  0.00    -0.007 A 
ATOM      6  C5  UNL d   1      -1.718  -0.531   0.504  0.00  0.00     0.039 A 
ENDROOT
BRANCH   4   7
ATOM      7  O   UNL d   1      -1.969  -4.135   0.092  0.00  0.00    -0.526 OA
ATOM      8  H5  UNL d   1      -1.259  -4.795   0.028  0.00  0.00     0.418 HD
ENDBRANCH   4   7
TORSDOF 1
ENDMDL
