MODEL 1
REMARK minimizedAffinity 2.94771576
REMARK minimizedRMSD -1
REMARK  1 active torsions:
REMARK  status: ('A' for Active; 'I' for Inactive)
REMARK    1  A    between atoms: C3_4  and  O_7 
ROOT
ATOM      1  C   UNL d   1       1.475  -5.377  -5.018  0.00  0.00    -0.033 A 
ATOM      2  C1  UNL d   1       0.906  -4.507  -4.086  0.00  0.00     0.039 A 
ATOM      3  C2  UNL d   1      -0.467  -4.255  -4.111  0.00  0.00    -0.080 A 
ATOM      4  C3  UNL d   1      -1.259  -4.880  -5.071  0.00  0.00     0.150 A 
ATOM      5  C4  UNL d   1      -0.699  -5.751  -6.000  0.00  0.00    -0.007 A 
ATOM      6  C5  UNL d   1       0.673  -6.000  -5.974  0.00  0.00     0.039 A 
ENDROOT
BRANCH   4   7
ATOM      7  O   UNL d   1      -2.603  -4.662  -5.138  0.00  0.00    -0.526 OA
ATOM      8  H5  UNL d   1      -2.845  -4.016  -4.453  0.00  0.00     0.418 HD
ENDBRANCH   4   7
TORSDOF 1
ENDMDL
