MODEL 1
REMARK minimizedAffinity -0.957472563
REMARK minimizedRMSD -1
REMARK  1 active torsions:
REMARK  status: ('A' for Active; 'I' for Inactive)
REMARK    1  A    between atoms: C3_4  and  O_7 
ROOT
ATOM      1  C   UNL d   1      -2.050  -5.303  -5.012  0.00  0.00    -0.033 A 
ATOM      2  C1  UNL d   1      -1.350  -5.999  -6.000  0.00  0.00     0.039 A 
ATOM      3  C2  UNL d   1       0.046  -6.000  -6.000  0.00  0.00    -0.080 A 
ATOM      4  C3  UNL d   1       0.730  -5.303  -5.007  0.00  0.00     0.150 A 
ATOM      5  C4  UNL d   1       0.039  -4.610  -4.018  0.00  0.00    -0.007 A 
ATOM      6  C5  UNL d   1      -1.355  -4.610  -4.020  0.00  0.00     0.039 A 
ENDROOT
BRANCH   4   7
ATOM      7  O   UNL d   1       2.092  -5.270  -4.969  0.00  0.00    -0.526 OA
ATOM      8  H5  UNL d   1       2.433  -5.768  -5.730  0.00  0.00     0.418 HD
ENDBRANCH   4   7
TORSDOF 1
ENDMDL
