MODEL 1
REMARK minimizedAffinity 9.80757427
REMARK minimizedRMSD -1
REMARK  0 active torsions:
REMARK  status: ('A' for Active; 'I' for Inactive)
ROOT
ATOM      1  C4' PXY d   1       0.282   3.970  -0.659  0.00  0.00     0.077 C 
ATOM      2  C1' PXY d   1       0.863   0.068   3.566  0.00  0.00     0.077 C 
ATOM      3  C1  PXY d   1       0.718   1.084   2.450  0.00  0.00    -0.082 A 
ATOM      4  C2  PXY d   1       0.444   2.345   2.745  0.00  0.00     0.003 A 
ATOM      5  C3  PXY d   1       0.278   3.270   1.747  0.00  0.00     0.003 A 
ATOM      6  C4  PXY d   1       0.447   2.912   0.436  0.00  0.00    -0.082 A 
ATOM      7  C5  PXY d   1       0.737   1.630   0.128  0.00  0.00     0.003 A 
ATOM      8  C6  PXY d   1       0.861   0.698   1.153  0.00  0.00     0.003 A 
ENDROOT
TORSDOF 0
ENDMDL
