MODEL 1
REMARK minimizedAffinity 6.86636019
REMARK minimizedRMSD -1
REMARK  0 active torsions:
REMARK  status: ('A' for Active; 'I' for Inactive)
ROOT
ATOM      1  C4' PXY d   1       1.904  -0.581   2.821  0.00  0.00     0.077 C 
ATOM      2  C1' PXY d   1      -1.532   3.771   1.186  0.00  0.00     0.077 C 
ATOM      3  C1  PXY d   1      -0.621   2.638   1.616  0.00  0.00    -0.082 A 
ATOM      4  C2  PXY d   1      -0.892   1.400   1.234  0.00  0.00     0.003 A 
ATOM      5  C3  PXY d   1      -0.097   0.360   1.641  0.00  0.00     0.003 A 
ATOM      6  C4  PXY d   1       1.017   0.595   2.402  0.00  0.00    -0.082 A 
ATOM      7  C5  PXY d   1       1.306   1.856   2.786  0.00  0.00     0.003 A 
ATOM      8  C6  PXY d   1       0.463   2.894   2.397  0.00  0.00     0.003 A 
ENDROOT
TORSDOF 0
ENDMDL
