MODEL 1
REMARK minimizedAffinity 7.94109154
REMARK minimizedRMSD -1
REMARK  0 active torsions:
REMARK  status: ('A' for Active; 'I' for Inactive)
ROOT
ATOM      1  C4' PXY d   1      -0.380   3.860  -1.829  0.00  0.00     0.077 C 
ATOM      2  C1' PXY d   1      -0.370   0.882   3.125  0.00  0.00     0.077 C 
ATOM      3  C1  PXY d   1      -0.364   1.655   1.821  0.00  0.00    -0.082 A 
ATOM      4  C2  PXY d   1      -0.680   2.940   1.820  0.00  0.00     0.003 A 
ATOM      5  C3  PXY d   1      -0.711   3.646   0.645  0.00  0.00     0.003 A 
ATOM      6  C4  PXY d   1      -0.364   3.043  -0.534  0.00  0.00    -0.082 A 
ATOM      7  C5  PXY d   1      -0.030   1.735  -0.540  0.00  0.00     0.003 A 
ATOM      8  C6  PXY d   1      -0.045   1.026   0.657  0.00  0.00     0.003 A 
ENDROOT
TORSDOF 0
ENDMDL
