MODEL 1
REMARK minimizedAffinity 6.41707182
REMARK minimizedRMSD -1
REMARK  0 active torsions:
REMARK  status: ('A' for Active; 'I' for Inactive)
ROOT
ATOM      1  C4' PXY d   1      -0.090   1.323  -3.004  0.00  0.00     0.077 C 
ATOM      2  C1' PXY d   1      -0.927  -4.190  -1.480  0.00  0.00     0.077 C 
ATOM      3  C1  PXY d   1      -0.700  -2.743  -1.869  0.00  0.00    -0.082 A 
ATOM      4  C2  PXY d   1      -1.577  -2.129  -2.646  0.00  0.00     0.003 A 
ATOM      5  C3  PXY d   1      -1.371  -0.830  -3.034  0.00  0.00     0.003 A 
ATOM      6  C4  PXY d   1      -0.283  -0.135  -2.578  0.00  0.00    -0.082 A 
ATOM      7  C5  PXY d   1       0.611  -0.751  -1.776  0.00  0.00     0.003 A 
ATOM      8  C6  PXY d   1       0.405  -2.083  -1.428  0.00  0.00     0.003 A 
ENDROOT
TORSDOF 0
ENDMDL
