MODEL 1
REMARK minimizedAffinity 3.88141108
REMARK minimizedRMSD -1
REMARK  0 active torsions:
REMARK  status: ('A' for Active; 'I' for Inactive)
ROOT
ATOM      1  C4' PXY d   1       1.848  -2.042   2.991  0.00  0.00     0.077 C 
ATOM      2  C1' PXY d   1      -1.180   2.744   1.832  0.00  0.00     0.077 C 
ATOM      3  C1  PXY d   1      -0.384   1.487   2.123  0.00  0.00    -0.082 A 
ATOM      4  C2  PXY d   1      -0.641   0.788   3.217  0.00  0.00     0.003 A 
ATOM      5  C3  PXY d   1       0.091  -0.333   3.512  0.00  0.00     0.003 A 
ATOM      6  C4  PXY d   1       1.062  -0.772   2.652  0.00  0.00    -0.082 A 
ATOM      7  C5  PXY d   1       1.324  -0.070   1.529  0.00  0.00     0.003 A 
ATOM      8  C6  PXY d   1       0.597   1.088   1.268  0.00  0.00     0.003 A 
ENDROOT
TORSDOF 0
ENDMDL
