MODEL 1
REMARK minimizedAffinity 4.9332037
REMARK minimizedRMSD -1
REMARK  0 active torsions:
REMARK  status: ('A' for Active; 'I' for Inactive)
ROOT
ATOM      1  C4' PXY d   1       0.888   4.667   1.137  0.00  0.00     0.077 C 
ATOM      2  C1' PXY d   1       0.007  -0.947   2.197  0.00  0.00     0.077 C 
ATOM      3  C1  PXY d   1       0.235   0.529   1.931  0.00  0.00    -0.082 A 
ATOM      4  C2  PXY d   1       0.162   0.989   0.693  0.00  0.00     0.003 A 
ATOM      5  C3  PXY d   1       0.396   2.314   0.431  0.00  0.00     0.003 A 
ATOM      6  C4  PXY d   1       0.656   3.187   1.453  0.00  0.00    -0.082 A 
ATOM      7  C5  PXY d   1       0.722   2.727   2.721  0.00  0.00     0.003 A 
ATOM      8  C6  PXY d   1       0.521   1.371   2.961  0.00  0.00     0.003 A 
ENDROOT
TORSDOF 0
ENDMDL
