MODEL 1
REMARK minimizedAffinity -0.995706439
REMARK minimizedRMSD -1
REMARK  0 active torsions:
REMARK  status: ('A' for Active; 'I' for Inactive)
ROOT
ATOM      1  C4' PXY d   1       0.451   4.138  -0.179  0.00  0.00     0.077 C 
ATOM      2  C1' PXY d   1       0.938  -0.938   2.545  0.00  0.00     0.077 C 
ATOM      3  C1  PXY d   1       0.814   0.387   1.819  0.00  0.00    -0.082 A 
ATOM      4  C2  PXY d   1       0.882   1.517   2.505  0.00  0.00     0.003 A 
ATOM      5  C3  PXY d   1       0.740   2.724   1.869  0.00  0.00     0.003 A 
ATOM      6  C4  PXY d   1       0.580   2.776   0.510  0.00  0.00    -0.082 A 
ATOM      7  C5  PXY d   1       0.521   1.629  -0.197  0.00  0.00     0.003 A 
ATOM      8  C6  PXY d   1       0.626   0.413   0.472  0.00  0.00     0.003 A 
ENDROOT
TORSDOF 0
ENDMDL
