MODEL 1
REMARK minimizedAffinity 0.0403926782
REMARK minimizedRMSD -1
REMARK  0 active torsions:
REMARK  status: ('A' for Active; 'I' for Inactive)
ROOT
ATOM      1  C4' PXY d   1       1.918  -0.759   1.873  0.00  0.00     0.077 C 
ATOM      2  C1' PXY d   1      -0.714   4.344   1.203  0.00  0.00     0.077 C 
ATOM      3  C1  PXY d   1      -0.033   3.000   1.371  0.00  0.00    -0.082 A 
ATOM      4  C2  PXY d   1       0.734   2.783   2.428  0.00  0.00     0.003 A 
ATOM      5  C3  PXY d   1       1.383   1.585   2.579  0.00  0.00     0.003 A 
ATOM      6  C4  PXY d   1       1.203   0.580   1.667  0.00  0.00    -0.082 A 
ATOM      7  C5  PXY d   1       0.415   0.790   0.592  0.00  0.00     0.003 A 
ATOM      8  C6  PXY d   1      -0.203   2.027   0.435  0.00  0.00     0.003 A 
ENDROOT
TORSDOF 0
ENDMDL
