MODEL 1
REMARK minimizedAffinity -2.47703624
REMARK minimizedRMSD -1
REMARK  0 active torsions:
REMARK  status: ('A' for Active; 'I' for Inactive)
ROOT
ATOM      1  C4' PXY d   1       0.498   5.128   0.516  0.00  0.00     0.077 C 
ATOM      2  C1' PXY d   1       1.212  -0.396   2.064  0.00  0.00     0.077 C 
ATOM      3  C1  PXY d   1       1.028   1.050   1.646  0.00  0.00    -0.082 A 
ATOM      4  C2  PXY d   1       1.113   2.009   2.553  0.00  0.00     0.003 A 
ATOM      5  C3  PXY d   1       0.918   3.319   2.198  0.00  0.00     0.003 A 
ATOM      6  C4  PXY d   1       0.686   3.655   0.891  0.00  0.00    -0.082 A 
ATOM      7  C5  PXY d   1       0.608   2.683  -0.042  0.00  0.00     0.003 A 
ATOM      8  C6  PXY d   1       0.768   1.356   0.346  0.00  0.00     0.003 A 
ENDROOT
TORSDOF 0
ENDMDL
