MODEL 1
REMARK minimizedAffinity -1.06843889
REMARK minimizedRMSD -1
REMARK  1 active torsions:
REMARK  status: ('A' for Active; 'I' for Inactive)
REMARK    1  A    between atoms: N_2  and  C1_3 
ROOT
ATOM      1  C1  UNL d   1       0.160   0.031   0.548  0.00  0.00     0.143 A 
ATOM      2  C2  UNL d   1       1.001   1.133   0.737  0.00  0.00    -0.057 A 
ATOM      3  C3  UNL d   1       0.485   2.431   0.839  0.00  0.00     0.033 A 
ATOM      4  C4  UNL d   1      -0.883   2.653   0.724  0.00  0.00    -0.042 A 
ATOM      5  C5  UNL d   1      -1.736   1.575   0.511  0.00  0.00     0.033 A 
ATOM      6  C6  UNL d   1      -1.215   0.281   0.417  0.00  0.00    -0.057 A 
ENDROOT
BRANCH   1   7
ATOM      7  N   UNL d   1       0.620  -1.271   0.340  0.00  0.00    -0.732 N 
ATOM      8  C   UNL d   1      -0.155  -2.211  -0.442  0.00  0.00     0.284 C 
ATOM      9  H3  UNL d   1       1.621  -1.306   0.160  0.00  0.00     0.395 HD
ENDBRANCH   1   7
TORSDOF 1
ENDMDL
