MODEL 1
REMARK minimizedAffinity -1.94611287
REMARK minimizedRMSD -1
REMARK  1 active torsions:
REMARK  status: ('A' for Active; 'I' for Inactive)
REMARK    1  A    between atoms: N_2  and  C1_3 
ROOT
ATOM      1  C1  UNL d   1      -0.110  -2.239  -0.625  0.00  0.00     0.143 A 
ATOM      2  C2  UNL d   1      -1.206  -3.076  -0.388  0.00  0.00    -0.057 A 
ATOM      3  C3  UNL d   1      -1.721  -3.901  -1.394  0.00  0.00     0.033 A 
ATOM      4  C4  UNL d   1      -1.165  -3.883  -2.669  0.00  0.00    -0.042 A 
ATOM      5  C5  UNL d   1      -0.091  -3.041  -2.935  0.00  0.00     0.033 A 
ATOM      6  C6  UNL d   1       0.423  -2.224  -1.923  0.00  0.00    -0.057 A 
ENDROOT
BRANCH   1   7
ATOM      7  N   UNL d   1       0.385  -1.323   0.306  0.00  0.00    -0.732 N 
ATOM      8  C   UNL d   1      -0.032   0.062   0.271  0.00  0.00     0.284 C 
ATOM      9  H3  UNL d   1       0.445  -1.716   1.243  0.00  0.00     0.395 HD
ENDBRANCH   1   7
TORSDOF 1
ENDMDL
