MODEL 1
REMARK minimizedAffinity -3.38053823
REMARK minimizedRMSD -1
REMARK  1 active torsions:
REMARK  status: ('A' for Active; 'I' for Inactive)
REMARK    1  A    between atoms: N_2  and  C1_3 
ROOT
ATOM      1  C1  UNL d   1       0.085   0.227   0.344  0.00  0.00     0.143 A 
ATOM      2  C2  UNL d   1      -1.007   1.098   0.429  0.00  0.00    -0.057 A 
ATOM      3  C3  UNL d   1      -0.829   2.487   0.438  0.00  0.00     0.033 A 
ATOM      4  C4  UNL d   1       0.450   3.030   0.393  0.00  0.00    -0.042 A 
ATOM      5  C5  UNL d   1       1.552   2.184   0.333  0.00  0.00     0.033 A 
ATOM      6  C6  UNL d   1       1.367   0.798   0.317  0.00  0.00    -0.057 A 
ENDROOT
BRANCH   1   7
ATOM      7  N   UNL d   1      -0.021  -1.163   0.430  0.00  0.00    -0.732 N 
ATOM      8  C   UNL d   1      -0.410  -1.945  -0.724  0.00  0.00     0.284 C 
ATOM      9  H3  UNL d   1       0.730  -1.577   0.978  0.00  0.00     0.395 HD
ENDBRANCH   1   7
TORSDOF 1
ENDMDL
