MODEL 1
REMARK minimizedAffinity -4.75470877
REMARK minimizedRMSD -1
REMARK  1 active torsions:
REMARK  status: ('A' for Active; 'I' for Inactive)
REMARK    1  A    between atoms: N_2  and  C1_3 
ROOT
ATOM      1  C1  UNL d   1       0.423   1.030   0.397  0.00  0.00     0.143 A 
ATOM      2  C2  UNL d   1       0.021   2.370   0.387  0.00  0.00    -0.057 A 
ATOM      3  C3  UNL d   1       0.958   3.409   0.440  0.00  0.00     0.033 A 
ATOM      4  C4  UNL d   1       2.317   3.125   0.533  0.00  0.00    -0.042 A 
ATOM      5  C5  UNL d   1       2.737   1.801   0.569  0.00  0.00     0.033 A 
ATOM      6  C6  UNL d   1       1.797   0.767   0.509  0.00  0.00    -0.057 A 
ENDROOT
BRANCH   1   7
ATOM      7  N   UNL d   1      -0.464  -0.048   0.446  0.00  0.00    -0.732 N 
ATOM      8  C   UNL d   1      -0.122  -1.313  -0.167  0.00  0.00     0.284 C 
ATOM      9  H3  UNL d   1      -0.921  -0.134   1.351  0.00  0.00     0.395 HD
ENDBRANCH   1   7
TORSDOF 1
ENDMDL
