MODEL 1
REMARK minimizedAffinity -5.19401836
REMARK minimizedRMSD -1
REMARK  1 active torsions:
REMARK  status: ('A' for Active; 'I' for Inactive)
REMARK    1  A    between atoms: N_2  and  C1_3 
ROOT
ATOM      1  C1  UNL d   1       0.310   0.274   0.387  0.00  0.00     0.143 A 
ATOM      2  C2  UNL d   1      -0.682   1.186   0.013  0.00  0.00    -0.057 A 
ATOM      3  C3  UNL d   1      -0.406   2.554  -0.097  0.00  0.00     0.033 A 
ATOM      4  C4  UNL d   1       0.864   3.039   0.195  0.00  0.00    -0.042 A 
ATOM      5  C5  UNL d   1       1.860   2.154   0.593  0.00  0.00     0.033 A 
ATOM      6  C6  UNL d   1       1.580   0.788   0.695  0.00  0.00    -0.057 A 
ENDROOT
BRANCH   1   7
ATOM      7  N   UNL d   1       0.074  -1.085   0.610  0.00  0.00    -0.732 N 
ATOM      8  C   UNL d   1      -0.345  -1.948  -0.474  0.00  0.00     0.284 C 
ATOM      9  H3  UNL d   1       0.763  -1.503   1.231  0.00  0.00     0.395 HD
ENDBRANCH   1   7
TORSDOF 1
ENDMDL
