MODEL 1
REMARK minimizedAffinity -5.19839764
REMARK minimizedRMSD -1
REMARK  1 active torsions:
REMARK  status: ('A' for Active; 'I' for Inactive)
REMARK    1  A    between atoms: N_2  and  C1_3 
ROOT
ATOM      1  C1  UNL d   1       0.091  -0.126   0.014  0.00  0.00     0.143 A 
ATOM      2  C2  UNL d   1       1.356   0.383  -0.302  0.00  0.00    -0.057 A 
ATOM      3  C3  UNL d   1       1.587   1.762  -0.371  0.00  0.00     0.033 A 
ATOM      4  C4  UNL d   1       0.546   2.659  -0.154  0.00  0.00    -0.042 A 
ATOM      5  C5  UNL d   1      -0.724   2.176   0.137  0.00  0.00     0.033 A 
ATOM      6  C6  UNL d   1      -0.947   0.797   0.212  0.00  0.00    -0.057 A 
ENDROOT
BRANCH   1   7
ATOM      7  N   UNL d   1      -0.225  -1.487   0.002  0.00  0.00    -0.732 N 
ATOM      8  C   UNL d   1      -0.291  -2.217  -1.246  0.00  0.00     0.284 C 
ATOM      9  H3  UNL d   1       0.225  -1.997   0.759  0.00  0.00     0.395 HD
ENDBRANCH   1   7
TORSDOF 1
ENDMDL
