MODEL 1
REMARK minimizedAffinity -3.50781035
REMARK minimizedRMSD -1
REMARK  1 active torsions:
REMARK  status: ('A' for Active; 'I' for Inactive)
REMARK    1  A    between atoms: N_2  and  C1_3 
ROOT
ATOM      1  C1  UNL d   1       0.001   0.336   0.360  0.00  0.00     0.143 A 
ATOM      2  C2  UNL d   1      -0.994   1.098   0.984  0.00  0.00    -0.057 A 
ATOM      3  C3  UNL d   1      -0.890   2.491   1.078  0.00  0.00     0.033 A 
ATOM      4  C4  UNL d   1       0.228   3.146   0.573  0.00  0.00    -0.042 A 
ATOM      5  C5  UNL d   1       1.241   2.408  -0.029  0.00  0.00     0.033 A 
ATOM      6  C6  UNL d   1       1.128   1.017  -0.126  0.00  0.00    -0.057 A 
ENDROOT
BRANCH   1   7
ATOM      7  N   UNL d   1       0.002  -1.060   0.323  0.00  0.00    -0.732 N 
ATOM      8  C   UNL d   1      -0.459  -1.767  -0.853  0.00  0.00     0.284 C 
ATOM      9  H3  UNL d   1       0.837  -1.459   0.747  0.00  0.00     0.395 HD
ENDBRANCH   1   7
TORSDOF 1
ENDMDL
