MODEL 1
REMARK minimizedAffinity -3.73266363
REMARK minimizedRMSD -1
REMARK  1 active torsions:
REMARK  status: ('A' for Active; 'I' for Inactive)
REMARK    1  A    between atoms: N_2  and  C1_3 
ROOT
ATOM      1  C1  UNL d   1       0.391   0.357   0.352  0.00  0.00     0.143 A 
ATOM      2  C2  UNL d   1      -0.679   1.188   0.705  0.00  0.00    -0.057 A 
ATOM      3  C3  UNL d   1      -0.633   2.568   0.475  0.00  0.00     0.033 A 
ATOM      4  C4  UNL d   1       0.499   3.148  -0.088  0.00  0.00    -0.042 A 
ATOM      5  C5  UNL d   1       1.583   2.346  -0.424  0.00  0.00     0.033 A 
ATOM      6  C6  UNL d   1       1.529   0.967  -0.198  0.00  0.00    -0.057 A 
ENDROOT
BRANCH   1   7
ATOM      7  N   UNL d   1       0.445  -1.007   0.645  0.00  0.00    -0.732 N 
ATOM      8  C   UNL d   1      -0.176  -1.975  -0.233  0.00  0.00     0.284 C 
ATOM      9  H3  UNL d   1       1.355  -1.292   1.001  0.00  0.00     0.395 HD
ENDBRANCH   1   7
TORSDOF 1
ENDMDL
