MODEL 1
REMARK minimizedAffinity -2.26313686
REMARK minimizedRMSD -1
REMARK  1 active torsions:
REMARK  status: ('A' for Active; 'I' for Inactive)
REMARK    1  A    between atoms: N_2  and  C1_3 
ROOT
ATOM      1  C1  UNL d   1      -0.399   0.791   0.200  0.00  0.00     0.143 A 
ATOM      2  C2  UNL d   1       0.743   0.503  -0.556  0.00  0.00    -0.057 A 
ATOM      3  C3  UNL d   1       1.677   1.499  -0.866  0.00  0.00     0.033 A 
ATOM      4  C4  UNL d   1       1.471   2.810  -0.449  0.00  0.00    -0.042 A 
ATOM      5  C5  UNL d   1       0.330   3.123   0.282  0.00  0.00     0.033 A 
ATOM      6  C6  UNL d   1      -0.596   2.123   0.594  0.00  0.00    -0.057 A 
ENDROOT
BRANCH   1   7
ATOM      7  N   UNL d   1      -1.414  -0.134   0.458  0.00  0.00    -0.732 N 
ATOM      8  C   UNL d   1      -2.580   0.246   1.226  0.00  0.00     0.284 C 
ATOM      9  H3  UNL d   1      -1.620  -0.720  -0.348  0.00  0.00     0.395 HD
ENDBRANCH   1   7
TORSDOF 1
ENDMDL
