MODEL 1
REMARK minimizedAffinity -4.98737621
REMARK minimizedRMSD -1
REMARK  0 active torsions:
REMARK  status: ('A' for Active; 'I' for Inactive)
ROOT
ATOM      1  C   UNL d   1       2.759   0.221  -1.572  0.00  0.00     0.020 A 
ATOM      2  C1  UNL d   1       2.728  -0.447  -0.348  0.00  0.00     0.020 A 
ATOM      3  C2  UNL d   1       1.636  -0.287   0.507  0.00  0.00     0.034 A 
ATOM      4  C3  UNL d   1       0.571   0.544   0.141  0.00  0.00     0.017 A 
ATOM      5  C4  UNL d   1       0.603   1.214  -1.088  0.00  0.00     0.017 A 
ATOM      6  C5  UNL d   1       1.699   1.049  -1.940  0.00  0.00     0.034 A 
ATOM      7 Cl   UNL d   1      -0.674   2.255  -1.609  0.00  0.00    -0.070 Cl
ATOM      8 Cl1  UNL d   1      -0.747   0.696   1.248  0.00  0.00    -0.070 Cl
ENDROOT
TORSDOF 0
ENDMDL
