MODEL 1
REMARK minimizedAffinity -0.925302982
REMARK minimizedRMSD -1
REMARK  0 active torsions:
REMARK  status: ('A' for Active; 'I' for Inactive)
ROOT
ATOM      1  C   UNL d   1      -0.754   0.225   0.310  0.00  0.00     0.020 A 
ATOM      2  C1  UNL d   1      -0.763   1.484  -0.288  0.00  0.00     0.020 A 
ATOM      3  C2  UNL d   1      -0.021   1.711  -1.449  0.00  0.00     0.034 A 
ATOM      4  C3  UNL d   1       0.732   0.677  -2.016  0.00  0.00     0.017 A 
ATOM      5  C4  UNL d   1       0.740  -0.587  -1.416  0.00  0.00     0.017 A 
ATOM      6  C5  UNL d   1      -0.004  -0.809  -0.253  0.00  0.00     0.034 A 
ATOM      7 Cl   UNL d   1       1.645  -1.913  -2.057  0.00  0.00    -0.070 Cl
ATOM      8 Cl1  UNL d   1       1.625   1.028  -3.453  0.00  0.00    -0.070 Cl
ENDROOT
TORSDOF 0
ENDMDL
