MODEL 1
REMARK minimizedAffinity -0.467370927
REMARK minimizedRMSD -1
REMARK  0 active torsions:
REMARK  status: ('A' for Active; 'I' for Inactive)
ROOT
ATOM      1  C   UNL d   1      -0.230   1.998  -0.638  0.00  0.00     0.020 A 
ATOM      2  C1  UNL d   1      -0.599   1.973   0.707  0.00  0.00     0.020 A 
ATOM      3  C2  UNL d   1      -0.275   0.869   1.498  0.00  0.00     0.034 A 
ATOM      4  C3  UNL d   1       0.419  -0.214   0.946  0.00  0.00     0.017 A 
ATOM      5  C4  UNL d   1       0.789  -0.187  -0.403  0.00  0.00     0.017 A 
ATOM      6  C5  UNL d   1       0.462   0.921  -1.191  0.00  0.00     0.034 A 
ATOM      7 Cl   UNL d   1       1.647  -1.485  -1.155  0.00  0.00    -0.070 Cl
ATOM      8 Cl1  UNL d   1       0.787  -1.546   1.984  0.00  0.00    -0.070 Cl
ENDROOT
TORSDOF 0
ENDMDL
