MODEL 1
REMARK minimizedAffinity -2.48425174
REMARK minimizedRMSD -1
REMARK  0 active torsions:
REMARK  status: ('A' for Active; 'I' for Inactive)
ROOT
ATOM      1  C   UNL d   1       1.023  -2.146  -0.149  0.00  0.00     0.020 A 
ATOM      2  C1  UNL d   1       1.850  -1.625  -1.144  0.00  0.00     0.020 A 
ATOM      3  C2  UNL d   1       1.620  -0.341  -1.641  0.00  0.00     0.034 A 
ATOM      4  C3  UNL d   1       0.561   0.428  -1.144  0.00  0.00     0.017 A 
ATOM      5  C4  UNL d   1      -0.268  -0.096  -0.145  0.00  0.00     0.017 A 
ATOM      6  C5  UNL d   1      -0.033  -1.383   0.349  0.00  0.00     0.034 A 
ATOM      7 Cl   UNL d   1      -1.594   0.793   0.519  0.00  0.00    -0.070 Cl
ATOM      8 Cl1  UNL d   1       0.336   2.008  -1.804  0.00  0.00    -0.070 Cl
ENDROOT
TORSDOF 0
ENDMDL
