MODEL 1
REMARK minimizedAffinity -0.471176386
REMARK minimizedRMSD -1
REMARK  0 active torsions:
REMARK  status: ('A' for Active; 'I' for Inactive)
ROOT
ATOM      1  C   UNL d   1       0.510  -1.465   1.050  0.00  0.00     0.020 A 
ATOM      2  C1  UNL d   1       0.222  -1.457  -0.314  0.00  0.00     0.020 A 
ATOM      3  C2  UNL d   1      -0.698  -0.540  -0.827  0.00  0.00     0.034 A 
ATOM      4  C3  UNL d   1      -1.333   0.372   0.024  0.00  0.00     0.017 A 
ATOM      5  C4  UNL d   1      -1.043   0.362   1.393  0.00  0.00     0.017 A 
ATOM      6  C5  UNL d   1      -0.121  -0.557   1.902  0.00  0.00     0.034 A 
ATOM      7 Cl   UNL d   1      -1.786   1.457   2.505  0.00  0.00    -0.070 Cl
ATOM      8 Cl1  UNL d   1      -2.459   1.477  -0.680  0.00  0.00    -0.070 Cl
ENDROOT
TORSDOF 0
ENDMDL
