MODEL 1
REMARK minimizedAffinity -3.15076327
REMARK minimizedRMSD -1
REMARK  0 active torsions:
REMARK  status: ('A' for Active; 'I' for Inactive)
ROOT
ATOM      1  C   UNL d   1       1.066  -1.429  -0.064  0.00  0.00     0.020 A 
ATOM      2  C1  UNL d   1       1.388  -1.314   1.288  0.00  0.00     0.020 A 
ATOM      3  C2  UNL d   1       0.662  -0.447   2.107  0.00  0.00     0.034 A 
ATOM      4  C3  UNL d   1      -0.389   0.308   1.576  0.00  0.00     0.017 A 
ATOM      5  C4  UNL d   1      -0.712   0.192   0.219  0.00  0.00     0.017 A 
ATOM      6  C5  UNL d   1       0.018  -0.677  -0.597  0.00  0.00     0.034 A 
ATOM      7 Cl   UNL d   1      -1.996   1.092  -0.508  0.00  0.00    -0.070 Cl
ATOM      8 Cl1  UNL d   1      -1.245   1.360   2.648  0.00  0.00    -0.070 Cl
ENDROOT
TORSDOF 0
ENDMDL
