MODEL 1
REMARK minimizedAffinity -3.32552028
REMARK minimizedRMSD -1
REMARK  0 active torsions:
REMARK  status: ('A' for Active; 'I' for Inactive)
ROOT
ATOM      1  C   UNL d   1       0.963  -1.474   0.243  0.00  0.00     0.020 A 
ATOM      2  C1  UNL d   1       1.146  -1.354   1.620  0.00  0.00     0.020 A 
ATOM      3  C2  UNL d   1       0.527  -0.316   2.319  0.00  0.00     0.034 A 
ATOM      4  C3  UNL d   1      -0.278   0.607   1.641  0.00  0.00     0.017 A 
ATOM      5  C4  UNL d   1      -0.461   0.486   0.259  0.00  0.00     0.017 A 
ATOM      6  C5  UNL d   1       0.161  -0.556  -0.436  0.00  0.00     0.034 A 
ATOM      7 Cl   UNL d   1      -1.440   1.586  -0.646  0.00  0.00    -0.070 Cl
ATOM      8 Cl1  UNL d   1      -1.013   1.866   2.569  0.00  0.00    -0.070 Cl
ENDROOT
TORSDOF 0
ENDMDL
