MODEL 1
REMARK minimizedAffinity 0.823776424
REMARK minimizedRMSD -1
REMARK  0 active torsions:
REMARK  status: ('A' for Active; 'I' for Inactive)
ROOT
ATOM      1  C   UNL d   1      -0.971   1.938   4.756  0.00  0.00     0.020 A 
ATOM      2  C1  UNL d   1      -1.909   1.843   3.729  0.00  0.00     0.020 A 
ATOM      3  C2  UNL d   1      -1.572   1.204   2.533  0.00  0.00     0.034 A 
ATOM      4  C3  UNL d   1      -0.295   0.658   2.362  0.00  0.00     0.017 A 
ATOM      5  C4  UNL d   1       0.646   0.755   3.394  0.00  0.00     0.017 A 
ATOM      6  C5  UNL d   1       0.304   1.395   4.589  0.00  0.00     0.034 A 
ATOM      7 Cl   UNL d   1       2.242   0.106   3.257  0.00  0.00    -0.070 Cl
ATOM      8 Cl1  UNL d   1       0.053  -0.118   0.858  0.00  0.00    -0.070 Cl
ENDROOT
TORSDOF 0
ENDMDL
