MODEL 1
REMARK minimizedAffinity -4.31533813
REMARK minimizedRMSD -1
REMARK  0 active torsions:
REMARK  status: ('A' for Active; 'I' for Inactive)
ROOT
ATOM      1  C   UNL d   1       2.833  -0.747  -1.492  0.00  0.00     0.020 A 
ATOM      2  C1  UNL d   1       2.483   0.587  -1.294  0.00  0.00     0.020 A 
ATOM      3  C2  UNL d   1       1.301   0.907  -0.621  0.00  0.00     0.034 A 
ATOM      4  C3  UNL d   1       0.466  -0.110  -0.144  0.00  0.00     0.017 A 
ATOM      5  C4  UNL d   1       0.819  -1.450  -0.343  0.00  0.00     0.017 A 
ATOM      6  C5  UNL d   1       2.004  -1.764  -1.017  0.00  0.00     0.034 A 
ATOM      7 Cl   UNL d   1      -0.160  -2.759   0.218  0.00  0.00    -0.070 Cl
ATOM      8 Cl1  UNL d   1      -0.979   0.357   0.680  0.00  0.00    -0.070 Cl
ENDROOT
TORSDOF 0
ENDMDL
