MODEL 1
REMARK minimizedAffinity -0.129014164
REMARK minimizedRMSD -1
REMARK  0 active torsions:
REMARK  status: ('A' for Active; 'I' for Inactive)
ROOT
ATOM      1  C   UNL d   1       0.790  -1.438   0.767  0.00  0.00     0.020 A 
ATOM      2  C1  UNL d   1       0.810  -0.975  -0.548  0.00  0.00     0.020 A 
ATOM      3  C2  UNL d   1      -0.127  -0.029  -0.970  0.00  0.00     0.034 A 
ATOM      4  C3  UNL d   1      -1.088   0.457  -0.075  0.00  0.00     0.017 A 
ATOM      5  C4  UNL d   1      -1.106  -0.008   1.245  0.00  0.00     0.017 A 
ATOM      6  C5  UNL d   1      -0.166  -0.955   1.661  0.00  0.00     0.034 A 
ATOM      7 Cl   UNL d   1      -2.261   0.545   2.407  0.00  0.00    -0.070 Cl
ATOM      8 Cl1  UNL d   1      -2.216   1.626  -0.664  0.00  0.00    -0.070 Cl
ENDROOT
TORSDOF 0
ENDMDL
