MODEL 1
REMARK minimizedAffinity -3.94500613
REMARK minimizedRMSD -1
REMARK  0 active torsions:
REMARK  status: ('A' for Active; 'I' for Inactive)
ROOT
ATOM      1  C   UNL d   1       1.415  -0.785   0.570  0.00  0.00     0.020 A 
ATOM      2  C1  UNL d   1       1.522  -0.330  -0.744  0.00  0.00     0.020 A 
ATOM      3  C2  UNL d   1       0.618   0.617  -1.231  0.00  0.00     0.034 A 
ATOM      4  C3  UNL d   1      -0.397   1.111  -0.404  0.00  0.00     0.017 A 
ATOM      5  C4  UNL d   1      -0.504   0.654   0.915  0.00  0.00     0.017 A 
ATOM      6  C5  UNL d   1       0.404  -0.294   1.397  0.00  0.00     0.034 A 
ATOM      7 Cl   UNL d   1      -1.730   1.218   1.995  0.00  0.00    -0.070 Cl
ATOM      8 Cl1  UNL d   1      -1.480   2.281  -1.072  0.00  0.00    -0.070 Cl
ENDROOT
TORSDOF 0
ENDMDL
