MODEL 1
REMARK minimizedAffinity -3.46248984
REMARK minimizedRMSD -1
REMARK  0 active torsions:
REMARK  status: ('A' for Active; 'I' for Inactive)
ROOT
ATOM      1  C   UNL d   1       1.649  -1.855  -0.671  0.00  0.00     0.020 A 
ATOM      2  C1  UNL d   1       0.565  -1.558   0.153  0.00  0.00     0.020 A 
ATOM      3  C2  UNL d   1      -0.215  -0.427  -0.099  0.00  0.00     0.034 A 
ATOM      4  C3  UNL d   1       0.089   0.411  -1.177  0.00  0.00     0.017 A 
ATOM      5  C4  UNL d   1       1.178   0.113  -2.004  0.00  0.00     0.017 A 
ATOM      6  C5  UNL d   1       1.955  -1.021  -1.747  0.00  0.00     0.034 A 
ATOM      7 Cl   UNL d   1       1.615   1.100  -3.354  0.00  0.00    -0.070 Cl
ATOM      8 Cl1  UNL d   1      -0.918   1.792  -1.430  0.00  0.00    -0.070 Cl
ENDROOT
TORSDOF 0
ENDMDL
