MODEL 1
REMARK minimizedAffinity -5.0299015
REMARK minimizedRMSD -1
REMARK  0 active torsions:
REMARK  status: ('A' for Active; 'I' for Inactive)
ROOT
ATOM      1  C   UNL d   1       2.934   0.137  -1.919  0.00  0.00     0.020 A 
ATOM      2  C1  UNL d   1       2.039   1.147  -2.270  0.00  0.00     0.020 A 
ATOM      3  C2  UNL d   1       0.790   1.221  -1.649  0.00  0.00     0.034 A 
ATOM      4  C3  UNL d   1       0.433   0.283  -0.673  0.00  0.00     0.017 A 
ATOM      5  C4  UNL d   1       1.332  -0.730  -0.321  0.00  0.00     0.017 A 
ATOM      6  C5  UNL d   1       2.581  -0.799  -0.946  0.00  0.00     0.034 A 
ATOM      7 Cl   UNL d   1       0.963  -1.923   0.874  0.00  0.00    -0.070 Cl
ATOM      8 Cl1  UNL d   1      -1.127   0.435   0.054  0.00  0.00    -0.070 Cl
ENDROOT
TORSDOF 0
ENDMDL
