MODEL 1
REMARK minimizedAffinity -0.227149829
REMARK minimizedRMSD -1
REMARK  0 active torsions:
REMARK  status: ('A' for Active; 'I' for Inactive)
ROOT
ATOM      1  C   UNL d   1       1.856  -1.441  -1.729  0.00  0.00     0.020 A 
ATOM      2  C1  UNL d   1       1.487  -2.067  -0.539  0.00  0.00     0.020 A 
ATOM      3  C2  UNL d   1       0.518  -1.489   0.283  0.00  0.00     0.034 A 
ATOM      4  C3  UNL d   1      -0.086  -0.281  -0.084  0.00  0.00     0.017 A 
ATOM      5  C4  UNL d   1       0.285   0.347  -1.279  0.00  0.00     0.017 A 
ATOM      6  C5  UNL d   1       1.256  -0.237  -2.098  0.00  0.00     0.034 A 
ATOM      7 Cl   UNL d   1      -0.416   1.839  -1.798  0.00  0.00    -0.070 Cl
ATOM      8 Cl1  UNL d   1      -1.278   0.378   0.980  0.00  0.00    -0.070 Cl
ENDROOT
TORSDOF 0
ENDMDL
