MODEL 1
REMARK minimizedAffinity -2.52261877
REMARK minimizedRMSD -1
REMARK  0 active torsions:
REMARK  status: ('A' for Active; 'I' for Inactive)
ROOT
ATOM      1  C   UNL d   1      -0.326  -1.277   1.157  0.00  0.00     0.020 A 
ATOM      2  C1  UNL d   1      -0.895  -0.005   1.165  0.00  0.00     0.020 A 
ATOM      3  C2  UNL d   1      -0.644   0.879   0.113  0.00  0.00     0.034 A 
ATOM      4  C3  UNL d   1       0.178   0.492  -0.951  0.00  0.00     0.017 A 
ATOM      5  C4  UNL d   1       0.750  -0.786  -0.958  0.00  0.00     0.017 A 
ATOM      6  C5  UNL d   1       0.495  -1.667   0.097  0.00  0.00     0.034 A 
ATOM      7 Cl   UNL d   1       1.775  -1.335  -2.236  0.00  0.00    -0.070 Cl
ATOM      8 Cl1  UNL d   1       0.446   1.636  -2.218  0.00  0.00    -0.070 Cl
ENDROOT
TORSDOF 0
ENDMDL
