MODEL 1
REMARK minimizedAffinity -4.50883532
REMARK minimizedRMSD -1
REMARK  0 active torsions:
REMARK  status: ('A' for Active; 'I' for Inactive)
ROOT
ATOM      1  C   UNL d   1       1.984  -0.981  -1.646  0.00  0.00     0.020 A 
ATOM      2  C1  UNL d   1       2.035  -0.012  -2.647  0.00  0.00     0.020 A 
ATOM      3  C2  UNL d   1       1.090   1.016  -2.673  0.00  0.00     0.034 A 
ATOM      4  C3  UNL d   1       0.090   1.078  -1.695  0.00  0.00     0.017 A 
ATOM      5  C4  UNL d   1       0.040   0.105  -0.690  0.00  0.00     0.017 A 
ATOM      6  C5  UNL d   1       0.989  -0.922  -0.669  0.00  0.00     0.034 A 
ATOM      7 Cl   UNL d   1      -1.163   0.114   0.550  0.00  0.00    -0.070 Cl
ATOM      8 Cl1  UNL d   1      -1.045   2.377  -1.788  0.00  0.00    -0.070 Cl
ENDROOT
TORSDOF 0
ENDMDL
