MODEL 1
REMARK minimizedAffinity 3.78124666
REMARK minimizedRMSD -1
REMARK  0 active torsions:
REMARK  status: ('A' for Active; 'I' for Inactive)
ROOT
ATOM      1  C   UNL d   1      -4.237  -0.136   3.826  0.00  0.00     0.020 A 
ATOM      2  C1  UNL d   1      -5.591  -0.308   3.542  0.00  0.00     0.020 A 
ATOM      3  C2  UNL d   1      -6.000  -0.593   2.237  0.00  0.00     0.034 A 
ATOM      4  C3  UNL d   1      -5.054  -0.707   1.212  0.00  0.00     0.017 A 
ATOM      5  C4  UNL d   1      -3.695  -0.534   1.498  0.00  0.00     0.017 A 
ATOM      6  C5  UNL d   1      -3.291  -0.249   2.806  0.00  0.00     0.034 A 
ATOM      7 Cl   UNL d   1      -2.469  -0.659   0.286  0.00  0.00    -0.070 Cl
ATOM      8 Cl1  UNL d   1      -5.631  -1.061  -0.378  0.00  0.00    -0.070 Cl
ENDROOT
TORSDOF 0
ENDMDL
