MODEL 1
REMARK minimizedAffinity -3.73149514
REMARK minimizedRMSD -1
REMARK  0 active torsions:
REMARK  status: ('A' for Active; 'I' for Inactive)
ROOT
ATOM      1  C   UNL d   1       1.317  -1.282   0.700  0.00  0.00     0.020 A 
ATOM      2  C1  UNL d   1       1.138  -1.280  -0.682  0.00  0.00     0.020 A 
ATOM      3  C2  UNL d   1       0.253  -0.374  -1.270  0.00  0.00     0.034 A 
ATOM      4  C3  UNL d   1      -0.456   0.534  -0.476  0.00  0.00     0.017 A 
ATOM      5  C4  UNL d   1      -0.276   0.531   0.912  0.00  0.00     0.017 A 
ATOM      6  C5  UNL d   1       0.611  -0.379   1.496  0.00  0.00     0.034 A 
ATOM      7 Cl   UNL d   1      -1.116   1.620   1.958  0.00  0.00    -0.070 Cl
ATOM      8 Cl1  UNL d   1      -1.533   1.627  -1.270  0.00  0.00    -0.070 Cl
ENDROOT
TORSDOF 0
ENDMDL
