MODEL 1
REMARK minimizedAffinity -1.99338174
REMARK minimizedRMSD -1
REMARK  0 active torsions:
REMARK  status: ('A' for Active; 'I' for Inactive)
ROOT
ATOM      1  C   UNL d   1       1.236  -1.327   1.085  0.00  0.00     0.020 A 
ATOM      2  C1  UNL d   1       1.017  -1.372  -0.291  0.00  0.00     0.020 A 
ATOM      3  C2  UNL d   1       0.179  -0.432  -0.895  0.00  0.00     0.034 A 
ATOM      4  C3  UNL d   1      -0.443   0.556  -0.123  0.00  0.00     0.017 A 
ATOM      5  C4  UNL d   1      -0.223   0.599   1.258  0.00  0.00     0.017 A 
ATOM      6  C5  UNL d   1       0.618  -0.344   1.858  0.00  0.00     0.034 A 
ATOM      7 Cl   UNL d   1      -0.955   1.788   2.277  0.00  0.00    -0.070 Cl
ATOM      8 Cl1  UNL d   1      -1.467   1.686  -0.936  0.00  0.00    -0.070 Cl
ENDROOT
TORSDOF 0
ENDMDL
