MODEL 1
REMARK minimizedAffinity -6.30852222
REMARK minimizedRMSD -1
REMARK  3 active torsions:
REMARK  status: ('A' for Active; 'I' for Inactive)
REMARK    1  A    between atoms: C3'_2  and  C2'_3 
REMARK    2  A    between atoms: C2'_3  and  C1'_4 
REMARK    3  A    between atoms: C1'_4  and  C1_5 
ROOT
ATOM      1  C1  N4B d   1      -0.424   0.258  -0.381  0.00  0.00    -0.075 A 
ATOM      2  C2  N4B d   1      -0.968   1.364  -1.070  0.00  0.00     0.002 A 
ATOM      3  C3  N4B d   1      -1.791   2.245  -0.413  0.00  0.00     0.002 A 
ATOM      4  C4  N4B d   1      -2.097   2.032   0.923  0.00  0.00    -0.004 A 
ATOM      5  C5  N4B d   1      -1.547   0.975   1.588  0.00  0.00     0.002 A 
ATOM      6  C6  N4B d   1      -0.715   0.084   0.941  0.00  0.00     0.002 A 
ENDROOT
BRANCH   1   7
ATOM      7  C1' N4B d   1       0.412  -0.780  -1.079  0.00  0.00     0.057 C 
BRANCH   7   8
ATOM      8  C2' N4B d   1       0.314  -0.570  -2.587  0.00  0.00     0.009 C 
BRANCH   8   9
ATOM      9  C3' N4B d   1      -0.406  -1.717  -3.275  0.00  0.00     0.004 C 
ATOM     10  C4' N4B d   1       0.202  -3.053  -2.966  0.00  0.00     0.003 C 
ENDBRANCH   8   9
ENDBRANCH   7   8
ENDBRANCH   1   7
TORSDOF 3
ENDMDL
