MODEL 1
REMARK minimizedAffinity -5.68590546
REMARK minimizedRMSD -1
REMARK  3 active torsions:
REMARK  status: ('A' for Active; 'I' for Inactive)
REMARK    1  A    between atoms: C3'_2  and  C2'_3 
REMARK    2  A    between atoms: C2'_3  and  C1'_4 
REMARK    3  A    between atoms: C1'_4  and  C1_5 
ROOT
ATOM      1  C1  N4B d   1       1.002  -2.370  -1.490  0.00  0.00    -0.075 A 
ATOM      2  C2  N4B d   1       1.343  -3.378  -0.562  0.00  0.00     0.002 A 
ATOM      3  C3  N4B d   1       0.898  -4.663  -0.750  0.00  0.00     0.002 A 
ATOM      4  C4  N4B d   1       0.100  -4.959  -1.845  0.00  0.00    -0.004 A 
ATOM      5  C5  N4B d   1      -0.203  -3.985  -2.751  0.00  0.00     0.002 A 
ATOM      6  C6  N4B d   1       0.240  -2.690  -2.576  0.00  0.00     0.002 A 
ENDROOT
BRANCH   1   7
ATOM      7  C1' N4B d   1       1.393  -0.932  -1.281  0.00  0.00     0.057 C 
BRANCH   7   8
ATOM      8  C2' N4B d   1       1.131  -0.549   0.173  0.00  0.00     0.009 C 
BRANCH   8   9
ATOM      9  C3' N4B d   1      -0.051   0.395   0.307  0.00  0.00     0.004 C 
ATOM     10  C4' N4B d   1      -0.588   0.459   1.706  0.00  0.00     0.003 C 
ENDBRANCH   8   9
ENDBRANCH   7   8
ENDBRANCH   1   7
TORSDOF 3
ENDMDL
