MODEL 1
REMARK minimizedAffinity -3.85806274
REMARK minimizedRMSD -1
REMARK  3 active torsions:
REMARK  status: ('A' for Active; 'I' for Inactive)
REMARK    1  A    between atoms: C3'_2  and  C2'_3 
REMARK    2  A    between atoms: C2'_3  and  C1'_4 
REMARK    3  A    between atoms: C1'_4  and  C1_5 
ROOT
ATOM      1  C1  N4B d   1      -0.779   0.189   0.922  0.00  0.00    -0.075 A 
ATOM      2  C2  N4B d   1      -0.341   0.970   2.014  0.00  0.00     0.002 A 
ATOM      3  C3  N4B d   1      -1.173   1.918   2.558  0.00  0.00     0.002 A 
ATOM      4  C4  N4B d   1      -2.434   2.116   2.015  0.00  0.00    -0.004 A 
ATOM      5  C5  N4B d   1      -2.859   1.340   0.976  0.00  0.00     0.002 A 
ATOM      6  C6  N4B d   1      -2.035   0.381   0.423  0.00  0.00     0.002 A 
ENDROOT
BRANCH   1   7
ATOM      7  C1' N4B d   1       0.126  -0.800   0.239  0.00  0.00     0.057 C 
BRANCH   7   8
ATOM      8  C2' N4B d   1       0.421  -0.315  -1.177  0.00  0.00     0.009 C 
BRANCH   8   9
ATOM      9  C3' N4B d   1       1.160   1.012  -1.181  0.00  0.00     0.004 C 
ATOM     10  C4' N4B d   1       0.273   2.170  -1.529  0.00  0.00     0.003 C 
ENDBRANCH   8   9
ENDBRANCH   7   8
ENDBRANCH   1   7
TORSDOF 3
ENDMDL
