MODEL 1
REMARK minimizedAffinity 1.15847003
REMARK minimizedRMSD -1
REMARK  3 active torsions:
REMARK  status: ('A' for Active; 'I' for Inactive)
REMARK    1  A    between atoms: C3'_2  and  C2'_3 
REMARK    2  A    between atoms: C2'_3  and  C1'_4 
REMARK    3  A    between atoms: C1'_4  and  C1_5 
ROOT
ATOM      1  C1  N4B d   1       3.708  -2.977  -3.572  0.00  0.00    -0.075 A 
ATOM      2  C2  N4B d   1       3.857  -2.239  -4.768  0.00  0.00     0.002 A 
ATOM      3  C3  N4B d   1       5.002  -1.514  -4.989  0.00  0.00     0.002 A 
ATOM      4  C4  N4B d   1       5.999  -1.495  -4.025  0.00  0.00    -0.004 A 
ATOM      5  C5  N4B d   1       5.858  -2.231  -2.885  0.00  0.00     0.002 A 
ATOM      6  C6  N4B d   1       4.715  -2.968  -2.651  0.00  0.00     0.002 A 
ENDROOT
BRANCH   1   7
ATOM      7  C1' N4B d   1       2.439  -3.716  -3.248  0.00  0.00     0.057 C 
BRANCH   7   8
ATOM      8  C2' N4B d   1       1.971  -3.319  -1.851  0.00  0.00     0.009 C 
BRANCH   8   9
ATOM      9  C3' N4B d   1       0.474  -3.506  -1.678  0.00  0.00     0.004 C 
ATOM     10  C4' N4B d   1      -0.242  -3.698  -2.982  0.00  0.00     0.003 C 
ENDBRANCH   8   9
ENDBRANCH   7   8
ENDBRANCH   1   7
TORSDOF 3
ENDMDL
