MODEL 1
REMARK minimizedAffinity 0.0628382564
REMARK minimizedRMSD -1
REMARK  3 active torsions:
REMARK  status: ('A' for Active; 'I' for Inactive)
REMARK    1  A    between atoms: C3'_2  and  C2'_3 
REMARK    2  A    between atoms: C2'_3  and  C1'_4 
REMARK    3  A    between atoms: C1'_4  and  C1_5 
ROOT
ATOM      1  C1  N4B d   1       0.633   0.125   0.534  0.00  0.00    -0.075 A 
ATOM      2  C2  N4B d   1      -0.352  -0.530  -0.237  0.00  0.00     0.002 A 
ATOM      3  C3  N4B d   1      -0.779   0.024  -1.419  0.00  0.00     0.002 A 
ATOM      4  C4  N4B d   1      -0.251   1.236  -1.839  0.00  0.00    -0.004 A 
ATOM      5  C5  N4B d   1       0.719   1.849  -1.101  0.00  0.00     0.002 A 
ATOM      6  C6  N4B d   1       1.160   1.302   0.087  0.00  0.00     0.002 A 
ENDROOT
BRANCH   1   7
ATOM      7  C1' N4B d   1       1.070  -0.398   1.875  0.00  0.00     0.057 C 
BRANCH   7   8
ATOM      8  C2' N4B d   1      -0.164  -0.697   2.721  0.00  0.00     0.009 C 
BRANCH   8   9
ATOM      9  C3' N4B d   1      -1.213   0.396   2.604  0.00  0.00     0.004 C 
ATOM     10  C4' N4B d   1      -0.650   1.767   2.831  0.00  0.00     0.003 C 
ENDBRANCH   8   9
ENDBRANCH   7   8
ENDBRANCH   1   7
TORSDOF 3
ENDMDL
