MODEL 1
REMARK minimizedAffinity -4.78700018
REMARK minimizedRMSD -1
REMARK  3 active torsions:
REMARK  status: ('A' for Active; 'I' for Inactive)
REMARK    1  A    between atoms: C3'_2  and  C2'_3 
REMARK    2  A    between atoms: C2'_3  and  C1'_4 
REMARK    3  A    between atoms: C1'_4  and  C1_5 
ROOT
ATOM      1  C1  N4B d   1       0.288  -0.997  -1.280  0.00  0.00    -0.075 A 
ATOM      2  C2  N4B d   1       0.550  -2.324  -0.872  0.00  0.00     0.002 A 
ATOM      3  C3  N4B d   1       0.349  -3.363  -1.746  0.00  0.00     0.002 A 
ATOM      4  C4  N4B d   1      -0.129  -3.104  -3.022  0.00  0.00    -0.004 A 
ATOM      5  C5  N4B d   1      -0.355  -1.817  -3.416  0.00  0.00     0.002 A 
ATOM      6  C6  N4B d   1      -0.154  -0.762  -2.549  0.00  0.00     0.002 A 
ENDROOT
BRANCH   1   7
ATOM      7  C1' N4B d   1       0.411   0.164  -0.331  0.00  0.00     0.057 C 
BRANCH   7   8
ATOM      8  C2' N4B d   1       0.430  -0.359   1.102  0.00  0.00     0.009 C 
BRANCH   8   9
ATOM      9  C3' N4B d   1      -0.836   0.008   1.857  0.00  0.00     0.004 C 
ATOM     10  C4' N4B d   1      -1.025   1.490   1.988  0.00  0.00     0.003 C 
ENDBRANCH   8   9
ENDBRANCH   7   8
ENDBRANCH   1   7
TORSDOF 3
ENDMDL
