MODEL 1
REMARK minimizedAffinity -5.63011885
REMARK minimizedRMSD -1
REMARK  3 active torsions:
REMARK  status: ('A' for Active; 'I' for Inactive)
REMARK    1  A    between atoms: C3'_2  and  C2'_3 
REMARK    2  A    between atoms: C2'_3  and  C1'_4 
REMARK    3  A    between atoms: C1'_4  and  C1_5 
ROOT
ATOM      1  C1  N4B d   1       0.182   0.155   0.068  0.00  0.00    -0.075 A 
ATOM      2  C2  N4B d   1      -0.257   1.265  -0.688  0.00  0.00     0.002 A 
ATOM      3  C3  N4B d   1      -1.112   2.182  -0.127  0.00  0.00     0.002 A 
ATOM      4  C4  N4B d   1      -1.556   2.000   1.174  0.00  0.00    -0.004 A 
ATOM      5  C5  N4B d   1      -1.108   0.939   1.905  0.00  0.00     0.002 A 
ATOM      6  C6  N4B d   1      -0.245   0.012   1.356  0.00  0.00     0.002 A 
ENDROOT
BRANCH   1   7
ATOM      7  C1' N4B d   1       1.049  -0.920  -0.530  0.00  0.00     0.057 C 
BRANCH   7   8
ATOM      8  C2' N4B d   1       0.334  -1.529  -1.732  0.00  0.00     0.009 C 
BRANCH   8   9
ATOM      9  C3' N4B d   1       0.750  -2.970  -1.970  0.00  0.00     0.004 C 
ATOM     10  C4' N4B d   1      -0.246  -3.735  -2.790  0.00  0.00     0.003 C 
ENDBRANCH   8   9
ENDBRANCH   7   8
ENDBRANCH   1   7
TORSDOF 3
ENDMDL
