MODEL 1
REMARK minimizedAffinity -4.86397266
REMARK minimizedRMSD -1
REMARK  3 active torsions:
REMARK  status: ('A' for Active; 'I' for Inactive)
REMARK    1  A    between atoms: C3'_2  and  C2'_3 
REMARK    2  A    between atoms: C2'_3  and  C1'_4 
REMARK    3  A    between atoms: C1'_4  and  C1_5 
ROOT
ATOM      1  C1  N4B d   1       0.093  -0.513   0.296  0.00  0.00    -0.075 A 
ATOM      2  C2  N4B d   1      -0.750  -0.822   1.386  0.00  0.00     0.002 A 
ATOM      3  C3  N4B d   1      -1.339   0.189   2.105  0.00  0.00     0.002 A 
ATOM      4  C4  N4B d   1      -1.086   1.510   1.767  0.00  0.00    -0.004 A 
ATOM      5  C5  N4B d   1      -0.290   1.799   0.698  0.00  0.00     0.002 A 
ATOM      6  C6  N4B d   1       0.306   0.793  -0.037  0.00  0.00     0.002 A 
ENDROOT
BRANCH   1   7
ATOM      7  C1' N4B d   1       0.828  -1.582  -0.467  0.00  0.00     0.057 C 
BRANCH   7   8
ATOM      8  C2' N4B d   1       0.060  -1.901  -1.746  0.00  0.00     0.009 C 
BRANCH   8   9
ATOM      9  C3' N4B d   1       0.520  -3.206  -2.374  0.00  0.00     0.004 C 
ATOM     10  C4' N4B d   1      -0.281  -4.387  -1.913  0.00  0.00     0.003 C 
ENDBRANCH   8   9
ENDBRANCH   7   8
ENDBRANCH   1   7
TORSDOF 3
ENDMDL
