MODEL 1
REMARK minimizedAffinity 2.03833199
REMARK minimizedRMSD -1
REMARK  3 active torsions:
REMARK  status: ('A' for Active; 'I' for Inactive)
REMARK    1  A    between atoms: C3'_2  and  C2'_3 
REMARK    2  A    between atoms: C2'_3  and  C1'_4 
REMARK    3  A    between atoms: C1'_4  and  C1_5 
ROOT
ATOM      1  C1  N4B d   1      -0.770   0.141   0.623  0.00  0.00    -0.075 A 
ATOM      2  C2  N4B d   1      -2.115   0.249   0.204  0.00  0.00     0.002 A 
ATOM      3  C3  N4B d   1      -2.407   0.712  -1.055  0.00  0.00     0.002 A 
ATOM      4  C4  N4B d   1      -1.376   1.089  -1.903  0.00  0.00    -0.004 A 
ATOM      5  C5  N4B d   1      -0.079   0.958  -1.500  0.00  0.00     0.002 A 
ATOM      6  C6  N4B d   1       0.229   0.491  -0.239  0.00  0.00     0.002 A 
ENDROOT
BRANCH   1   7
ATOM      7  C1' N4B d   1      -0.404  -0.278   2.020  0.00  0.00     0.057 C 
BRANCH   7   8
ATOM      8  C2' N4B d   1       1.071  -0.663   2.058  0.00  0.00     0.009 C 
BRANCH   8   9
ATOM      9  C3' N4B d   1       1.416  -1.473   3.296  0.00  0.00     0.004 C 
ATOM     10  C4' N4B d   1       2.586  -0.914   4.049  0.00  0.00     0.003 C 
ENDBRANCH   8   9
ENDBRANCH   7   8
ENDBRANCH   1   7
TORSDOF 3
ENDMDL
