MODEL 1
REMARK minimizedAffinity -0.506104529
REMARK minimizedRMSD -1
REMARK  3 active torsions:
REMARK  status: ('A' for Active; 'I' for Inactive)
REMARK    1  A    between atoms: C3'_2  and  C2'_3 
REMARK    2  A    between atoms: C2'_3  and  C1'_4 
REMARK    3  A    between atoms: C1'_4  and  C1_5 
ROOT
ATOM      1  C1  N4B d   1      -2.336   1.954  -1.948  0.00  0.00    -0.075 A 
ATOM      2  C2  N4B d   1      -2.277   3.276  -2.439  0.00  0.00     0.002 A 
ATOM      3  C3  N4B d   1      -3.247   3.735  -3.295  0.00  0.00     0.002 A 
ATOM      4  C4  N4B d   1      -4.272   2.887  -3.688  0.00  0.00    -0.004 A 
ATOM      5  C5  N4B d   1      -4.336   1.619  -3.189  0.00  0.00     0.002 A 
ATOM      6  C6  N4B d   1      -3.370   1.146  -2.324  0.00  0.00     0.002 A 
ENDROOT
BRANCH   1   7
ATOM      7  C1' N4B d   1      -1.251   1.381  -1.077  0.00  0.00     0.057 C 
BRANCH   7   8
ATOM      8  C2' N4B d   1      -1.888   0.681   0.120  0.00  0.00     0.009 C 
BRANCH   8   9
ATOM      9  C3' N4B d   1      -1.045  -0.484   0.611  0.00  0.00     0.004 C 
ATOM     10  C4' N4B d   1      -0.010  -0.070   1.615  0.00  0.00     0.003 C 
ENDBRANCH   8   9
ENDBRANCH   7   8
ENDBRANCH   1   7
TORSDOF 3
ENDMDL
