MODEL 1
REMARK minimizedAffinity -3.86981845
REMARK minimizedRMSD -1
REMARK  2 active torsions:
REMARK  status: ('A' for Active; 'I' for Inactive)
REMARK    1  A    between atoms: C1_2  and  C2_3 
REMARK    2  A    between atoms: C2_3  and  C3_4 
ROOT
ATOM      1  C3  UNL d   1       0.401  -0.165   0.468  0.00  0.00    -0.075 A 
ATOM      2  C4  UNL d   1      -0.001  -0.599   1.740  0.00  0.00     0.002 A 
ATOM      3  C5  UNL d   1       0.796  -1.478   2.473  0.00  0.00     0.002 A 
ATOM      4  C6  UNL d   1       1.997  -1.941   1.943  0.00  0.00    -0.004 A 
ATOM      5  C7  UNL d   1       2.399  -1.530   0.674  0.00  0.00     0.002 A 
ATOM      6  C8  UNL d   1       1.606  -0.647  -0.061  0.00  0.00     0.002 A 
ENDROOT
BRANCH   1   7
ATOM      7  C2  UNL d   1      -0.443   0.809  -0.319  0.00  0.00     0.056 C 
BRANCH   7   8
ATOM      8  C1  UNL d   1      -1.859   0.307  -0.619  0.00  0.00     0.007 C 
ATOM      9  C   UNL d   1      -2.946   1.151   0.034  0.00  0.00     0.009 C 
ENDBRANCH   7   8
ENDBRANCH   1   7
TORSDOF 2
ENDMDL
