MODEL 1
REMARK minimizedAffinity 2.89659095
REMARK minimizedRMSD -1
REMARK  2 active torsions:
REMARK  status: ('A' for Active; 'I' for Inactive)
REMARK    1  A    between atoms: C1_2  and  C2_3 
REMARK    2  A    between atoms: C2_3  and  C3_4 
ROOT
ATOM      1  C3  UNL d   1      -0.514   0.708   0.057  0.00  0.00    -0.075 A 
ATOM      2  C4  UNL d   1       0.407  -0.298   0.382  0.00  0.00     0.002 A 
ATOM      3  C5  UNL d   1       1.748   0.016   0.610  0.00  0.00     0.002 A 
ATOM      4  C6  UNL d   1       2.185   1.335   0.506  0.00  0.00    -0.004 A 
ATOM      5  C7  UNL d   1       1.281   2.340   0.167  0.00  0.00     0.002 A 
ATOM      6  C8  UNL d   1      -0.061   2.029  -0.057  0.00  0.00     0.002 A 
ENDROOT
BRANCH   1   7
ATOM      7  C2  UNL d   1      -1.972   0.380  -0.162  0.00  0.00     0.056 C 
BRANCH   7   8
ATOM      8  C1  UNL d   1      -2.931   1.170   0.734  0.00  0.00     0.007 C 
ATOM      9  C   UNL d   1      -4.132   0.356   1.193  0.00  0.00     0.009 C 
ENDBRANCH   7   8
ENDBRANCH   1   7
TORSDOF 2
ENDMDL
