MODEL 1
REMARK minimizedAffinity -3.28930998
REMARK minimizedRMSD -1
REMARK  2 active torsions:
REMARK  status: ('A' for Active; 'I' for Inactive)
REMARK    1  A    between atoms: C1_2  and  C2_3 
REMARK    2  A    between atoms: C2_3  and  C3_4 
ROOT
ATOM      1  C3  UNL d   1      -0.689   0.674   0.408  0.00  0.00    -0.075 A 
ATOM      2  C4  UNL d   1      -1.226   1.488   1.416  0.00  0.00     0.002 A 
ATOM      3  C5  UNL d   1      -2.604   1.677   1.514  0.00  0.00     0.002 A 
ATOM      4  C6  UNL d   1      -3.461   1.066   0.601  0.00  0.00    -0.004 A 
ATOM      5  C7  UNL d   1      -2.937   0.269  -0.415  0.00  0.00     0.002 A 
ATOM      6  C8  UNL d   1      -1.559   0.074  -0.512  0.00  0.00     0.002 A 
ENDROOT
BRANCH   1   7
ATOM      7  C2  UNL d   1       0.800   0.441   0.315  0.00  0.00     0.056 C 
BRANCH   7   8
ATOM      8  C1  UNL d   1       1.637   1.725   0.359  0.00  0.00     0.007 C 
ATOM      9  C   UNL d   1       3.136   1.463   0.413  0.00  0.00     0.009 C 
ENDBRANCH   7   8
ENDBRANCH   1   7
TORSDOF 2
ENDMDL
