MODEL 1
REMARK minimizedAffinity -5.51890898
REMARK minimizedRMSD -1
REMARK  2 active torsions:
REMARK  status: ('A' for Active; 'I' for Inactive)
REMARK    1  A    between atoms: C1_2  and  C2_3 
REMARK    2  A    between atoms: C2_3  and  C3_4 
ROOT
ATOM      1  C3  UNL d   1      -0.033   0.134  -0.052  0.00  0.00    -0.075 A 
ATOM      2  C4  UNL d   1      -0.088  -1.142  -0.631  0.00  0.00     0.002 A 
ATOM      3  C5  UNL d   1       1.011  -1.999  -0.562  0.00  0.00     0.002 A 
ATOM      4  C6  UNL d   1       2.179  -1.589   0.077  0.00  0.00    -0.004 A 
ATOM      5  C7  UNL d   1       2.250  -0.317   0.642  0.00  0.00     0.002 A 
ATOM      6  C8  UNL d   1       1.151   0.541   0.577  0.00  0.00     0.002 A 
ENDROOT
BRANCH   1   7
ATOM      7  C2  UNL d   1      -1.228   1.056  -0.098  0.00  0.00     0.056 C 
BRANCH   7   8
ATOM      8  C1  UNL d   1      -2.577   0.328  -0.117  0.00  0.00     0.007 C 
ATOM      9  C   UNL d   1      -3.559   0.857   0.919  0.00  0.00     0.009 C 
ENDBRANCH   7   8
ENDBRANCH   1   7
TORSDOF 2
ENDMDL
