MODEL 1
REMARK minimizedAffinity -3.73123264
REMARK minimizedRMSD -1
REMARK  2 active torsions:
REMARK  status: ('A' for Active; 'I' for Inactive)
REMARK    1  A    between atoms: C1_2  and  C2_3 
REMARK    2  A    between atoms: C2_3  and  C3_4 
ROOT
ATOM      1  C3  UNL d   1      -0.368   0.236  -0.310  0.00  0.00    -0.075 A 
ATOM      2  C4  UNL d   1       0.203  -1.035  -0.464  0.00  0.00     0.002 A 
ATOM      3  C5  UNL d   1       1.586  -1.182  -0.575  0.00  0.00     0.002 A 
ATOM      4  C6  UNL d   1       2.413  -0.062  -0.544  0.00  0.00    -0.004 A 
ATOM      5  C7  UNL d   1       1.855   1.208  -0.408  0.00  0.00     0.002 A 
ATOM      6  C8  UNL d   1       0.472   1.357  -0.292  0.00  0.00     0.002 A 
ENDROOT
BRANCH   1   7
ATOM      7  C2  UNL d   1      -1.862   0.400  -0.160  0.00  0.00     0.056 C 
BRANCH   7   8
ATOM      8  C1  UNL d   1      -2.291   1.014   1.177  0.00  0.00     0.007 C 
ATOM      9  C   UNL d   1      -3.801   1.155   1.316  0.00  0.00     0.009 C 
ENDBRANCH   7   8
ENDBRANCH   1   7
TORSDOF 2
ENDMDL
