MODEL 1
REMARK minimizedAffinity -6.16278982
REMARK minimizedRMSD -1
REMARK  2 active torsions:
REMARK  status: ('A' for Active; 'I' for Inactive)
REMARK    1  A    between atoms: C1_2  and  C2_3 
REMARK    2  A    between atoms: C2_3  and  C3_4 
ROOT
ATOM      1  C3  UNL d   1       1.116  -0.047   0.424  0.00  0.00    -0.075 A 
ATOM      2  C4  UNL d   1       2.186  -0.951   0.483  0.00  0.00     0.002 A 
ATOM      3  C5  UNL d   1       3.502  -0.497   0.390  0.00  0.00     0.002 A 
ATOM      4  C6  UNL d   1       3.764   0.861   0.228  0.00  0.00    -0.004 A 
ATOM      5  C7  UNL d   1       2.708   1.767   0.153  0.00  0.00     0.002 A 
ATOM      6  C8  UNL d   1       1.390   1.316   0.249  0.00  0.00     0.002 A 
ENDROOT
BRANCH   1   7
ATOM      7  C2  UNL d   1      -0.310  -0.528   0.554  0.00  0.00     0.056 C 
BRANCH   7   8
ATOM      8  C1  UNL d   1      -1.317   0.274  -0.277  0.00  0.00     0.007 C 
ATOM      9  C   UNL d   1      -2.627   0.534   0.454  0.00  0.00     0.009 C 
ENDBRANCH   7   8
ENDBRANCH   1   7
TORSDOF 2
ENDMDL
