MODEL 1
REMARK minimizedAffinity -1.50617099
REMARK minimizedRMSD -1
REMARK  0 active torsions:
REMARK  status: ('A' for Active; 'I' for Inactive)
ROOT
ATOM      1  C   UNL d   1      -0.233   0.016   0.785  0.00  0.00     0.124 A 
ATOM      2  C1  UNL d   1      -0.731   1.288   0.539  0.00  0.00     0.062 A 
ATOM      3  C2  UNL d   1      -1.043   1.679  -0.760  0.00  0.00     0.162 A 
ATOM      4  C3  UNL d   1      -0.861   0.795  -1.824  0.00  0.00    -0.034 A 
ATOM      5  C4  UNL d   1      -0.359  -0.483  -1.569  0.00  0.00     0.162 A 
ATOM      6  C5  UNL d   1      -0.048  -0.868  -0.269  0.00  0.00     0.062 A 
ATOM      7  F   UNL d   1       0.433  -2.097  -0.033  0.00  0.00    -0.097 F 
ATOM      8  F1  UNL d   1      -0.171  -1.357  -2.568  0.00  0.00    -0.096 F 
ATOM      9  I   UNL d   1      -1.327   1.375  -3.768  0.00  0.00    -0.060 I 
ATOM     10  F2  UNL d   1      -1.523   2.914  -0.969  0.00  0.00    -0.096 F 
ATOM     11  F3  UNL d   1      -0.910   2.145   1.555  0.00  0.00    -0.097 F 
ATOM     12  F4  UNL d   1       0.068  -0.356   2.035  0.00  0.00    -0.092 F 
ENDROOT
TORSDOF 0
ENDMDL
