MODEL 1
REMARK minimizedAffinity -4.38850975
REMARK minimizedRMSD -1
REMARK  0 active torsions:
REMARK  status: ('A' for Active; 'I' for Inactive)
ROOT
ATOM      1  C   UNL d   1      -1.888   1.585  -1.401  0.00  0.00     0.124 A 
ATOM      2  C1  UNL d   1      -1.627   1.495  -0.041  0.00  0.00     0.062 A 
ATOM      3  C2  UNL d   1      -0.674   0.596   0.430  0.00  0.00     0.162 A 
ATOM      4  C3  UNL d   1       0.025  -0.219  -0.460  0.00  0.00    -0.034 A 
ATOM      5  C4  UNL d   1      -0.244  -0.123  -1.826  0.00  0.00     0.162 A 
ATOM      6  C5  UNL d   1      -1.197   0.777  -2.292  0.00  0.00     0.062 A 
ATOM      7  F   UNL d   1      -1.448   0.863  -3.606  0.00  0.00    -0.097 F 
ATOM      8  F1  UNL d   1       0.410  -0.892  -2.709  0.00  0.00    -0.096 F 
ATOM      9  I   UNL d   1       1.450  -1.564   0.241  0.00  0.00    -0.060 I 
ATOM     10  F2  UNL d   1      -0.442   0.530   1.750  0.00  0.00    -0.096 F 
ATOM     11  F3  UNL d   1      -2.294   2.274   0.822  0.00  0.00    -0.097 F 
ATOM     12  F4  UNL d   1      -2.806   2.450  -1.852  0.00  0.00    -0.092 F 
ENDROOT
TORSDOF 0
ENDMDL
