MODEL 1
REMARK minimizedAffinity -4.47859383
REMARK minimizedRMSD -1
REMARK  0 active torsions:
REMARK  status: ('A' for Active; 'I' for Inactive)
ROOT
ATOM      1  C   UNL d   1       0.437  -2.875   1.742  0.00  0.00     0.124 A 
ATOM      2  C1  UNL d   1       0.837  -2.580   0.446  0.00  0.00     0.062 A 
ATOM      3  C2  UNL d   1       0.475  -1.370  -0.140  0.00  0.00     0.162 A 
ATOM      4  C3  UNL d   1      -0.291  -0.446   0.570  0.00  0.00    -0.034 A 
ATOM      5  C4  UNL d   1      -0.690  -0.750   1.873  0.00  0.00     0.162 A 
ATOM      6  C5  UNL d   1      -0.325  -1.960   2.454  0.00  0.00     0.062 A 
ATOM      7  F   UNL d   1      -0.712  -2.243   3.707  0.00  0.00    -0.097 F 
ATOM      8  F1  UNL d   1      -1.426   0.117   2.584  0.00  0.00    -0.096 F 
ATOM      9  I   UNL d   1      -0.834   1.364  -0.302  0.00  0.00    -0.060 I 
ATOM     10  F2  UNL d   1       0.875  -1.112  -1.394  0.00  0.00    -0.096 F 
ATOM     11  F3  UNL d   1       1.573  -3.463  -0.244  0.00  0.00    -0.097 F 
ATOM     12  F4  UNL d   1       0.786  -4.040   2.303  0.00  0.00    -0.092 F 
ENDROOT
TORSDOF 0
ENDMDL
