MODEL 1
REMARK minimizedAffinity -3.6019423
REMARK minimizedRMSD -1
REMARK  0 active torsions:
REMARK  status: ('A' for Active; 'I' for Inactive)
ROOT
ATOM      1  C   UNL d   1       0.636  -1.613   0.684  0.00  0.00     0.124 A 
ATOM      2  C1  UNL d   1      -0.373  -0.733   1.049  0.00  0.00     0.062 A 
ATOM      3  C2  UNL d   1      -0.794   0.256   0.164  0.00  0.00     0.162 A 
ATOM      4  C3  UNL d   1      -0.206   0.368  -1.096  0.00  0.00    -0.034 A 
ATOM      5  C4  UNL d   1       0.809  -0.521  -1.456  0.00  0.00     0.162 A 
ATOM      6  C5  UNL d   1       1.226  -1.506  -0.567  0.00  0.00     0.062 A 
ATOM      7  F   UNL d   1       2.201  -2.356  -0.921  0.00  0.00    -0.097 F 
ATOM      8  F1  UNL d   1       1.396  -0.441  -2.659  0.00  0.00    -0.096 F 
ATOM      9  I   UNL d   1      -0.832   1.844  -2.423  0.00  0.00    -0.060 I 
ATOM     10  F2  UNL d   1      -1.771   1.093   0.543  0.00  0.00    -0.096 F 
ATOM     11  F3  UNL d   1      -0.944  -0.833   2.258  0.00  0.00    -0.097 F 
ATOM     12  F4  UNL d   1       1.040  -2.562   1.539  0.00  0.00    -0.092 F 
ENDROOT
TORSDOF 0
ENDMDL
