MODEL 1
REMARK minimizedAffinity 4.79586506
REMARK minimizedRMSD -1
REMARK  0 active torsions:
REMARK  status: ('A' for Active; 'I' for Inactive)
ROOT
ATOM      1  C   UNL d   1      -1.711   1.258  -0.708  0.00  0.00     0.124 A 
ATOM      2  C1  UNL d   1      -1.614   0.984   0.649  0.00  0.00     0.062 A 
ATOM      3  C2  UNL d   1      -0.707   0.033   1.108  0.00  0.00     0.162 A 
ATOM      4  C3  UNL d   1       0.111  -0.651   0.209  0.00  0.00    -0.034 A 
ATOM      5  C4  UNL d   1       0.007  -0.370  -1.155  0.00  0.00     0.162 A 
ATOM      6  C5  UNL d   1      -0.900   0.582  -1.608  0.00  0.00     0.062 A 
ATOM      7  F   UNL d   1      -0.992   0.845  -2.920  0.00  0.00    -0.097 F 
ATOM      8  F1  UNL d   1       0.779  -1.009  -2.047  0.00  0.00    -0.096 F 
ATOM      9  I   UNL d   1       1.468  -2.074   0.891  0.00  0.00    -0.060 I 
ATOM     10  F2  UNL d   1      -0.635  -0.213   2.425  0.00  0.00    -0.096 F 
ATOM     11  F3  UNL d   1      -2.396   1.636   1.521  0.00  0.00    -0.097 F 
ATOM     12  F4  UNL d   1      -2.584   2.173  -1.146  0.00  0.00    -0.092 F 
ENDROOT
TORSDOF 0
ENDMDL
