MODEL 1
REMARK minimizedAffinity 0.755114079
REMARK minimizedRMSD -1
REMARK  0 active torsions:
REMARK  status: ('A' for Active; 'I' for Inactive)
ROOT
ATOM      1  C   UNL d   1       1.175  -1.362   1.683  0.00  0.00     0.124 A 
ATOM      2  C1  UNL d   1      -0.036  -0.763   2.000  0.00  0.00     0.062 A 
ATOM      3  C2  UNL d   1      -0.650   0.098   1.095  0.00  0.00     0.162 A 
ATOM      4  C3  UNL d   1      -0.053   0.366  -0.137  0.00  0.00    -0.034 A 
ATOM      5  C4  UNL d   1       1.166  -0.239  -0.449  0.00  0.00     0.162 A 
ATOM      6  C5  UNL d   1       1.775  -1.100   0.459  0.00  0.00     0.062 A 
ATOM      7  F   UNL d   1       2.945  -1.677   0.151  0.00  0.00    -0.097 F 
ATOM      8  F1  UNL d   1       1.767  -0.004  -1.625  0.00  0.00    -0.096 F 
ATOM      9  I   UNL d   1      -0.967   1.653  -1.493  0.00  0.00    -0.060 I 
ATOM     10  F2  UNL d   1      -1.820   0.663   1.428  0.00  0.00    -0.096 F 
ATOM     11  F3  UNL d   1      -0.617  -1.014   3.182  0.00  0.00    -0.097 F 
ATOM     12  F4  UNL d   1       1.764  -2.189   2.556  0.00  0.00    -0.092 F 
ENDROOT
TORSDOF 0
ENDMDL
