MODEL 1
REMARK minimizedAffinity 2.30030251
REMARK minimizedRMSD -1
REMARK  0 active torsions:
REMARK  status: ('A' for Active; 'I' for Inactive)
ROOT
ATOM      1  C   UNL d   1       0.548  -1.927   1.124  0.00  0.00     0.124 A 
ATOM      2  C1  UNL d   1       1.019  -1.959  -0.182  0.00  0.00     0.062 A 
ATOM      3  C2  UNL d   1       0.517  -1.072  -1.129  0.00  0.00     0.162 A 
ATOM      4  C3  UNL d   1      -0.462  -0.143  -0.775  0.00  0.00    -0.034 A 
ATOM      5  C4  UNL d   1      -0.931  -0.117   0.540  0.00  0.00     0.162 A 
ATOM      6  C5  UNL d   1      -0.426  -1.006   1.483  0.00  0.00     0.062 A 
ATOM      7  F   UNL d   1      -0.882  -0.974   2.744  0.00  0.00    -0.097 F 
ATOM      8  F1  UNL d   1      -1.872   0.762   0.915  0.00  0.00    -0.096 F 
ATOM      9  I   UNL d   1      -1.215   1.185  -2.188  0.00  0.00    -0.060 I 
ATOM     10  F2  UNL d   1       0.991  -1.125  -2.383  0.00  0.00    -0.096 F 
ATOM     11  F3  UNL d   1       1.960  -2.848  -0.532  0.00  0.00    -0.097 F 
ATOM     12  F4  UNL d   1       1.033  -2.783   2.033  0.00  0.00    -0.092 F 
ENDROOT
TORSDOF 0
ENDMDL
