MODEL 1
REMARK minimizedAffinity -0.704449296
REMARK minimizedRMSD -1
REMARK  0 active torsions:
REMARK  status: ('A' for Active; 'I' for Inactive)
ROOT
ATOM      1  C   UNL d   1       0.940  -1.853   1.031  0.00  0.00     0.124 A 
ATOM      2  C1  UNL d   1      -0.415  -1.562   1.104  0.00  0.00     0.062 A 
ATOM      3  C2  UNL d   1      -0.954  -0.537   0.331  0.00  0.00     0.162 A 
ATOM      4  C3  UNL d   1      -0.137   0.204  -0.523  0.00  0.00    -0.034 A 
ATOM      5  C4  UNL d   1       1.225  -0.095  -0.591  0.00  0.00     0.162 A 
ATOM      6  C5  UNL d   1       1.759  -1.120   0.183  0.00  0.00     0.062 A 
ATOM      7  F   UNL d   1       3.068  -1.400   0.111  0.00  0.00    -0.097 F 
ATOM      8  F1  UNL d   1       2.039   0.597  -1.402  0.00  0.00    -0.096 F 
ATOM      9  I   UNL d   1      -0.938   1.737  -1.681  0.00  0.00    -0.060 I 
ATOM     10  F2  UNL d   1      -2.266  -0.277   0.422  0.00  0.00    -0.096 F 
ATOM     11  F3  UNL d   1      -1.208  -2.268   1.923  0.00  0.00    -0.097 F 
ATOM     12  F4  UNL d   1       1.456  -2.839   1.776  0.00  0.00    -0.092 F 
ENDROOT
TORSDOF 0
ENDMDL
