MODEL 1
REMARK minimizedAffinity 1.74687791
REMARK minimizedRMSD -1
REMARK  0 active torsions:
REMARK  status: ('A' for Active; 'I' for Inactive)
ROOT
ATOM      1  C   UNL d   1       1.433  -1.962   1.377  0.00  0.00     0.124 A 
ATOM      2  C1  UNL d   1       2.079  -0.848   0.858  0.00  0.00     0.062 A 
ATOM      3  C2  UNL d   1       1.365   0.098   0.127  0.00  0.00     0.162 A 
ATOM      4  C3  UNL d   1      -0.003  -0.065  -0.088  0.00  0.00    -0.034 A 
ATOM      5  C4  UNL d   1      -0.646  -1.188   0.437  0.00  0.00     0.162 A 
ATOM      6  C5  UNL d   1       0.072  -2.130   1.166  0.00  0.00     0.062 A 
ATOM      7  F   UNL d   1      -0.554  -3.206   1.667  0.00  0.00    -0.097 F 
ATOM      8  F1  UNL d   1      -1.961  -1.376   0.249  0.00  0.00    -0.096 F 
ATOM      9  I   UNL d   1      -1.074   1.347  -1.180  0.00  0.00    -0.060 I 
ATOM     10  F2  UNL d   1       2.015   1.164  -0.362  0.00  0.00    -0.096 F 
ATOM     11  F3  UNL d   1       3.394  -0.683   1.060  0.00  0.00    -0.097 F 
ATOM     12  F4  UNL d   1       2.122  -2.871   2.079  0.00  0.00    -0.092 F 
ENDROOT
TORSDOF 0
ENDMDL
