MODEL 1
REMARK minimizedAffinity -1.3161118
REMARK minimizedRMSD -1
REMARK  0 active torsions:
REMARK  status: ('A' for Active; 'I' for Inactive)
ROOT
ATOM      1  C   UNL d   1       0.893  -1.749   0.677  0.00  0.00     0.124 A 
ATOM      2  C1  UNL d   1      -0.443  -1.374   0.723  0.00  0.00     0.062 A 
ATOM      3  C2  UNL d   1      -0.875  -0.240   0.042  0.00  0.00     0.162 A 
ATOM      4  C3  UNL d   1       0.030   0.528  -0.691  0.00  0.00    -0.034 A 
ATOM      5  C4  UNL d   1       1.371   0.145  -0.732  0.00  0.00     0.162 A 
ATOM      6  C5  UNL d   1       1.798  -0.989  -0.050  0.00  0.00     0.062 A 
ATOM      7  F   UNL d   1       3.089  -1.350  -0.095  0.00  0.00    -0.097 F 
ATOM      8  F1  UNL d   1       2.268   0.861  -1.427  0.00  0.00    -0.096 F 
ATOM      9  I   UNL d   1      -0.613   2.225  -1.710  0.00  0.00    -0.060 I 
ATOM     10  F2  UNL d   1      -2.171   0.099   0.104  0.00  0.00    -0.096 F 
ATOM     11  F3  UNL d   1      -1.319  -2.106   1.425  0.00  0.00    -0.097 F 
ATOM     12  F4  UNL d   1       1.306  -2.841   1.334  0.00  0.00    -0.092 F 
ENDROOT
TORSDOF 0
ENDMDL
