MODEL 1
REMARK minimizedAffinity 1.91905713
REMARK minimizedRMSD -1
REMARK  0 active torsions:
REMARK  status: ('A' for Active; 'I' for Inactive)
ROOT
ATOM      1  C   UNL d   1       1.293  -0.456   0.350  0.00  0.00     0.124 A 
ATOM      2  C1  UNL d   1       1.260   0.858  -0.097  0.00  0.00     0.062 A 
ATOM      3  C2  UNL d   1       0.209   1.299  -0.896  0.00  0.00     0.162 A 
ATOM      4  C3  UNL d   1      -0.819   0.426  -1.252  0.00  0.00    -0.034 A 
ATOM      5  C4  UNL d   1      -0.778  -0.894  -0.800  0.00  0.00     0.162 A 
ATOM      6  C5  UNL d   1       0.275  -1.330  -0.001  0.00  0.00     0.062 A 
ATOM      7  F   UNL d   1       0.305  -2.600   0.429  0.00  0.00    -0.097 F 
ATOM      8  F1  UNL d   1      -1.749  -1.760  -1.124  0.00  0.00    -0.096 F 
ATOM      9  I   UNL d   1      -2.392   1.082  -2.447  0.00  0.00    -0.060 I 
ATOM     10  F2  UNL d   1       0.202   2.574  -1.313  0.00  0.00    -0.096 F 
ATOM     11  F3  UNL d   1       2.243   1.705   0.241  0.00  0.00    -0.097 F 
ATOM     12  F4  UNL d   1       2.306  -0.878   1.118  0.00  0.00    -0.092 F 
ENDROOT
TORSDOF 0
ENDMDL
