MODEL 1
REMARK minimizedAffinity 0.202164814
REMARK minimizedRMSD -1
REMARK  0 active torsions:
REMARK  status: ('A' for Active; 'I' for Inactive)
ROOT
ATOM      1  C   UNL d   1       0.741  -1.741   0.983  0.00  0.00     0.124 A 
ATOM      2  C1  UNL d   1      -0.181  -0.836   1.490  0.00  0.00     0.062 A 
ATOM      3  C2  UNL d   1      -0.780   0.098   0.650  0.00  0.00     0.162 A 
ATOM      4  C3  UNL d   1      -0.460   0.132  -0.707  0.00  0.00    -0.034 A 
ATOM      5  C4  UNL d   1       0.469  -0.782  -1.210  0.00  0.00     0.162 A 
ATOM      6  C5  UNL d   1       1.064  -1.714  -0.367  0.00  0.00     0.062 A 
ATOM      7  F   UNL d   1       1.955  -2.588  -0.859  0.00  0.00    -0.097 F 
ATOM      8  F1  UNL d   1       0.799  -0.778  -2.510  0.00  0.00    -0.096 F 
ATOM      9  I   UNL d   1      -1.353   1.527  -1.967  0.00  0.00    -0.060 I 
ATOM     10  F2  UNL d   1      -1.666   0.961   1.167  0.00  0.00    -0.096 F 
ATOM     11  F3  UNL d   1      -0.495  -0.860   2.793  0.00  0.00    -0.097 F 
ATOM     12  F4  UNL d   1       1.316  -2.639   1.793  0.00  0.00    -0.092 F 
ENDROOT
TORSDOF 0
ENDMDL
