MODEL 1
REMARK minimizedAffinity 0.745172858
REMARK minimizedRMSD -1
REMARK  0 active torsions:
REMARK  status: ('A' for Active; 'I' for Inactive)
ROOT
ATOM      1  C   UNL d   1       1.937  -0.375   0.507  0.00  0.00     0.124 A 
ATOM      2  C1  UNL d   1       1.516   0.947   0.462  0.00  0.00     0.062 A 
ATOM      3  C2  UNL d   1       0.367   1.292  -0.245  0.00  0.00     0.162 A 
ATOM      4  C3  UNL d   1      -0.370   0.313  -0.912  0.00  0.00    -0.034 A 
ATOM      5  C4  UNL d   1       0.061  -1.014  -0.862  0.00  0.00     0.162 A 
ATOM      6  C5  UNL d   1       1.209  -1.354  -0.154  0.00  0.00     0.062 A 
ATOM      7  F   UNL d   1       1.614  -2.631  -0.111  0.00  0.00    -0.097 F 
ATOM      8  F1  UNL d   1      -0.624  -1.981  -1.492  0.00  0.00    -0.096 F 
ATOM      9  I   UNL d   1      -2.087   0.825  -1.970  0.00  0.00    -0.060 I 
ATOM     10  F2  UNL d   1      -0.016   2.577  -0.272  0.00  0.00    -0.096 F 
ATOM     11  F3  UNL d   1       2.217   1.895   1.100  0.00  0.00    -0.097 F 
ATOM     12  F4  UNL d   1       3.042  -0.704   1.187  0.00  0.00    -0.092 F 
ENDROOT
TORSDOF 0
ENDMDL
