MODEL 1
REMARK minimizedAffinity 3.76088357
REMARK minimizedRMSD -1
REMARK  0 active torsions:
REMARK  status: ('A' for Active; 'I' for Inactive)
ROOT
ATOM      1  C   UNL d   1       1.479   0.379   0.421  0.00  0.00     0.124 A 
ATOM      2  C1  UNL d   1       1.253   1.667  -0.043  0.00  0.00     0.062 A 
ATOM      3  C2  UNL d   1       0.053   1.984  -0.673  0.00  0.00     0.162 A 
ATOM      4  C3  UNL d   1      -0.932   1.011  -0.842  0.00  0.00    -0.034 A 
ATOM      5  C4  UNL d   1      -0.697  -0.283  -0.372  0.00  0.00     0.162 A 
ATOM      6  C5  UNL d   1       0.504  -0.594   0.257  0.00  0.00     0.062 A 
ATOM      7  F   UNL d   1       0.720  -1.840   0.705  0.00  0.00    -0.097 F 
ATOM      8  F1  UNL d   1      -1.623  -1.243  -0.518  0.00  0.00    -0.096 F 
ATOM      9  I   UNL d   1      -2.727   1.481  -1.783  0.00  0.00    -0.060 I 
ATOM     10  F2  UNL d   1      -0.137   3.237  -1.113  0.00  0.00    -0.096 F 
ATOM     11  F3  UNL d   1       2.194   2.610   0.114  0.00  0.00    -0.097 F 
ATOM     12  F4  UNL d   1       2.635   0.077   1.026  0.00  0.00    -0.092 F 
ENDROOT
TORSDOF 0
ENDMDL
