MODEL 1
REMARK minimizedAffinity -0.401558816
REMARK minimizedRMSD -1
REMARK  0 active torsions:
REMARK  status: ('A' for Active; 'I' for Inactive)
ROOT
ATOM      1  C   UNL d   1      -1.606   1.295  -1.349  0.00  0.00     0.124 A 
ATOM      2  C1  UNL d   1      -1.695   0.983   0.001  0.00  0.00     0.062 A 
ATOM      3  C2  UNL d   1      -0.758   0.136   0.587  0.00  0.00     0.162 A 
ATOM      4  C3  UNL d   1       0.276  -0.405  -0.177  0.00  0.00    -0.034 A 
ATOM      5  C4  UNL d   1       0.358  -0.087  -1.534  0.00  0.00     0.162 A 
ATOM      6  C5  UNL d   1      -0.580   0.760  -2.115  0.00  0.00     0.062 A 
ATOM      7  F   UNL d   1      -0.493   1.060  -3.419  0.00  0.00    -0.097 F 
ATOM      8  F1  UNL d   1       1.340  -0.589  -2.298  0.00  0.00    -0.096 F 
ATOM      9  I   UNL d   1       1.679  -1.671   0.694  0.00  0.00    -0.060 I 
ATOM     10  F2  UNL d   1      -0.868  -0.148   1.893  0.00  0.00    -0.096 F 
ATOM     11  F3  UNL d   1      -2.685   1.498   0.743  0.00  0.00    -0.097 F 
ATOM     12  F4  UNL d   1      -2.509   2.110  -1.910  0.00  0.00    -0.092 F 
ENDROOT
TORSDOF 0
ENDMDL
