MODEL 1
REMARK minimizedAffinity -4.26303768
REMARK minimizedRMSD -1
REMARK  1 active torsions:
REMARK  status: ('A' for Active; 'I' for Inactive)
REMARK    1  A    between atoms: C3_4  and  O_7 
ROOT
ATOM      1  C   UNL d   1       0.270  -0.578   0.121  0.00  0.00    -0.033 A 
ATOM      2  C1  UNL d   1       0.562  -0.348   1.467  0.00  0.00     0.039 A 
ATOM      3  C2  UNL d   1      -0.058   0.702   2.147  0.00  0.00    -0.080 A 
ATOM      4  C3  UNL d   1      -0.967   1.512   1.472  0.00  0.00     0.150 A 
ATOM      5  C4  UNL d   1      -1.265   1.285   0.132  0.00  0.00    -0.007 A 
ATOM      6  C5  UNL d   1      -0.644   0.237  -0.546  0.00  0.00     0.039 A 
ENDROOT
BRANCH   4   7
ATOM      7  O   UNL d   1      -1.594   2.551   2.093  0.00  0.00    -0.526 OA
ATOM      8  H5  UNL d   1      -1.268   2.605   3.007  0.00  0.00     0.418 HD
ENDBRANCH   4   7
TORSDOF 1
ENDMDL
