MODEL 1
REMARK minimizedAffinity -4.25188637
REMARK minimizedRMSD -1
REMARK  1 active torsions:
REMARK  status: ('A' for Active; 'I' for Inactive)
REMARK    1  A    between atoms: C3_4  and  O_7 
ROOT
ATOM      1  C   UNL d   1      -1.023   2.306   1.485  0.00  0.00    -0.033 A 
ATOM      2  C1  UNL d   1      -0.103   1.407   2.027  0.00  0.00     0.039 A 
ATOM      3  C2  UNL d   1       0.376   0.346   1.256  0.00  0.00    -0.080 A 
ATOM      4  C3  UNL d   1      -0.071   0.196  -0.054  0.00  0.00     0.150 A 
ATOM      5  C4  UNL d   1      -0.984   1.091  -0.601  0.00  0.00    -0.007 A 
ATOM      6  C5  UNL d   1      -1.462   2.149   0.170  0.00  0.00     0.039 A 
ENDROOT
BRANCH   4   7
ATOM      7  O   UNL d   1       0.365  -0.826  -0.843  0.00  0.00    -0.526 OA
ATOM      8  H5  UNL d   1       0.970  -1.381  -0.323  0.00  0.00     0.418 HD
ENDBRANCH   4   7
TORSDOF 1
ENDMDL
