MODEL 1
REMARK minimizedAffinity -4.50173378
REMARK minimizedRMSD -1
REMARK  1 active torsions:
REMARK  status: ('A' for Active; 'I' for Inactive)
REMARK    1  A    between atoms: C3_4  and  O_7 
ROOT
ATOM      1  C   UNL d   1       0.412   0.062   0.464  0.00  0.00    -0.033 A 
ATOM      2  C1  UNL d   1      -0.563   0.689  -0.315  0.00  0.00     0.039 A 
ATOM      3  C2  UNL d   1      -1.384   1.669   0.247  0.00  0.00    -0.080 A 
ATOM      4  C3  UNL d   1      -1.219   2.013   1.586  0.00  0.00     0.150 A 
ATOM      5  C4  UNL d   1      -0.247   1.396   2.366  0.00  0.00    -0.007 A 
ATOM      6  C5  UNL d   1       0.571   0.417   1.804  0.00  0.00     0.039 A 
ENDROOT
BRANCH   4   7
ATOM      7  O   UNL d   1      -2.000   2.961   2.179  0.00  0.00    -0.526 OA
ATOM      8  H5  UNL d   1      -2.645   3.280   1.526  0.00  0.00     0.418 HD
ENDBRANCH   4   7
TORSDOF 1
ENDMDL
