MODEL 1
REMARK minimizedAffinity -1.51444638
REMARK minimizedRMSD -1
REMARK  1 active torsions:
REMARK  status: ('A' for Active; 'I' for Inactive)
REMARK    1  A    between atoms: C3_4  and  O_7 
ROOT
ATOM      1  C   UNL d   1       0.421  -0.182  -0.975  0.00  0.00    -0.033 A 
ATOM      2  C1  UNL d   1       0.706  -0.712   0.285  0.00  0.00     0.039 A 
ATOM      3  C2  UNL d   1       0.535   0.070   1.429  0.00  0.00    -0.080 A 
ATOM      4  C3  UNL d   1       0.079   1.379   1.299  0.00  0.00     0.150 A 
ATOM      5  C4  UNL d   1      -0.210   1.912   0.047  0.00  0.00    -0.007 A 
ATOM      6  C5  UNL d   1      -0.038   1.130  -1.094  0.00  0.00     0.039 A 
ENDROOT
BRANCH   4   7
ATOM      7  O   UNL d   1      -0.099   2.183   2.386  0.00  0.00    -0.526 OA
ATOM      8  H5  UNL d   1       0.167   1.690   3.180  0.00  0.00     0.418 HD
ENDBRANCH   4   7
TORSDOF 1
ENDMDL
