MODEL 1
REMARK minimizedAffinity -2.13264704
REMARK minimizedRMSD -1
REMARK  1 active torsions:
REMARK  status: ('A' for Active; 'I' for Inactive)
REMARK    1  A    between atoms: C3_4  and  O_7 
ROOT
ATOM      1  C   UNL d   1       0.567  -0.336  -0.335  0.00  0.00    -0.033 A 
ATOM      2  C1  UNL d   1       0.861  -0.125   1.014  0.00  0.00     0.039 A 
ATOM      3  C2  UNL d   1       0.024   0.673   1.796  0.00  0.00    -0.080 A 
ATOM      4  C3  UNL d   1      -1.102   1.253   1.219  0.00  0.00     0.150 A 
ATOM      5  C4  UNL d   1      -1.403   1.045  -0.123  0.00  0.00    -0.007 A 
ATOM      6  C5  UNL d   1      -0.565   0.248  -0.903  0.00  0.00     0.039 A 
ENDROOT
BRANCH   4   7
ATOM      7  O   UNL d   1      -1.945   2.044   1.941  0.00  0.00    -0.526 OA
ATOM      8  H5  UNL d   1      -1.596   2.122   2.845  0.00  0.00     0.418 HD
ENDBRANCH   4   7
TORSDOF 1
ENDMDL
