MODEL 1
REMARK minimizedAffinity -4.27436399
REMARK minimizedRMSD -1
REMARK  1 active torsions:
REMARK  status: ('A' for Active; 'I' for Inactive)
REMARK    1  A    between atoms: C3_4  and  O_7 
ROOT
ATOM      1  C   UNL d   1       0.119   0.579  -1.012  0.00  0.00    -0.033 A 
ATOM      2  C1  UNL d   1       0.355  -0.169   0.144  0.00  0.00     0.039 A 
ATOM      3  C2  UNL d   1       0.158   0.404   1.401  0.00  0.00    -0.080 A 
ATOM      4  C3  UNL d   1      -0.277   1.724   1.490  0.00  0.00     0.150 A 
ATOM      5  C4  UNL d   1      -0.519   2.473   0.343  0.00  0.00    -0.007 A 
ATOM      6  C5  UNL d   1      -0.320   1.899  -0.912  0.00  0.00     0.039 A 
ENDROOT
BRANCH   4   7
ATOM      7  O   UNL d   1      -0.479   2.328   2.695  0.00  0.00    -0.526 OA
ATOM      8  H5  UNL d   1      -0.245   1.699   3.398  0.00  0.00     0.418 HD
ENDBRANCH   4   7
TORSDOF 1
ENDMDL
