MODEL 1
REMARK minimizedAffinity -0.543097734
REMARK minimizedRMSD -1
REMARK  0 active torsions:
REMARK  status: ('A' for Active; 'I' for Inactive)
ROOT
ATOM      1  N1  IND d   1       4.119  -5.967  -2.193  0.00  0.00    -0.196 N 
ATOM      2  C2  IND d   1       2.946  -5.938  -1.490  0.00  0.00     0.054 A 
ATOM      3  C3  IND d   1       1.892  -5.907  -2.335  0.00  0.00    -0.031 A 
ATOM      4  C4  IND d   1       1.854  -5.998  -4.908  0.00  0.00     0.051 A 
ATOM      5  C5  IND d   1       2.679  -5.994  -5.998  0.00  0.00    -0.031 A 
ATOM      6  C6  IND d   1       4.053  -5.983  -5.873  0.00  0.00     0.015 A 
ATOM      7  C7  IND d   1       4.657  -5.987  -4.647  0.00  0.00    -0.016 A 
ATOM      8  C8  IND d   1       3.823  -5.984  -3.538  0.00  0.00    -0.047 A 
ATOM      9  C9  IND d   1       2.428  -5.953  -3.659  0.00  0.00    -0.096 A 
ATOM     10  HN1 IND d   1       4.908  -5.972  -1.852  0.00  0.00     0.298 HD
ENDROOT
TORSDOF 0
ENDMDL
