MODEL 1
REMARK minimizedAffinity 10.423604
REMARK minimizedRMSD -1
REMARK  0 active torsions:
REMARK  status: ('A' for Active; 'I' for Inactive)
ROOT
ATOM      1  N1  IND d   1      -2.233   2.098   0.158  0.00  0.00    -0.196 N 
ATOM      2  C2  IND d   1      -2.230   1.655  -1.135  0.00  0.00     0.054 A 
ATOM      3  C3  IND d   1      -3.428   1.888  -1.715  0.00  0.00    -0.031 A 
ATOM      4  C4  IND d   1      -5.504   3.074  -0.761  0.00  0.00     0.051 A 
ATOM      5  C5  IND d   1      -5.999   3.620   0.390  0.00  0.00    -0.031 A 
ATOM      6  C6  IND d   1      -5.247   3.691   1.545  0.00  0.00     0.015 A 
ATOM      7  C7  IND d   1      -3.964   3.226   1.589  0.00  0.00    -0.016 A 
ATOM      8  C8  IND d   1      -3.460   2.664   0.424  0.00  0.00    -0.047 A 
ATOM      9  C9  IND d   1      -4.233   2.551  -0.739  0.00  0.00    -0.096 A 
ATOM     10  HN1 IND d   1      -1.579   2.033   0.712  0.00  0.00     0.298 HD
ENDROOT
TORSDOF 0
ENDMDL
