MODEL 1
REMARK minimizedAffinity 2.2913394
REMARK minimizedRMSD -1
REMARK  0 active torsions:
REMARK  status: ('A' for Active; 'I' for Inactive)
ROOT
ATOM      1  N1  IND d   1       1.350  -5.939  -4.752  0.00  0.00    -0.196 N 
ATOM      2  C2  IND d   1       2.018  -5.835  -5.941  0.00  0.00     0.054 A 
ATOM      3  C3  IND d   1       3.347  -5.722  -5.724  0.00  0.00    -0.031 A 
ATOM      4  C4  IND d   1       4.655  -5.787  -3.508  0.00  0.00     0.051 A 
ATOM      5  C5  IND d   1       4.478  -5.830  -2.154  0.00  0.00    -0.031 A 
ATOM      6  C6  IND d   1       3.224  -5.916  -1.585  0.00  0.00     0.015 A 
ATOM      7  C7  IND d   1       2.096  -5.974  -2.353  0.00  0.00    -0.016 A 
ATOM      8  C8  IND d   1       2.271  -5.923  -3.729  0.00  0.00    -0.047 A 
ATOM      9  C9  IND d   1       3.539  -5.793  -4.310  0.00  0.00    -0.096 A 
ATOM     10  HN1 IND d   1       0.497  -6.003  -4.660  0.00  0.00     0.298 HD
ENDROOT
TORSDOF 0
ENDMDL
