MODEL 1
REMARK minimizedAffinity 10.8450232
REMARK minimizedRMSD -1
REMARK  0 active torsions:
REMARK  status: ('A' for Active; 'I' for Inactive)
ROOT
ATOM      1  N1  IND d   1      -5.288   4.329   1.764  0.00  0.00    -0.196 N 
ATOM      2  C2  IND d   1      -5.998   3.736   0.757  0.00  0.00     0.054 A 
ATOM      3  C3  IND d   1      -5.169   3.061  -0.070  0.00  0.00    -0.031 A 
ATOM      4  C4  IND d   1      -2.624   2.709   0.096  0.00  0.00     0.051 A 
ATOM      5  C5  IND d   1      -1.530   3.086   0.823  0.00  0.00    -0.031 A 
ATOM      6  C6  IND d   1      -1.634   3.910   1.924  0.00  0.00     0.015 A 
ATOM      7  C7  IND d   1      -2.844   4.382   2.349  0.00  0.00    -0.016 A 
ATOM      8  C8  IND d   1      -3.957   4.007   1.609  0.00  0.00    -0.047 A 
ATOM      9  C9  IND d   1      -3.852   3.205   0.465  0.00  0.00    -0.096 A 
ATOM     10  HN1 IND d   1      -5.616   4.819   2.388  0.00  0.00     0.298 HD
ENDROOT
TORSDOF 0
ENDMDL
