MODEL 1
REMARK minimizedAffinity -1.19635081
REMARK minimizedRMSD -1
REMARK  0 active torsions:
REMARK  status: ('A' for Active; 'I' for Inactive)
ROOT
ATOM      1  N1  IND d   1       5.394  -5.788  -3.794  0.00  0.00    -0.196 N 
ATOM      2  C2  IND d   1       5.991  -5.774  -5.023  0.00  0.00     0.054 A 
ATOM      3  C3  IND d   1       5.059  -5.860  -6.000  0.00  0.00    -0.031 A 
ATOM      4  C4  IND d   1       2.493  -5.927  -5.810  0.00  0.00     0.051 A 
ATOM      5  C5  IND d   1       1.482  -5.998  -4.893  0.00  0.00    -0.031 A 
ATOM      6  C6  IND d   1       1.728  -5.999  -3.535  0.00  0.00     0.015 A 
ATOM      7  C7  IND d   1       3.000  -5.918  -3.041  0.00  0.00    -0.016 A 
ATOM      8  C8  IND d   1       4.029  -5.854  -3.970  0.00  0.00    -0.047 A 
ATOM      9  C9  IND d   1       3.788  -5.895  -5.349  0.00  0.00    -0.096 A 
ATOM     10  HN1 IND d   1       5.802  -5.760  -3.038  0.00  0.00     0.298 HD
ENDROOT
TORSDOF 0
ENDMDL
