MODEL 1
REMARK minimizedAffinity 1.82847655
REMARK minimizedRMSD -1
REMARK  0 active torsions:
REMARK  status: ('A' for Active; 'I' for Inactive)
ROOT
ATOM      1  N1  IND d   1       2.256  -5.964  -2.239  0.00  0.00    -0.196 N 
ATOM      2  C2  IND d   1       3.376  -5.968  -1.456  0.00  0.00     0.054 A 
ATOM      3  C3  IND d   1       4.487  -5.999  -2.224  0.00  0.00    -0.031 A 
ATOM      4  C4  IND d   1       4.704  -5.944  -4.789  0.00  0.00     0.051 A 
ATOM      5  C5  IND d   1       3.959  -5.974  -5.934  0.00  0.00    -0.031 A 
ATOM      6  C6  IND d   1       2.580  -5.999  -5.905  0.00  0.00     0.015 A 
ATOM      7  C7  IND d   1       1.891  -5.985  -4.725  0.00  0.00    -0.016 A 
ATOM      8  C8  IND d   1       2.645  -5.962  -3.561  0.00  0.00    -0.047 A 
ATOM      9  C9  IND d   1       4.046  -5.979  -3.583  0.00  0.00    -0.096 A 
ATOM     10  HN1 IND d   1       1.444  -5.963  -1.955  0.00  0.00     0.298 HD
ENDROOT
TORSDOF 0
ENDMDL
