MODEL 1
REMARK minimizedAffinity 1.15476584
REMARK minimizedRMSD -1
REMARK  0 active torsions:
REMARK  status: ('A' for Active; 'I' for Inactive)
ROOT
ATOM      1  N1  IND d   1       4.125  -2.506  -1.516  0.00  0.00    -0.196 N 
ATOM      2  C2  IND d   1       4.381  -1.747  -2.624  0.00  0.00     0.054 A 
ATOM      3  C3  IND d   1       4.183  -2.472  -3.747  0.00  0.00    -0.031 A 
ATOM      4  C4  IND d   1       3.342  -4.891  -4.006  0.00  0.00     0.051 A 
ATOM      5  C5  IND d   1       3.010  -6.000  -3.278  0.00  0.00    -0.031 A 
ATOM      6  C6  IND d   1       3.031  -6.000  -1.899  0.00  0.00     0.015 A 
ATOM      7  C7  IND d   1       3.375  -4.883  -1.191  0.00  0.00    -0.016 A 
ATOM      8  C8  IND d   1       3.719  -3.757  -1.927  0.00  0.00    -0.047 A 
ATOM      9  C9  IND d   1       3.741  -3.764  -3.327  0.00  0.00    -0.096 A 
ATOM     10  HN1 IND d   1       4.205  -2.247  -0.700  0.00  0.00     0.298 HD
ENDROOT
TORSDOF 0
ENDMDL
