MODEL 1
REMARK minimizedAffinity 9.06857109
REMARK minimizedRMSD -1
REMARK  0 active torsions:
REMARK  status: ('A' for Active; 'I' for Inactive)
ROOT
ATOM      1  N1  IND d   1       0.924  -2.301   2.655  0.00  0.00    -0.196 N 
ATOM      2  C2  IND d   1       1.522  -1.165   2.187  0.00  0.00     0.054 A 
ATOM      3  C3  IND d   1       2.793  -1.082   2.641  0.00  0.00    -0.031 A 
ATOM      4  C4  IND d   1       4.129  -2.748   4.078  0.00  0.00     0.051 A 
ATOM      5  C5  IND d   1       3.996  -3.915   4.778  0.00  0.00    -0.031 A 
ATOM      6  C6  IND d   1       2.810  -4.619   4.803  0.00  0.00     0.015 A 
ATOM      7  C7  IND d   1       1.710  -4.186   4.118  0.00  0.00    -0.016 A 
ATOM      8  C8  IND d   1       1.838  -2.998   3.413  0.00  0.00    -0.047 A 
ATOM      9  C9  IND d   1       3.027  -2.257   3.418  0.00  0.00    -0.096 A 
ATOM     10  HN1 IND d   1       0.112  -2.540   2.501  0.00  0.00     0.298 HD
ENDROOT
TORSDOF 0
ENDMDL
