MODEL 1
REMARK minimizedAffinity 3.72948313
REMARK minimizedRMSD -1
REMARK  0 active torsions:
REMARK  status: ('A' for Active; 'I' for Inactive)
ROOT
ATOM      1  N1  IND d   1      -2.256  -0.919  -2.662  0.00  0.00    -0.196 N 
ATOM      2  C2  IND d   1      -3.269  -1.140  -3.552  0.00  0.00     0.054 A 
ATOM      3  C3  IND d   1      -3.788  -2.376  -3.378  0.00  0.00    -0.031 A 
ATOM      4  C4  IND d   1      -3.196  -4.165  -1.624  0.00  0.00     0.051 A 
ATOM      5  C5  IND d   1      -2.311  -4.437  -0.619  0.00  0.00    -0.031 A 
ATOM      6  C6  IND d   1      -1.344  -3.531  -0.234  0.00  0.00     0.015 A 
ATOM      7  C7  IND d   1      -1.234  -2.309  -0.834  0.00  0.00    -0.016 A 
ATOM      8  C8  IND d   1      -2.126  -2.032  -1.860  0.00  0.00    -0.047 A 
ATOM      9  C9  IND d   1      -3.082  -2.965  -2.284  0.00  0.00    -0.096 A 
ATOM     10  HN1 IND d   1      -1.780  -0.205  -2.611  0.00  0.00     0.298 HD
ENDROOT
TORSDOF 0
ENDMDL
