MODEL 1
REMARK minimizedAffinity 4.17087507
REMARK minimizedRMSD -1
REMARK  0 active torsions:
REMARK  status: ('A' for Active; 'I' for Inactive)
ROOT
ATOM      1  N1  IND d   1       1.085  -0.834   3.874  0.00  0.00    -0.196 N 
ATOM      2  C2  IND d   1       1.664  -0.421   2.707  0.00  0.00     0.054 A 
ATOM      3  C3  IND d   1       2.318  -1.447   2.118  0.00  0.00    -0.031 A 
ATOM      4  C4  IND d   1       2.484  -3.912   2.841  0.00  0.00     0.051 A 
ATOM      5  C5  IND d   1       2.149  -4.761   3.858  0.00  0.00    -0.031 A 
ATOM      6  C6  IND d   1       1.425  -4.337   4.953  0.00  0.00     0.015 A 
ATOM      7  C7  IND d   1       0.997  -3.044   5.067  0.00  0.00    -0.016 A 
ATOM      8  C8  IND d   1       1.342  -2.178   4.040  0.00  0.00    -0.047 A 
ATOM      9  C9  IND d   1       2.113  -2.593   2.946  0.00  0.00    -0.096 A 
ATOM     10  HN1 IND d   1       0.635  -0.339   4.414  0.00  0.00     0.298 HD
ENDROOT
TORSDOF 0
ENDMDL
