MODEL 1
REMARK minimizedAffinity 2.80729318
REMARK minimizedRMSD -1
REMARK  0 active torsions:
REMARK  status: ('A' for Active; 'I' for Inactive)
ROOT
ATOM      1  N1  IND d   1       1.277  -0.915   4.044  0.00  0.00    -0.196 N 
ATOM      2  C2  IND d   1       2.007  -0.392   3.014  0.00  0.00     0.054 A 
ATOM      3  C3  IND d   1       2.735  -1.360   2.414  0.00  0.00    -0.031 A 
ATOM      4  C4  IND d   1       2.803  -3.889   2.892  0.00  0.00     0.051 A 
ATOM      5  C5  IND d   1       2.335  -4.834   3.762  0.00  0.00    -0.031 A 
ATOM      6  C6  IND d   1       1.471  -4.515   4.789  0.00  0.00     0.015 A 
ATOM      7  C7  IND d   1       1.031  -3.235   4.979  0.00  0.00    -0.016 A 
ATOM      8  C8  IND d   1       1.510  -2.272   4.102  0.00  0.00    -0.047 A 
ATOM      9  C9  IND d   1       2.421  -2.582   3.084  0.00  0.00    -0.096 A 
ATOM     10  HN1 IND d   1       0.759  -0.472   4.568  0.00  0.00     0.298 HD
ENDROOT
TORSDOF 0
ENDMDL
