MODEL 1
REMARK minimizedAffinity 4.04931545
REMARK minimizedRMSD -1
REMARK  0 active torsions:
REMARK  status: ('A' for Active; 'I' for Inactive)
ROOT
ATOM      1  C2' OXE d   1      -4.234   1.500   0.375  0.00  0.00     0.078 C 
ATOM      2  C1' OXE d   1      -2.490   0.139   2.104  0.00  0.00     0.078 C 
ATOM      3  C1  OXE d   1      -1.889   1.117   1.125  0.00  0.00    -0.078 A 
ATOM      4  C2  OXE d   1      -2.745   1.743   0.251  0.00  0.00    -0.078 A 
ATOM      5  C3  OXE d   1      -2.250   2.695  -0.635  0.00  0.00     0.003 A 
ATOM      6  C4  OXE d   1      -0.871   2.907  -0.750  0.00  0.00    -0.002 A 
ATOM      7  C5  OXE d   1       0.022   2.250   0.103  0.00  0.00    -0.002 A 
ATOM      8  C6  OXE d   1      -0.473   1.385   1.073  0.00  0.00     0.003 A 
ENDROOT
TORSDOF 0
ENDMDL
