MODEL 1
REMARK minimizedAffinity -5.0694809
REMARK minimizedRMSD -1
REMARK  0 active torsions:
REMARK  status: ('A' for Active; 'I' for Inactive)
ROOT
ATOM      1  C2' OXE d   1      -3.393   1.141   0.609  0.00  0.00     0.078 C 
ATOM      2  C1' OXE d   1      -1.778  -0.686   2.000  0.00  0.00     0.078 C 
ATOM      3  C1  OXE d   1      -1.092   0.411   1.224  0.00  0.00    -0.078 A 
ATOM      4  C2  OXE d   1      -1.889   1.273   0.508  0.00  0.00    -0.078 A 
ATOM      5  C3  OXE d   1      -1.311   2.335  -0.180  0.00  0.00     0.003 A 
ATOM      6  C4  OXE d   1       0.082   2.443  -0.277  0.00  0.00    -0.002 A 
ATOM      7  C5  OXE d   1       0.913   1.553   0.412  0.00  0.00    -0.002 A 
ATOM      8  C6  OXE d   1       0.342   0.559   1.199  0.00  0.00     0.003 A 
ENDROOT
TORSDOF 0
ENDMDL
