MODEL 1
REMARK minimizedAffinity 1.21375382
REMARK minimizedRMSD -1
REMARK  0 active torsions:
REMARK  status: ('A' for Active; 'I' for Inactive)
ROOT
ATOM      1  C2' OXE d   1      -3.674   2.171  -0.627  0.00  0.00     0.078 C 
ATOM      2  C1' OXE d   1      -3.694  -0.135   0.974  0.00  0.00     0.078 C 
ATOM      3  C1  OXE d   1      -2.366   0.534   0.719  0.00  0.00    -0.078 A 
ATOM      4  C2  OXE d   1      -2.360   1.635  -0.103  0.00  0.00    -0.078 A 
ATOM      5  C3  OXE d   1      -1.170   2.321  -0.327  0.00  0.00     0.003 A 
ATOM      6  C4  OXE d   1       0.043   1.813   0.153  0.00  0.00    -0.002 A 
ATOM      7  C5  OXE d   1       0.064   0.670   0.960  0.00  0.00    -0.002 A 
ATOM      8  C6  OXE d   1      -1.134   0.045   1.287  0.00  0.00     0.003 A 
ENDROOT
TORSDOF 0
ENDMDL
