MODEL 1
REMARK minimizedAffinity 1.56337941
REMARK minimizedRMSD -1
REMARK  0 active torsions:
REMARK  status: ('A' for Active; 'I' for Inactive)
ROOT
ATOM      1  C2' OXE d   1      -0.579  -0.451   2.077  0.00  0.00     0.078 C 
ATOM      2  C1' OXE d   1       0.749   1.763   0.974  0.00  0.00     0.078 C 
ATOM      3  C1  OXE d   1      -0.681   1.521   0.558  0.00  0.00    -0.078 A 
ATOM      4  C2  OXE d   1      -1.307   0.409   1.067  0.00  0.00    -0.078 A 
ATOM      5  C3  OXE d   1      -2.643   0.169   0.759  0.00  0.00     0.003 A 
ATOM      6  C4  OXE d   1      -3.307   0.963  -0.184  0.00  0.00    -0.002 A 
ATOM      7  C5  OXE d   1      -2.674   2.078  -0.744  0.00  0.00    -0.002 A 
ATOM      8  C6  OXE d   1      -1.378   2.394  -0.353  0.00  0.00     0.003 A 
ENDROOT
TORSDOF 0
ENDMDL
