MODEL 1
REMARK minimizedAffinity -1.1379149
REMARK minimizedRMSD -1
REMARK  0 active torsions:
REMARK  status: ('A' for Active; 'I' for Inactive)
ROOT
ATOM      1  C2' OXE d   1      -1.202  -0.805   1.518  0.00  0.00     0.078 C 
ATOM      2  C1' OXE d   1       0.878   0.927   0.773  0.00  0.00     0.078 C 
ATOM      3  C1  OXE d   1      -0.536   1.355   0.470  0.00  0.00    -0.078 A 
ATOM      4  C2  OXE d   1      -1.545   0.480   0.795  0.00  0.00    -0.078 A 
ATOM      5  C3  OXE d   1      -2.871   0.848   0.587  0.00  0.00     0.003 A 
ATOM      6  C4  OXE d   1      -3.179   2.034  -0.091  0.00  0.00    -0.002 A 
ATOM      7  C5  OXE d   1      -2.164   2.921  -0.467  0.00  0.00    -0.002 A 
ATOM      8  C6  OXE d   1      -0.843   2.617  -0.157  0.00  0.00     0.003 A 
ENDROOT
TORSDOF 0
ENDMDL
