MODEL 1
REMARK minimizedAffinity 4.53783798
REMARK minimizedRMSD -1
REMARK  0 active torsions:
REMARK  status: ('A' for Active; 'I' for Inactive)
ROOT
ATOM      1  C2' OXE d   1      -1.479  -5.568  -0.178  0.00  0.00     0.078 C 
ATOM      2  C1' OXE d   1      -0.395  -5.328  -2.756  0.00  0.00     0.078 C 
ATOM      3  C1  OXE d   1      -1.301  -4.225  -2.268  0.00  0.00    -0.078 A 
ATOM      4  C2  OXE d   1      -1.864  -4.374  -1.024  0.00  0.00    -0.078 A 
ATOM      5  C3  OXE d   1      -2.664  -3.360  -0.503  0.00  0.00     0.003 A 
ATOM      6  C4  OXE d   1      -3.024  -2.264  -1.296  0.00  0.00    -0.002 A 
ATOM      7  C5  OXE d   1      -2.494  -2.113  -2.582  0.00  0.00    -0.002 A 
ATOM      8  C6  OXE d   1      -1.599  -3.061  -3.066  0.00  0.00     0.003 A 
ENDROOT
TORSDOF 0
ENDMDL
