MODEL 1
REMARK minimizedAffinity -1.43423021
REMARK minimizedRMSD -1
REMARK  0 active torsions:
REMARK  status: ('A' for Active; 'I' for Inactive)
ROOT
ATOM      1  C2' OXE d   1      -0.034   1.246   0.089  0.00  0.00     0.078 C 
ATOM      2  C1' OXE d   1      -2.377   2.678  -0.492  0.00  0.00     0.078 C 
ATOM      3  C1  OXE d   1      -2.505   1.430   0.345  0.00  0.00    -0.078 A 
ATOM      4  C2  OXE d   1      -1.360   0.710   0.586  0.00  0.00    -0.078 A 
ATOM      5  C3  OXE d   1      -1.413  -0.419   1.398  0.00  0.00     0.003 A 
ATOM      6  C4  OXE d   1      -2.644  -0.914   1.844  0.00  0.00    -0.002 A 
ATOM      7  C5  OXE d   1      -3.828  -0.218   1.577  0.00  0.00    -0.002 A 
ATOM      8  C6  OXE d   1      -3.771   0.976   0.867  0.00  0.00     0.003 A 
ENDROOT
TORSDOF 0
ENDMDL
