MODEL 1
REMARK minimizedAffinity 0.601294696
REMARK minimizedRMSD -1
REMARK  0 active torsions:
REMARK  status: ('A' for Active; 'I' for Inactive)
ROOT
ATOM      1  C2' OXE d   1      -3.356  -0.407   1.281  0.00  0.00     0.078 C 
ATOM      2  C1' OXE d   1      -3.717   1.939  -0.218  0.00  0.00     0.078 C 
ATOM      3  C1  OXE d   1      -2.313   1.578   0.197  0.00  0.00    -0.078 A 
ATOM      4  C2  OXE d   1      -2.150   0.454   0.970  0.00  0.00    -0.078 A 
ATOM      5  C3  OXE d   1      -0.870   0.046   1.333  0.00  0.00     0.003 A 
ATOM      6  C4  OXE d   1       0.238   0.854   1.050  0.00  0.00    -0.002 A 
ATOM      7  C5  OXE d   1       0.090   2.024   0.298  0.00  0.00    -0.002 A 
ATOM      8  C6  OXE d   1      -1.170   2.377  -0.172  0.00  0.00     0.003 A 
ENDROOT
TORSDOF 0
ENDMDL
