MODEL 1
REMARK minimizedAffinity 8.25029755
REMARK minimizedRMSD -1
REMARK  0 active torsions:
REMARK  status: ('A' for Active; 'I' for Inactive)
ROOT
ATOM      1  C2' OXE d   1      -3.246   1.876  -0.550  0.00  0.00     0.078 C 
ATOM      2  C1' OXE d   1      -2.876  -0.373   1.089  0.00  0.00     0.078 C 
ATOM      3  C1  OXE d   1      -1.710   0.567   0.911  0.00  0.00    -0.078 A 
ATOM      4  C2  OXE d   1      -1.886   1.640   0.070  0.00  0.00    -0.078 A 
ATOM      5  C3  OXE d   1      -0.861   2.568  -0.086  0.00  0.00     0.003 A 
ATOM      6  C4  OXE d   1       0.398   2.337   0.483  0.00  0.00    -0.002 A 
ATOM      7  C5  OXE d   1       0.610   1.229   1.310  0.00  0.00    -0.002 A 
ATOM      8  C6  OXE d   1      -0.444   0.360   1.568  0.00  0.00     0.003 A 
ENDROOT
TORSDOF 0
ENDMDL
