MODEL 1
REMARK minimizedAffinity 0.489253521
REMARK minimizedRMSD -1
REMARK  0 active torsions:
REMARK  status: ('A' for Active; 'I' for Inactive)
ROOT
ATOM      1  C2' OXE d   1      -3.703   1.921   0.014  0.00  0.00     0.078 C 
ATOM      2  C1' OXE d   1      -3.099  -0.383   1.499  0.00  0.00     0.078 C 
ATOM      3  C1  OXE d   1      -1.948   0.433   0.969  0.00  0.00    -0.078 A 
ATOM      4  C2  OXE d   1      -2.252   1.533   0.203  0.00  0.00    -0.078 A 
ATOM      5  C3  OXE d   1      -1.229   2.352  -0.265  0.00  0.00     0.003 A 
ATOM      6  C4  OXE d   1       0.110   1.981  -0.094  0.00  0.00    -0.002 A 
ATOM      7  C5  OXE d   1       0.442   0.843   0.648  0.00  0.00    -0.002 A 
ATOM      8  C6  OXE d   1      -0.572   0.083   1.221  0.00  0.00     0.003 A 
ENDROOT
TORSDOF 0
ENDMDL
