MODEL 1
REMARK minimizedAffinity -1.74249303
REMARK minimizedRMSD -1
REMARK  0 active torsions:
REMARK  status: ('A' for Active; 'I' for Inactive)
ROOT
ATOM      1  C2' OXE d   1       0.372   1.155   0.754  0.00  0.00     0.078 C 
ATOM      2  C1' OXE d   1      -1.059   3.186  -0.553  0.00  0.00     0.078 C 
ATOM      3  C1  OXE d   1      -1.846   2.067   0.082  0.00  0.00    -0.078 A 
ATOM      4  C2  OXE d   1      -1.136   1.053   0.679  0.00  0.00    -0.078 A 
ATOM      5  C3  OXE d   1      -1.814   0.025   1.327  0.00  0.00     0.003 A 
ATOM      6  C4  OXE d   1      -3.209  -0.066   1.244  0.00  0.00    -0.002 A 
ATOM      7  C5  OXE d   1      -3.950   0.935   0.607  0.00  0.00    -0.002 A 
ATOM      8  C6  OXE d   1      -3.288   2.028   0.059  0.00  0.00     0.003 A 
ENDROOT
TORSDOF 0
ENDMDL
