MODEL 1
REMARK minimizedAffinity 0.564425766
REMARK minimizedRMSD -1
REMARK  0 active torsions:
REMARK  status: ('A' for Active; 'I' for Inactive)
ROOT
ATOM      1  C2' OXE d   1      -2.847   3.027  -0.334  0.00  0.00     0.078 C 
ATOM      2  C1' OXE d   1      -3.697   0.568   0.718  0.00  0.00     0.078 C 
ATOM      3  C1  OXE d   1      -2.222   0.877   0.757  0.00  0.00    -0.078 A 
ATOM      4  C2  OXE d   1      -1.809   2.062   0.197  0.00  0.00    -0.078 A 
ATOM      5  C3  OXE d   1      -0.465   2.421   0.256  0.00  0.00     0.003 A 
ATOM      6  C4  OXE d   1       0.489   1.518   0.740  0.00  0.00    -0.002 A 
ATOM      7  C5  OXE d   1       0.095   0.289   1.278  0.00  0.00    -0.002 A 
ATOM      8  C6  OXE d   1      -1.258  -0.029   1.333  0.00  0.00     0.003 A 
ENDROOT
TORSDOF 0
ENDMDL
