MODEL 1
REMARK minimizedAffinity 1.7416501
REMARK minimizedRMSD -1
REMARK  0 active torsions:
REMARK  status: ('A' for Active; 'I' for Inactive)
ROOT
ATOM      1  C2' OXE d   1       0.519   3.069   0.096  0.00  0.00     0.078 C 
ATOM      2  C1' OXE d   1       0.564   1.229   2.216  0.00  0.00     0.078 C 
ATOM      3  C1  OXE d   1      -0.711   1.354   1.420  0.00  0.00    -0.078 A 
ATOM      4  C2  OXE d   1      -0.740   2.291   0.415  0.00  0.00    -0.078 A 
ATOM      5  C3  OXE d   1      -1.873   2.409  -0.385  0.00  0.00     0.003 A 
ATOM      6  C4  OXE d   1      -3.035   1.692  -0.078  0.00  0.00    -0.002 A 
ATOM      7  C5  OXE d   1      -3.041   0.762   0.967  0.00  0.00    -0.002 A 
ATOM      8  C6  OXE d   1      -1.876   0.551   1.697  0.00  0.00     0.003 A 
ENDROOT
TORSDOF 0
ENDMDL
