MODEL 1
REMARK minimizedAffinity 1.36201
REMARK minimizedRMSD -1
REMARK  0 active torsions:
REMARK  status: ('A' for Active; 'I' for Inactive)
ROOT
ATOM      1  C2' OXE d   1       2.789   3.483   2.874  0.00  0.00     0.078 C 
ATOM      2  C1' OXE d   1       4.016   1.579   1.215  0.00  0.00     0.078 C 
ATOM      3  C1  OXE d   1       2.510   1.655   1.205  0.00  0.00    -0.078 A 
ATOM      4  C2  OXE d   1       1.916   2.557   2.054  0.00  0.00    -0.078 A 
ATOM      5  C3  OXE d   1       0.532   2.705   2.044  0.00  0.00     0.003 A 
ATOM      6  C4  OXE d   1      -0.268   1.838   1.291  0.00  0.00    -0.002 A 
ATOM      7  C5  OXE d   1       0.315   0.885   0.449  0.00  0.00    -0.002 A 
ATOM      8  C6  OXE d   1       1.701   0.809   0.362  0.00  0.00     0.003 A 
ENDROOT
TORSDOF 0
ENDMDL
