MODEL 1
REMARK minimizedAffinity 6.11802435
REMARK minimizedRMSD -1
REMARK  0 active torsions:
REMARK  status: ('A' for Active; 'I' for Inactive)
ROOT
ATOM      1  C2' OXE d   1      -5.808   1.260   0.620  0.00  0.00     0.078 C 
ATOM      2  C1' OXE d   1      -4.128  -0.389   2.149  0.00  0.00     0.078 C 
ATOM      3  C1  OXE d   1      -3.481   0.602   1.214  0.00  0.00    -0.078 A 
ATOM      4  C2  OXE d   1      -4.310   1.372   0.435  0.00  0.00    -0.078 A 
ATOM      5  C3  OXE d   1      -3.766   2.339  -0.404  0.00  0.00     0.003 A 
ATOM      6  C4  OXE d   1      -2.379   2.429  -0.577  0.00  0.00    -0.002 A 
ATOM      7  C5  OXE d   1      -1.517   1.627   0.178  0.00  0.00    -0.002 A 
ATOM      8  C6  OXE d   1      -2.049   0.740   1.106  0.00  0.00     0.003 A 
ENDROOT
TORSDOF 0
ENDMDL
