MODEL 1
REMARK minimizedAffinity -1.95000827
REMARK minimizedRMSD -1
REMARK  0 active torsions:
REMARK  status: ('A' for Active; 'I' for Inactive)
ROOT
ATOM      1  C2' OXE d   1       1.643   3.419   2.802  0.00  0.00     0.078 C 
ATOM      2  C1' OXE d   1      -1.159   3.262   2.733  0.00  0.00     0.078 C 
ATOM      3  C1  OXE d   1      -0.381   2.341   1.826  0.00  0.00    -0.078 A 
ATOM      4  C2  OXE d   1       0.989   2.458   1.833  0.00  0.00    -0.078 A 
ATOM      5  C3  OXE d   1       1.757   1.595   1.057  0.00  0.00     0.003 A 
ATOM      6  C4  OXE d   1       1.145   0.716   0.156  0.00  0.00    -0.002 A 
ATOM      7  C5  OXE d   1      -0.249   0.610   0.104  0.00  0.00    -0.002 A 
ATOM      8  C6  OXE d   1      -1.024   1.383   0.962  0.00  0.00     0.003 A 
ENDROOT
TORSDOF 0
ENDMDL
