MODEL 1
REMARK minimizedAffinity -0.186599642
REMARK minimizedRMSD -1
REMARK  0 active torsions:
REMARK  status: ('A' for Active; 'I' for Inactive)
ROOT
ATOM      1  C2' OXE d   1       1.410   1.095  -0.832  0.00  0.00     0.078 C 
ATOM      2  C1' OXE d   1      -1.320   0.984  -0.188  0.00  0.00     0.078 C 
ATOM      3  C1  OXE d   1      -0.369   1.492   0.866  0.00  0.00    -0.078 A 
ATOM      4  C2  OXE d   1       0.971   1.499   0.559  0.00  0.00    -0.078 A 
ATOM      5  C3  OXE d   1       1.886   2.009   1.475  0.00  0.00     0.003 A 
ATOM      6  C4  OXE d   1       1.472   2.372   2.763  0.00  0.00    -0.002 A 
ATOM      7  C5  OXE d   1       0.118   2.335   3.110  0.00  0.00    -0.002 A 
ATOM      8  C6  OXE d   1      -0.819   1.939   2.162  0.00  0.00     0.003 A 
ENDROOT
TORSDOF 0
ENDMDL
