MODEL 1
REMARK minimizedAffinity -0.349490643
REMARK minimizedRMSD -1
REMARK  0 active torsions:
REMARK  status: ('A' for Active; 'I' for Inactive)
ROOT
ATOM      1  C2' OXE d   1       2.396   0.823  -1.263  0.00  0.00     0.078 C 
ATOM      2  C1' OXE d   1       2.063  -1.368   0.461  0.00  0.00     0.078 C 
ATOM      3  C1  OXE d   1       0.951  -0.351   0.393  0.00  0.00    -0.078 A 
ATOM      4  C2  OXE d   1       1.142   0.742  -0.418  0.00  0.00    -0.078 A 
ATOM      5  C3  OXE d   1       0.125   1.681  -0.560  0.00  0.00     0.003 A 
ATOM      6  C4  OXE d   1      -1.027   1.604   0.233  0.00  0.00    -0.002 A 
ATOM      7  C5  OXE d   1      -1.224   0.520   1.095  0.00  0.00    -0.002 A 
ATOM      8  C6  OXE d   1      -0.266  -0.486   1.155  0.00  0.00     0.003 A 
ENDROOT
TORSDOF 0
ENDMDL
