MODEL 1
REMARK minimizedAffinity 10.2435913
REMARK minimizedRMSD -1
REMARK  0 active torsions:
REMARK  status: ('A' for Active; 'I' for Inactive)
ROOT
ATOM      1  C2' OXE d   1       1.510  -1.995   1.142  0.00  0.00     0.078 C 
ATOM      2  C1' OXE d   1       0.779   0.631   0.474  0.00  0.00     0.078 C 
ATOM      3  C1  OXE d   1      -0.312  -0.408   0.536  0.00  0.00    -0.078 A 
ATOM      4  C2  OXE d   1       0.062  -1.700   0.818  0.00  0.00    -0.078 A 
ATOM      5  C3  OXE d   1      -0.912  -2.688   0.941  0.00  0.00     0.003 A 
ATOM      6  C4  OXE d   1      -2.248  -2.409   0.630  0.00  0.00    -0.002 A 
ATOM      7  C5  OXE d   1      -2.644  -1.108   0.302  0.00  0.00    -0.002 A 
ATOM      8  C6  OXE d   1      -1.697  -0.089   0.293  0.00  0.00     0.003 A 
ENDROOT
TORSDOF 0
ENDMDL
