MODEL 1
REMARK minimizedAffinity 19.7399502
REMARK minimizedRMSD -1
REMARK  0 active torsions:
REMARK  status: ('A' for Active; 'I' for Inactive)
ROOT
ATOM      1  C   UNL d   1      -3.532   2.328  -0.781  0.00  0.00     0.124 A 
ATOM      2  C1  UNL d   1      -4.394   1.264  -1.006  0.00  0.00     0.062 A 
ATOM      3  C2  UNL d   1      -4.028   0.236  -1.870  0.00  0.00     0.162 A 
ATOM      4  C3  UNL d   1      -2.792   0.267  -2.516  0.00  0.00    -0.034 A 
ATOM      5  C4  UNL d   1      -1.930   1.341  -2.286  0.00  0.00     0.162 A 
ATOM      6  C5  UNL d   1      -2.301   2.366  -1.421  0.00  0.00     0.062 A 
ATOM      7  F   UNL d   1      -1.467   3.393  -1.206  0.00  0.00    -0.097 F 
ATOM      8  F1  UNL d   1      -0.735   1.403  -2.891  0.00  0.00    -0.096 F 
ATOM      9  I   UNL d   1      -2.240  -1.267  -3.809  0.00  0.00    -0.060 I 
ATOM     10  F2  UNL d   1      -4.881  -0.780  -2.068  0.00  0.00    -0.096 F 
ATOM     11  F3  UNL d   1      -5.584   1.225  -0.389  0.00  0.00    -0.097 F 
ATOM     12  F4  UNL d   1      -3.888   3.316   0.050  0.00  0.00    -0.092 F 
ENDROOT
TORSDOF 0
ENDMDL
