MODEL 1
REMARK minimizedAffinity 19.144928
REMARK minimizedRMSD -1
REMARK  0 active torsions:
REMARK  status: ('A' for Active; 'I' for Inactive)
ROOT
ATOM      1  C   UNL d   1       1.913   3.824   0.541  0.00  0.00     0.124 A 
ATOM      2  C1  UNL d   1       1.669   4.921  -0.274  0.00  0.00     0.062 A 
ATOM      3  C2  UNL d   1       0.591   4.912  -1.155  0.00  0.00     0.162 A 
ATOM      4  C3  UNL d   1      -0.252   3.803  -1.225  0.00  0.00    -0.034 A 
ATOM      5  C4  UNL d   1      -0.000   2.704  -0.402  0.00  0.00     0.162 A 
ATOM      6  C5  UNL d   1       1.078   2.717   0.476  0.00  0.00     0.062 A 
ATOM      7  F   UNL d   1       1.312   1.656   1.263  0.00  0.00    -0.097 F 
ATOM      8  F1  UNL d   1      -0.791   1.621  -0.444  0.00  0.00    -0.096 F 
ATOM      9  I   UNL d   1      -1.865   3.787  -2.540  0.00  0.00    -0.060 I 
ATOM     10  F2  UNL d   1       0.379   5.986  -1.931  0.00  0.00    -0.096 F 
ATOM     11  F3  UNL d   1       2.474   5.991  -0.214  0.00  0.00    -0.097 F 
ATOM     12  F4  UNL d   1       2.951   3.834   1.387  0.00  0.00    -0.092 F 
ENDROOT
TORSDOF 0
ENDMDL
