MODEL 1
REMARK minimizedAffinity 17.6786003
REMARK minimizedRMSD -1
REMARK  0 active torsions:
REMARK  status: ('A' for Active; 'I' for Inactive)
ROOT
ATOM      1  C   UNL d   1      -2.807   2.355  -2.295  0.00  0.00     0.124 A 
ATOM      2  C1  UNL d   1      -2.554   3.593  -2.869  0.00  0.00     0.062 A 
ATOM      3  C2  UNL d   1      -3.463   4.149  -3.764  0.00  0.00     0.162 A 
ATOM      4  C3  UNL d   1      -4.635   3.467  -4.091  0.00  0.00    -0.034 A 
ATOM      5  C4  UNL d   1      -4.883   2.222  -3.511  0.00  0.00     0.162 A 
ATOM      6  C5  UNL d   1      -3.971   1.671  -2.616  0.00  0.00     0.062 A 
ATOM      7  F   UNL d   1      -4.217   0.474  -2.063  0.00  0.00    -0.097 F 
ATOM      8  F1  UNL d   1      -6.000   1.539  -3.803  0.00  0.00    -0.096 F 
ATOM      9  I   UNL d   1      -5.998   4.294  -5.430  0.00  0.00    -0.060 I 
ATOM     10  F2  UNL d   1      -3.193   5.347  -4.304  0.00  0.00    -0.096 F 
ATOM     11  F3  UNL d   1      -1.430   4.256  -2.561  0.00  0.00    -0.097 F 
ATOM     12  F4  UNL d   1      -1.930   1.823  -1.434  0.00  0.00    -0.092 F 
ENDROOT
TORSDOF 0
ENDMDL
