MODEL 1
REMARK minimizedAffinity 19.9658165
REMARK minimizedRMSD -1
REMARK  0 active torsions:
REMARK  status: ('A' for Active; 'I' for Inactive)
ROOT
ATOM      1  C   UNL d   1       1.867   5.289  -0.869  0.00  0.00     0.124 A 
ATOM      2  C1  UNL d   1       0.622   5.293  -1.484  0.00  0.00     0.062 A 
ATOM      3  C2  UNL d   1      -0.431   4.565  -0.938  0.00  0.00     0.162 A 
ATOM      4  C3  UNL d   1      -0.245   3.827   0.231  0.00  0.00    -0.034 A 
ATOM      5  C4  UNL d   1       1.010   3.826   0.843  0.00  0.00     0.162 A 
ATOM      6  C5  UNL d   1       2.059   4.556   0.294  0.00  0.00     0.062 A 
ATOM      7  F   UNL d   1       3.261   4.550   0.889  0.00  0.00    -0.097 F 
ATOM      8  F1  UNL d   1       1.223   3.128   1.968  0.00  0.00    -0.096 F 
ATOM      9  I   UNL d   1      -1.817   2.737   1.050  0.00  0.00    -0.060 I 
ATOM     10  F2  UNL d   1      -1.622   4.588  -1.553  0.00  0.00    -0.096 F 
ATOM     11  F3  UNL d   1       0.434   6.000  -2.608  0.00  0.00    -0.097 F 
ATOM     12  F4  UNL d   1       2.879   5.989  -1.397  0.00  0.00    -0.092 F 
ENDROOT
TORSDOF 0
ENDMDL
