MODEL 1
REMARK minimizedAffinity 8.06093121
REMARK minimizedRMSD -1
REMARK  0 active torsions:
REMARK  status: ('A' for Active; 'I' for Inactive)
ROOT
ATOM      1  C   UNL d   1      -0.782  -1.698  -5.110  0.00  0.00     0.124 A 
ATOM      2  C1  UNL d   1      -1.827  -2.170  -4.329  0.00  0.00     0.062 A 
ATOM      3  C2  UNL d   1      -1.605  -3.187  -3.404  0.00  0.00     0.162 A 
ATOM      4  C3  UNL d   1      -0.332  -3.737  -3.254  0.00  0.00    -0.034 A 
ATOM      5  C4  UNL d   1       0.714  -3.257  -4.045  0.00  0.00     0.162 A 
ATOM      6  C5  UNL d   1       0.487  -2.241  -4.968  0.00  0.00     0.062 A 
ATOM      7  F   UNL d   1       1.498  -1.785  -5.722  0.00  0.00    -0.097 F 
ATOM      8  F1  UNL d   1       1.951  -3.763  -3.927  0.00  0.00    -0.096 F 
ATOM      9  I   UNL d   1       0.004  -5.256  -1.873  0.00  0.00    -0.060 I 
ATOM     10  F2  UNL d   1      -2.633  -3.624  -2.662  0.00  0.00    -0.096 F 
ATOM     11  F3  UNL d   1      -3.054  -1.648  -4.465  0.00  0.00    -0.097 F 
ATOM     12  F4  UNL d   1      -0.998  -0.720  -6.000  0.00  0.00    -0.092 F 
ENDROOT
TORSDOF 0
ENDMDL
