MODEL 1
REMARK minimizedAffinity 23.724369
REMARK minimizedRMSD -1
REMARK  0 active torsions:
REMARK  status: ('A' for Active; 'I' for Inactive)
ROOT
ATOM      1  C   UNL d   1      -3.830   4.505  -4.462  0.00  0.00     0.124 A 
ATOM      2  C1  UNL d   1      -2.724   4.135  -3.709  0.00  0.00     0.062 A 
ATOM      3  C2  UNL d   1      -2.715   2.921  -3.028  0.00  0.00     0.162 A 
ATOM      4  C3  UNL d   1      -3.816   2.067  -3.098  0.00  0.00    -0.034 A 
ATOM      5  C4  UNL d   1      -4.925   2.446  -3.857  0.00  0.00     0.162 A 
ATOM      6  C5  UNL d   1      -4.929   3.661  -4.535  0.00  0.00     0.062 A 
ATOM      7  F   UNL d   1      -5.998   4.016  -5.262  0.00  0.00    -0.097 F 
ATOM      8  F1  UNL d   1      -5.999   1.649  -3.945  0.00  0.00    -0.096 F 
ATOM      9  I   UNL d   1      -3.806   0.251  -2.082  0.00  0.00    -0.060 I 
ATOM     10  F2  UNL d   1      -1.633   2.590  -2.308  0.00  0.00    -0.096 F 
ATOM     11  F3  UNL d   1      -1.662   4.950  -3.636  0.00  0.00    -0.097 F 
ATOM     12  F4  UNL d   1      -3.837   5.674  -5.115  0.00  0.00    -0.092 F 
ENDROOT
TORSDOF 0
ENDMDL
