MODEL 1
REMARK minimizedAffinity 15.2519417
REMARK minimizedRMSD -1
REMARK  0 active torsions:
REMARK  status: ('A' for Active; 'I' for Inactive)
ROOT
ATOM      1  C   UNL d   1       5.282  -3.390  -1.582  0.00  0.00     0.124 A 
ATOM      2  C1  UNL d   1       5.081  -3.792  -0.269  0.00  0.00     0.062 A 
ATOM      3  C2  UNL d   1       4.336  -3.000   0.599  0.00  0.00     0.162 A 
ATOM      4  C3  UNL d   1       3.785  -1.797   0.157  0.00  0.00    -0.034 A 
ATOM      5  C4  UNL d   1       3.993  -1.399  -1.165  0.00  0.00     0.162 A 
ATOM      6  C5  UNL d   1       4.738  -2.194  -2.029  0.00  0.00     0.062 A 
ATOM      7  F   UNL d   1       4.931  -1.804  -3.297  0.00  0.00    -0.097 F 
ATOM      8  F1  UNL d   1       3.478  -0.248  -1.622  0.00  0.00    -0.096 F 
ATOM      9  I   UNL d   1       2.671  -0.609   1.453  0.00  0.00    -0.060 I 
ATOM     10  F2  UNL d   1       4.158  -3.414   1.863  0.00  0.00    -0.096 F 
ATOM     11  F3  UNL d   1       5.606  -4.947   0.165  0.00  0.00    -0.097 F 
ATOM     12  F4  UNL d   1       6.000  -4.154  -2.416  0.00  0.00    -0.092 F 
ENDROOT
TORSDOF 0
ENDMDL
