MODEL 1
REMARK minimizedAffinity 16.8847103
REMARK minimizedRMSD -1
REMARK  0 active torsions:
REMARK  status: ('A' for Active; 'I' for Inactive)
ROOT
ATOM      1  C   UNL d   1       0.788   1.211  -2.084  0.00  0.00     0.124 A 
ATOM      2  C1  UNL d   1       0.218   1.962  -1.065  0.00  0.00     0.062 A 
ATOM      3  C2  UNL d   1      -1.166   2.073  -0.968  0.00  0.00     0.162 A 
ATOM      4  C3  UNL d   1      -1.990   1.430  -1.891  0.00  0.00    -0.034 A 
ATOM      5  C4  UNL d   1      -1.409   0.678  -2.914  0.00  0.00     0.162 A 
ATOM      6  C5  UNL d   1      -0.025   0.570  -3.007  0.00  0.00     0.062 A 
ATOM      7  F   UNL d   1       0.524  -0.156  -3.992  0.00  0.00    -0.097 F 
ATOM      8  F1  UNL d   1      -2.172   0.047  -3.819  0.00  0.00    -0.096 F 
ATOM      9  I   UNL d   1      -4.060   1.593  -1.749  0.00  0.00    -0.060 I 
ATOM     10  F2  UNL d   1      -1.689   2.805   0.027  0.00  0.00    -0.096 F 
ATOM     11  F3  UNL d   1       1.002   2.583  -0.172  0.00  0.00    -0.097 F 
ATOM     12  F4  UNL d   1       2.120   1.107  -2.176  0.00  0.00    -0.092 F 
ENDROOT
TORSDOF 0
ENDMDL
