MODEL 1
REMARK minimizedAffinity 14.2099075
REMARK minimizedRMSD -1
REMARK  0 active torsions:
REMARK  status: ('A' for Active; 'I' for Inactive)
ROOT
ATOM      1  C   UNL d   1      -2.530  -0.761  -3.515  0.00  0.00     0.124 A 
ATOM      2  C1  UNL d   1      -1.209  -0.335  -3.505  0.00  0.00     0.062 A 
ATOM      3  C2  UNL d   1      -0.847   0.806  -2.795  0.00  0.00     0.162 A 
ATOM      4  C3  UNL d   1      -1.808   1.530  -2.088  0.00  0.00    -0.034 A 
ATOM      5  C4  UNL d   1      -3.135   1.095  -2.104  0.00  0.00     0.162 A 
ATOM      6  C5  UNL d   1      -3.491  -0.046  -2.815  0.00  0.00     0.062 A 
ATOM      7  F   UNL d   1      -4.768  -0.456  -2.823  0.00  0.00    -0.097 F 
ATOM      8  F1  UNL d   1      -4.084   1.767  -1.435  0.00  0.00    -0.096 F 
ATOM      9  I   UNL d   1      -1.271   3.237  -1.026  0.00  0.00    -0.060 I 
ATOM     10  F2  UNL d   1       0.436   1.195  -2.803  0.00  0.00    -0.096 F 
ATOM     11  F3  UNL d   1      -0.279  -1.024  -4.182  0.00  0.00    -0.097 F 
ATOM     12  F4  UNL d   1      -2.876  -1.859  -4.199  0.00  0.00    -0.092 F 
ENDROOT
TORSDOF 0
ENDMDL
