MODEL 1
REMARK minimizedAffinity 11.4034443
REMARK minimizedRMSD -1
REMARK  0 active torsions:
REMARK  status: ('A' for Active; 'I' for Inactive)
ROOT
ATOM      1  C   UNL d   1       1.678  -1.798  -1.030  0.00  0.00     0.124 A 
ATOM      2  C1  UNL d   1       0.860  -1.030  -1.848  0.00  0.00     0.062 A 
ATOM      3  C2  UNL d   1       0.467   0.243  -1.448  0.00  0.00     0.162 A 
ATOM      4  C3  UNL d   1       0.893   0.759  -0.224  0.00  0.00    -0.034 A 
ATOM      5  C4  UNL d   1       1.715  -0.018   0.594  0.00  0.00     0.162 A 
ATOM      6  C5  UNL d   1       2.105  -1.291   0.189  0.00  0.00     0.062 A 
ATOM      7  F   UNL d   1       2.896  -2.031   0.981  0.00  0.00    -0.097 F 
ATOM      8  F1  UNL d   1       2.143   0.447   1.777  0.00  0.00    -0.096 F 
ATOM      9  I   UNL d   1       0.308   2.664   0.378  0.00  0.00    -0.060 I 
ATOM     10  F2  UNL d   1      -0.324   0.962  -2.258  0.00  0.00    -0.096 F 
ATOM     11  F3  UNL d   1       0.445  -1.518  -3.026  0.00  0.00    -0.097 F 
ATOM     12  F4  UNL d   1       2.054  -3.023  -1.417  0.00  0.00    -0.092 F 
ENDROOT
TORSDOF 0
ENDMDL
