MODEL 1
REMARK minimizedAffinity 18.9186001
REMARK minimizedRMSD -1
REMARK  0 active torsions:
REMARK  status: ('A' for Active; 'I' for Inactive)
ROOT
ATOM      1  C   UNL d   1       2.223   4.132   0.748  0.00  0.00     0.124 A 
ATOM      2  C1  UNL d   1       1.581   2.997   1.222  0.00  0.00     0.062 A 
ATOM      3  C2  UNL d   1       0.495   2.467   0.531  0.00  0.00     0.162 A 
ATOM      4  C3  UNL d   1       0.043   3.073  -0.641  0.00  0.00    -0.034 A 
ATOM      5  C4  UNL d   1       0.694   4.216  -1.111  0.00  0.00     0.162 A 
ATOM      6  C5  UNL d   1       1.779   4.740  -0.417  0.00  0.00     0.062 A 
ATOM      7  F   UNL d   1       2.398   5.838  -0.876  0.00  0.00    -0.097 F 
ATOM      8  F1  UNL d   1       0.286   4.823  -2.235  0.00  0.00    -0.096 F 
ATOM      9  I   UNL d   1      -1.581   2.285  -1.677  0.00  0.00    -0.060 I 
ATOM     10  F2  UNL d   1      -0.107   1.369   1.012  0.00  0.00    -0.096 F 
ATOM     11  F3  UNL d   1       2.007   2.408   2.348  0.00  0.00    -0.097 F 
ATOM     12  F4  UNL d   1       3.268   4.640   1.415  0.00  0.00    -0.092 F 
ENDROOT
TORSDOF 0
ENDMDL
