MODEL 1
REMARK minimizedAffinity 17.8826733
REMARK minimizedRMSD -1
REMARK  0 active torsions:
REMARK  status: ('A' for Active; 'I' for Inactive)
ROOT
ATOM      1  C   UNL d   1       1.038   2.336  -0.036  0.00  0.00     0.124 A 
ATOM      2  C1  UNL d   1      -0.104   1.715  -0.522  0.00  0.00     0.062 A 
ATOM      3  C2  UNL d   1      -1.026   2.436  -1.275  0.00  0.00     0.162 A 
ATOM      4  C3  UNL d   1      -0.809   3.787  -1.548  0.00  0.00    -0.034 A 
ATOM      5  C4  UNL d   1       0.342   4.405  -1.055  0.00  0.00     0.162 A 
ATOM      6  C5  UNL d   1       1.260   3.680  -0.303  0.00  0.00     0.062 A 
ATOM      7  F   UNL d   1       2.364   4.281   0.165  0.00  0.00    -0.097 F 
ATOM      8  F1  UNL d   1       0.582   5.702  -1.299  0.00  0.00    -0.096 F 
ATOM      9  I   UNL d   1      -2.185   4.869  -2.674  0.00  0.00    -0.060 I 
ATOM     10  F2  UNL d   1      -2.121   1.811  -1.732  0.00  0.00    -0.096 F 
ATOM     11  F3  UNL d   1      -0.321   0.418  -0.264  0.00  0.00    -0.097 F 
ATOM     12  F4  UNL d   1       1.923   1.640   0.689  0.00  0.00    -0.092 F 
ENDROOT
TORSDOF 0
ENDMDL
