MODEL 1
REMARK minimizedAffinity 21.1724319
REMARK minimizedRMSD -1
REMARK  0 active torsions:
REMARK  status: ('A' for Active; 'I' for Inactive)
ROOT
ATOM      1  C   UNL d   1       2.402   4.233   1.199  0.00  0.00     0.124 A 
ATOM      2  C1  UNL d   1       2.035   4.846   0.009  0.00  0.00     0.062 A 
ATOM      3  C2  UNL d   1       1.068   4.266  -0.808  0.00  0.00     0.162 A 
ATOM      4  C3  UNL d   1       0.461   3.066  -0.437  0.00  0.00    -0.034 A 
ATOM      5  C4  UNL d   1       0.836   2.456   0.761  0.00  0.00     0.162 A 
ATOM      6  C5  UNL d   1       1.803   3.039   1.574  0.00  0.00     0.062 A 
ATOM      7  F   UNL d   1       2.156   2.446   2.723  0.00  0.00    -0.097 F 
ATOM      8  F1  UNL d   1       0.273   1.302   1.147  0.00  0.00    -0.096 F 
ATOM      9  I   UNL d   1      -0.984   2.196  -1.656  0.00  0.00    -0.060 I 
ATOM     10  F2  UNL d   1       0.733   4.881  -1.952  0.00  0.00    -0.096 F 
ATOM     11  F3  UNL d   1       2.613   6.000  -0.356  0.00  0.00    -0.097 F 
ATOM     12  F4  UNL d   1       3.332   4.793   1.983  0.00  0.00    -0.092 F 
ENDROOT
TORSDOF 0
ENDMDL
