MODEL 1
REMARK minimizedAffinity -3.59752107
REMARK minimizedRMSD -1
REMARK  0 active torsions:
REMARK  status: ('A' for Active; 'I' for Inactive)
ROOT
ATOM      1  O1  BZF d   1       0.845  -0.171   0.460  0.00  0.00    -0.204 OA
ATOM      2  C2  BZF d   1       1.433  -0.150   1.710  0.00  0.00     0.174 A 
ATOM      3  C3  BZF d   1       0.870   0.797   2.487  0.00  0.00    -0.012 A 
ATOM      4  C3A BZF d   1      -0.195   1.344   1.703  0.00  0.00    -0.107 A 
ATOM      5  C4  BZF d   1      -1.131   2.311   1.934  0.00  0.00     0.055 A 
ATOM      6  C5  BZF d   1      -1.982   2.659   0.934  0.00  0.00    -0.016 A 
ATOM      7  C6  BZF d   1      -1.923   2.065  -0.310  0.00  0.00     0.022 A 
ATOM      8  C7  BZF d   1      -1.015   1.097  -0.585  0.00  0.00     0.029 A 
ATOM      9  C7A BZF d   1      -0.174   0.720   0.434  0.00  0.00     0.058 A 
ENDROOT
TORSDOF 0
ENDMDL
