MODEL 1
REMARK minimizedAffinity -2.58290648
REMARK minimizedRMSD -1
REMARK  0 active torsions:
REMARK  status: ('A' for Active; 'I' for Inactive)
ROOT
ATOM      1  O1  BZF d   1       0.730  -0.045  -1.910  0.00  0.00    -0.204 OA
ATOM      2  C2  BZF d   1       1.145  -1.086  -1.101  0.00  0.00     0.174 A 
ATOM      3  C3  BZF d   1       0.658  -0.944   0.149  0.00  0.00    -0.012 A 
ATOM      4  C3A BZF d   1      -0.183   0.212   0.096  0.00  0.00    -0.107 A 
ATOM      5  C4  BZF d   1      -0.959   0.852   1.020  0.00  0.00     0.055 A 
ATOM      6  C5  BZF d   1      -1.599   1.997   0.666  0.00  0.00    -0.016 A 
ATOM      7  C6  BZF d   1      -1.482   2.533  -0.600  0.00  0.00     0.022 A 
ATOM      8  C7  BZF d   1      -0.728   1.931  -1.552  0.00  0.00     0.029 A 
ATOM      9  C7A BZF d   1      -0.106   0.756  -1.207  0.00  0.00     0.058 A 
ENDROOT
TORSDOF 0
ENDMDL
