MODEL 1
REMARK minimizedAffinity -1.34196353
REMARK minimizedRMSD -1
REMARK  0 active torsions:
REMARK  status: ('A' for Active; 'I' for Inactive)
ROOT
ATOM      1  O1  BZF d   1       3.491  -0.921  -0.049  0.00  0.00    -0.204 OA
ATOM      2  C2  BZF d   1       4.328  -1.067   1.040  0.00  0.00     0.174 A 
ATOM      3  C3  BZF d   1       3.691  -0.730   2.181  0.00  0.00    -0.012 A 
ATOM      4  C3A BZF d   1       2.347  -0.438   1.789  0.00  0.00    -0.107 A 
ATOM      5  C4  BZF d   1       1.230  -0.058   2.477  0.00  0.00     0.055 A 
ATOM      6  C5  BZF d   1       0.092   0.219   1.788  0.00  0.00    -0.016 A 
ATOM      7  C6  BZF d   1       0.037   0.132   0.412  0.00  0.00     0.022 A 
ATOM      8  C7  BZF d   1       1.117  -0.245  -0.313  0.00  0.00     0.029 A 
ATOM      9  C7A BZF d   1       2.259  -0.558   0.383  0.00  0.00     0.058 A 
ENDROOT
TORSDOF 0
ENDMDL
