MODEL 1
REMARK minimizedAffinity -1.66015697
REMARK minimizedRMSD -1
REMARK  0 active torsions:
REMARK  status: ('A' for Active; 'I' for Inactive)
ROOT
ATOM      1  O1  BZF d   1       0.471   0.451  -1.473  0.00  0.00    -0.204 OA
ATOM      2  C2  BZF d   1       0.159   1.583  -2.201  0.00  0.00     0.174 A 
ATOM      3  C3  BZF d   1      -0.384   2.527  -1.406  0.00  0.00    -0.012 A 
ATOM      4  C3A BZF d   1      -0.329   1.984  -0.084  0.00  0.00    -0.107 A 
ATOM      5  C4  BZF d   1      -0.703   2.457   1.142  0.00  0.00     0.055 A 
ATOM      6  C5  BZF d   1      -0.581   1.648   2.227  0.00  0.00    -0.016 A 
ATOM      7  C6  BZF d   1      -0.093   0.362   2.123  0.00  0.00     0.022 A 
ATOM      8  C7  BZF d   1       0.296  -0.149   0.929  0.00  0.00     0.029 A 
ATOM      9  C7A BZF d   1       0.204   0.677  -0.164  0.00  0.00     0.058 A 
ENDROOT
TORSDOF 0
ENDMDL
