MODEL 1
REMARK minimizedAffinity -2.88123536
REMARK minimizedRMSD -1
REMARK  0 active torsions:
REMARK  status: ('A' for Active; 'I' for Inactive)
ROOT
ATOM      1  O1  BZF d   1       0.243   1.999   2.220  0.00  0.00    -0.204 OA
ATOM      2  C2  BZF d   1      -0.985   2.541   1.891  0.00  0.00     0.174 A 
ATOM      3  C3  BZF d   1      -1.551   1.860   0.874  0.00  0.00    -0.012 A 
ATOM      4  C3A BZF d   1      -0.661   0.771   0.609  0.00  0.00    -0.107 A 
ATOM      5  C4  BZF d   1      -0.684  -0.265  -0.281  0.00  0.00     0.055 A 
ATOM      6  C5  BZF d   1       0.375  -1.114  -0.333  0.00  0.00    -0.016 A 
ATOM      7  C6  BZF d   1       1.475  -0.954   0.484  0.00  0.00     0.022 A 
ATOM      8  C7  BZF d   1       1.541   0.055   1.386  0.00  0.00     0.029 A 
ATOM      9  C7A BZF d   1       0.458   0.896   1.464  0.00  0.00     0.058 A 
ENDROOT
TORSDOF 0
ENDMDL
