MODEL 1
REMARK minimizedAffinity -1.95329332
REMARK minimizedRMSD -1
REMARK  0 active torsions:
REMARK  status: ('A' for Active; 'I' for Inactive)
ROOT
ATOM      1  O1  BZF d   1      -1.295   0.792  -1.208  0.00  0.00    -0.204 OA
ATOM      2  C2  BZF d   1      -0.288  -0.109  -1.498  0.00  0.00     0.174 A 
ATOM      3  C3  BZF d   1       0.689  -0.049  -0.570  0.00  0.00    -0.012 A 
ATOM      4  C3A BZF d   1       0.223   0.885   0.408  0.00  0.00    -0.107 A 
ATOM      5  C4  BZF d   1       0.743   1.356   1.580  0.00  0.00     0.055 A 
ATOM      6  C5  BZF d   1       0.069   2.318   2.262  0.00  0.00    -0.016 A 
ATOM      7  C6  BZF d   1      -1.124   2.836   1.800  0.00  0.00     0.022 A 
ATOM      8  C7  BZF d   1      -1.682   2.397   0.646  0.00  0.00     0.029 A 
ATOM      9  C7A BZF d   1      -1.019   1.401  -0.029  0.00  0.00     0.058 A 
ENDROOT
TORSDOF 0
ENDMDL
