MODEL 1
REMARK minimizedAffinity -2.46117997
REMARK minimizedRMSD -1
REMARK  0 active torsions:
REMARK  status: ('A' for Active; 'I' for Inactive)
ROOT
ATOM      1  O1  BZF d   1      -0.540  -2.787  -0.846  0.00  0.00    -0.204 OA
ATOM      2  C2  BZF d   1       0.022  -3.266  -2.013  0.00  0.00     0.174 A 
ATOM      3  C3  BZF d   1       0.425  -2.249  -2.802  0.00  0.00    -0.012 A 
ATOM      4  C3A BZF d   1       0.177  -1.062  -2.042  0.00  0.00    -0.107 A 
ATOM      5  C4  BZF d   1       0.382   0.266  -2.282  0.00  0.00     0.055 A 
ATOM      6  C5  BZF d   1      -0.037   1.176  -1.364  0.00  0.00    -0.016 A 
ATOM      7  C6  BZF d   1      -0.669   0.793  -0.199  0.00  0.00     0.022 A 
ATOM      8  C7  BZF d   1      -0.890  -0.513   0.086  0.00  0.00     0.029 A 
ATOM      9  C7A BZF d   1      -0.437  -1.437  -0.825  0.00  0.00     0.058 A 
ENDROOT
TORSDOF 0
ENDMDL
