MODEL 1
REMARK minimizedAffinity 4.60468388
REMARK minimizedRMSD -1
REMARK  0 active torsions:
REMARK  status: ('A' for Active; 'I' for Inactive)
ROOT
ATOM      1  O1  BZF d   1       3.364  -0.675  -1.280  0.00  0.00    -0.204 OA
ATOM      2  C2  BZF d   1       4.091  -1.011  -0.154  0.00  0.00     0.174 A 
ATOM      3  C3  BZF d   1       3.384  -0.754   0.966  0.00  0.00    -0.012 A 
ATOM      4  C3A BZF d   1       2.103  -0.310   0.509  0.00  0.00    -0.107 A 
ATOM      5  C4  BZF d   1       0.961   0.079   1.149  0.00  0.00     0.055 A 
ATOM      6  C5  BZF d   1      -0.090   0.524   0.412  0.00  0.00    -0.016 A 
ATOM      7  C6  BZF d   1      -0.033   0.597  -0.964  0.00  0.00     0.022 A 
ATOM      8  C7  BZF d   1       1.077   0.218  -1.644  0.00  0.00     0.029 A 
ATOM      9  C7A BZF d   1       2.129  -0.263  -0.904  0.00  0.00     0.058 A 
ENDROOT
TORSDOF 0
ENDMDL
