MODEL 1
REMARK minimizedAffinity -0.266450375
REMARK minimizedRMSD -1
REMARK  0 active torsions:
REMARK  status: ('A' for Active; 'I' for Inactive)
ROOT
ATOM      1  O1  BZF d   1       1.001  -0.683   0.153  0.00  0.00    -0.204 OA
ATOM      2  C2  BZF d   1       0.106  -1.577  -0.402  0.00  0.00     0.174 A 
ATOM      3  C3  BZF d   1      -1.158  -1.118  -0.292  0.00  0.00    -0.012 A 
ATOM      4  C3A BZF d   1      -1.037   0.183   0.290  0.00  0.00    -0.107 A 
ATOM      5  C4  BZF d   1      -1.942   1.146   0.632  0.00  0.00     0.055 A 
ATOM      6  C5  BZF d   1      -1.504   2.276   1.248  0.00  0.00    -0.016 A 
ATOM      7  C6  BZF d   1      -0.171   2.472   1.542  0.00  0.00     0.022 A 
ATOM      8  C7  BZF d   1       0.765   1.547   1.218  0.00  0.00     0.029 A 
ATOM      9  C7A BZF d   1       0.330   0.419   0.565  0.00  0.00     0.058 A 
ENDROOT
TORSDOF 0
ENDMDL
