MODEL 1
REMARK minimizedAffinity 10.9143209
REMARK minimizedRMSD -1
REMARK  2 active torsions:
REMARK  status: ('A' for Active; 'I' for Inactive)
REMARK    1  A    between atoms: C2'_3  and  C1'_4 
REMARK    2  A    between atoms: C1'_4  and  C1_5 
ROOT
ATOM      1  C1  I4B d   1       0.551  -1.918  -4.301  0.00  0.00    -0.075 A 
ATOM      2  C2  I4B d   1       0.023  -3.134  -4.656  0.00  0.00     0.003 A 
ATOM      3  C3  I4B d   1      -1.369  -3.368  -4.541  0.00  0.00     0.002 A 
ATOM      4  C4  I4B d   1      -2.183  -2.381  -4.022  0.00  0.00    -0.004 A 
ATOM      5  C5  I4B d   1      -1.648  -1.141  -3.684  0.00  0.00     0.002 A 
ATOM      6  C6  I4B d   1      -0.275  -0.904  -3.836  0.00  0.00     0.003 A 
ENDROOT
BRANCH   1   7
ATOM      7  C1' I4B d   1       2.030  -1.717  -4.405  0.00  0.00     0.060 C 
BRANCH   7   8
ATOM      8  C2' I4B d   1       2.371  -0.404  -3.730  0.00  0.00    -0.013 C 
ATOM      9  C4' I4B d   1       3.248  -0.622  -2.526  0.00  0.00     0.013 C 
ATOM     10  C3' I4B d   1       3.047   0.474  -4.741  0.00  0.00     0.013 C 
ENDBRANCH   7   8
ENDBRANCH   1   7
TORSDOF 2
ENDMDL
