MODEL 1
REMARK minimizedAffinity 9.69109249
REMARK minimizedRMSD -1
REMARK  2 active torsions:
REMARK  status: ('A' for Active; 'I' for Inactive)
REMARK    1  A    between atoms: C2'_3  and  C1'_4 
REMARK    2  A    between atoms: C1'_4  and  C1_5 
ROOT
ATOM      1  C1  I4B d   1      -5.916   0.976   5.124  0.00  0.00    -0.075 A 
ATOM      2  C2  I4B d   1      -5.872   2.217   5.708  0.00  0.00     0.003 A 
ATOM      3  C3  I4B d   1      -5.900   3.384   4.906  0.00  0.00     0.002 A 
ATOM      4  C4  I4B d   1      -5.921   3.263   3.532  0.00  0.00    -0.004 A 
ATOM      5  C5  I4B d   1      -5.989   2.005   2.942  0.00  0.00     0.002 A 
ATOM      6  C6  I4B d   1      -5.999   0.853   3.743  0.00  0.00     0.003 A 
ENDROOT
BRANCH   1   7
ATOM      7  C1' I4B d   1      -5.852  -0.235   5.999  0.00  0.00     0.060 C 
BRANCH   7   8
ATOM      8  C2' I4B d   1      -5.055  -1.297   5.269  0.00  0.00    -0.013 C 
ATOM      9  C4' I4B d   1      -5.962  -2.277   4.572  0.00  0.00     0.013 C 
ATOM     10  C3' I4B d   1      -4.151  -0.607   4.291  0.00  0.00     0.013 C 
ENDBRANCH   7   8
ENDBRANCH   1   7
TORSDOF 2
ENDMDL
