MODEL 1
REMARK minimizedAffinity 9.47935295
REMARK minimizedRMSD -1
REMARK  2 active torsions:
REMARK  status: ('A' for Active; 'I' for Inactive)
REMARK    1  A    between atoms: C2'_3  and  C1'_4 
REMARK    2  A    between atoms: C1'_4  and  C1_5 
ROOT
ATOM      1  C1  I4B d   1      -0.583  -5.706   2.491  0.00  0.00    -0.075 A 
ATOM      2  C2  I4B d   1      -0.469  -5.718   3.859  0.00  0.00     0.003 A 
ATOM      3  C3  I4B d   1       0.804  -5.834   4.467  0.00  0.00     0.002 A 
ATOM      4  C4  I4B d   1       1.924  -5.986   3.675  0.00  0.00    -0.004 A 
ATOM      5  C5  I4B d   1       1.809  -5.952   2.288  0.00  0.00     0.002 A 
ATOM      6  C6  I4B d   1       0.549  -5.798   1.692  0.00  0.00     0.003 A 
ENDROOT
BRANCH   1   7
ATOM      7  C1' I4B d   1      -1.947  -5.615   1.882  0.00  0.00     0.060 C 
BRANCH   7   8
ATOM      8  C2' I4B d   1      -1.951  -4.445   0.919  0.00  0.00    -0.013 C 
ATOM      9  C4' I4B d   1      -3.330  -3.855   0.785  0.00  0.00     0.013 C 
ATOM     10  C3' I4B d   1      -0.973  -3.426   1.425  0.00  0.00     0.013 C 
ENDBRANCH   7   8
ENDBRANCH   1   7
TORSDOF 2
ENDMDL
