MODEL 1
REMARK minimizedAffinity 3.57279325
REMARK minimizedRMSD -1
REMARK  2 active torsions:
REMARK  status: ('A' for Active; 'I' for Inactive)
REMARK    1  A    between atoms: C2'_3  and  C1'_4 
REMARK    2  A    between atoms: C1'_4  and  C1_5 
ROOT
ATOM      1  C1  I4B d   1      -1.109  -4.860   2.361  0.00  0.00    -0.075 A 
ATOM      2  C2  I4B d   1      -0.746  -3.580   2.700  0.00  0.00     0.003 A 
ATOM      3  C3  I4B d   1      -1.500  -2.478   2.229  0.00  0.00     0.002 A 
ATOM      4  C4  I4B d   1      -2.571  -2.696   1.387  0.00  0.00    -0.004 A 
ATOM      5  C5  I4B d   1      -2.951  -3.996   1.064  0.00  0.00     0.002 A 
ATOM      6  C6  I4B d   1      -2.223  -5.085   1.563  0.00  0.00     0.003 A 
ENDROOT
BRANCH   1   7
ATOM      7  C1' I4B d   1      -0.272  -6.000   2.849  0.00  0.00     0.060 C 
BRANCH   7   8
ATOM      8  C2' I4B d   1       0.864  -5.426   3.672  0.00  0.00    -0.013 C 
ATOM      9  C4' I4B d   1       0.837  -5.955   5.082  0.00  0.00     0.013 C 
ATOM     10  C3' I4B d   1       2.152  -5.772   2.988  0.00  0.00     0.013 C 
ENDBRANCH   7   8
ENDBRANCH   1   7
TORSDOF 2
ENDMDL
