MODEL 1
REMARK minimizedAffinity 15.2744761
REMARK minimizedRMSD -1
REMARK  2 active torsions:
REMARK  status: ('A' for Active; 'I' for Inactive)
REMARK    1  A    between atoms: C2'_3  and  C1'_4 
REMARK    2  A    between atoms: C1'_4  and  C1_5 
ROOT
ATOM      1  C1  I4B d   1      -1.582  -0.564  -2.230  0.00  0.00    -0.075 A 
ATOM      2  C2  I4B d   1      -0.603  -1.064  -3.051  0.00  0.00     0.003 A 
ATOM      3  C3  I4B d   1      -0.869  -2.183  -3.878  0.00  0.00     0.002 A 
ATOM      4  C4  I4B d   1      -2.103  -2.796  -3.815  0.00  0.00    -0.004 A 
ATOM      5  C5  I4B d   1      -3.102  -2.273  -2.999  0.00  0.00     0.002 A 
ATOM      6  C6  I4B d   1      -2.844  -1.143  -2.210  0.00  0.00     0.003 A 
ENDROOT
BRANCH   1   7
ATOM      7  C1' I4B d   1      -1.257   0.598  -1.346  0.00  0.00     0.060 C 
BRANCH   7   8
ATOM      8  C2' I4B d   1      -0.125   0.183  -0.428  0.00  0.00    -0.013 C 
ATOM      9  C4' I4B d   1       0.654   1.380   0.052  0.00  0.00     0.013 C 
ATOM     10  C3' I4B d   1      -0.716  -0.575   0.723  0.00  0.00     0.013 C 
ENDBRANCH   7   8
ENDBRANCH   1   7
TORSDOF 2
ENDMDL
