MODEL 1
REMARK minimizedAffinity 4.18286705
REMARK minimizedRMSD -1
REMARK  2 active torsions:
REMARK  status: ('A' for Active; 'I' for Inactive)
REMARK    1  A    between atoms: C2'_3  and  C1'_4 
REMARK    2  A    between atoms: C1'_4  and  C1_5 
ROOT
ATOM      1  C1  I4B d   1      -3.141  -5.960   2.010  0.00  0.00    -0.075 A 
ATOM      2  C2  I4B d   1      -2.744  -5.981   0.696  0.00  0.00     0.003 A 
ATOM      3  C3  I4B d   1      -3.709  -5.975  -0.340  0.00  0.00     0.002 A 
ATOM      4  C4  I4B d   1      -5.051  -5.999  -0.019  0.00  0.00    -0.004 A 
ATOM      5  C5  I4B d   1      -5.451  -5.955   1.313  0.00  0.00     0.002 A 
ATOM      6  C6  I4B d   1      -4.490  -5.923   2.334  0.00  0.00     0.003 A 
ENDROOT
BRANCH   1   7
ATOM      7  C1' I4B d   1      -2.095  -6.000   3.079  0.00  0.00     0.060 C 
BRANCH   7   8
ATOM      8  C2' I4B d   1      -0.870  -5.274   2.561  0.00  0.00    -0.013 C 
ATOM      9  C4' I4B d   1      -0.874  -3.828   2.981  0.00  0.00     0.013 C 
ATOM     10  C3' I4B d   1       0.344  -5.986   3.080  0.00  0.00     0.013 C 
ENDBRANCH   7   8
ENDBRANCH   1   7
TORSDOF 2
ENDMDL
