MODEL 1
REMARK minimizedAffinity 8.13139439
REMARK minimizedRMSD -1
REMARK  2 active torsions:
REMARK  status: ('A' for Active; 'I' for Inactive)
REMARK    1  A    between atoms: C2'_3  and  C1'_4 
REMARK    2  A    between atoms: C1'_4  and  C1_5 
ROOT
ATOM      1  C1  I4B d   1      -1.148  -2.362   2.092  0.00  0.00    -0.075 A 
ATOM      2  C2  I4B d   1      -0.550  -1.768   1.008  0.00  0.00     0.003 A 
ATOM      3  C3  I4B d   1      -0.166  -0.406   1.064  0.00  0.00     0.002 A 
ATOM      4  C4  I4B d   1      -0.443   0.332   2.197  0.00  0.00    -0.004 A 
ATOM      5  C5  I4B d   1      -1.028  -0.278   3.302  0.00  0.00     0.002 A 
ATOM      6  C6  I4B d   1      -1.372  -1.637   3.255  0.00  0.00     0.003 A 
ENDROOT
BRANCH   1   7
ATOM      7  C1' I4B d   1      -1.570  -3.793   1.987  0.00  0.00     0.060 C 
BRANCH   7   8
ATOM      8  C2' I4B d   1      -0.333  -4.657   2.132  0.00  0.00    -0.013 C 
ATOM      9  C4' I4B d   1      -0.149  -5.110   3.556  0.00  0.00     0.013 C 
ATOM     10  C3' I4B d   1      -0.475  -5.827   1.205  0.00  0.00     0.013 C 
ENDBRANCH   7   8
ENDBRANCH   1   7
TORSDOF 2
ENDMDL
