MODEL 1
REMARK minimizedAffinity 5.89577866
REMARK minimizedRMSD -1
REMARK  2 active torsions:
REMARK  status: ('A' for Active; 'I' for Inactive)
REMARK    1  A    between atoms: C2'_3  and  C1'_4 
REMARK    2  A    between atoms: C1'_4  and  C1_5 
ROOT
ATOM      1  C1  I4B d   1       0.024  -5.719   3.129  0.00  0.00    -0.075 A 
ATOM      2  C2  I4B d   1       1.078  -5.988   2.291  0.00  0.00     0.003 A 
ATOM      3  C3  I4B d   1       2.404  -5.710   2.702  0.00  0.00     0.002 A 
ATOM      4  C4  I4B d   1       2.626  -5.120   3.930  0.00  0.00    -0.004 A 
ATOM      5  C5  I4B d   1       1.559  -4.870   4.787  0.00  0.00     0.002 A 
ATOM      6  C6  I4B d   1       0.250  -5.182   4.390  0.00  0.00     0.003 A 
ENDROOT
BRANCH   1   7
ATOM      7  C1' I4B d   1      -1.366  -5.995   2.651  0.00  0.00     0.060 C 
BRANCH   7   8
ATOM      8  C2' I4B d   1      -1.492  -5.449   1.243  0.00  0.00    -0.013 C 
ATOM      9  C4' I4B d   1      -2.713  -5.997   0.553  0.00  0.00     0.013 C 
ATOM     10  C3' I4B d   1      -1.545  -3.953   1.330  0.00  0.00     0.013 C 
ENDBRANCH   7   8
ENDBRANCH   1   7
TORSDOF 2
ENDMDL
