MODEL 1
REMARK minimizedAffinity 5.43201017
REMARK minimizedRMSD -1
REMARK  2 active torsions:
REMARK  status: ('A' for Active; 'I' for Inactive)
REMARK    1  A    between atoms: C2'_3  and  C1'_4 
REMARK    2  A    between atoms: C1'_4  and  C1_5 
ROOT
ATOM      1  C1  I4B d   1       1.176  -5.935   2.639  0.00  0.00    -0.075 A 
ATOM      2  C2  I4B d   1       0.261  -5.847   1.620  0.00  0.00     0.003 A 
ATOM      3  C3  I4B d   1      -1.125  -5.819   1.907  0.00  0.00     0.002 A 
ATOM      4  C4  I4B d   1      -1.551  -5.932   3.215  0.00  0.00    -0.004 A 
ATOM      5  C5  I4B d   1      -0.621  -5.999   4.249  0.00  0.00     0.002 A 
ATOM      6  C6  I4B d   1       0.751  -5.988   3.961  0.00  0.00     0.003 A 
ENDROOT
BRANCH   1   7
ATOM      7  C1' I4B d   1       2.631  -5.995   2.298  0.00  0.00     0.060 C 
BRANCH   7   8
ATOM      8  C2' I4B d   1       3.412  -5.491   3.495  0.00  0.00    -0.013 C 
ATOM      9  C4' I4B d   1       2.814  -5.987   4.785  0.00  0.00     0.013 C 
ATOM     10  C3' I4B d   1       4.833  -5.946   3.345  0.00  0.00     0.013 C 
ENDBRANCH   7   8
ENDBRANCH   1   7
TORSDOF 2
ENDMDL
