MODEL 1
REMARK minimizedAffinity 8.73529911
REMARK minimizedRMSD -1
REMARK  2 active torsions:
REMARK  status: ('A' for Active; 'I' for Inactive)
REMARK    1  A    between atoms: C2'_3  and  C1'_4 
REMARK    2  A    between atoms: C1'_4  and  C1_5 
ROOT
ATOM      1  C1  I4B d   1      -0.140  -1.282  -3.689  0.00  0.00    -0.075 A 
ATOM      2  C2  I4B d   1      -1.221  -1.011  -2.887  0.00  0.00     0.003 A 
ATOM      3  C3  I4B d   1      -2.352  -1.863  -2.904  0.00  0.00     0.002 A 
ATOM      4  C4  I4B d   1      -2.380  -2.938  -3.769  0.00  0.00    -0.004 A 
ATOM      5  C5  I4B d   1      -1.274  -3.224  -4.564  0.00  0.00     0.002 A 
ATOM      6  C6  I4B d   1      -0.142  -2.398  -4.515  0.00  0.00     0.003 A 
ENDROOT
BRANCH   1   7
ATOM      7  C1' I4B d   1       1.025  -0.343  -3.669  0.00  0.00     0.060 C 
BRANCH   7   8
ATOM      8  C2' I4B d   1       2.205  -1.076  -3.064  0.00  0.00    -0.013 C 
ATOM      9  C4' I4B d   1       3.501  -0.377  -3.380  0.00  0.00     0.013 C 
ATOM     10  C3' I4B d   1       1.984  -1.164  -1.583  0.00  0.00     0.013 C 
ENDBRANCH   7   8
ENDBRANCH   1   7
TORSDOF 2
ENDMDL
