MODEL 1
REMARK minimizedAffinity -2.47155285
REMARK minimizedRMSD -1
REMARK  1 active torsions:
REMARK  status: ('A' for Active; 'I' for Inactive)
REMARK    1  A    between atoms: N_2  and  C1_3 
ROOT
ATOM      1  C1  UNL d   1      -0.502  -0.468   0.469  0.00  0.00     0.143 A 
ATOM      2  C2  UNL d   1      -0.179  -1.829   0.473  0.00  0.00    -0.057 A 
ATOM      3  C3  UNL d   1       0.285  -2.468  -0.683  0.00  0.00     0.033 A 
ATOM      4  C4  UNL d   1       0.406  -1.761  -1.875  0.00  0.00    -0.042 A 
ATOM      5  C5  UNL d   1       0.066  -0.413  -1.908  0.00  0.00     0.033 A 
ATOM      6  C6  UNL d   1      -0.390   0.221  -0.749  0.00  0.00    -0.057 A 
ENDROOT
BRANCH   1   7
ATOM      7  N   UNL d   1      -1.062   0.202   1.560  0.00  0.00    -0.732 N 
ATOM      8  C   UNL d   1      -2.497   0.352   1.677  0.00  0.00     0.284 C 
ATOM      9  H3  UNL d   1      -0.595  -0.025   2.436  0.00  0.00     0.395 HD
ENDBRANCH   1   7
TORSDOF 1
ENDMDL
