MODEL 1
REMARK minimizedAffinity -4.45123816
REMARK minimizedRMSD -1
REMARK  1 active torsions:
REMARK  status: ('A' for Active; 'I' for Inactive)
REMARK    1  A    between atoms: N_2  and  C1_3 
ROOT
ATOM      1  C1  UNL d   1       0.668   0.091  -0.731  0.00  0.00     0.143 A 
ATOM      2  C2  UNL d   1       1.122   0.878  -1.795  0.00  0.00    -0.057 A 
ATOM      3  C3  UNL d   1       1.758   0.303  -2.902  0.00  0.00     0.033 A 
ATOM      4  C4  UNL d   1       1.977  -1.069  -2.952  0.00  0.00    -0.042 A 
ATOM      5  C5  UNL d   1       1.557  -1.868  -1.894  0.00  0.00     0.033 A 
ATOM      6  C6  UNL d   1       0.916  -1.289  -0.794  0.00  0.00    -0.057 A 
ENDROOT
BRANCH   1   7
ATOM      7  N   UNL d   1       0.118   0.613   0.443  0.00  0.00    -0.732 N 
ATOM      8  C   UNL d   1      -0.746  -0.197   1.275  0.00  0.00     0.284 C 
ATOM      9  H3  UNL d   1       0.780   1.184   0.962  0.00  0.00     0.395 HD
ENDBRANCH   1   7
TORSDOF 1
ENDMDL
