MODEL 1
REMARK minimizedAffinity -4.88677406
REMARK minimizedRMSD -1
REMARK  1 active torsions:
REMARK  status: ('A' for Active; 'I' for Inactive)
REMARK    1  A    between atoms: N_2  and  C1_3 
ROOT
ATOM      1  C1  UNL d   1       0.356  -0.635  -0.662  0.00  0.00     0.143 A 
ATOM      2  C2  UNL d   1       1.014   0.260  -1.512  0.00  0.00    -0.057 A 
ATOM      3  C3  UNL d   1       1.949  -0.188  -2.454  0.00  0.00     0.033 A 
ATOM      4  C4  UNL d   1       2.263  -1.540  -2.543  0.00  0.00    -0.042 A 
ATOM      5  C5  UNL d   1       1.639  -2.444  -1.691  0.00  0.00     0.033 A 
ATOM      6  C6  UNL d   1       0.702  -1.992  -0.757  0.00  0.00    -0.057 A 
ENDROOT
BRANCH   1   7
ATOM      7  N   UNL d   1      -0.510  -0.242   0.361  0.00  0.00    -0.732 N 
ATOM      8  C   UNL d   1      -0.283  -0.671   1.724  0.00  0.00     0.284 C 
ATOM      9  H3  UNL d   1      -0.798   0.730   0.274  0.00  0.00     0.395 HD
ENDBRANCH   1   7
TORSDOF 1
ENDMDL
