MODEL 1
REMARK minimizedAffinity -5.57715178
REMARK minimizedRMSD -1
REMARK  1 active torsions:
REMARK  status: ('A' for Active; 'I' for Inactive)
REMARK    1  A    between atoms: N_2  and  C1_3 
ROOT
ATOM      1  C1  UNL d   1       0.319  -0.111  -0.758  0.00  0.00     0.143 A 
ATOM      2  C2  UNL d   1       1.173   0.467  -1.703  0.00  0.00    -0.057 A 
ATOM      3  C3  UNL d   1       1.953  -0.324  -2.556  0.00  0.00     0.033 A 
ATOM      4  C4  UNL d   1       1.915  -1.711  -2.458  0.00  0.00    -0.042 A 
ATOM      5  C5  UNL d   1       1.092  -2.306  -1.508  0.00  0.00     0.033 A 
ATOM      6  C6  UNL d   1       0.310  -1.512  -0.664  0.00  0.00    -0.057 A 
ENDROOT
BRANCH   1   7
ATOM      7  N   UNL d   1      -0.408   0.621   0.184  0.00  0.00    -0.732 N 
ATOM      8  C   UNL d   1      -1.053  -0.044   1.296  0.00  0.00     0.284 C 
ATOM      9  H3  UNL d   1       0.047   1.497   0.431  0.00  0.00     0.395 HD
ENDBRANCH   1   7
TORSDOF 1
ENDMDL
