MODEL 1
REMARK minimizedAffinity -4.07500315
REMARK minimizedRMSD -1
REMARK  1 active torsions:
REMARK  status: ('A' for Active; 'I' for Inactive)
REMARK    1  A    between atoms: N_2  and  C1_3 
ROOT
ATOM      1  C1  UNL d   1      -0.205  -0.122   0.275  0.00  0.00     0.143 A 
ATOM      2  C2  UNL d   1       0.690   0.811  -0.260  0.00  0.00    -0.057 A 
ATOM      3  C3  UNL d   1       1.325   0.588  -1.487  0.00  0.00     0.033 A 
ATOM      4  C4  UNL d   1       1.098  -0.591  -2.190  0.00  0.00    -0.042 A 
ATOM      5  C5  UNL d   1       0.232  -1.544  -1.666  0.00  0.00     0.033 A 
ATOM      6  C6  UNL d   1      -0.405  -1.312  -0.443  0.00  0.00    -0.057 A 
ENDROOT
BRANCH   1   7
ATOM      7  N   UNL d   1      -0.792  -0.002   1.537  0.00  0.00    -0.732 N 
ATOM      8  C   UNL d   1      -2.102  -0.559   1.796  0.00  0.00     0.284 C 
ATOM      9  H3  UNL d   1      -0.124  -0.143   2.291  0.00  0.00     0.395 HD
ENDBRANCH   1   7
TORSDOF 1
ENDMDL
