MODEL 1
REMARK minimizedAffinity -3.99019694
REMARK minimizedRMSD -1
REMARK  1 active torsions:
REMARK  status: ('A' for Active; 'I' for Inactive)
REMARK    1  A    between atoms: N_2  and  C1_3 
ROOT
ATOM      1  C1  UNL d   1       1.091   0.243  -1.512  0.00  0.00     0.143 A 
ATOM      2  C2  UNL d   1       1.959  -0.066  -2.565  0.00  0.00    -0.057 A 
ATOM      3  C3  UNL d   1       2.138  -1.386  -2.995  0.00  0.00     0.033 A 
ATOM      4  C4  UNL d   1       1.473  -2.428  -2.358  0.00  0.00    -0.042 A 
ATOM      5  C5  UNL d   1       0.624  -2.148  -1.292  0.00  0.00     0.033 A 
ATOM      6  C6  UNL d   1       0.444  -0.826  -0.872  0.00  0.00    -0.057 A 
ENDROOT
BRANCH   1   7
ATOM      7  N   UNL d   1       0.944   1.524  -0.974  0.00  0.00    -0.732 N 
ATOM      8  C   UNL d   1       0.681   1.705   0.437  0.00  0.00     0.284 C 
ATOM      9  H3  UNL d   1       1.613   2.186  -1.361  0.00  0.00     0.395 HD
ENDBRANCH   1   7
TORSDOF 1
ENDMDL
