MODEL 1
REMARK minimizedAffinity -3.04208708
REMARK minimizedRMSD -1
REMARK  1 active torsions:
REMARK  status: ('A' for Active; 'I' for Inactive)
REMARK    1  A    between atoms: N_2  and  C1_3 
ROOT
ATOM      1  C1  UNL d   1       0.886   0.567  -0.910  0.00  0.00     0.143 A 
ATOM      2  C2  UNL d   1       0.486  -0.760  -0.724  0.00  0.00    -0.057 A 
ATOM      3  C3  UNL d   1      -0.163  -1.165   0.449  0.00  0.00     0.033 A 
ATOM      4  C4  UNL d   1      -0.398  -0.252   1.472  0.00  0.00    -0.042 A 
ATOM      5  C5  UNL d   1       0.014   1.067   1.319  0.00  0.00     0.033 A 
ATOM      6  C6  UNL d   1       0.656   1.467   0.143  0.00  0.00    -0.057 A 
ENDROOT
BRANCH   1   7
ATOM      7  N   UNL d   1       1.623   1.010  -2.011  0.00  0.00    -0.732 N 
ATOM      8  C   UNL d   1       2.406   0.080  -2.797  0.00  0.00     0.284 C 
ATOM      9  H3  UNL d   1       1.119   1.699  -2.564  0.00  0.00     0.395 HD
ENDBRANCH   1   7
TORSDOF 1
ENDMDL
