MODEL 1
REMARK minimizedAffinity -3.5717001
REMARK minimizedRMSD -1
REMARK  1 active torsions:
REMARK  status: ('A' for Active; 'I' for Inactive)
REMARK    1  A    between atoms: N_2  and  C1_3 
ROOT
ATOM      1  C1  UNL d   1       0.446  -0.267  -0.560  0.00  0.00     0.143 A 
ATOM      2  C2  UNL d   1       0.626  -1.644  -0.731  0.00  0.00    -0.057 A 
ATOM      3  C3  UNL d   1       0.368  -2.545   0.310  0.00  0.00     0.033 A 
ATOM      4  C4  UNL d   1      -0.049  -2.080   1.553  0.00  0.00    -0.042 A 
ATOM      5  C5  UNL d   1      -0.210  -0.714   1.753  0.00  0.00     0.033 A 
ATOM      6  C6  UNL d   1       0.043   0.180   0.709  0.00  0.00    -0.057 A 
ENDROOT
BRANCH   1   7
ATOM      7  N   UNL d   1       0.779   0.687  -1.524  0.00  0.00    -0.732 N 
ATOM      8  C   UNL d   1       1.173   0.282  -2.856  0.00  0.00     0.284 C 
ATOM      9  H3  UNL d   1       0.162   1.495  -1.501  0.00  0.00     0.395 HD
ENDBRANCH   1   7
TORSDOF 1
ENDMDL
