MODEL 1
REMARK minimizedAffinity -3.44283867
REMARK minimizedRMSD -1
REMARK  1 active torsions:
REMARK  status: ('A' for Active; 'I' for Inactive)
REMARK    1  A    between atoms: N_2  and  C1_3 
ROOT
ATOM      1  C1  UNL d   1      -5.348   3.139  -5.164  0.00  0.00     0.143 A 
ATOM      2  C2  UNL d   1      -6.000   1.902  -5.184  0.00  0.00    -0.057 A 
ATOM      3  C3  UNL d   1      -5.323   0.730  -5.543  0.00  0.00     0.033 A 
ATOM      4  C4  UNL d   1      -3.985   0.780  -5.919  0.00  0.00    -0.042 A 
ATOM      5  C5  UNL d   1      -3.323   2.003  -5.931  0.00  0.00     0.033 A 
ATOM      6  C6  UNL d   1      -4.003   3.169  -5.564  0.00  0.00    -0.057 A 
ENDROOT
BRANCH   1   7
ATOM      7  N   UNL d   1      -5.991   4.354  -4.911  0.00  0.00    -0.732 N 
ATOM      8  C   UNL d   1      -5.999   5.405  -5.905  0.00  0.00     0.284 C 
ATOM      9  H3  UNL d   1      -6.879   4.230  -4.430  0.00  0.00     0.395 HD
ENDBRANCH   1   7
TORSDOF 1
ENDMDL
