MODEL 1
REMARK minimizedAffinity -5.32643032
REMARK minimizedRMSD -1
REMARK  1 active torsions:
REMARK  status: ('A' for Active; 'I' for Inactive)
REMARK    1  A    between atoms: N_2  and  C1_3 
ROOT
ATOM      1  C1  UNL d   1      -0.167   0.359  -0.464  0.00  0.00     0.143 A 
ATOM      2  C2  UNL d   1       0.460   1.518  -0.934  0.00  0.00    -0.057 A 
ATOM      3  C3  UNL d   1       1.365   1.471  -2.002  0.00  0.00     0.033 A 
ATOM      4  C4  UNL d   1       1.681   0.256  -2.601  0.00  0.00    -0.042 A 
ATOM      5  C5  UNL d   1       1.089  -0.911  -2.134  0.00  0.00     0.033 A 
ATOM      6  C6  UNL d   1       0.182  -0.858  -1.071  0.00  0.00    -0.057 A 
ENDROOT
BRANCH   1   7
ATOM      7  N   UNL d   1      -0.999   0.326   0.657  0.00  0.00    -0.732 N 
ATOM      8  C   UNL d   1      -2.436   0.234   0.506  0.00  0.00     0.284 C 
ATOM      9  H3  UNL d   1      -0.622  -0.252   1.404  0.00  0.00     0.395 HD
ENDBRANCH   1   7
TORSDOF 1
ENDMDL
