MODEL 1
REMARK minimizedAffinity -1.73257744
REMARK minimizedRMSD -1
REMARK  1 active torsions:
REMARK  status: ('A' for Active; 'I' for Inactive)
REMARK    1  A    between atoms: N_2  and  C1_3 
ROOT
ATOM      1  C1  UNL d   1       1.193   0.624  -0.592  0.00  0.00     0.143 A 
ATOM      2  C2  UNL d   1       0.392  -0.522  -0.541  0.00  0.00    -0.057 A 
ATOM      3  C3  UNL d   1      -0.595  -0.674   0.440  0.00  0.00     0.033 A 
ATOM      4  C4  UNL d   1      -0.778   0.307   1.409  0.00  0.00    -0.042 A 
ATOM      5  C5  UNL d   1       0.024   1.442   1.393  0.00  0.00     0.033 A 
ATOM      6  C6  UNL d   1       1.003   1.592   0.407  0.00  0.00    -0.057 A 
ENDROOT
BRANCH   1   7
ATOM      7  N   UNL d   1       2.257   0.790  -1.483  0.00  0.00    -0.732 N 
ATOM      8  C   UNL d   1       2.588  -0.247  -2.436  0.00  0.00     0.284 C 
ATOM      9  H3  UNL d   1       2.302   1.733  -1.862  0.00  0.00     0.395 HD
ENDBRANCH   1   7
TORSDOF 1
ENDMDL
