MODEL 1
REMARK minimizedAffinity -2.50980926
REMARK minimizedRMSD -1
REMARK  1 active torsions:
REMARK  status: ('A' for Active; 'I' for Inactive)
REMARK    1  A    between atoms: N_2  and  C1_3 
ROOT
ATOM      1  C1  UNL d   1      -1.487   0.686   1.132  0.00  0.00     0.143 A 
ATOM      2  C2  UNL d   1      -1.552   1.273  -0.137  0.00  0.00    -0.057 A 
ATOM      3  C3  UNL d   1      -0.409   1.407  -0.934  0.00  0.00     0.033 A 
ATOM      4  C4  UNL d   1       0.829   0.982  -0.463  0.00  0.00    -0.042 A 
ATOM      5  C5  UNL d   1       0.921   0.418   0.804  0.00  0.00     0.033 A 
ATOM      6  C6  UNL d   1      -0.225   0.281   1.593  0.00  0.00    -0.057 A 
ENDROOT
BRANCH   1   7
ATOM      7  N   UNL d   1      -2.570   0.614   2.012  0.00  0.00    -0.732 N 
ATOM      8  C   UNL d   1      -3.806  -0.020   1.608  0.00  0.00     0.284 C 
ATOM      9  H3  UNL d   1      -2.283   0.397   2.963  0.00  0.00     0.395 HD
ENDBRANCH   1   7
TORSDOF 1
ENDMDL
