MODEL 1
REMARK minimizedAffinity -4.30057859
REMARK minimizedRMSD -1
REMARK  1 active torsions:
REMARK  status: ('A' for Active; 'I' for Inactive)
REMARK    1  A    between atoms: N_2  and  C1_3 
ROOT
ATOM      1  C1  UNL d   1       0.861   0.223  -0.649  0.00  0.00     0.143 A 
ATOM      2  C2  UNL d   1       1.819   0.549  -1.615  0.00  0.00    -0.057 A 
ATOM      3  C3  UNL d   1       2.019  -0.259  -2.740  0.00  0.00     0.033 A 
ATOM      4  C4  UNL d   1       1.282  -1.427  -2.905  0.00  0.00    -0.042 A 
ATOM      5  C5  UNL d   1       0.342  -1.784  -1.945  0.00  0.00     0.033 A 
ATOM      6  C6  UNL d   1       0.142  -0.970  -0.827  0.00  0.00    -0.057 A 
ENDROOT
BRANCH   1   7
ATOM      7  N   UNL d   1       0.683   0.933   0.541  0.00  0.00    -0.732 N 
ATOM      8  C   UNL d   1      -0.155   0.405   1.597  0.00  0.00     0.284 C 
ATOM      9  H3  UNL d   1       1.545   1.362   0.870  0.00  0.00     0.395 HD
ENDBRANCH   1   7
TORSDOF 1
ENDMDL
