MODEL 1
REMARK minimizedAffinity 12.0919819
REMARK minimizedRMSD -1
REMARK  0 active torsions:
REMARK  status: ('A' for Active; 'I' for Inactive)
ROOT
ATOM      1  C1  DEN d   1      -0.596  -2.833  -1.735  0.00  0.00     0.130 A 
ATOM      2  C2  DEN d   1      -0.953  -1.710  -2.598  0.00  0.00    -0.031 A 
ATOM      3  C3  DEN d   1      -1.278  -0.556  -1.736  0.00  0.00     0.027 A 
ATOM      4  C4  DEN d   1      -1.259  -0.399   0.839  0.00  0.00     0.027 A 
ATOM      5  C5  DEN d   1      -1.034  -1.097   2.005  0.00  0.00    -0.003 A 
ATOM      6  C6  DEN d   1      -0.684  -2.421   2.007  0.00  0.00     0.001 A 
ATOM      7  C7  DEN d   1      -0.503  -3.077   0.818  0.00  0.00     0.017 A 
ATOM      8  C8  DEN d   1      -0.735  -2.382  -0.362  0.00  0.00    -0.094 A 
ATOM      9  C9  DEN d   1      -1.078  -1.040  -0.343  0.00  0.00    -0.072 A 
ENDROOT
TORSDOF 0
ENDMDL
