MODEL 1
REMARK minimizedAffinity 11.0990696
REMARK minimizedRMSD -1
REMARK  0 active torsions:
REMARK  status: ('A' for Active; 'I' for Inactive)
ROOT
ATOM      1  C1  DEN d   1      -2.996  -2.652   2.805  0.00  0.00     0.130 A 
ATOM      2  C2  DEN d   1      -2.396  -3.977   2.677  0.00  0.00    -0.031 A 
ATOM      3  C3  DEN d   1      -1.486  -3.956   1.514  0.00  0.00     0.027 A 
ATOM      4  C4  DEN d   1      -0.947  -2.009  -0.089  0.00  0.00     0.027 A 
ATOM      5  C5  DEN d   1      -1.221  -0.692  -0.389  0.00  0.00    -0.003 A 
ATOM      6  C6  DEN d   1      -2.124   0.047   0.328  0.00  0.00     0.001 A 
ATOM      7  C7  DEN d   1      -2.752  -0.512   1.410  0.00  0.00     0.017 A 
ATOM      8  C8  DEN d   1      -2.487  -1.841   1.713  0.00  0.00    -0.094 A 
ATOM      9  C9  DEN d   1      -1.562  -2.568   0.984  0.00  0.00    -0.072 A 
ENDROOT
TORSDOF 0
ENDMDL
