MODEL 1
REMARK minimizedAffinity 0.0122010512
REMARK minimizedRMSD -1
REMARK  0 active torsions:
REMARK  status: ('A' for Active; 'I' for Inactive)
ROOT
ATOM      1  C1  DEN d   1      -2.062   2.406   5.288  0.00  0.00     0.130 A 
ATOM      2  C2  DEN d   1      -2.192   0.954   5.214  0.00  0.00    -0.031 A 
ATOM      3  C3  DEN d   1      -3.614   0.612   5.418  0.00  0.00     0.027 A 
ATOM      4  C4  DEN d   1      -5.617   2.183   5.834  0.00  0.00     0.027 A 
ATOM      5  C5  DEN d   1      -5.999   3.497   5.992  0.00  0.00    -0.003 A 
ATOM      6  C6  DEN d   1      -5.098   4.529   5.960  0.00  0.00     0.001 A 
ATOM      7  C7  DEN d   1      -3.775   4.267   5.721  0.00  0.00     0.017 A 
ATOM      8  C8  DEN d   1      -3.381   2.944   5.569  0.00  0.00    -0.094 A 
ATOM      9  C9  DEN d   1      -4.309   1.916   5.592  0.00  0.00    -0.072 A 
ENDROOT
TORSDOF 0
ENDMDL
