MODEL 1
REMARK minimizedAffinity 17.9581451
REMARK minimizedRMSD -1
REMARK  0 active torsions:
REMARK  status: ('A' for Active; 'I' for Inactive)
ROOT
ATOM      1  C1  DEN d   1      -1.441  -2.440  -1.855  0.00  0.00     0.130 A 
ATOM      2  C2  DEN d   1      -1.288  -1.102  -2.419  0.00  0.00    -0.031 A 
ATOM      3  C3  DEN d   1      -0.960  -0.176  -1.316  0.00  0.00     0.027 A 
ATOM      4  C4  DEN d   1      -0.672  -0.683   1.197  0.00  0.00     0.027 A 
ATOM      5  C5  DEN d   1      -0.715  -1.672   2.154  0.00  0.00    -0.003 A 
ATOM      6  C6  DEN d   1      -1.035  -2.969   1.851  0.00  0.00     0.001 A 
ATOM      7  C7  DEN d   1      -1.279  -3.321   0.550  0.00  0.00     0.017 A 
ATOM      8  C8  DEN d   1      -1.244  -2.328  -0.421  0.00  0.00    -0.094 A 
ATOM      9  C9  DEN d   1      -0.907  -1.025  -0.095  0.00  0.00    -0.072 A 
ENDROOT
TORSDOF 0
ENDMDL
