MODEL 1
REMARK minimizedAffinity 6.0620966
REMARK minimizedRMSD -1
REMARK  0 active torsions:
REMARK  status: ('A' for Active; 'I' for Inactive)
ROOT
ATOM      1  C1  DEN d   1      -4.441   2.646   5.206  0.00  0.00     0.130 A 
ATOM      2  C2  DEN d   1      -3.617   1.919   4.244  0.00  0.00    -0.031 A 
ATOM      3  C3  DEN d   1      -3.558   2.715   3.001  0.00  0.00     0.027 A 
ATOM      4  C4  DEN d   1      -4.651   4.992   2.478  0.00  0.00     0.027 A 
ATOM      5  C5  DEN d   1      -5.453   5.993   2.978  0.00  0.00    -0.003 A 
ATOM      6  C6  DEN d   1      -5.998   5.933   4.233  0.00  0.00     0.001 A 
ATOM      7  C7  DEN d   1      -5.710   4.870   5.048  0.00  0.00     0.017 A 
ATOM      8  C8  DEN d   1      -4.908   3.853   4.548  0.00  0.00    -0.094 A 
ATOM      9  C9  DEN d   1      -4.357   3.938   3.281  0.00  0.00    -0.072 A 
ENDROOT
TORSDOF 0
ENDMDL
