MODEL 1
REMARK minimizedAffinity 2.03005195
REMARK minimizedRMSD -1
REMARK  0 active torsions:
REMARK  status: ('A' for Active; 'I' for Inactive)
ROOT
ATOM      1  C1  DEN d   1      -4.102   4.845   5.716  0.00  0.00     0.130 A 
ATOM      2  C2  DEN d   1      -5.500   4.518   5.984  0.00  0.00    -0.031 A 
ATOM      3  C3  DEN d   1      -5.999   3.695   4.864  0.00  0.00     0.027 A 
ATOM      4  C4  DEN d   1      -4.748   2.894   2.755  0.00  0.00     0.027 A 
ATOM      5  C5  DEN d   1      -3.548   2.929   2.081  0.00  0.00    -0.003 A 
ATOM      6  C6  DEN d   1      -2.467   3.628   2.550  0.00  0.00     0.001 A 
ATOM      7  C7  DEN d   1      -2.551   4.283   3.750  0.00  0.00     0.017 A 
ATOM      8  C8  DEN d   1      -3.761   4.258   4.432  0.00  0.00    -0.094 A 
ATOM      9  C9  DEN d   1      -4.838   3.536   3.947  0.00  0.00    -0.072 A 
ENDROOT
TORSDOF 0
ENDMDL
