MODEL 1
REMARK minimizedAffinity 12.2915049
REMARK minimizedRMSD -1
REMARK  0 active torsions:
REMARK  status: ('A' for Active; 'I' for Inactive)
ROOT
ATOM      1  C1  DEN d   1      -4.933   3.544   2.278  0.00  0.00     0.130 A 
ATOM      2  C2  DEN d   1      -5.075   4.695   1.391  0.00  0.00    -0.031 A 
ATOM      3  C3  DEN d   1      -5.510   5.848   2.205  0.00  0.00     0.027 A 
ATOM      4  C4  DEN d   1      -5.971   5.962   4.740  0.00  0.00     0.027 A 
ATOM      5  C5  DEN d   1      -5.998   5.236   5.910  0.00  0.00    -0.003 A 
ATOM      6  C6  DEN d   1      -5.707   3.898   5.946  0.00  0.00     0.001 A 
ATOM      7  C7  DEN d   1      -5.333   3.254   4.796  0.00  0.00     0.017 A 
ATOM      8  C8  DEN d   1      -5.310   3.978   3.611  0.00  0.00    -0.094 A 
ATOM      9  C9  DEN d   1      -5.596   5.332   3.598  0.00  0.00    -0.072 A 
ENDROOT
TORSDOF 0
ENDMDL
