MODEL 1
REMARK minimizedAffinity -4.5088625
REMARK minimizedRMSD -1
REMARK  0 active torsions:
REMARK  status: ('A' for Active; 'I' for Inactive)
ROOT
ATOM      1  C1  DEN d   1       0.584  -0.469  -0.015  0.00  0.00     0.130 A 
ATOM      2  C2  DEN d   1      -0.874  -0.501  -0.089  0.00  0.00    -0.031 A 
ATOM      3  C3  DEN d   1      -1.407   0.008   1.190  0.00  0.00     0.027 A 
ATOM      4  C4  DEN d   1      -0.124   0.843   3.266  0.00  0.00     0.027 A 
ATOM      5  C5  DEN d   1       1.127   1.048   3.805  0.00  0.00    -0.003 A 
ATOM      6  C6  DEN d   1       2.274   0.733   3.127  0.00  0.00     0.001 A 
ATOM      7  C7  DEN d   1       2.196   0.237   1.853  0.00  0.00     0.017 A 
ATOM      8  C8  DEN d   1       0.938   0.021   1.305  0.00  0.00    -0.094 A 
ATOM      9  C9  DEN d   1      -0.210   0.357   2.002  0.00  0.00    -0.072 A 
ENDROOT
TORSDOF 0
ENDMDL
