MODEL 1
REMARK minimizedAffinity 14.3360929
REMARK minimizedRMSD -1
REMARK  0 active torsions:
REMARK  status: ('A' for Active; 'I' for Inactive)
ROOT
ATOM      1  C1  DEN d   1       0.512  -1.040  -1.542  0.00  0.00     0.130 A 
ATOM      2  C2  DEN d   1      -0.174  -0.034  -2.349  0.00  0.00    -0.031 A 
ATOM      3  C3  DEN d   1      -1.318   0.477  -1.568  0.00  0.00     0.027 A 
ATOM      4  C4  DEN d   1      -2.088  -0.186   0.803  0.00  0.00     0.027 A 
ATOM      5  C5  DEN d   1      -1.829  -1.005   1.880  0.00  0.00    -0.003 A 
ATOM      6  C6  DEN d   1      -0.801  -1.910   1.878  0.00  0.00     0.001 A 
ATOM      7  C7  DEN d   1       0.035  -1.986   0.795  0.00  0.00     0.017 A 
ATOM      8  C8  DEN d   1      -0.224  -1.168  -0.297  0.00  0.00    -0.094 A 
ATOM      9  C9  DEN d   1      -1.261  -0.251  -0.271  0.00  0.00    -0.072 A 
ENDROOT
TORSDOF 0
ENDMDL
