MODEL 1
REMARK minimizedAffinity 2.22173548
REMARK minimizedRMSD -1
REMARK  0 active torsions:
REMARK  status: ('A' for Active; 'I' for Inactive)
ROOT
ATOM      1  C1  DEN d   1       5.553   2.247   5.979  0.00  0.00     0.130 A 
ATOM      2  C2  DEN d   1       4.857   1.384   5.028  0.00  0.00    -0.031 A 
ATOM      3  C3  DEN d   1       4.389   2.224   3.907  0.00  0.00     0.027 A 
ATOM      4  C4  DEN d   1       4.677   4.762   3.550  0.00  0.00     0.027 A 
ATOM      5  C5  DEN d   1       5.188   5.921   4.092  0.00  0.00    -0.003 A 
ATOM      6  C6  DEN d   1       5.821   5.942   5.307  0.00  0.00     0.001 A 
ATOM      7  C7  DEN d   1       6.000   4.774   6.000  0.00  0.00     0.017 A 
ATOM      8  C8  DEN d   1       5.481   3.602   5.463  0.00  0.00    -0.094 A 
ATOM      9  C9  DEN d   1       4.855   3.600   4.228  0.00  0.00    -0.072 A 
ENDROOT
TORSDOF 0
ENDMDL
