MODEL 1
REMARK minimizedAffinity 6.9046092
REMARK minimizedRMSD -1
REMARK  0 active torsions:
REMARK  status: ('A' for Active; 'I' for Inactive)
ROOT
ATOM      1  C1  DEN d   1      -1.030  -1.249   2.679  0.00  0.00     0.130 A 
ATOM      2  C2  DEN d   1      -0.706  -2.057   1.506  0.00  0.00    -0.031 A 
ATOM      3  C3  DEN d   1      -1.230  -3.420   1.732  0.00  0.00     0.027 A 
ATOM      4  C4  DEN d   1      -2.508  -4.350   3.771  0.00  0.00     0.027 A 
ATOM      5  C5  DEN d   1      -3.008  -4.044   5.017  0.00  0.00    -0.003 A 
ATOM      6  C6  DEN d   1      -2.855  -2.805   5.581  0.00  0.00     0.001 A 
ATOM      7  C7  DEN d   1      -2.225  -1.812   4.878  0.00  0.00     0.017 A 
ATOM      8  C8  DEN d   1      -1.712  -2.115   3.624  0.00  0.00    -0.094 A 
ATOM      9  C9  DEN d   1      -1.887  -3.370   3.066  0.00  0.00    -0.072 A 
ENDROOT
TORSDOF 0
ENDMDL
