MODEL 1
REMARK minimizedAffinity -0.240030929
REMARK minimizedRMSD -1
REMARK  0 active torsions:
REMARK  status: ('A' for Active; 'I' for Inactive)
ROOT
ATOM      1  C1  DEN d   1      -2.767   3.925  -3.632  0.00  0.00     0.130 A 
ATOM      2  C2  DEN d   1      -2.049   3.580  -4.856  0.00  0.00    -0.031 A 
ATOM      3  C3  DEN d   1      -2.806   4.126  -6.000  0.00  0.00     0.027 A 
ATOM      4  C4  DEN d   1      -5.008   5.469  -5.994  0.00  0.00     0.027 A 
ATOM      5  C5  DEN d   1      -5.998   5.998  -5.196  0.00  0.00    -0.003 A 
ATOM      6  C6  DEN d   1      -5.999   5.846  -3.835  0.00  0.00     0.001 A 
ATOM      7  C7  DEN d   1      -4.965   5.185  -3.226  0.00  0.00     0.017 A 
ATOM      8  C8  DEN d   1      -3.967   4.642  -4.025  0.00  0.00    -0.094 A 
ATOM      9  C9  DEN d   1      -3.978   4.818  -5.398  0.00  0.00    -0.072 A 
ENDROOT
TORSDOF 0
ENDMDL
