MODEL 1
REMARK minimizedAffinity -3.65248013
REMARK minimizedRMSD -1
REMARK  0 active torsions:
REMARK  status: ('A' for Active; 'I' for Inactive)
ROOT
ATOM      1  C1  DEN d   1      -2.482   4.198  -4.864  0.00  0.00     0.130 A 
ATOM      2  C2  DEN d   1      -3.007   3.432  -5.991  0.00  0.00    -0.031 A 
ATOM      3  C3  DEN d   1      -4.479   3.552  -5.979  0.00  0.00     0.027 A 
ATOM      4  C4  DEN d   1      -5.988   4.846  -4.336  0.00  0.00     0.027 A 
ATOM      5  C5  DEN d   1      -6.000   5.639  -3.210  0.00  0.00    -0.003 A 
ATOM      6  C6  DEN d   1      -4.853   5.976  -2.542  0.00  0.00     0.001 A 
ATOM      7  C7  DEN d   1      -3.640   5.556  -3.021  0.00  0.00     0.017 A 
ATOM      8  C8  DEN d   1      -3.620   4.751  -4.152  0.00  0.00    -0.094 A 
ATOM      9  C9  DEN d   1      -4.790   4.431  -4.820  0.00  0.00    -0.072 A 
ENDROOT
TORSDOF 0
ENDMDL
