MODEL 1
REMARK minimizedAffinity 4.91313457
REMARK minimizedRMSD -1
REMARK  0 active torsions:
REMARK  status: ('A' for Active; 'I' for Inactive)
ROOT
ATOM      1  C1  DEN d   1      -3.722   1.747   5.833  0.00  0.00     0.130 A 
ATOM      2  C2  DEN d   1      -2.276   1.752   5.628  0.00  0.00    -0.031 A 
ATOM      3  C3  DEN d   1      -1.833   3.158   5.538  0.00  0.00     0.027 A 
ATOM      4  C4  DEN d   1      -3.237   5.315   5.698  0.00  0.00     0.027 A 
ATOM      5  C5  DEN d   1      -4.510   5.817   5.857  0.00  0.00    -0.003 A 
ATOM      6  C6  DEN d   1      -5.605   5.004   5.984  0.00  0.00     0.001 A 
ATOM      7  C7  DEN d   1      -5.442   3.643   5.999  0.00  0.00     0.017 A 
ATOM      8  C8  DEN d   1      -4.163   3.130   5.832  0.00  0.00    -0.094 A 
ATOM      9  C9  DEN d   1      -3.067   3.969   5.718  0.00  0.00    -0.072 A 
ENDROOT
TORSDOF 0
ENDMDL
