MODEL 1
REMARK minimizedAffinity 15.228981
REMARK minimizedRMSD -1
REMARK  0 active torsions:
REMARK  status: ('A' for Active; 'I' for Inactive)
ROOT
ATOM      1  C1  DEN d   1       4.202   3.762   3.656  0.00  0.00     0.130 A 
ATOM      2  C2  DEN d   1       5.215   4.359   4.522  0.00  0.00    -0.031 A 
ATOM      3  C3  DEN d   1       6.000   5.315   3.716  0.00  0.00     0.027 A 
ATOM      4  C4  DEN d   1       5.742   5.931   1.224  0.00  0.00     0.027 A 
ATOM      5  C5  DEN d   1       5.028   5.678   0.074  0.00  0.00    -0.003 A 
ATOM      6  C6  DEN d   1       4.020   4.751   0.028  0.00  0.00     0.001 A 
ATOM      7  C7  DEN d   1       3.667   4.076   1.167  0.00  0.00     0.017 A 
ATOM      8  C8  DEN d   1       4.386   4.321   2.329  0.00  0.00    -0.094 A 
ATOM      9  C9  DEN d   1       5.394   5.270   2.358  0.00  0.00    -0.072 A 
ENDROOT
TORSDOF 0
ENDMDL
