MODEL 1
REMARK minimizedAffinity 1.62696934
REMARK minimizedRMSD -1
REMARK  0 active torsions:
REMARK  status: ('A' for Active; 'I' for Inactive)
ROOT
ATOM      1  C1  DEN d   1       0.103  -0.445   1.891  0.00  0.00     0.130 A 
ATOM      2  C2  DEN d   1       0.377   0.988   1.844  0.00  0.00    -0.031 A 
ATOM      3  C3  DEN d   1       0.078   1.466   0.479  0.00  0.00     0.027 A 
ATOM      4  C4  DEN d   1      -0.784   0.132  -1.554  0.00  0.00     0.027 A 
ATOM      5  C5  DEN d   1      -1.152  -1.117  -2.002  0.00  0.00    -0.003 A 
ATOM      6  C6  DEN d   1      -1.097  -2.226  -1.201  0.00  0.00     0.001 A 
ATOM      7  C7  DEN d   1      -0.705  -2.101   0.106  0.00  0.00     0.017 A 
ATOM      8  C8  DEN d   1      -0.325  -0.846   0.563  0.00  0.00    -0.094 A 
ATOM      9  C9  DEN d   1      -0.400   0.265  -0.259  0.00  0.00    -0.072 A 
ENDROOT
TORSDOF 0
ENDMDL
