MODEL 1
REMARK minimizedAffinity -0.439973801
REMARK minimizedRMSD -1
REMARK  2 active torsions:
REMARK  status: ('A' for Active; 'I' for Inactive)
REMARK    1  A    between atoms: C1_2  and  C2_3 
REMARK    2  A    between atoms: C2_3  and  C3_4 
ROOT
ATOM      1  C3  UNL d   1      -1.180  -1.419  -0.318  0.00  0.00    -0.075 A 
ATOM      2  C4  UNL d   1      -2.569  -1.543  -0.166  0.00  0.00     0.002 A 
ATOM      3  C5  UNL d   1      -3.222  -2.713  -0.555  0.00  0.00     0.002 A 
ATOM      4  C6  UNL d   1      -2.500  -3.768  -1.108  0.00  0.00    -0.004 A 
ATOM      5  C7  UNL d   1      -1.122  -3.649  -1.279  0.00  0.00     0.002 A 
ATOM      6  C8  UNL d   1      -0.465  -2.482  -0.887  0.00  0.00     0.002 A 
ENDROOT
BRANCH   1   7
ATOM      7  C2  UNL d   1      -0.462  -0.168   0.127  0.00  0.00     0.056 C 
BRANCH   7   8
ATOM      8  C1  UNL d   1       0.490  -0.382   1.308  0.00  0.00     0.007 C 
ATOM      9  C   UNL d   1       0.435   0.742   2.335  0.00  0.00     0.009 C 
ENDBRANCH   7   8
ENDBRANCH   1   7
TORSDOF 2
ENDMDL
