MODEL 1
REMARK minimizedAffinity -3.24661756
REMARK minimizedRMSD -1
REMARK  2 active torsions:
REMARK  status: ('A' for Active; 'I' for Inactive)
REMARK    1  A    between atoms: C1_2  and  C2_3 
REMARK    2  A    between atoms: C2_3  and  C3_4 
ROOT
ATOM      1  C3  UNL d   1       0.826   0.072  -2.788  0.00  0.00    -0.075 A 
ATOM      2  C4  UNL d   1       1.826   0.732  -3.517  0.00  0.00     0.002 A 
ATOM      3  C5  UNL d   1       1.588   1.152  -4.826  0.00  0.00     0.002 A 
ATOM      4  C6  UNL d   1       0.354   0.909  -5.425  0.00  0.00    -0.004 A 
ATOM      5  C7  UNL d   1      -0.641   0.240  -4.716  0.00  0.00     0.002 A 
ATOM      6  C8  UNL d   1      -0.407  -0.177  -3.404  0.00  0.00     0.002 A 
ENDROOT
BRANCH   1   7
ATOM      7  C2  UNL d   1       1.067  -0.359  -1.361  0.00  0.00     0.056 C 
BRANCH   7   8
ATOM      8  C1  UNL d   1      -0.052   0.039  -0.392  0.00  0.00     0.007 C 
ATOM      9  C   UNL d   1       0.466   0.613   0.920  0.00  0.00     0.009 C 
ENDBRANCH   7   8
ENDBRANCH   1   7
TORSDOF 2
ENDMDL
