MODEL 1
REMARK minimizedAffinity 1.39101052
REMARK minimizedRMSD -1
REMARK  0 active torsions:
REMARK  status: ('A' for Active; 'I' for Inactive)
ROOT
ATOM      1  C1  BNZ d   1       5.991   0.724  -5.979  0.00  0.00     0.000 A 
ATOM      2  C2  BNZ d   1       5.986   0.039  -4.793  0.00  0.00     0.000 A 
ATOM      3  C3  BNZ d   1       5.962   0.706  -3.600  0.00  0.00     0.000 A 
ATOM      4  C4  BNZ d   1       5.983   2.054  -3.593  0.00  0.00     0.000 A 
ATOM      5  C5  BNZ d   1       5.997   2.759  -4.781  0.00  0.00     0.000 A 
ATOM      6  C6  BNZ d   1       5.982   2.084  -5.980  0.00  0.00     0.000 A 
ENDROOT
TORSDOF 0
ENDMDL
