MODEL 1
REMARK minimizedAffinity 2.26283193
REMARK minimizedRMSD -1
REMARK  0 active torsions:
REMARK  status: ('A' for Active; 'I' for Inactive)
ROOT
ATOM      1  C1  BNZ d   1       3.044   2.638   4.361  0.00  0.00     0.000 A 
ATOM      2  C2  BNZ d   1       2.003   1.874   3.907  0.00  0.00     0.000 A 
ATOM      3  C3  BNZ d   1       1.696   1.829   2.575  0.00  0.00     0.000 A 
ATOM      4  C4  BNZ d   1       2.406   2.577   1.706  0.00  0.00     0.000 A 
ATOM      5  C5  BNZ d   1       3.453   3.359   2.150  0.00  0.00     0.000 A 
ATOM      6  C6  BNZ d   1       3.783   3.373   3.485  0.00  0.00     0.000 A 
ENDROOT
TORSDOF 0
ENDMDL
