MODEL 1
REMARK minimizedAffinity 3.43915987
REMARK minimizedRMSD -1
REMARK  0 active torsions:
REMARK  status: ('A' for Active; 'I' for Inactive)
ROOT
ATOM      1  C1  BNZ d   1      -4.149  -6.000   2.387  0.00  0.00     0.000 A 
ATOM      2  C2  BNZ d   1      -4.171  -5.831   3.745  0.00  0.00     0.000 A 
ATOM      3  C3  BNZ d   1      -3.011  -5.650   4.446  0.00  0.00     0.000 A 
ATOM      4  C4  BNZ d   1      -1.831  -5.678   3.794  0.00  0.00     0.000 A 
ATOM      5  C5  BNZ d   1      -1.792  -5.857   2.426  0.00  0.00     0.000 A 
ATOM      6  C6  BNZ d   1      -2.964  -6.000   1.718  0.00  0.00     0.000 A 
ENDROOT
TORSDOF 0
ENDMDL
