MODEL 1
REMARK minimizedAffinity 0.533056557
REMARK minimizedRMSD -1
REMARK  0 active torsions:
REMARK  status: ('A' for Active; 'I' for Inactive)
ROOT
ATOM      1  C1  BNZ d   1       5.647   3.984  -6.000  0.00  0.00     0.000 A 
ATOM      2  C2  BNZ d   1       4.921   5.145  -6.000  0.00  0.00     0.000 A 
ATOM      3  C3  BNZ d   1       3.775   5.254  -5.262  0.00  0.00     0.000 A 
ATOM      4  C4  BNZ d   1       3.337   4.190  -4.558  0.00  0.00     0.000 A 
ATOM      5  C5  BNZ d   1       4.053   3.010  -4.556  0.00  0.00     0.000 A 
ATOM      6  C6  BNZ d   1       5.226   2.917  -5.269  0.00  0.00     0.000 A 
ENDROOT
TORSDOF 0
ENDMDL
