MODEL 1
REMARK minimizedAffinity -1.22727942
REMARK minimizedRMSD -1
REMARK  0 active torsions:
REMARK  status: ('A' for Active; 'I' for Inactive)
ROOT
ATOM      1  C1  BNZ d   1      -0.748  -2.985  -2.283  0.00  0.00     0.000 A 
ATOM      2  C2  BNZ d   1      -1.437  -4.088  -2.710  0.00  0.00     0.000 A 
ATOM      3  C3  BNZ d   1      -2.520  -4.550  -2.015  0.00  0.00     0.000 A 
ATOM      4  C4  BNZ d   1      -2.887  -3.933  -0.874  0.00  0.00     0.000 A 
ATOM      5  C5  BNZ d   1      -2.197  -2.825  -0.425  0.00  0.00     0.000 A 
ATOM      6  C6  BNZ d   1      -1.131  -2.339  -1.148  0.00  0.00     0.000 A 
ENDROOT
TORSDOF 0
ENDMDL
