MODEL 1
REMARK minimizedAffinity 3.97407746
REMARK minimizedRMSD -1
REMARK  0 active torsions:
REMARK  status: ('A' for Active; 'I' for Inactive)
ROOT
ATOM      1  C1  BNZ d   1       3.979   5.950  -6.000  0.00  0.00     0.000 A 
ATOM      2  C2  BNZ d   1       3.000   4.993  -5.971  0.00  0.00     0.000 A 
ATOM      3  C3  BNZ d   1       3.321   3.665  -5.931  0.00  0.00     0.000 A 
ATOM      4  C4  BNZ d   1       4.617   3.295  -5.961  0.00  0.00     0.000 A 
ATOM      5  C5  BNZ d   1       5.615   4.247  -6.000  0.00  0.00     0.000 A 
ATOM      6  C6  BNZ d   1       5.290   5.584  -6.000  0.00  0.00     0.000 A 
ENDROOT
TORSDOF 0
ENDMDL
