MODEL 1
REMARK minimizedAffinity 0.0850829408
REMARK minimizedRMSD -1
REMARK  0 active torsions:
REMARK  status: ('A' for Active; 'I' for Inactive)
ROOT
ATOM      1  C1  BNZ d   1      -3.364   4.873  -3.637  0.00  0.00     0.000 A 
ATOM      2  C2  BNZ d   1      -4.512   5.619  -3.655  0.00  0.00     0.000 A 
ATOM      3  C3  BNZ d   1      -5.099   5.973  -4.838  0.00  0.00     0.000 A 
ATOM      4  C4  BNZ d   1      -4.516   5.615  -6.000  0.00  0.00     0.000 A 
ATOM      5  C5  BNZ d   1      -3.353   4.871  -5.999  0.00  0.00     0.000 A 
ATOM      6  C6  BNZ d   1      -2.786   4.483  -4.807  0.00  0.00     0.000 A 
ENDROOT
TORSDOF 0
ENDMDL
