MODEL 1
REMARK minimizedAffinity -0.818848968
REMARK minimizedRMSD -1
REMARK  0 active torsions:
REMARK  status: ('A' for Active; 'I' for Inactive)
ROOT
ATOM      1  C1  BNZ d   1       0.073   2.311   2.731  0.00  0.00     0.000 A 
ATOM      2  C2  BNZ d   1      -0.867   1.321   2.621  0.00  0.00     0.000 A 
ATOM      3  C3  BNZ d   1      -0.805   0.408   1.605  0.00  0.00     0.000 A 
ATOM      4  C4  BNZ d   1       0.170   0.510   0.680  0.00  0.00     0.000 A 
ATOM      5  C5  BNZ d   1       1.119   1.509   0.772  0.00  0.00     0.000 A 
ATOM      6  C6  BNZ d   1       1.077   2.403   1.817  0.00  0.00     0.000 A 
ENDROOT
TORSDOF 0
ENDMDL
