MODEL 1
REMARK minimizedAffinity 2.7714777
REMARK minimizedRMSD -1
REMARK  0 active torsions:
REMARK  status: ('A' for Active; 'I' for Inactive)
ROOT
ATOM      1  C1  BNZ d   1      -4.707  -0.471   2.628  0.00  0.00     0.000 A 
ATOM      2  C2  BNZ d   1      -5.768  -0.500   3.493  0.00  0.00     0.000 A 
ATOM      3  C3  BNZ d   1      -5.803  -1.393   4.528  0.00  0.00     0.000 A 
ATOM      4  C4  BNZ d   1      -4.798  -2.281   4.671  0.00  0.00     0.000 A 
ATOM      5  C5  BNZ d   1      -3.726  -2.271   3.801  0.00  0.00     0.000 A 
ATOM      6  C6  BNZ d   1      -3.676  -1.345   2.784  0.00  0.00     0.000 A 
ENDROOT
TORSDOF 0
ENDMDL
