MODEL 1
REMARK minimizedAffinity -1.36750042
REMARK minimizedRMSD -1
REMARK  0 active torsions:
REMARK  status: ('A' for Active; 'I' for Inactive)
ROOT
ATOM      1  C1  BNZ d   1       5.985   4.227  -6.000  0.00  0.00     0.000 A 
ATOM      2  C2  BNZ d   1       5.209   3.100  -5.989  0.00  0.00     0.000 A 
ATOM      3  C3  BNZ d   1       3.845   3.189  -5.989  0.00  0.00     0.000 A 
ATOM      4  C4  BNZ d   1       3.260   4.404  -5.959  0.00  0.00     0.000 A 
ATOM      5  C5  BNZ d   1       4.029   5.550  -5.960  0.00  0.00     0.000 A 
ATOM      6  C6  BNZ d   1       5.402   5.457  -5.999  0.00  0.00     0.000 A 
ENDROOT
TORSDOF 0
ENDMDL
