MODEL 1
REMARK minimizedAffinity 3.58635402
REMARK minimizedRMSD -1
REMARK  0 active torsions:
REMARK  status: ('A' for Active; 'I' for Inactive)
ROOT
ATOM      1  C1  BNZ d   1       5.984   3.207   5.427  0.00  0.00     0.000 A 
ATOM      2  C2  BNZ d   1       5.994   4.451   6.000  0.00  0.00     0.000 A 
ATOM      3  C3  BNZ d   1       5.020   5.365   5.707  0.00  0.00     0.000 A 
ATOM      4  C4  BNZ d   1       4.062   5.048   4.813  0.00  0.00     0.000 A 
ATOM      5  C5  BNZ d   1       4.043   3.802   4.219  0.00  0.00     0.000 A 
ATOM      6  C6  BNZ d   1       5.003   2.871   4.546  0.00  0.00     0.000 A 
ENDROOT
TORSDOF 0
ENDMDL
