MODEL 1
REMARK minimizedAffinity 1.34462059
REMARK minimizedRMSD -1
REMARK  0 active torsions:
REMARK  status: ('A' for Active; 'I' for Inactive)
ROOT
ATOM      1  C1  BNZ d   1       2.164  -2.425  -1.124  0.00  0.00     0.000 A 
ATOM      2  C2  BNZ d   1       1.049  -2.091  -1.844  0.00  0.00     0.000 A 
ATOM      3  C3  BNZ d   1       0.745  -2.743  -3.007  0.00  0.00     0.000 A 
ATOM      4  C4  BNZ d   1       1.577  -3.699  -3.468  0.00  0.00     0.000 A 
ATOM      5  C5  BNZ d   1       2.710  -4.041  -2.758  0.00  0.00     0.000 A 
ATOM      6  C6  BNZ d   1       2.993  -3.409  -1.568  0.00  0.00     0.000 A 
ENDROOT
TORSDOF 0
ENDMDL
