MODEL 1
REMARK minimizedAffinity 0.861301005
REMARK minimizedRMSD -1
REMARK  0 active torsions:
REMARK  status: ('A' for Active; 'I' for Inactive)
ROOT
ATOM      1  C1  BNZ d   1       3.762   4.267   4.883  0.00  0.00     0.000 A 
ATOM      2  C2  BNZ d   1       4.711   4.287   3.896  0.00  0.00     0.000 A 
ATOM      3  C3  BNZ d   1       5.776   5.140   3.966  0.00  0.00     0.000 A 
ATOM      4  C4  BNZ d   1       5.870   6.000   5.001  0.00  0.00     0.000 A 
ATOM      5  C5  BNZ d   1       4.917   5.999   5.999  0.00  0.00     0.000 A 
ATOM      6  C6  BNZ d   1       3.867   5.111   5.946  0.00  0.00     0.000 A 
ENDROOT
TORSDOF 0
ENDMDL
