MODEL 1
REMARK minimizedAffinity 4.00543451
REMARK minimizedRMSD -1
REMARK  0 active torsions:
REMARK  status: ('A' for Active; 'I' for Inactive)
ROOT
ATOM      1  C1  BNZ d   1       5.978   4.504   6.000  0.00  0.00     0.000 A 
ATOM      2  C2  BNZ d   1       6.000   3.363   5.242  0.00  0.00     0.000 A 
ATOM      3  C3  BNZ d   1       4.932   3.022   4.460  0.00  0.00     0.000 A 
ATOM      4  C4  BNZ d   1       3.829   3.798   4.468  0.00  0.00     0.000 A 
ATOM      5  C5  BNZ d   1       3.788   4.946   5.234  0.00  0.00     0.000 A 
ATOM      6  C6  BNZ d   1       4.880   5.308   5.990  0.00  0.00     0.000 A 
ENDROOT
TORSDOF 0
ENDMDL
