MODEL 1
REMARK minimizedAffinity 2.06766224
REMARK minimizedRMSD -1
REMARK  0 active torsions:
REMARK  status: ('A' for Active; 'I' for Inactive)
ROOT
ATOM      1  C1  BNZ d   1       3.967   3.821  -5.970  0.00  0.00     0.000 A 
ATOM      2  C2  BNZ d   1       5.219   3.268  -5.999  0.00  0.00     0.000 A 
ATOM      3  C3  BNZ d   1       5.386   1.911  -5.999  0.00  0.00     0.000 A 
ATOM      4  C4  BNZ d   1       4.303   1.110  -5.928  0.00  0.00     0.000 A 
ATOM      5  C5  BNZ d   1       3.034   1.652  -5.889  0.00  0.00     0.000 A 
ATOM      6  C6  BNZ d   1       2.869   3.018  -5.929  0.00  0.00     0.000 A 
ENDROOT
TORSDOF 0
ENDMDL
