MODEL 1
REMARK minimizedAffinity -1.96716356
REMARK minimizedRMSD -1
REMARK  0 active torsions:
REMARK  status: ('A' for Active; 'I' for Inactive)
ROOT
ATOM      1  C1  BNZ d   1      -2.574   0.207  -0.563  0.00  0.00     0.000 A 
ATOM      2  C2  BNZ d   1      -2.877   0.744   0.659  0.00  0.00     0.000 A 
ATOM      3  C3  BNZ d   1      -1.915   0.887   1.619  0.00  0.00     0.000 A 
ATOM      4  C4  BNZ d   1      -0.661   0.456   1.371  0.00  0.00     0.000 A 
ATOM      5  C5  BNZ d   1      -0.342  -0.096   0.146  0.00  0.00     0.000 A 
ATOM      6  C6  BNZ d   1      -1.304  -0.202  -0.832  0.00  0.00     0.000 A 
ENDROOT
TORSDOF 0
ENDMDL
