MODEL 1
REMARK minimizedAffinity -2.35398674
REMARK minimizedRMSD -1
REMARK  0 active torsions:
REMARK  status: ('A' for Active; 'I' for Inactive)
ROOT
ATOM      1  C1  BNZ d   1       0.434   0.988   1.858  0.00  0.00     0.000 A 
ATOM      2  C2  BNZ d   1       0.864   0.313   0.746  0.00  0.00     0.000 A 
ATOM      3  C3  BNZ d   1      -0.020  -0.087  -0.216  0.00  0.00     0.000 A 
ATOM      4  C4  BNZ d   1      -1.337   0.152  -0.046  0.00  0.00     0.000 A 
ATOM      5  C5  BNZ d   1      -1.787   0.822   1.073  0.00  0.00     0.000 A 
ATOM      6  C6  BNZ d   1      -0.890   1.258   2.021  0.00  0.00     0.000 A 
ENDROOT
TORSDOF 0
ENDMDL
