MODEL 1
REMARK minimizedAffinity -4.57276535
REMARK minimizedRMSD -1
REMARK  0 active torsions:
REMARK  status: ('A' for Active; 'I' for Inactive)
ROOT
ATOM      1  C1  BNZ d   1       0.027   0.611   1.431  0.00  0.00     0.000 A 
ATOM      2  C2  BNZ d   1       1.113   0.182   0.717  0.00  0.00     0.000 A 
ATOM      3  C3  BNZ d   1       0.969  -0.305  -0.552  0.00  0.00     0.000 A 
ATOM      4  C4  BNZ d   1      -0.264  -0.401  -1.089  0.00  0.00     0.000 A 
ATOM      5  C5  BNZ d   1      -1.371   0.019  -0.378  0.00  0.00     0.000 A 
ATOM      6  C6  BNZ d   1      -1.218   0.546   0.884  0.00  0.00     0.000 A 
ENDROOT
TORSDOF 0
ENDMDL
