MODEL 1
REMARK minimizedAffinity 0.648679674
REMARK minimizedRMSD -1
REMARK  1 active torsions:
REMARK  status: ('A' for Active; 'I' for Inactive)
REMARK    1  A    between atoms: C1_2  and  C2_3 
ROOT
ATOM      1  C2  UNL d   1       3.427  -5.463  -3.242  0.00  0.00    -0.073 A 
ATOM      2  C3  UNL d   1       2.232  -5.596  -3.959  0.00  0.00    -0.002 A 
ATOM      3  C4  UNL d   1       2.258  -5.851  -5.331  0.00  0.00     0.004 A 
ATOM      4  C5  UNL d   1       3.477  -5.982  -5.998  0.00  0.00    -0.004 A 
ATOM      5  C6  UNL d   1       4.681  -5.864  -5.296  0.00  0.00    -0.075 A 
ATOM      6  C7  UNL d   1       6.000  -6.000  -5.999  0.00  0.00     0.076 C 
ATOM      7  C8  UNL d   1       4.646  -5.605  -3.919  0.00  0.00     0.001 A 
ENDROOT
BRANCH   1   8
ATOM      8  C1  UNL d   1       3.403  -5.194  -1.760  0.00  0.00     0.053 C 
ATOM      9  C   UNL d   1       3.731  -3.744  -1.438  0.00  0.00     0.018 C 
ENDBRANCH   1   8
TORSDOF 1
ENDMDL
