MODEL 1
REMARK minimizedAffinity 10.8172588
REMARK minimizedRMSD -1
REMARK  1 active torsions:
REMARK  status: ('A' for Active; 'I' for Inactive)
REMARK    1  A    between atoms: C1_2  and  C2_3 
ROOT
ATOM      1  C2  UNL d   1       4.061  -5.734  -4.618  0.00  0.00    -0.073 A 
ATOM      2  C3  UNL d   1       5.437  -5.920  -4.449  0.00  0.00    -0.002 A 
ATOM      3  C4  UNL d   1       5.985  -6.000  -3.168  0.00  0.00     0.004 A 
ATOM      4  C5  UNL d   1       5.163  -5.901  -2.045  0.00  0.00    -0.004 A 
ATOM      5  C6  UNL d   1       3.783  -5.727  -2.194  0.00  0.00    -0.075 A 
ATOM      6  C7  UNL d   1       2.885  -5.617  -0.997  0.00  0.00     0.076 C 
ATOM      7  C8  UNL d   1       3.241  -5.645  -3.484  0.00  0.00     0.001 A 
ENDROOT
BRANCH   1   8
ATOM      8  C1  UNL d   1       3.464  -5.653  -6.000  0.00  0.00     0.053 C 
ATOM      9  C   UNL d   1       1.976  -5.966  -5.997  0.00  0.00     0.018 C 
ENDBRANCH   1   8
TORSDOF 1
ENDMDL
