MODEL 1
REMARK minimizedAffinity 3.02467084
REMARK minimizedRMSD -1
REMARK  1 active torsions:
REMARK  status: ('A' for Active; 'I' for Inactive)
REMARK    1  A    between atoms: C1_2  and  C2_3 
ROOT
ATOM      1  C2  UNL d   1       2.181   2.099   0.624  0.00  0.00    -0.073 A 
ATOM      2  C3  UNL d   1       2.870   2.727   1.668  0.00  0.00    -0.002 A 
ATOM      3  C4  UNL d   1       4.242   2.960   1.566  0.00  0.00     0.004 A 
ATOM      4  C5  UNL d   1       4.937   2.575   0.420  0.00  0.00    -0.004 A 
ATOM      5  C6  UNL d   1       4.263   1.957  -0.639  0.00  0.00    -0.075 A 
ATOM      6  C7  UNL d   1       4.997   1.535  -1.878  0.00  0.00     0.076 C 
ATOM      7  C8  UNL d   1       2.886   1.724  -0.529  0.00  0.00     0.001 A 
ENDROOT
BRANCH   1   8
ATOM      8  C1  UNL d   1       0.698   1.852   0.726  0.00  0.00     0.053 C 
ATOM      9  C   UNL d   1      -0.113   3.001   0.149  0.00  0.00     0.018 C 
ENDBRANCH   1   8
TORSDOF 1
ENDMDL
