MODEL 1
REMARK minimizedAffinity 5.51478529
REMARK minimizedRMSD -1
REMARK  1 active torsions:
REMARK  status: ('A' for Active; 'I' for Inactive)
REMARK    1  A    between atoms: C1_2  and  C2_3 
ROOT
ATOM      1  C2  UNL d   1       0.629   2.181   1.025  0.00  0.00    -0.073 A 
ATOM      2  C3  UNL d   1       0.963   3.291   1.808  0.00  0.00    -0.002 A 
ATOM      3  C4  UNL d   1       2.301   3.606   2.050  0.00  0.00     0.004 A 
ATOM      4  C5  UNL d   1       3.317   2.821   1.505  0.00  0.00    -0.004 A 
ATOM      5  C6  UNL d   1       3.003   1.714   0.710  0.00  0.00    -0.075 A 
ATOM      6  C7  UNL d   1       4.084   0.857   0.119  0.00  0.00     0.076 C 
ATOM      7  C8  UNL d   1       1.657   1.402   0.474  0.00  0.00     0.001 A 
ENDROOT
BRANCH   1   8
ATOM      8  C1  UNL d   1      -0.814   1.840   0.756  0.00  0.00     0.053 C 
ATOM      9  C   UNL d   1      -1.727   3.044   0.934  0.00  0.00     0.018 C 
ENDBRANCH   1   8
TORSDOF 1
ENDMDL
