MODEL 1
REMARK minimizedAffinity 9.36641693
REMARK minimizedRMSD -1
REMARK  1 active torsions:
REMARK  status: ('A' for Active; 'I' for Inactive)
REMARK    1  A    between atoms: C1_2  and  C2_3 
ROOT
ATOM      1  C2  UNL d   1       3.730  -4.918  -4.690  0.00  0.00    -0.073 A 
ATOM      2  C3  UNL d   1       5.087  -5.206  -4.510  0.00  0.00    -0.002 A 
ATOM      3  C4  UNL d   1       5.540  -5.740  -3.303  0.00  0.00     0.004 A 
ATOM      4  C5  UNL d   1       4.642  -5.999  -2.269  0.00  0.00    -0.004 A 
ATOM      5  C6  UNL d   1       3.279  -5.729  -2.434  0.00  0.00    -0.075 A 
ATOM      6  C7  UNL d   1       2.300  -6.000  -1.330  0.00  0.00     0.076 C 
ATOM      7  C8  UNL d   1       2.832  -5.190  -3.648  0.00  0.00     0.001 A 
ENDROOT
BRANCH   1   8
ATOM      8  C1  UNL d   1       3.235  -4.346  -5.994  0.00  0.00     0.053 C 
ATOM      9  C   UNL d   1       1.738  -4.077  -5.967  0.00  0.00     0.018 C 
ENDBRANCH   1   8
TORSDOF 1
ENDMDL
