MODEL 1
REMARK minimizedAffinity 0.027580779
REMARK minimizedRMSD -1
REMARK  1 active torsions:
REMARK  status: ('A' for Active; 'I' for Inactive)
REMARK    1  A    between atoms: C1_2  and  C2_3 
ROOT
ATOM      1  C2  UNL d   1      -3.188   4.095  -4.702  0.00  0.00    -0.073 A 
ATOM      2  C3  UNL d   1      -3.671   5.365  -5.035  0.00  0.00    -0.002 A 
ATOM      3  C4  UNL d   1      -4.899   5.504  -5.684  0.00  0.00     0.004 A 
ATOM      4  C5  UNL d   1      -5.658   4.377  -6.000  0.00  0.00    -0.004 A 
ATOM      5  C6  UNL d   1      -5.197   3.099  -5.664  0.00  0.00    -0.075 A 
ATOM      6  C7  UNL d   1      -6.000   1.877  -5.999  0.00  0.00     0.076 C 
ATOM      7  C8  UNL d   1      -3.962   2.968  -5.015  0.00  0.00     0.001 A 
ENDROOT
BRANCH   1   8
ATOM      8  C1  UNL d   1      -1.866   3.940  -3.996  0.00  0.00     0.053 C 
ATOM      9  C   UNL d   1      -0.924   3.012  -4.746  0.00  0.00     0.018 C 
ENDBRANCH   1   8
TORSDOF 1
ENDMDL
