MODEL 1
REMARK minimizedAffinity 3.61499071
REMARK minimizedRMSD -1
REMARK  1 active torsions:
REMARK  status: ('A' for Active; 'I' for Inactive)
REMARK    1  A    between atoms: C1_2  and  C2_3 
ROOT
ATOM      1  C2  UNL d   1      -4.260   3.056  -5.403  0.00  0.00    -0.073 A 
ATOM      2  C3  UNL d   1      -4.243   4.321  -6.000  0.00  0.00    -0.002 A 
ATOM      3  C4  UNL d   1      -3.076   5.086  -5.998  0.00  0.00     0.004 A 
ATOM      4  C5  UNL d   1      -1.913   4.592  -5.406  0.00  0.00    -0.004 A 
ATOM      5  C6  UNL d   1      -1.907   3.324  -4.815  0.00  0.00    -0.075 A 
ATOM      6  C7  UNL d   1      -0.666   2.779  -4.172  0.00  0.00     0.076 C 
ATOM      7  C8  UNL d   1      -3.084   2.563  -4.818  0.00  0.00     0.001 A 
ENDROOT
BRANCH   1   8
ATOM      8  C1  UNL d   1      -5.516   2.224  -5.408  0.00  0.00     0.053 C 
ATOM      9  C   UNL d   1      -6.000   1.913  -4.000  0.00  0.00     0.018 C 
ENDBRANCH   1   8
TORSDOF 1
ENDMDL
