MODEL 1
REMARK minimizedAffinity 8.14268684
REMARK minimizedRMSD -1
REMARK  1 active torsions:
REMARK  status: ('A' for Active; 'I' for Inactive)
REMARK    1  A    between atoms: C1_2  and  C2_3 
ROOT
ATOM      1  C2  UNL d   1       1.963   1.758   1.252  0.00  0.00    -0.073 A 
ATOM      2  C3  UNL d   1       3.006   1.985   2.157  0.00  0.00    -0.002 A 
ATOM      3  C4  UNL d   1       4.332   1.806   1.763  0.00  0.00     0.004 A 
ATOM      4  C5  UNL d   1       4.630   1.406   0.460  0.00  0.00    -0.004 A 
ATOM      5  C6  UNL d   1       3.602   1.185  -0.462  0.00  0.00    -0.075 A 
ATOM      6  C7  UNL d   1       3.905   0.751  -1.866  0.00  0.00     0.076 C 
ATOM      7  C8  UNL d   1       2.272   1.364  -0.058  0.00  0.00     0.001 A 
ENDROOT
BRANCH   1   8
ATOM      8  C1  UNL d   1       0.529   1.956   1.671  0.00  0.00     0.053 C 
ATOM      9  C   UNL d   1      -0.286   2.663   0.600  0.00  0.00     0.018 C 
ENDBRANCH   1   8
TORSDOF 1
ENDMDL
