MODEL 1
REMARK minimizedAffinity 3.74371862
REMARK minimizedRMSD -1
REMARK  1 active torsions:
REMARK  status: ('A' for Active; 'I' for Inactive)
REMARK    1  A    between atoms: C1_2  and  C2_3 
ROOT
ATOM      1  C2  UNL d   1       0.292   1.990   0.869  0.00  0.00    -0.073 A 
ATOM      2  C3  UNL d   1       0.743   3.102   1.589  0.00  0.00    -0.002 A 
ATOM      3  C4  UNL d   1       2.109   3.367   1.694  0.00  0.00     0.004 A 
ATOM      4  C5  UNL d   1       3.036   2.528   1.077  0.00  0.00    -0.004 A 
ATOM      5  C6  UNL d   1       2.605   1.418   0.344  0.00  0.00    -0.075 A 
ATOM      6  C7  UNL d   1       3.590   0.505  -0.324  0.00  0.00     0.076 C 
ATOM      7  C8  UNL d   1       1.232   1.157   0.244  0.00  0.00     0.001 A 
ENDROOT
BRANCH   1   8
ATOM      8  C1  UNL d   1      -1.182   1.703   0.747  0.00  0.00     0.053 C 
ATOM      9  C   UNL d   1      -2.004   2.978   0.641  0.00  0.00     0.018 C 
ENDBRANCH   1   8
TORSDOF 1
ENDMDL
