MODEL 1
REMARK minimizedAffinity 0.697232127
REMARK minimizedRMSD -1
REMARK  1 active torsions:
REMARK  status: ('A' for Active; 'I' for Inactive)
REMARK    1  A    between atoms: C1_2  and  C2_3 
ROOT
ATOM      1  C2  UNL d   1       1.473   2.002   1.247  0.00  0.00    -0.073 A 
ATOM      2  C3  UNL d   1       0.690   1.272   0.346  0.00  0.00    -0.002 A 
ATOM      3  C4  UNL d   1      -0.703   1.323   0.420  0.00  0.00     0.004 A 
ATOM      4  C5  UNL d   1      -1.326   2.108   1.390  0.00  0.00    -0.004 A 
ATOM      5  C6  UNL d   1      -0.561   2.854   2.292  0.00  0.00    -0.075 A 
ATOM      6  C7  UNL d   1      -1.216   3.702   3.343  0.00  0.00     0.076 C 
ATOM      7  C8  UNL d   1       0.837   2.796   2.213  0.00  0.00     0.001 A 
ENDROOT
BRANCH   1   8
ATOM      8  C1  UNL d   1       2.977   1.956   1.167  0.00  0.00     0.053 C 
ATOM      9  C   UNL d   1       3.462   0.958   0.127  0.00  0.00     0.018 C 
ENDBRANCH   1   8
TORSDOF 1
ENDMDL
