MODEL 1
REMARK minimizedAffinity 6.60209846
REMARK minimizedRMSD -1
REMARK  1 active torsions:
REMARK  status: ('A' for Active; 'I' for Inactive)
REMARK    1  A    between atoms: N_2  and  C1_3 
ROOT
ATOM      1  C1  UNL d   1       0.827  -3.714   4.515  0.00  0.00     0.143 A 
ATOM      2  C2  UNL d   1      -0.571  -3.749   4.509  0.00  0.00    -0.057 A 
ATOM      3  C3  UNL d   1      -1.277  -4.701   5.254  0.00  0.00     0.033 A 
ATOM      4  C4  UNL d   1      -0.593  -5.657   5.998  0.00  0.00    -0.042 A 
ATOM      5  C5  UNL d   1       0.797  -5.656   5.999  0.00  0.00     0.033 A 
ATOM      6  C6  UNL d   1       1.496  -4.699   5.258  0.00  0.00    -0.057 A 
ENDROOT
BRANCH   1   7
ATOM      7  N   UNL d   1       1.587  -2.854   3.718  0.00  0.00    -0.732 N 
ATOM      8  C   UNL d   1       1.138  -1.504   3.453  0.00  0.00     0.284 C 
ATOM      9  H3  UNL d   1       2.585  -2.931   3.905  0.00  0.00     0.395 HD
ENDBRANCH   1   7
TORSDOF 1
ENDMDL
