MODEL 1
REMARK minimizedAffinity 0.227417663
REMARK minimizedRMSD -1
REMARK  1 active torsions:
REMARK  status: ('A' for Active; 'I' for Inactive)
REMARK    1  A    between atoms: N_2  and  C1_3 
ROOT
ATOM      1  C1  UNL d   1      -5.005   5.854   3.609  0.00  0.00     0.143 A 
ATOM      2  C2  UNL d   1      -5.267   5.849   2.235  0.00  0.00    -0.057 A 
ATOM      3  C3  UNL d   1      -4.228   5.878   1.297  0.00  0.00     0.033 A 
ATOM      4  C4  UNL d   1      -2.904   5.941   1.719  0.00  0.00    -0.042 A 
ATOM      5  C5  UNL d   1      -2.620   5.972   3.080  0.00  0.00     0.033 A 
ATOM      6  C6  UNL d   1      -3.662   5.936   4.012  0.00  0.00    -0.057 A 
ENDROOT
BRANCH   1   7
ATOM      7  N   UNL d   1      -5.996   5.926   4.591  0.00  0.00    -0.732 N 
ATOM      8  C   UNL d   1      -5.643   5.996   5.992  0.00  0.00     0.284 C 
ATOM      9  H3  UNL d   1      -6.763   6.540   4.324  0.00  0.00     0.395 HD
ENDBRANCH   1   7
TORSDOF 1
ENDMDL
