MODEL 1
REMARK minimizedAffinity 2.28347945
REMARK minimizedRMSD -1
REMARK  1 active torsions:
REMARK  status: ('A' for Active; 'I' for Inactive)
REMARK    1  A    between atoms: N_2  and  C1_3 
ROOT
ATOM      1  C1  UNL d   1       5.006   1.574  -0.419  0.00  0.00     0.143 A 
ATOM      2  C2  UNL d   1       5.728   0.685   0.385  0.00  0.00    -0.057 A 
ATOM      3  C3  UNL d   1       5.083  -0.315   1.123  0.00  0.00     0.033 A 
ATOM      4  C4  UNL d   1       3.697  -0.426   1.092  0.00  0.00    -0.042 A 
ATOM      5  C5  UNL d   1       2.957   0.462   0.320  0.00  0.00     0.033 A 
ATOM      6  C6  UNL d   1       3.608   1.455  -0.420  0.00  0.00    -0.057 A 
ENDROOT
BRANCH   1   7
ATOM      7  N   UNL d   1       5.581   2.651  -1.098  0.00  0.00    -0.732 N 
ATOM      8  C   UNL d   1       5.951   3.857  -0.389  0.00  0.00     0.284 C 
ATOM      9  H3  UNL d   1       6.260   2.353  -1.795  0.00  0.00     0.395 HD
ENDBRANCH   1   7
TORSDOF 1
ENDMDL
