MODEL 1
REMARK minimizedAffinity -2.31889606
REMARK minimizedRMSD -1
REMARK  0 active torsions:
REMARK  status: ('A' for Active; 'I' for Inactive)
ROOT
ATOM      1  C   UNL d   1       3.381  -2.265  -5.251  0.00  0.00     0.078 C 
ATOM      2  C1  UNL d   1       3.288  -3.571  -4.520  0.00  0.00    -0.077 A 
ATOM      3  C2  UNL d   1       3.473  -4.787  -5.189  0.00  0.00    -0.001 A 
ATOM      4  C3  UNL d   1       3.374  -5.995  -4.498  0.00  0.00     0.003 A 
ATOM      5  C4  UNL d   1       3.090  -6.000  -3.134  0.00  0.00    -0.005 A 
ATOM      6  C5  UNL d   1       2.903  -4.795  -2.459  0.00  0.00     0.003 A 
ATOM      7  C6  UNL d   1       3.001  -3.586  -3.149  0.00  0.00    -0.001 A 
ENDROOT
TORSDOF 0
ENDMDL
