MODEL 1
REMARK minimizedAffinity 0.0599033572
REMARK minimizedRMSD -1
REMARK  0 active torsions:
REMARK  status: ('A' for Active; 'I' for Inactive)
ROOT
ATOM      1  C   UNL d   1       0.393  -1.431  -0.348  0.00  0.00     0.078 C 
ATOM      2  C1  UNL d   1       0.408   0.026   0.006  0.00  0.00    -0.077 A 
ATOM      3  C2  UNL d   1      -0.672   0.857  -0.316  0.00  0.00    -0.001 A 
ATOM      4  C3  UNL d   1      -0.640   2.214   0.011  0.00  0.00     0.003 A 
ATOM      5  C4  UNL d   1       0.469   2.751   0.661  0.00  0.00    -0.005 A 
ATOM      6  C5  UNL d   1       1.549   1.932   0.984  0.00  0.00     0.003 A 
ATOM      7  C6  UNL d   1       1.519   0.575   0.658  0.00  0.00    -0.001 A 
ENDROOT
TORSDOF 0
ENDMDL
