MODEL 1
REMARK minimizedAffinity -2.78847647
REMARK minimizedRMSD -1
REMARK  0 active torsions:
REMARK  status: ('A' for Active; 'I' for Inactive)
ROOT
ATOM      1  C   UNL d   1       1.570   1.259  -0.525  0.00  0.00     0.078 C 
ATOM      2  C1  UNL d   1       0.392   0.416  -0.137  0.00  0.00    -0.077 A 
ATOM      3  C2  UNL d   1      -0.908   0.935  -0.169  0.00  0.00    -0.001 A 
ATOM      4  C3  UNL d   1      -1.994   0.141   0.205  0.00  0.00     0.003 A 
ATOM      5  C4  UNL d   1      -1.791  -1.175   0.614  0.00  0.00    -0.005 A 
ATOM      6  C5  UNL d   1      -0.500  -1.700   0.651  0.00  0.00     0.003 A 
ATOM      7  C6  UNL d   1       0.587  -0.908   0.278  0.00  0.00    -0.001 A 
ENDROOT
TORSDOF 0
ENDMDL
