MODEL 1
REMARK minimizedAffinity -4.35562563
REMARK minimizedRMSD -1
REMARK  0 active torsions:
REMARK  status: ('A' for Active; 'I' for Inactive)
ROOT
ATOM      1  C   UNL d   1       2.846  -0.988   2.128  0.00  0.00     0.078 C 
ATOM      2  C1  UNL d   1       1.826  -0.127   1.444  0.00  0.00    -0.077 A 
ATOM      3  C2  UNL d   1       2.146   1.164   1.010  0.00  0.00    -0.001 A 
ATOM      4  C3  UNL d   1       1.184   1.958   0.384  0.00  0.00     0.003 A 
ATOM      5  C4  UNL d   1      -0.106   1.470   0.188  0.00  0.00    -0.005 A 
ATOM      6  C5  UNL d   1      -0.436   0.186   0.619  0.00  0.00     0.003 A 
ATOM      7  C6  UNL d   1       0.526  -0.609   1.245  0.00  0.00    -0.001 A 
ENDROOT
TORSDOF 0
ENDMDL
