MODEL 1
REMARK minimizedAffinity 1.82394981
REMARK minimizedRMSD -1
REMARK  0 active torsions:
REMARK  status: ('A' for Active; 'I' for Inactive)
ROOT
ATOM      1  C   UNL d   1       3.361  -4.124  -6.000  0.00  0.00     0.078 C 
ATOM      2  C1  UNL d   1       4.107  -3.014  -5.321  0.00  0.00    -0.077 A 
ATOM      3  C2  UNL d   1       3.787  -2.623  -4.015  0.00  0.00    -0.001 A 
ATOM      4  C3  UNL d   1       4.484  -1.582  -3.399  0.00  0.00     0.003 A 
ATOM      5  C4  UNL d   1       5.504  -0.923  -4.082  0.00  0.00    -0.005 A 
ATOM      6  C5  UNL d   1       5.828  -1.304  -5.383  0.00  0.00     0.003 A 
ATOM      7  C6  UNL d   1       5.133  -2.344  -6.000  0.00  0.00    -0.001 A 
ENDROOT
TORSDOF 0
ENDMDL
