MODEL 1
REMARK minimizedAffinity 7.81610727
REMARK minimizedRMSD -1
REMARK  0 active torsions:
REMARK  status: ('A' for Active; 'I' for Inactive)
ROOT
ATOM      1  C   UNL d   1      -2.255  -1.310  -3.209  0.00  0.00     0.078 C 
ATOM      2  C1  UNL d   1      -2.957  -0.056  -3.638  0.00  0.00    -0.077 A 
ATOM      3  C2  UNL d   1      -3.562   0.037  -4.897  0.00  0.00    -0.001 A 
ATOM      4  C3  UNL d   1      -4.204   1.213  -5.287  0.00  0.00     0.003 A 
ATOM      5  C4  UNL d   1      -4.246   2.307  -4.424  0.00  0.00    -0.005 A 
ATOM      6  C5  UNL d   1      -3.644   2.224  -3.169  0.00  0.00     0.003 A 
ATOM      7  C6  UNL d   1      -3.002   1.048  -2.778  0.00  0.00    -0.001 A 
ENDROOT
TORSDOF 0
ENDMDL
