MODEL 1
REMARK minimizedAffinity 0.354775012
REMARK minimizedRMSD -1
REMARK  0 active torsions:
REMARK  status: ('A' for Active; 'I' for Inactive)
ROOT
ATOM      1  C   UNL d   1      -1.750  -1.854  -0.094  0.00  0.00     0.078 C 
ATOM      2  C1  UNL d   1      -2.247  -1.415  -1.439  0.00  0.00    -0.077 A 
ATOM      3  C2  UNL d   1      -2.268  -2.299  -2.525  0.00  0.00    -0.001 A 
ATOM      4  C3  UNL d   1      -2.724  -1.873  -3.773  0.00  0.00     0.003 A 
ATOM      5  C4  UNL d   1      -3.162  -0.562  -3.948  0.00  0.00    -0.005 A 
ATOM      6  C5  UNL d   1      -3.144   0.326  -2.874  0.00  0.00     0.003 A 
ATOM      7  C6  UNL d   1      -2.688  -0.098  -1.625  0.00  0.00    -0.001 A 
ENDROOT
TORSDOF 0
ENDMDL
