MODEL 1
REMARK minimizedAffinity 2.8850863
REMARK minimizedRMSD -1
REMARK  0 active torsions:
REMARK  status: ('A' for Active; 'I' for Inactive)
ROOT
ATOM      1  C   UNL d   1       4.863   1.896  -5.707  0.00  0.00     0.078 C 
ATOM      2  C1  UNL d   1       4.816   0.400  -5.799  0.00  0.00    -0.077 A 
ATOM      3  C2  UNL d   1       5.992  -0.354  -5.881  0.00  0.00    -0.001 A 
ATOM      4  C3  UNL d   1       5.933  -1.745  -5.977  0.00  0.00     0.003 A 
ATOM      5  C4  UNL d   1       4.700  -2.394  -5.992  0.00  0.00    -0.005 A 
ATOM      6  C5  UNL d   1       3.524  -1.651  -5.913  0.00  0.00     0.003 A 
ATOM      7  C6  UNL d   1       3.581  -0.260  -5.818  0.00  0.00    -0.001 A 
ENDROOT
TORSDOF 0
ENDMDL
