MODEL 1
REMARK minimizedAffinity -2.21259451
REMARK minimizedRMSD -1
REMARK  0 active torsions:
REMARK  status: ('A' for Active; 'I' for Inactive)
ROOT
ATOM      1  C   UNL d   1       3.329  -5.201  -5.743  0.00  0.00     0.078 C 
ATOM      2  C1  UNL d   1       4.002  -3.861  -5.782  0.00  0.00    -0.077 A 
ATOM      3  C2  UNL d   1       5.385  -3.754  -5.974  0.00  0.00    -0.001 A 
ATOM      4  C3  UNL d   1       5.999  -2.501  -5.998  0.00  0.00     0.003 A 
ATOM      5  C4  UNL d   1       5.238  -1.345  -5.830  0.00  0.00    -0.005 A 
ATOM      6  C5  UNL d   1       3.862  -1.442  -5.636  0.00  0.00     0.003 A 
ATOM      7  C6  UNL d   1       3.246  -2.695  -5.612  0.00  0.00    -0.001 A 
ENDROOT
TORSDOF 0
ENDMDL
