MODEL 1
REMARK minimizedAffinity 0.274230778
REMARK minimizedRMSD -1
REMARK  1 active torsions:
REMARK  status: ('A' for Active; 'I' for Inactive)
REMARK    1  A    between atoms: C3_4  and  O_7 
ROOT
ATOM      1  C   UNL d   1      -2.386   2.369  -2.362  0.00  0.00    -0.033 A 
ATOM      2  C1  UNL d   1      -1.111   1.867  -2.091  0.00  0.00     0.039 A 
ATOM      3  C2  UNL d   1       0.019   2.545  -2.551  0.00  0.00    -0.080 A 
ATOM      4  C3  UNL d   1      -0.138   3.722  -3.278  0.00  0.00     0.150 A 
ATOM      5  C4  UNL d   1      -1.405   4.229  -3.547  0.00  0.00    -0.007 A 
ATOM      6  C5  UNL d   1      -2.533   3.550  -3.088  0.00  0.00     0.039 A 
ENDROOT
BRANCH   4   7
ATOM      7  O   UNL d   1       0.935   4.416  -3.751  0.00  0.00    -0.526 OA
ATOM      8  H5  UNL d   1       1.744   3.933  -3.513  0.00  0.00     0.418 HD
ENDBRANCH   4   7
TORSDOF 1
ENDMDL
