MODEL 1
REMARK minimizedAffinity -1.23064911
REMARK minimizedRMSD -1
REMARK  1 active torsions:
REMARK  status: ('A' for Active; 'I' for Inactive)
REMARK    1  A    between atoms: C3_4  and  O_7 
ROOT
ATOM      1  C   UNL d   1       3.040  -1.660   1.719  0.00  0.00    -0.033 A 
ATOM      2  C1  UNL d   1       2.077  -2.629   1.431  0.00  0.00     0.039 A 
ATOM      3  C2  UNL d   1       1.121  -2.393   0.441  0.00  0.00    -0.080 A 
ATOM      4  C3  UNL d   1       1.140  -1.187  -0.253  0.00  0.00     0.150 A 
ATOM      5  C4  UNL d   1       2.099  -0.219   0.026  0.00  0.00    -0.007 A 
ATOM      6  C5  UNL d   1       3.053  -0.456   1.015  0.00  0.00     0.039 A 
ENDROOT
BRANCH   4   7
ATOM      7  O   UNL d   1       0.225  -0.909  -1.225  0.00  0.00    -0.526 OA
ATOM      8  H5  UNL d   1      -0.393  -1.657  -1.288  0.00  0.00     0.418 HD
ENDBRANCH   4   7
TORSDOF 1
ENDMDL
