MODEL 1
REMARK minimizedAffinity 4.78263187
REMARK minimizedRMSD -1
REMARK  1 active torsions:
REMARK  status: ('A' for Active; 'I' for Inactive)
REMARK    1  A    between atoms: C3_4  and  O_7 
ROOT
ATOM      1  C   UNL d   1      -0.693   1.182  -1.593  0.00  0.00    -0.033 A 
ATOM      2  C1  UNL d   1      -2.082   1.041  -1.566  0.00  0.00     0.039 A 
ATOM      3  C2  UNL d   1      -2.899   2.079  -2.019  0.00  0.00    -0.080 A 
ATOM      4  C3  UNL d   1      -2.317   3.249  -2.496  0.00  0.00     0.150 A 
ATOM      5  C4  UNL d   1      -0.934   3.395  -2.530  0.00  0.00    -0.007 A 
ATOM      6  C5  UNL d   1      -0.119   2.359  -2.076  0.00  0.00     0.039 A 
ENDROOT
BRANCH   4   7
ATOM      7  O   UNL d   1      -3.074   4.291  -2.944  0.00  0.00    -0.526 OA
ATOM      8  H5  UNL d   1      -4.011   4.059  -2.835  0.00  0.00     0.418 HD
ENDBRANCH   4   7
TORSDOF 1
ENDMDL
