MODEL 1
REMARK minimizedAffinity 6.00039577
REMARK minimizedRMSD -1
REMARK  1 active torsions:
REMARK  status: ('A' for Active; 'I' for Inactive)
REMARK    1  A    between atoms: C3_4  and  O_7 
ROOT
ATOM      1  C   UNL d   1       2.679  -3.195  -0.038  0.00  0.00    -0.033 A 
ATOM      2  C1  UNL d   1       2.133  -1.922  -0.210  0.00  0.00     0.039 A 
ATOM      3  C2  UNL d   1       1.227  -1.417   0.724  0.00  0.00    -0.080 A 
ATOM      4  C3  UNL d   1       0.877  -2.193   1.826  0.00  0.00     0.150 A 
ATOM      5  C4  UNL d   1       1.421  -3.461   2.006  0.00  0.00    -0.007 A 
ATOM      6  C5  UNL d   1       2.325  -3.964   1.071  0.00  0.00     0.039 A 
ENDROOT
BRANCH   4   7
ATOM      7  O   UNL d   1      -0.007  -1.745   2.762  0.00  0.00    -0.526 OA
ATOM      8  H5  UNL d   1      -0.322  -0.866   2.492  0.00  0.00     0.418 HD
ENDBRANCH   4   7
TORSDOF 1
ENDMDL
