MODEL 1
REMARK minimizedAffinity 4.96489668
REMARK minimizedRMSD -1
REMARK  1 active torsions:
REMARK  status: ('A' for Active; 'I' for Inactive)
REMARK    1  A    between atoms: C3_4  and  O_7 
ROOT
ATOM      1  C   UNL d   1       1.283   2.197   3.306  0.00  0.00    -0.033 A 
ATOM      2  C1  UNL d   1       1.935   2.448   2.097  0.00  0.00     0.039 A 
ATOM      3  C2  UNL d   1       2.252   1.393   1.240  0.00  0.00    -0.080 A 
ATOM      4  C3  UNL d   1       1.912   0.092   1.603  0.00  0.00     0.150 A 
ATOM      5  C4  UNL d   1       1.259  -0.165   2.803  0.00  0.00    -0.007 A 
ATOM      6  C5  UNL d   1       0.944   0.890   3.658  0.00  0.00     0.039 A 
ENDROOT
BRANCH   4   7
ATOM      7  O   UNL d   1       2.205  -0.971   0.801  0.00  0.00    -0.526 OA
ATOM      8  H5  UNL d   1       2.682  -0.645   0.019  0.00  0.00     0.418 HD
ENDBRANCH   4   7
TORSDOF 1
ENDMDL
