MODEL 1
REMARK minimizedAffinity 2.02040482
REMARK minimizedRMSD -1
REMARK  1 active torsions:
REMARK  status: ('A' for Active; 'I' for Inactive)
REMARK    1  A    between atoms: C3_4  and  O_7 
ROOT
ATOM      1  C   UNL d   1       0.246  -0.704   1.759  0.00  0.00    -0.033 A 
ATOM      2  C1  UNL d   1       0.156  -1.782   2.642  0.00  0.00     0.039 A 
ATOM      3  C2  UNL d   1       0.755  -3.002   2.322  0.00  0.00    -0.080 A 
ATOM      4  C3  UNL d   1       1.440  -3.130   1.117  0.00  0.00     0.150 A 
ATOM      5  C4  UNL d   1       1.537  -2.060   0.234  0.00  0.00    -0.007 A 
ATOM      6  C5  UNL d   1       0.937  -0.843   0.555  0.00  0.00     0.039 A 
ENDROOT
BRANCH   4   7
ATOM      7  O   UNL d   1       2.037  -4.302   0.758  0.00  0.00    -0.526 OA
ATOM      8  H5  UNL d   1       1.863  -4.961   1.451  0.00  0.00     0.418 HD
ENDBRANCH   4   7
TORSDOF 1
ENDMDL
