MODEL 1
REMARK minimizedAffinity -1.07990026
REMARK minimizedRMSD -1
REMARK  1 active torsions:
REMARK  status: ('A' for Active; 'I' for Inactive)
REMARK    1  A    between atoms: C3_4  and  O_7 
ROOT
ATOM      1  C   UNL d   1      -1.175  -0.703   3.527  0.00  0.00    -0.033 A 
ATOM      2  C1  UNL d   1      -1.796  -1.164   2.365  0.00  0.00     0.039 A 
ATOM      3  C2  UNL d   1      -1.042  -1.786   1.368  0.00  0.00    -0.080 A 
ATOM      4  C3  UNL d   1       0.330  -1.941   1.545  0.00  0.00     0.150 A 
ATOM      5  C4  UNL d   1       0.955  -1.487   2.701  0.00  0.00    -0.007 A 
ATOM      6  C5  UNL d   1       0.201  -0.865   3.696  0.00  0.00     0.039 A 
ENDROOT
BRANCH   4   7
ATOM      7  O   UNL d   1       1.108  -2.537   0.597  0.00  0.00    -0.526 OA
ATOM      8  H5  UNL d   1       0.545  -2.774  -0.159  0.00  0.00     0.418 HD
ENDBRANCH   4   7
TORSDOF 1
ENDMDL
