MODEL 1
REMARK minimizedAffinity 2.50093794
REMARK minimizedRMSD -1
REMARK  1 active torsions:
REMARK  status: ('A' for Active; 'I' for Inactive)
REMARK    1  A    between atoms: C3_4  and  O_7 
ROOT
ATOM      1  C   UNL d   1      -0.462  -1.712   2.576  0.00  0.00    -0.033 A 
ATOM      2  C1  UNL d   1      -1.767  -2.093   2.258  0.00  0.00     0.039 A 
ATOM      3  C2  UNL d   1      -2.804  -1.160   2.321  0.00  0.00    -0.080 A 
ATOM      4  C3  UNL d   1      -2.523   0.149   2.701  0.00  0.00     0.150 A 
ATOM      5  C4  UNL d   1      -1.225   0.537   3.015  0.00  0.00    -0.007 A 
ATOM      6  C5  UNL d   1      -0.191  -0.396   2.953  0.00  0.00     0.039 A 
ENDROOT
BRANCH   4   7
ATOM      7  O   UNL d   1      -3.503   1.094   2.781  0.00  0.00    -0.526 OA
ATOM      8  H5  UNL d   1      -4.353   0.675   2.563  0.00  0.00     0.418 HD
ENDBRANCH   4   7
TORSDOF 1
ENDMDL
