MODEL 1
REMARK minimizedAffinity -2.3422718
REMARK minimizedRMSD -1
REMARK  1 active torsions:
REMARK  status: ('A' for Active; 'I' for Inactive)
REMARK    1  A    between atoms: C3_4  and  O_7 
ROOT
ATOM      1  C   UNL d   1       1.755  -1.088   0.042  0.00  0.00    -0.033 A 
ATOM      2  C1  UNL d   1       2.291  -0.057   0.816  0.00  0.00     0.039 A 
ATOM      3  C2  UNL d   1       1.704   1.210   0.798  0.00  0.00    -0.080 A 
ATOM      4  C3  UNL d   1       0.582   1.432   0.004  0.00  0.00     0.150 A 
ATOM      5  C4  UNL d   1       0.041   0.408  -0.767  0.00  0.00    -0.007 A 
ATOM      6  C5  UNL d   1       0.629  -0.856  -0.749  0.00  0.00     0.039 A 
ENDROOT
BRANCH   4   7
ATOM      7  O   UNL d   1      -0.023   2.652  -0.050  0.00  0.00    -0.526 OA
ATOM      8  H5  UNL d   1       0.477   3.269   0.511  0.00  0.00     0.418 HD
ENDBRANCH   4   7
TORSDOF 1
ENDMDL
