MODEL 1
REMARK minimizedAffinity -3.03690815
REMARK minimizedRMSD -1
REMARK  1 active torsions:
REMARK  status: ('A' for Active; 'I' for Inactive)
REMARK    1  A    between atoms: C3_4  and  O_7 
ROOT
ATOM      1  C   UNL d   1       0.905   0.199   1.903  0.00  0.00    -0.033 A 
ATOM      2  C1  UNL d   1      -0.203   0.135   1.056  0.00  0.00     0.039 A 
ATOM      3  C2  UNL d   1      -0.050  -0.290  -0.265  0.00  0.00    -0.080 A 
ATOM      4  C3  UNL d   1       1.213  -0.648  -0.726  0.00  0.00     0.150 A 
ATOM      5  C4  UNL d   1       2.321  -0.591   0.114  0.00  0.00    -0.007 A 
ATOM      6  C5  UNL d   1       2.167  -0.166   1.433  0.00  0.00     0.039 A 
ENDROOT
BRANCH   4   7
ATOM      7  O   UNL d   1       1.412  -1.065  -2.009  0.00  0.00    -0.526 OA
ATOM      8  H5  UNL d   1       0.563  -1.026  -2.480  0.00  0.00     0.418 HD
ENDBRANCH   4   7
TORSDOF 1
ENDMDL
