MODEL 1
REMARK minimizedAffinity -1.98696125
REMARK minimizedRMSD -1
REMARK  1 active torsions:
REMARK  status: ('A' for Active; 'I' for Inactive)
REMARK    1  A    between atoms: C3_4  and  O_7 
ROOT
ATOM      1  C   UNL d   1      -0.264   4.018  -2.143  0.00  0.00    -0.033 A 
ATOM      2  C1  UNL d   1      -0.465   2.916  -2.977  0.00  0.00     0.039 A 
ATOM      3  C2  UNL d   1      -0.458   1.625  -2.445  0.00  0.00    -0.080 A 
ATOM      4  C3  UNL d   1      -0.250   1.450  -1.080  0.00  0.00     0.150 A 
ATOM      5  C4  UNL d   1      -0.052   2.543  -0.243  0.00  0.00    -0.007 A 
ATOM      6  C5  UNL d   1      -0.059   3.831  -0.776  0.00  0.00     0.039 A 
ENDROOT
BRANCH   4   7
ATOM      7  O   UNL d   1      -0.229   0.209  -0.516  0.00  0.00    -0.526 OA
ATOM      8  H5  UNL d   1      -0.350  -0.451  -1.219  0.00  0.00     0.418 HD
ENDBRANCH   4   7
TORSDOF 1
ENDMDL
