MODEL 1
REMARK minimizedAffinity -4.09149647
REMARK minimizedRMSD -1
REMARK  1 active torsions:
REMARK  status: ('A' for Active; 'I' for Inactive)
REMARK    1  A    between atoms: C3_4  and  O_7 
ROOT
ATOM      1  C   UNL d   1      -3.407  -1.101  -1.210  0.00  0.00    -0.033 A 
ATOM      2  C1  UNL d   1      -3.068  -1.094   0.144  0.00  0.00     0.039 A 
ATOM      3  C2  UNL d   1      -1.814  -0.633   0.550  0.00  0.00    -0.080 A 
ATOM      4  C3  UNL d   1      -0.910  -0.182  -0.407  0.00  0.00     0.150 A 
ATOM      5  C4  UNL d   1      -1.242  -0.182  -1.758  0.00  0.00    -0.007 A 
ATOM      6  C5  UNL d   1      -2.494  -0.644  -2.161  0.00  0.00     0.039 A 
ENDROOT
BRANCH   4   7
ATOM      7  O   UNL d   1       0.328   0.273  -0.060  0.00  0.00    -0.526 OA
ATOM      8  H5  UNL d   1       0.428   0.188   0.902  0.00  0.00     0.418 HD
ENDBRANCH   4   7
TORSDOF 1
ENDMDL
