MODEL 1
REMARK minimizedAffinity -5.05170059
REMARK minimizedRMSD -1
REMARK  1 active torsions:
REMARK  status: ('A' for Active; 'I' for Inactive)
REMARK    1  A    between atoms: C3_4  and  O_7 
ROOT
ATOM      1  C   UNL d   1       1.825   0.030   2.032  0.00  0.00    -0.033 A 
ATOM      2  C1  UNL d   1       1.100  -1.061   2.516  0.00  0.00     0.039 A 
ATOM      3  C2  UNL d   1      -0.158  -1.355   1.985  0.00  0.00    -0.080 A 
ATOM      4  C3  UNL d   1      -0.677  -0.553   0.973  0.00  0.00     0.150 A 
ATOM      5  C4  UNL d   1       0.042   0.533   0.484  0.00  0.00    -0.007 A 
ATOM      6  C5  UNL d   1       1.297   0.826   1.016  0.00  0.00     0.039 A 
ENDROOT
BRANCH   4   7
ATOM      7  O   UNL d   1      -1.902  -0.798   0.428  0.00  0.00    -0.526 OA
ATOM      8  H5  UNL d   1      -2.295  -1.561   0.883  0.00  0.00     0.418 HD
ENDBRANCH   4   7
TORSDOF 1
ENDMDL
