MODEL 1
REMARK minimizedAffinity -1.93256843
REMARK minimizedRMSD -1
REMARK  1 active torsions:
REMARK  status: ('A' for Active; 'I' for Inactive)
REMARK    1  A    between atoms: C3_4  and  O_7 
ROOT
ATOM      1  C   UNL d   1       0.541   0.572   0.089  0.00  0.00    -0.033 A 
ATOM      2  C1  UNL d   1       1.656   0.023   0.725  0.00  0.00     0.039 A 
ATOM      3  C2  UNL d   1       1.489  -0.835   1.813  0.00  0.00    -0.080 A 
ATOM      4  C3  UNL d   1       0.203  -1.137   2.254  0.00  0.00     0.150 A 
ATOM      5  C4  UNL d   1      -0.912  -0.597   1.622  0.00  0.00    -0.007 A 
ATOM      6  C5  UNL d   1      -0.743   0.261   0.537  0.00  0.00     0.039 A 
ENDROOT
BRANCH   4   7
ATOM      7  O   UNL d   1      -0.010  -1.967   3.315  0.00  0.00    -0.526 OA
ATOM      8  H5  UNL d   1       0.853  -2.241   3.669  0.00  0.00     0.418 HD
ENDBRANCH   4   7
TORSDOF 1
ENDMDL
