MODEL 1
REMARK minimizedAffinity -2.48779941
REMARK minimizedRMSD -1
REMARK  1 active torsions:
REMARK  status: ('A' for Active; 'I' for Inactive)
REMARK    1  A    between atoms: C3_4  and  O_7 
ROOT
ATOM      1  C   UNL d   1      -0.127   0.293   0.571  0.00  0.00    -0.033 A 
ATOM      2  C1  UNL d   1       1.073  -0.336   0.908  0.00  0.00     0.039 A 
ATOM      3  C2  UNL d   1       1.848  -0.940  -0.084  0.00  0.00    -0.080 A 
ATOM      4  C3  UNL d   1       1.413  -0.908  -1.406  0.00  0.00     0.150 A 
ATOM      5  C4  UNL d   1       0.220  -0.280  -1.749  0.00  0.00    -0.007 A 
ATOM      6  C5  UNL d   1      -0.553   0.322  -0.757  0.00  0.00     0.039 A 
ENDROOT
BRANCH   4   7
ATOM      7  O   UNL d   1       2.133  -1.488  -2.408  0.00  0.00    -0.526 OA
ATOM      8  H5  UNL d   1       2.919  -1.908  -2.019  0.00  0.00     0.418 HD
ENDBRANCH   4   7
TORSDOF 1
ENDMDL
