MODEL 1
REMARK minimizedAffinity 2.22393465
REMARK minimizedRMSD -1
REMARK  0 active torsions:
REMARK  status: ('A' for Active; 'I' for Inactive)
ROOT
ATOM      1  C4' PXY d   1      -2.668   0.428  -2.306  0.00  0.00     0.077 C 
ATOM      2  C1' PXY d   1       0.673   5.144  -2.434  0.00  0.00     0.077 C 
ATOM      3  C1  PXY d   1      -0.201   3.906  -2.388  0.00  0.00    -0.082 A 
ATOM      4  C2  PXY d   1      -0.364   3.179  -3.481  0.00  0.00     0.003 A 
ATOM      5  C3  PXY d   1      -1.177   2.075  -3.465  0.00  0.00     0.003 A 
ATOM      6  C4  PXY d   1      -1.787   1.680  -2.304  0.00  0.00    -0.082 A 
ATOM      7  C5  PXY d   1      -1.617   2.411  -1.182  0.00  0.00     0.003 A 
ATOM      8  C6  PXY d   1      -0.821   3.552  -1.230  0.00  0.00     0.003 A 
ENDROOT
TORSDOF 0
ENDMDL
