MODEL 1
REMARK minimizedAffinity 2.50902414
REMARK minimizedRMSD -1
REMARK  0 active torsions:
REMARK  status: ('A' for Active; 'I' for Inactive)
ROOT
ATOM      1  C4' PXY d   1       1.656  -3.931  -0.931  0.00  0.00     0.077 C 
ATOM      2  C1' PXY d   1      -0.601   0.576   1.899  0.00  0.00     0.077 C 
ATOM      3  C1  PXY d   1      -0.002  -0.598   1.149  0.00  0.00    -0.082 A 
ATOM      4  C2  PXY d   1      -0.628  -1.764   1.153  0.00  0.00     0.003 A 
ATOM      5  C3  PXY d   1      -0.084  -2.844   0.506  0.00  0.00     0.003 A 
ATOM      6  C4  PXY d   1       1.084  -2.716  -0.196  0.00  0.00    -0.082 A 
ATOM      7  C5  PXY d   1       1.723  -1.527  -0.213  0.00  0.00     0.003 A 
ATOM      8  C6  PXY d   1       1.176  -0.453   0.483  0.00  0.00     0.003 A 
ENDROOT
TORSDOF 0
ENDMDL
