MODEL 1
REMARK minimizedAffinity 0.134743646
REMARK minimizedRMSD -1
REMARK  0 active torsions:
REMARK  status: ('A' for Active; 'I' for Inactive)
ROOT
ATOM      1  C4' PXY d   1       3.624  -1.143  -0.011  0.00  0.00     0.077 C 
ATOM      2  C1' PXY d   1      -2.036  -2.012   0.780  0.00  0.00     0.077 C 
ATOM      3  C1  PXY d   1      -0.553  -1.772   0.577  0.00  0.00    -0.082 A 
ATOM      4  C2  PXY d   1       0.123  -2.533  -0.268  0.00  0.00     0.003 A 
ATOM      5  C3  PXY d   1       1.470  -2.350  -0.441  0.00  0.00     0.003 A 
ATOM      6  C4  PXY d   1       2.123  -1.343   0.219  0.00  0.00    -0.082 A 
ATOM      7  C5  PXY d   1       1.438  -0.556   1.075  0.00  0.00     0.003 A 
ATOM      8  C6  PXY d   1       0.079  -0.784   1.267  0.00  0.00     0.003 A 
ENDROOT
TORSDOF 0
ENDMDL
