MODEL 1
REMARK minimizedAffinity -2.78919911
REMARK minimizedRMSD -1
REMARK  0 active torsions:
REMARK  status: ('A' for Active; 'I' for Inactive)
ROOT
ATOM      1  C4' PXY d   1      -1.059   0.914   2.192  0.00  0.00     0.077 C 
ATOM      2  C1' PXY d   1       1.217  -3.552  -0.687  0.00  0.00     0.077 C 
ATOM      3  C1  PXY d   1       0.631  -2.379   0.074  0.00  0.00    -0.082 A 
ATOM      4  C2  PXY d   1      -0.679  -2.291   0.233  0.00  0.00     0.003 A 
ATOM      5  C3  PXY d   1      -1.228  -1.221   0.892  0.00  0.00     0.003 A 
ATOM      6  C4  PXY d   1      -0.423  -0.257   1.439  0.00  0.00    -0.082 A 
ATOM      7  C5  PXY d   1       0.916  -0.346   1.290  0.00  0.00     0.003 A 
ATOM      8  C6  PXY d   1       1.450  -1.419   0.583  0.00  0.00     0.003 A 
ENDROOT
TORSDOF 0
ENDMDL
