MODEL 1
REMARK minimizedAffinity -0.518399358
REMARK minimizedRMSD -1
REMARK  0 active torsions:
REMARK  status: ('A' for Active; 'I' for Inactive)
ROOT
ATOM      1  C4' PXY d   1       2.248  -0.375   2.013  0.00  0.00     0.077 C 
ATOM      2  C1' PXY d   1       0.092  -4.440  -1.487  0.00  0.00     0.077 C 
ATOM      3  C1  PXY d   1       0.669  -3.381  -0.569  0.00  0.00    -0.082 A 
ATOM      4  C2  PXY d   1      -0.143  -2.648   0.176  0.00  0.00     0.003 A 
ATOM      5  C3  PXY d   1       0.359  -1.664   0.988  0.00  0.00     0.003 A 
ATOM      6  C4  PXY d   1       1.710  -1.463   1.078  0.00  0.00    -0.082 A 
ATOM      7  C5  PXY d   1       2.546  -2.213   0.329  0.00  0.00     0.003 A 
ATOM      8  C6  PXY d   1       2.014  -3.179  -0.519  0.00  0.00     0.003 A 
ENDROOT
TORSDOF 0
ENDMDL
