MODEL 1
REMARK minimizedAffinity -2.6639297
REMARK minimizedRMSD -1
REMARK  0 active torsions:
REMARK  status: ('A' for Active; 'I' for Inactive)
ROOT
ATOM      1  C4' PXY d   1       3.047  -3.456  -0.532  0.00  0.00     0.077 C 
ATOM      2  C1' PXY d   1      -1.548  -0.551   1.431  0.00  0.00     0.077 C 
ATOM      3  C1  PXY d   1      -0.337  -1.301   0.915  0.00  0.00    -0.082 A 
ATOM      4  C2  PXY d   1      -0.493  -2.491   0.358  0.00  0.00     0.003 A 
ATOM      5  C3  PXY d   1       0.596  -3.198  -0.085  0.00  0.00     0.003 A 
ATOM      6  C4  PXY d   1       1.851  -2.658  -0.006  0.00  0.00    -0.082 A 
ATOM      7  C5  PXY d   1       2.018  -1.440   0.552  0.00  0.00     0.003 A 
ATOM      8  C6  PXY d   1       0.904  -0.756   1.033  0.00  0.00     0.003 A 
ENDROOT
TORSDOF 0
ENDMDL
