MODEL 1
REMARK minimizedAffinity 0.694168448
REMARK minimizedRMSD -1
REMARK  0 active torsions:
REMARK  status: ('A' for Active; 'I' for Inactive)
ROOT
ATOM      1  C4' PXY d   1       1.443  -3.660  -0.899  0.00  0.00     0.077 C 
ATOM      2  C1' PXY d   1      -0.960   0.694   2.047  0.00  0.00     0.077 C 
ATOM      3  C1  PXY d   1      -0.319  -0.440   1.273  0.00  0.00    -0.082 A 
ATOM      4  C2  PXY d   1      -1.085  -1.339   0.676  0.00  0.00     0.003 A 
ATOM      5  C3  PXY d   1      -0.522  -2.390  -0.002  0.00  0.00     0.003 A 
ATOM      6  C4  PXY d   1       0.839  -2.492  -0.114  0.00  0.00    -0.082 A 
ATOM      7  C5  PXY d   1       1.627  -1.573   0.483  0.00  0.00     0.003 A 
ATOM      8  C6  PXY d   1       1.036  -0.537   1.201  0.00  0.00     0.003 A 
ENDROOT
TORSDOF 0
ENDMDL
