MODEL 1
REMARK minimizedAffinity 6.04116869
REMARK minimizedRMSD -1
REMARK  0 active torsions:
REMARK  status: ('A' for Active; 'I' for Inactive)
ROOT
ATOM      1  C4' PXY d   1       3.364  -0.065   2.949  0.00  0.00     0.077 C 
ATOM      2  C1' PXY d   1      -1.099  -1.181  -0.552  0.00  0.00     0.077 C 
ATOM      3  C1  PXY d   1       0.079  -0.894   0.358  0.00  0.00    -0.082 A 
ATOM      4  C2  PXY d   1      -0.115  -0.768   1.660  0.00  0.00     0.003 A 
ATOM      5  C3  PXY d   1       0.935  -0.477   2.493  0.00  0.00     0.003 A 
ATOM      6  C4  PXY d   1       2.205  -0.364   1.994  0.00  0.00    -0.082 A 
ATOM      7  C5  PXY d   1       2.413  -0.501   0.667  0.00  0.00     0.003 A 
ATOM      8  C6  PXY d   1       1.328  -0.756  -0.166  0.00  0.00     0.003 A 
ENDROOT
TORSDOF 0
ENDMDL
