MODEL 1
REMARK minimizedAffinity 3.28537035
REMARK minimizedRMSD -1
REMARK  0 active torsions:
REMARK  status: ('A' for Active; 'I' for Inactive)
ROOT
ATOM      1  C4' PXY d   1       3.010   0.074   1.528  0.00  0.00     0.077 C 
ATOM      2  C1' PXY d   1      -2.492  -1.409   0.552  0.00  0.00     0.077 C 
ATOM      3  C1  PXY d   1      -1.045  -1.032   0.805  0.00  0.00    -0.082 A 
ATOM      4  C2  PXY d   1      -0.764  -0.012   1.600  0.00  0.00     0.003 A 
ATOM      5  C3  PXY d   1       0.537   0.362   1.814  0.00  0.00     0.003 A 
ATOM      6  C4  PXY d   1       1.564  -0.348   1.251  0.00  0.00    -0.082 A 
ATOM      7  C5  PXY d   1       1.286  -1.396   0.448  0.00  0.00     0.003 A 
ATOM      8  C6  PXY d   1      -0.043  -1.734   0.210  0.00  0.00     0.003 A 
ENDROOT
TORSDOF 0
ENDMDL
