MODEL 1
REMARK minimizedAffinity 2.56179023
REMARK minimizedRMSD -1
REMARK  0 active torsions:
REMARK  status: ('A' for Active; 'I' for Inactive)
ROOT
ATOM      1  C4' PXY d   1      -1.222  -0.488   0.703  0.00  0.00     0.077 C 
ATOM      2  C1' PXY d   1       4.357  -0.407   2.215  0.00  0.00     0.077 C 
ATOM      3  C1  PXY d   1       2.897  -0.425   1.807  0.00  0.00    -0.082 A 
ATOM      4  C2  PXY d   1       1.958  -0.288   2.729  0.00  0.00     0.003 A 
ATOM      5  C3  PXY d   1       0.632  -0.334   2.381  0.00  0.00     0.003 A 
ATOM      6  C4  PXY d   1       0.265  -0.467   1.069  0.00  0.00    -0.082 A 
ATOM      7  C5  PXY d   1       1.217  -0.596   0.121  0.00  0.00     0.003 A 
ATOM      8  C6  PXY d   1       2.557  -0.589   0.500  0.00  0.00     0.003 A 
ENDROOT
TORSDOF 0
ENDMDL
