MODEL 1
REMARK minimizedAffinity 0.169306293
REMARK minimizedRMSD -1
REMARK  0 active torsions:
REMARK  status: ('A' for Active; 'I' for Inactive)
ROOT
ATOM      1  C4' PXY d   1      -1.098  -0.653   0.736  0.00  0.00     0.077 C 
ATOM      2  C1' PXY d   1       3.398  -3.863  -0.966  0.00  0.00     0.077 C 
ATOM      3  C1  PXY d   1       2.227  -3.012  -0.514  0.00  0.00    -0.082 A 
ATOM      4  C2  PXY d   1       1.036  -3.568  -0.361  0.00  0.00     0.003 A 
ATOM      5  C3  PXY d   1      -0.041  -2.807   0.016  0.00  0.00     0.003 A 
ATOM      6  C4  PXY d   1       0.115  -1.475   0.291  0.00  0.00    -0.082 A 
ATOM      7  C5  PXY d   1       1.329  -0.903   0.148  0.00  0.00     0.003 A 
ATOM      8  C6  PXY d   1       2.401  -1.684  -0.276  0.00  0.00     0.003 A 
ENDROOT
TORSDOF 0
ENDMDL
