MODEL 1
REMARK minimizedAffinity 0.221778765
REMARK minimizedRMSD -1
REMARK  0 active torsions:
REMARK  status: ('A' for Active; 'I' for Inactive)
ROOT
ATOM      1  C4' PXY d   1      -1.305   0.332   0.801  0.00  0.00     0.077 C 
ATOM      2  C1' PXY d   1       2.256  -4.152   0.005  0.00  0.00     0.077 C 
ATOM      3  C1  PXY d   1       1.332  -2.969   0.220  0.00  0.00    -0.082 A 
ATOM      4  C2  PXY d   1       0.022  -3.159   0.249  0.00  0.00     0.003 A 
ATOM      5  C3  PXY d   1      -0.829  -2.097   0.410  0.00  0.00     0.003 A 
ATOM      6  C4  PXY d   1      -0.334  -0.834   0.597  0.00  0.00    -0.082 A 
ATOM      7  C5  PXY d   1       1.001  -0.634   0.579  0.00  0.00     0.003 A 
ATOM      8  C6  PXY d   1       1.847  -1.719   0.373  0.00  0.00     0.003 A 
ENDROOT
TORSDOF 0
ENDMDL
