MODEL 1
REMARK minimizedAffinity -2.22548461
REMARK minimizedRMSD -1
REMARK  0 active torsions:
REMARK  status: ('A' for Active; 'I' for Inactive)
ROOT
ATOM      1  C4' PXY d   1       3.913  -1.801  -0.028  0.00  0.00     0.077 C 
ATOM      2  C1' PXY d   1      -1.824  -1.835   0.678  0.00  0.00     0.077 C 
ATOM      3  C1  PXY d   1      -0.320  -1.814   0.489  0.00  0.00    -0.082 A 
ATOM      4  C2  PXY d   1       0.322  -2.939   0.222  0.00  0.00     0.003 A 
ATOM      5  C3  PXY d   1       1.686  -2.943   0.080  0.00  0.00     0.003 A 
ATOM      6  C4  PXY d   1       2.394  -1.774   0.161  0.00  0.00    -0.082 A 
ATOM      7  C5  PXY d   1       1.745  -0.620   0.423  0.00  0.00     0.003 A 
ATOM      8  C6  PXY d   1       0.365  -0.644   0.604  0.00  0.00     0.003 A 
ENDROOT
TORSDOF 0
ENDMDL
