MODEL 1
REMARK minimizedAffinity -3.41979599
REMARK minimizedRMSD -1
REMARK  0 active torsions:
REMARK  status: ('A' for Active; 'I' for Inactive)
ROOT
ATOM      1  C4' PXY d   1       2.288  -3.594  -0.473  0.00  0.00     0.077 C 
ATOM      2  C1' PXY d   1      -1.417   0.342   1.575  0.00  0.00     0.077 C 
ATOM      3  C1  PXY d   1      -0.437  -0.681   1.034  0.00  0.00    -0.082 A 
ATOM      4  C2  PXY d   1      -0.877  -1.867   0.647  0.00  0.00     0.003 A 
ATOM      5  C3  PXY d   1       0.000  -2.815   0.186  0.00  0.00     0.003 A 
ATOM      6  C4  PXY d   1       1.334  -2.528   0.070  0.00  0.00    -0.082 A 
ATOM      7  C5  PXY d   1       1.789  -1.316   0.453  0.00  0.00     0.003 A 
ATOM      8  C6  PXY d   1       0.888  -0.382   0.957  0.00  0.00     0.003 A 
ENDROOT
TORSDOF 0
ENDMDL
