MODEL 1
REMARK minimizedAffinity 9.16348076
REMARK minimizedRMSD -1
REMARK  0 active torsions:
REMARK  status: ('A' for Active; 'I' for Inactive)
ROOT
ATOM      1  C4' PXY d   1       3.516  -1.682   0.919  0.00  0.00     0.077 C 
ATOM      2  C1' PXY d   1      -2.177  -0.992   0.194  0.00  0.00     0.077 C 
ATOM      3  C1  PXY d   1      -0.683  -1.161   0.388  0.00  0.00    -0.082 A 
ATOM      4  C2  PXY d   1      -0.043  -2.118  -0.263  0.00  0.00     0.003 A 
ATOM      5  C3  PXY d   1       1.302  -2.305  -0.075  0.00  0.00     0.003 A 
ATOM      6  C4  PXY d   1       2.009  -1.469   0.747  0.00  0.00    -0.082 A 
ATOM      7  C5  PXY d   1       1.365  -0.484   1.407  0.00  0.00     0.003 A 
ATOM      8  C6  PXY d   1      -0.008  -0.337   1.234  0.00  0.00     0.003 A 
ENDROOT
TORSDOF 0
ENDMDL
