MODEL 1
REMARK minimizedAffinity -3.49461031
REMARK minimizedRMSD -1
REMARK  0 active torsions:
REMARK  status: ('A' for Active; 'I' for Inactive)
ROOT
ATOM      1  C4' PXY d   1       2.973  -3.882  -0.759  0.00  0.00     0.077 C 
ATOM      2  C1' PXY d   1      -0.938  -0.073   1.142  0.00  0.00     0.077 C 
ATOM      3  C1  PXY d   1       0.095  -1.062   0.638  0.00  0.00    -0.082 A 
ATOM      4  C2  PXY d   1      -0.250  -2.324   0.440  0.00  0.00     0.003 A 
ATOM      5  C3  PXY d   1       0.679  -3.238   0.016  0.00  0.00     0.003 A 
ATOM      6  C4  PXY d   1       1.961  -2.846  -0.260  0.00  0.00    -0.082 A 
ATOM      7  C5  PXY d   1       2.318  -1.558  -0.071  0.00  0.00     0.003 A 
ATOM      8  C6  PXY d   1       1.371  -0.654   0.400  0.00  0.00     0.003 A 
ENDROOT
TORSDOF 0
ENDMDL
