MODEL 1
REMARK minimizedAffinity -3.80166578
REMARK minimizedRMSD -1
REMARK  0 active torsions:
REMARK  status: ('A' for Active; 'I' for Inactive)
ROOT
ATOM      1  C4' PXY d   1       3.651  -3.761  -0.904  0.00  0.00     0.077 C 
ATOM      2  C1' PXY d   1      -0.549  -0.227   0.907  0.00  0.00     0.077 C 
ATOM      3  C1  PXY d   1       0.546  -1.164   0.438  0.00  0.00    -0.082 A 
ATOM      4  C2  PXY d   1       1.756  -0.686   0.196  0.00  0.00     0.003 A 
ATOM      5  C3  PXY d   1       2.750  -1.514  -0.260  0.00  0.00     0.003 A 
ATOM      6  C4  PXY d   1       2.517  -2.854  -0.419  0.00  0.00    -0.082 A 
ATOM      7  C5  PXY d   1       1.288  -3.350  -0.164  0.00  0.00     0.003 A 
ATOM      8  C6  PXY d   1       0.282  -2.486   0.258  0.00  0.00     0.003 A 
ENDROOT
TORSDOF 0
ENDMDL
