MODEL 1
REMARK minimizedAffinity 0.999426007
REMARK minimizedRMSD -1
REMARK  0 active torsions:
REMARK  status: ('A' for Active; 'I' for Inactive)
ROOT
ATOM      1  C4' PXY d   1       0.223  -2.166  -1.979  0.00  0.00     0.077 C 
ATOM      2  C1' PXY d   1       1.137  -0.832   3.570  0.00  0.00     0.077 C 
ATOM      3  C1  PXY d   1       0.893  -1.194   2.119  0.00  0.00    -0.082 A 
ATOM      4  C2  PXY d   1       1.576  -0.578   1.167  0.00  0.00     0.003 A 
ATOM      5  C3  PXY d   1       1.345  -0.870  -0.152  0.00  0.00     0.003 A 
ATOM      6  C4  PXY d   1       0.444  -1.840  -0.500  0.00  0.00    -0.082 A 
ATOM      7  C5  PXY d   1      -0.249  -2.481   0.466  0.00  0.00     0.003 A 
ATOM      8  C6  PXY d   1      -0.030  -2.141   1.797  0.00  0.00     0.003 A 
ENDROOT
TORSDOF 0
ENDMDL
