MODEL 1
REMARK minimizedAffinity -0.201456144
REMARK minimizedRMSD -1
REMARK  0 active torsions:
REMARK  status: ('A' for Active; 'I' for Inactive)
ROOT
ATOM      1  C4' PXY d   1       2.075  -3.929  -0.144  0.00  0.00     0.077 C 
ATOM      2  C1' PXY d   1      -1.023   0.732   1.302  0.00  0.00     0.077 C 
ATOM      3  C1  PXY d   1      -0.203  -0.483   0.915  0.00  0.00    -0.082 A 
ATOM      4  C2  PXY d   1      -0.702  -1.694   1.100  0.00  0.00     0.003 A 
ATOM      5  C3  PXY d   1       0.038  -2.805   0.784  0.00  0.00     0.003 A 
ATOM      6  C4  PXY d   1       1.280  -2.673   0.224  0.00  0.00    -0.082 A 
ATOM      7  C5  PXY d   1       1.792  -1.441   0.022  0.00  0.00     0.003 A 
ATOM      8  C6  PXY d   1       1.041  -0.327   0.387  0.00  0.00     0.003 A 
ENDROOT
TORSDOF 0
ENDMDL
