MODEL 1
REMARK minimizedAffinity 1.80313182
REMARK minimizedRMSD -1
REMARK  0 active torsions:
REMARK  status: ('A' for Active; 'I' for Inactive)
ROOT
ATOM      1  C4' PXY d   1       3.650  -2.954  -0.631  0.00  0.00     0.077 C 
ATOM      2  C1' PXY d   1      -1.279  -0.332   0.868  0.00  0.00     0.077 C 
ATOM      3  C1  PXY d   1       0.009  -1.031   0.479  0.00  0.00    -0.082 A 
ATOM      4  C2  PXY d   1       1.138  -0.343   0.431  0.00  0.00     0.003 A 
ATOM      5  C3  PXY d   1       2.305  -0.952   0.050  0.00  0.00     0.003 A 
ATOM      6  C4  PXY d   1       2.328  -2.292  -0.234  0.00  0.00    -0.082 A 
ATOM      7  C5  PXY d   1       1.182  -3.003  -0.177  0.00  0.00     0.003 A 
ATOM      8  C6  PXY d   1      -0.001  -2.357   0.172  0.00  0.00     0.003 A 
ENDROOT
TORSDOF 0
ENDMDL
