MODEL 1
REMARK minimizedAffinity -2.35901809
REMARK minimizedRMSD -1
REMARK  1 active torsions:
REMARK  status: ('A' for Active; 'I' for Inactive)
REMARK    1  A    between atoms: C1_2  and  C2_3 
ROOT
ATOM      1  C2  UNL d   1       0.006   0.261   0.318  0.00  0.00    -0.076 A 
ATOM      2  C3  UNL d   1      -1.106   0.726  -0.405  0.00  0.00     0.004 A 
ATOM      3  C4  UNL d   1      -2.150   1.392   0.234  0.00  0.00    -0.003 A 
ATOM      4  C5  UNL d   1      -2.099   1.605   1.607  0.00  0.00     0.000 A 
ATOM      5  C6  UNL d   1      -0.995   1.166   2.338  0.00  0.00     0.000 A 
ATOM      6  C7  UNL d   1       0.074   0.507   1.706  0.00  0.00    -0.073 A 
ATOM      7  C8  UNL d   1       1.237   0.051   2.544  0.00  0.00     0.078 C 
ENDROOT
BRANCH   1   8
ATOM      8  C1  UNL d   1       1.096  -0.479  -0.424  0.00  0.00     0.053 C 
ATOM      9  C   UNL d   1       0.542  -1.475  -1.431  0.00  0.00     0.018 C 
ENDBRANCH   1   8
TORSDOF 1
ENDMDL
