MODEL 1
REMARK minimizedAffinity -3.68441987
REMARK minimizedRMSD -1
REMARK  1 active torsions:
REMARK  status: ('A' for Active; 'I' for Inactive)
REMARK    1  A    between atoms: C1_2  and  C2_3 
ROOT
ATOM      1  C2  UNL d   1       0.044  -0.006   0.092  0.00  0.00    -0.076 A 
ATOM      2  C3  UNL d   1      -1.043   0.384  -0.709  0.00  0.00     0.004 A 
ATOM      3  C4  UNL d   1      -2.097   1.125  -0.176  0.00  0.00    -0.003 A 
ATOM      4  C5  UNL d   1      -2.080   1.488   1.166  0.00  0.00     0.000 A 
ATOM      5  C6  UNL d   1      -1.001   1.125   1.971  0.00  0.00     0.000 A 
ATOM      6  C7  UNL d   1       0.077   0.392   1.446  0.00  0.00    -0.073 A 
ATOM      7  C8  UNL d   1       1.212   0.022   2.361  0.00  0.00     0.078 C 
ENDROOT
BRANCH   1   8
ATOM      8  C1  UNL d   1       1.145  -0.832  -0.534  0.00  0.00     0.053 C 
ATOM      9  C   UNL d   1       0.608  -2.004  -1.340  0.00  0.00     0.018 C 
ENDBRANCH   1   8
TORSDOF 1
ENDMDL
