MODEL 1
REMARK minimizedAffinity -3.10979033
REMARK minimizedRMSD -1
REMARK  1 active torsions:
REMARK  status: ('A' for Active; 'I' for Inactive)
REMARK    1  A    between atoms: C1_2  and  C2_3 
ROOT
ATOM      1  C2  UNL d   1       0.752  -1.633  -1.174  0.00  0.00    -0.076 A 
ATOM      2  C3  UNL d   1       0.031  -1.263  -2.323  0.00  0.00     0.004 A 
ATOM      3  C4  UNL d   1      -0.352  -2.214  -3.267  0.00  0.00    -0.003 A 
ATOM      4  C5  UNL d   1      -0.020  -3.551  -3.078  0.00  0.00     0.000 A 
ATOM      5  C6  UNL d   1       0.680  -3.939  -1.936  0.00  0.00     0.000 A 
ATOM      6  C7  UNL d   1       1.059  -2.995  -0.966  0.00  0.00    -0.073 A 
ATOM      7  C8  UNL d   1       1.817  -3.468   0.244  0.00  0.00     0.078 C 
ENDROOT
BRANCH   1   8
ATOM      8  C1  UNL d   1       1.163  -0.554  -0.198  0.00  0.00     0.053 C 
ATOM      9  C   UNL d   1      -0.027   0.201   0.372  0.00  0.00     0.018 C 
ENDBRANCH   1   8
TORSDOF 1
ENDMDL
