MODEL 1
REMARK minimizedAffinity -4.16088247
REMARK minimizedRMSD -1
REMARK  1 active torsions:
REMARK  status: ('A' for Active; 'I' for Inactive)
REMARK    1  A    between atoms: C1_2  and  C2_3 
ROOT
ATOM      1  C2  UNL d   1      -0.331   1.007  -0.024  0.00  0.00    -0.076 A 
ATOM      2  C3  UNL d   1      -1.090   0.306   0.929  0.00  0.00     0.004 A 
ATOM      3  C4  UNL d   1      -1.917   0.980   1.826  0.00  0.00    -0.003 A 
ATOM      4  C5  UNL d   1      -1.999   2.367   1.784  0.00  0.00     0.000 A 
ATOM      5  C6  UNL d   1      -1.266   3.079   0.834  0.00  0.00     0.000 A 
ATOM      6  C7  UNL d   1      -0.441   2.413  -0.088  0.00  0.00    -0.073 A 
ATOM      7  C8  UNL d   1       0.331   3.231  -1.087  0.00  0.00     0.078 C 
ENDROOT
BRANCH   1   8
ATOM      8  C1  UNL d   1       0.568   0.224  -0.953  0.00  0.00     0.053 C 
ATOM      9  C   UNL d   1       0.525  -1.272  -0.682  0.00  0.00     0.018 C 
ENDBRANCH   1   8
TORSDOF 1
ENDMDL
