MODEL 1
REMARK minimizedAffinity -5.34142971
REMARK minimizedRMSD -1
REMARK  1 active torsions:
REMARK  status: ('A' for Active; 'I' for Inactive)
REMARK    1  A    between atoms: C1_2  and  C2_3 
ROOT
ATOM      1  C2  UNL d   1      -0.498   1.346   1.005  0.00  0.00    -0.076 A 
ATOM      2  C3  UNL d   1      -0.145   0.009   1.256  0.00  0.00     0.004 A 
ATOM      3  C4  UNL d   1       0.570  -0.732   0.317  0.00  0.00    -0.003 A 
ATOM      4  C5  UNL d   1       0.946  -0.148  -0.887  0.00  0.00     0.000 A 
ATOM      5  C6  UNL d   1       0.620   1.183  -1.145  0.00  0.00     0.000 A 
ATOM      6  C7  UNL d   1      -0.087   1.949  -0.203  0.00  0.00    -0.073 A 
ATOM      7  C8  UNL d   1      -0.418   3.379  -0.536  0.00  0.00     0.078 C 
ENDROOT
BRANCH   1   8
ATOM      8  C1  UNL d   1      -1.298   2.092   2.049  0.00  0.00     0.053 C 
ATOM      9  C   UNL d   1      -2.685   2.475   1.557  0.00  0.00     0.018 C 
ENDBRANCH   1   8
TORSDOF 1
ENDMDL
