MODEL 1
REMARK minimizedAffinity -5.69118929
REMARK minimizedRMSD -1
REMARK  1 active torsions:
REMARK  status: ('A' for Active; 'I' for Inactive)
REMARK    1  A    between atoms: C1_2  and  C2_3 
ROOT
ATOM      1  C2  UNL d   1      -0.218   0.957   0.397  0.00  0.00    -0.076 A 
ATOM      2  C3  UNL d   1       0.229   1.565  -0.789  0.00  0.00     0.004 A 
ATOM      3  C4  UNL d   1      -0.134   2.873  -1.105  0.00  0.00    -0.003 A 
ATOM      4  C5  UNL d   1      -0.951   3.594  -0.240  0.00  0.00     0.000 A 
ATOM      5  C6  UNL d   1      -1.389   3.012   0.949  0.00  0.00     0.000 A 
ATOM      6  C7  UNL d   1      -1.018   1.700   1.290  0.00  0.00    -0.073 A 
ATOM      7  C8  UNL d   1      -1.524   1.120   2.582  0.00  0.00     0.078 C 
ENDROOT
BRANCH   1   8
ATOM      8  C1  UNL d   1       0.187  -0.474   0.673  0.00  0.00     0.053 C 
ATOM      9  C   UNL d   1       0.871  -1.127  -0.518  0.00  0.00     0.018 C 
ENDBRANCH   1   8
TORSDOF 1
ENDMDL
