MODEL 1
REMARK minimizedAffinity -4.11757278
REMARK minimizedRMSD -1
REMARK  1 active torsions:
REMARK  status: ('A' for Active; 'I' for Inactive)
REMARK    1  A    between atoms: C1_2  and  C2_3 
ROOT
ATOM      1  C2  UNL d   1      -0.015   0.999  -0.111  0.00  0.00    -0.076 A 
ATOM      2  C3  UNL d   1      -0.446   0.286   1.021  0.00  0.00     0.004 A 
ATOM      3  C4  UNL d   1      -0.988   0.947   2.122  0.00  0.00    -0.003 A 
ATOM      4  C5  UNL d   1      -1.108   2.332   2.108  0.00  0.00     0.000 A 
ATOM      5  C6  UNL d   1      -0.702   3.054   0.987  0.00  0.00     0.000 A 
ATOM      6  C7  UNL d   1      -0.169   2.402  -0.138  0.00  0.00    -0.073 A 
ATOM      7  C8  UNL d   1       0.259   3.231  -1.318  0.00  0.00     0.078 C 
ENDROOT
BRANCH   1   8
ATOM      8  C1  UNL d   1       0.590   0.231  -1.264  0.00  0.00     0.053 C 
ATOM      9  C   UNL d   1       1.163  -1.110  -0.834  0.00  0.00     0.018 C 
ENDBRANCH   1   8
TORSDOF 1
ENDMDL
