MODEL 1
REMARK minimizedAffinity -4.75088692
REMARK minimizedRMSD -1
REMARK  1 active torsions:
REMARK  status: ('A' for Active; 'I' for Inactive)
REMARK    1  A    between atoms: C1_2  and  C2_3 
ROOT
ATOM      1  C2  UNL d   1      -0.675   1.211  -0.008  0.00  0.00    -0.076 A 
ATOM      2  C3  UNL d   1      -0.179   0.075   0.655  0.00  0.00     0.004 A 
ATOM      3  C4  UNL d   1       1.057  -0.472   0.314  0.00  0.00    -0.003 A 
ATOM      4  C5  UNL d   1       1.818   0.109  -0.694  0.00  0.00     0.000 A 
ATOM      5  C6  UNL d   1       1.349   1.247  -1.350  0.00  0.00     0.000 A 
ATOM      6  C7  UNL d   1       0.113   1.820  -1.008  0.00  0.00    -0.073 A 
ATOM      7  C8  UNL d   1      -0.347   3.044  -1.752  0.00  0.00     0.078 C 
ENDROOT
BRANCH   1   8
ATOM      8  C1  UNL d   1      -2.034   1.743   0.386  0.00  0.00     0.053 C 
ATOM      9  C   UNL d   1      -1.973   2.656   1.601  0.00  0.00     0.018 C 
ENDBRANCH   1   8
TORSDOF 1
ENDMDL
