MODEL 1
REMARK minimizedAffinity -4.34698391
REMARK minimizedRMSD -1
REMARK  1 active torsions:
REMARK  status: ('A' for Active; 'I' for Inactive)
REMARK    1  A    between atoms: C1_2  and  C2_3 
ROOT
ATOM      1  C2  UNL d   1      -0.807   1.240   0.771  0.00  0.00    -0.076 A 
ATOM      2  C3  UNL d   1      -0.964   2.523   1.323  0.00  0.00     0.004 A 
ATOM      3  C4  UNL d   1      -0.350   3.633   0.745  0.00  0.00    -0.003 A 
ATOM      4  C5  UNL d   1       0.431   3.477  -0.396  0.00  0.00     0.000 A 
ATOM      5  C6  UNL d   1       0.582   2.214  -0.967  0.00  0.00     0.000 A 
ATOM      6  C7  UNL d   1      -0.043   1.088  -0.406  0.00  0.00    -0.073 A 
ATOM      7  C8  UNL d   1       0.159  -0.251  -1.060  0.00  0.00     0.078 C 
ENDROOT
BRANCH   1   8
ATOM      8  C1  UNL d   1      -1.475   0.070   1.457  0.00  0.00     0.053 C 
ATOM      9  C   UNL d   1      -0.523  -0.695   2.363  0.00  0.00     0.018 C 
ENDBRANCH   1   8
TORSDOF 1
ENDMDL
