MODEL 1
REMARK minimizedAffinity -5.62024975
REMARK minimizedRMSD -1
REMARK  1 active torsions:
REMARK  status: ('A' for Active; 'I' for Inactive)
REMARK    1  A    between atoms: C1_2  and  C2_3 
ROOT
ATOM      1  C2  UNL d   1       0.511  -1.988  -0.851  0.00  0.00    -0.076 A 
ATOM      2  C3  UNL d   1       0.159  -1.296  -2.023  0.00  0.00     0.004 A 
ATOM      3  C4  UNL d   1      -0.037  -1.974  -3.225  0.00  0.00    -0.003 A 
ATOM      4  C5  UNL d   1       0.115  -3.355  -3.274  0.00  0.00     0.000 A 
ATOM      5  C6  UNL d   1       0.447  -4.060  -2.118  0.00  0.00     0.000 A 
ATOM      6  C7  UNL d   1       0.632  -3.393  -0.894  0.00  0.00    -0.073 A 
ATOM      7  C8  UNL d   1       0.995  -4.202   0.321  0.00  0.00     0.078 C 
ENDROOT
BRANCH   1   8
ATOM      8  C1  UNL d   1       0.738  -1.196   0.417  0.00  0.00     0.053 C 
ATOM      9  C   UNL d   1      -0.086   0.082   0.461  0.00  0.00     0.018 C 
ENDBRANCH   1   8
TORSDOF 1
ENDMDL
