MODEL 1
REMARK minimizedAffinity -4.54749775
REMARK minimizedRMSD -1
REMARK  1 active torsions:
REMARK  status: ('A' for Active; 'I' for Inactive)
REMARK    1  A    between atoms: C1_2  and  C2_3 
ROOT
ATOM      1  C2  UNL d   1      -0.187   0.571   0.171  0.00  0.00    -0.076 A 
ATOM      2  C3  UNL d   1      -0.925   1.446  -0.646  0.00  0.00     0.004 A 
ATOM      3  C4  UNL d   1      -1.927   2.254  -0.111  0.00  0.00    -0.003 A 
ATOM      4  C5  UNL d   1      -2.207   2.202   1.250  0.00  0.00     0.000 A 
ATOM      5  C6  UNL d   1      -1.473   1.353   2.078  0.00  0.00     0.000 A 
ATOM      6  C7  UNL d   1      -0.449   0.544   1.558  0.00  0.00    -0.073 A 
ATOM      7  C8  UNL d   1       0.307  -0.357   2.496  0.00  0.00     0.078 C 
ENDROOT
BRANCH   1   8
ATOM      8  C1  UNL d   1       0.868  -0.301  -0.470  0.00  0.00     0.053 C 
ATOM      9  C   UNL d   1       0.302  -1.612  -0.992  0.00  0.00     0.018 C 
ENDBRANCH   1   8
TORSDOF 1
ENDMDL
