MODEL 1
REMARK minimizedAffinity -3.604316
REMARK minimizedRMSD -1
REMARK  1 active torsions:
REMARK  status: ('A' for Active; 'I' for Inactive)
REMARK    1  A    between atoms: C1_2  and  C2_3 
ROOT
ATOM      1  C2  UNL d   1      -0.399   1.220   0.515  0.00  0.00    -0.076 A 
ATOM      2  C3  UNL d   1      -0.410   1.794  -0.768  0.00  0.00     0.004 A 
ATOM      3  C4  UNL d   1       0.111   1.108  -1.865  0.00  0.00    -0.003 A 
ATOM      4  C5  UNL d   1       0.649  -0.162  -1.696  0.00  0.00     0.000 A 
ATOM      5  C6  UNL d   1       0.652  -0.754  -0.433  0.00  0.00     0.000 A 
ATOM      6  C7  UNL d   1       0.117  -0.083   0.680  0.00  0.00    -0.073 A 
ATOM      7  C8  UNL d   1       0.151  -0.767   2.019  0.00  0.00     0.078 C 
ENDROOT
BRANCH   1   8
ATOM      8  C1  UNL d   1      -0.953   2.022   1.671  0.00  0.00     0.053 C 
ATOM      9  C   UNL d   1      -2.155   2.864   1.274  0.00  0.00     0.018 C 
ENDBRANCH   1   8
TORSDOF 1
ENDMDL
