MODEL 1
REMARK minimizedAffinity 15.1308508
REMARK minimizedRMSD -1
REMARK  2 active torsions:
REMARK  status: ('A' for Active; 'I' for Inactive)
REMARK    1  A    between atoms: C2'_3  and  C1'_4 
REMARK    2  A    between atoms: C1'_4  and  C1_5 
ROOT
ATOM      1  C1  I4B d   1      -1.905   2.975  -1.260  0.00  0.00    -0.075 A 
ATOM      2  C2  I4B d   1      -0.823   3.219  -2.069  0.00  0.00     0.003 A 
ATOM      3  C3  I4B d   1       0.490   3.154  -1.543  0.00  0.00     0.002 A 
ATOM      4  C4  I4B d   1       0.672   2.894  -0.200  0.00  0.00    -0.004 A 
ATOM      5  C5  I4B d   1      -0.425   2.624   0.614  0.00  0.00     0.002 A 
ATOM      6  C6  I4B d   1      -1.721   2.653   0.078  0.00  0.00     0.003 A 
ENDROOT
BRANCH   1   7
ATOM      7  C1' I4B d   1      -3.279   3.084  -1.841  0.00  0.00     0.060 C 
BRANCH   7   8
ATOM      8  C2' I4B d   1      -3.647   1.735  -2.425  0.00  0.00    -0.013 C 
ATOM      9  C4' I4B d   1      -5.043   1.332  -2.029  0.00  0.00     0.013 C 
ATOM     10  C3' I4B d   1      -3.511   1.824  -3.916  0.00  0.00     0.013 C 
ENDBRANCH   7   8
ENDBRANCH   1   7
TORSDOF 2
ENDMDL
