MODEL 1
REMARK minimizedAffinity 14.100771
REMARK minimizedRMSD -1
REMARK  2 active torsions:
REMARK  status: ('A' for Active; 'I' for Inactive)
REMARK    1  A    between atoms: C2'_3  and  C1'_4 
REMARK    2  A    between atoms: C1'_4  and  C1_5 
ROOT
ATOM      1  C1  I4B d   1      -1.557   3.341   1.135  0.00  0.00    -0.075 A 
ATOM      2  C2  I4B d   1      -0.795   2.284   1.567  0.00  0.00     0.003 A 
ATOM      3  C3  I4B d   1       0.211   1.742   0.731  0.00  0.00     0.002 A 
ATOM      4  C4  I4B d   1       0.387   2.251  -0.539  0.00  0.00    -0.004 A 
ATOM      5  C5  I4B d   1      -0.371   3.338  -0.967  0.00  0.00     0.002 A 
ATOM      6  C6  I4B d   1      -1.341   3.895  -0.121  0.00  0.00     0.003 A 
ENDROOT
BRANCH   1   7
ATOM      7  C1' I4B d   1      -2.633   3.868   2.030  0.00  0.00     0.060 C 
BRANCH   7   8
ATOM      8  C2' I4B d   1      -2.694   5.372   1.852  0.00  0.00    -0.013 C 
ATOM      9  C4' I4B d   1      -3.929   5.782   1.093  0.00  0.00     0.013 C 
ATOM     10  C3' I4B d   1      -2.662   6.000   3.214  0.00  0.00     0.013 C 
ENDBRANCH   7   8
ENDBRANCH   1   7
TORSDOF 2
ENDMDL
