MODEL 1
REMARK minimizedAffinity 14.242384
REMARK minimizedRMSD -1
REMARK  2 active torsions:
REMARK  status: ('A' for Active; 'I' for Inactive)
REMARK    1  A    between atoms: C2'_3  and  C1'_4 
REMARK    2  A    between atoms: C1'_4  and  C1_5 
ROOT
ATOM      1  C1  I4B d   1       0.230   2.444  -0.184  0.00  0.00    -0.075 A 
ATOM      2  C2  I4B d   1      -0.838   2.753  -0.990  0.00  0.00     0.003 A 
ATOM      3  C3  I4B d   1      -0.809   3.915  -1.798  0.00  0.00     0.002 A 
ATOM      4  C4  I4B d   1       0.279   4.761  -1.732  0.00  0.00    -0.004 A 
ATOM      5  C5  I4B d   1       1.371   4.435  -0.932  0.00  0.00     0.002 A 
ATOM      6  C6  I4B d   1       1.351   3.263  -0.162  0.00  0.00     0.003 A 
ENDROOT
BRANCH   1   7
ATOM      7  C1' I4B d   1       0.151   1.226   0.681  0.00  0.00     0.060 C 
BRANCH   7   8
ATOM      8  C2' I4B d   1       1.487   1.061   1.377  0.00  0.00    -0.013 C 
ATOM      9  C4' I4B d   1       1.364   1.300   2.858  0.00  0.00     0.013 C 
ATOM     10  C3' I4B d   1       1.989  -0.323   1.091  0.00  0.00     0.013 C 
ENDBRANCH   7   8
ENDBRANCH   1   7
TORSDOF 2
ENDMDL
