MODEL 1
REMARK minimizedAffinity 6.80457211
REMARK minimizedRMSD -1
REMARK  2 active torsions:
REMARK  status: ('A' for Active; 'I' for Inactive)
REMARK    1  A    between atoms: C1_2  and  C2_3 
REMARK    2  A    between atoms: C2_3  and  C3_4 
ROOT
ATOM      1  C3  UNL d   1      -3.263   2.904   1.052  0.00  0.00    -0.075 A 
ATOM      2  C4  UNL d   1      -4.191   2.199   0.272  0.00  0.00     0.002 A 
ATOM      3  C5  UNL d   1      -5.551   2.507   0.339  0.00  0.00     0.002 A 
ATOM      4  C6  UNL d   1      -5.999   3.514   1.191  0.00  0.00    -0.004 A 
ATOM      5  C7  UNL d   1      -5.088   4.209   1.983  0.00  0.00     0.002 A 
ATOM      6  C8  UNL d   1      -3.727   3.906   1.915  0.00  0.00     0.002 A 
ENDROOT
BRANCH   1   7
ATOM      7  C2  UNL d   1      -1.787   2.596   0.963  0.00  0.00     0.056 C 
BRANCH   7   8
ATOM      8  C1  UNL d   1      -1.124   3.089  -0.327  0.00  0.00     0.007 C 
ATOM      9  C   UNL d   1       0.359   2.753  -0.406  0.00  0.00     0.009 C 
ENDBRANCH   7   8
ENDBRANCH   1   7
TORSDOF 2
ENDMDL
