MODEL 1
REMARK minimizedAffinity 9.25843906
REMARK minimizedRMSD -1
REMARK  2 active torsions:
REMARK  status: ('A' for Active; 'I' for Inactive)
REMARK    1  A    between atoms: C1_2  and  C2_3 
REMARK    2  A    between atoms: C2_3  and  C3_4 
ROOT
ATOM      1  C3  UNL d   1      -3.575   3.240   1.142  0.00  0.00    -0.075 A 
ATOM      2  C4  UNL d   1      -4.792   2.722   0.675  0.00  0.00     0.002 A 
ATOM      3  C5  UNL d   1      -5.995   3.361   0.975  0.00  0.00     0.002 A 
ATOM      4  C6  UNL d   1      -5.999   4.517   1.752  0.00  0.00    -0.004 A 
ATOM      5  C7  UNL d   1      -4.798   5.031   2.235  0.00  0.00     0.002 A 
ATOM      6  C8  UNL d   1      -3.592   4.397   1.933  0.00  0.00     0.002 A 
ENDROOT
BRANCH   1   7
ATOM      7  C2  UNL d   1      -2.266   2.571   0.797  0.00  0.00     0.056 C 
BRANCH   7   8
ATOM      8  C1  UNL d   1      -1.148   3.546   0.416  0.00  0.00     0.007 C 
ATOM      9  C   UNL d   1       0.147   2.850   0.020  0.00  0.00     0.009 C 
ENDBRANCH   7   8
ENDBRANCH   1   7
TORSDOF 2
ENDMDL
