MODEL 1
REMARK minimizedAffinity 2.82183981
REMARK minimizedRMSD -1
REMARK  2 active torsions:
REMARK  status: ('A' for Active; 'I' for Inactive)
REMARK    1  A    between atoms: C1_2  and  C2_3 
REMARK    2  A    between atoms: C2_3  and  C3_4 
ROOT
ATOM      1  C3  UNL d   1      -1.331   2.425  -4.822  0.00  0.00    -0.075 A 
ATOM      2  C4  UNL d   1      -1.256   3.046  -3.567  0.00  0.00     0.002 A 
ATOM      3  C5  UNL d   1      -0.384   2.565  -2.590  0.00  0.00     0.002 A 
ATOM      4  C6  UNL d   1       0.415   1.454  -2.851  0.00  0.00    -0.004 A 
ATOM      5  C7  UNL d   1       0.337   0.820  -4.089  0.00  0.00     0.002 A 
ATOM      6  C8  UNL d   1      -0.532   1.301  -5.070  0.00  0.00     0.002 A 
ENDROOT
BRANCH   1   7
ATOM      7  C2  UNL d   1      -2.252   2.959  -5.894  0.00  0.00     0.056 C 
BRANCH   7   8
ATOM      8  C1  UNL d   1      -3.529   3.609  -5.352  0.00  0.00     0.007 C 
ATOM      9  C   UNL d   1      -3.439   5.127  -5.262  0.00  0.00     0.009 C 
ENDBRANCH   7   8
ENDBRANCH   1   7
TORSDOF 2
ENDMDL
