MODEL 1
REMARK minimizedAffinity 10.1904383
REMARK minimizedRMSD -1
REMARK  2 active torsions:
REMARK  status: ('A' for Active; 'I' for Inactive)
REMARK    1  A    between atoms: C1_2  and  C2_3 
REMARK    2  A    between atoms: C2_3  and  C3_4 
ROOT
ATOM      1  C3  UNL d   1      -0.500  -4.612  -2.199  0.00  0.00    -0.075 A 
ATOM      2  C4  UNL d   1      -0.332  -5.858  -1.578  0.00  0.00     0.002 A 
ATOM      3  C5  UNL d   1       0.501  -5.990  -0.467  0.00  0.00     0.002 A 
ATOM      4  C6  UNL d   1       1.184  -4.882   0.030  0.00  0.00    -0.004 A 
ATOM      5  C7  UNL d   1       1.038  -3.643  -0.589  0.00  0.00     0.002 A 
ATOM      6  C8  UNL d   1       0.201  -3.507  -1.698  0.00  0.00     0.002 A 
ENDROOT
BRANCH   1   7
ATOM      7  C2  UNL d   1      -1.423  -4.456  -3.384  0.00  0.00     0.056 C 
BRANCH   7   8
ATOM      8  C1  UNL d   1      -1.128  -5.423  -4.536  0.00  0.00     0.007 C 
ATOM      9  C   UNL d   1      -2.266  -5.523  -5.542  0.00  0.00     0.009 C 
ENDBRANCH   7   8
ENDBRANCH   1   7
TORSDOF 2
ENDMDL
