MODEL 1
REMARK minimizedAffinity 7.86208868
REMARK minimizedRMSD -1
REMARK  2 active torsions:
REMARK  status: ('A' for Active; 'I' for Inactive)
REMARK    1  A    between atoms: C1_2  and  C2_3 
REMARK    2  A    between atoms: C2_3  and  C3_4 
ROOT
ATOM      1  C3  UNL d   1      -0.704   1.746  -2.363  0.00  0.00    -0.075 A 
ATOM      2  C4  UNL d   1       0.265   1.774  -1.350  0.00  0.00     0.002 A 
ATOM      3  C5  UNL d   1       0.156   2.673  -0.289  0.00  0.00     0.002 A 
ATOM      4  C6  UNL d   1      -0.916   3.562  -0.233  0.00  0.00    -0.004 A 
ATOM      5  C7  UNL d   1      -1.876   3.554  -1.243  0.00  0.00     0.002 A 
ATOM      6  C8  UNL d   1      -1.771   2.652  -2.303  0.00  0.00     0.002 A 
ENDROOT
BRANCH   1   7
ATOM      7  C2  UNL d   1      -0.606   0.755  -3.498  0.00  0.00     0.056 C 
BRANCH   7   8
ATOM      8  C1  UNL d   1      -1.886   0.634  -4.332  0.00  0.00     0.007 C 
ATOM      9  C   UNL d   1      -1.619   0.368  -5.807  0.00  0.00     0.009 C 
ENDBRANCH   7   8
ENDBRANCH   1   7
TORSDOF 2
ENDMDL
