MODEL 1
REMARK minimizedAffinity 5.06224108
REMARK minimizedRMSD -1
REMARK  2 active torsions:
REMARK  status: ('A' for Active; 'I' for Inactive)
REMARK    1  A    between atoms: C1_2  and  C2_3 
REMARK    2  A    between atoms: C2_3  and  C3_4 
ROOT
ATOM      1  C3  UNL d   1       0.184   1.353  -0.264  0.00  0.00    -0.075 A 
ATOM      2  C4  UNL d   1       0.238   0.538   0.876  0.00  0.00     0.002 A 
ATOM      3  C5  UNL d   1       0.707  -0.773   0.787  0.00  0.00     0.002 A 
ATOM      4  C6  UNL d   1       1.117  -1.288  -0.441  0.00  0.00    -0.004 A 
ATOM      5  C7  UNL d   1       1.052  -0.492  -1.582  0.00  0.00     0.002 A 
ATOM      6  C8  UNL d   1       0.588   0.821  -1.496  0.00  0.00     0.002 A 
ENDROOT
BRANCH   1   7
ATOM      7  C2  UNL d   1      -0.295   2.782  -0.170  0.00  0.00     0.056 C 
BRANCH   7   8
ATOM      8  C1  UNL d   1      -1.785   2.962  -0.474  0.00  0.00     0.007 C 
ATOM      9  C   UNL d   1      -2.693   2.363   0.592  0.00  0.00     0.009 C 
ENDBRANCH   7   8
ENDBRANCH   1   7
TORSDOF 2
ENDMDL
