MODEL 1
REMARK minimizedAffinity -5.15153265
REMARK minimizedRMSD -1
REMARK  0 active torsions:
REMARK  status: ('A' for Active; 'I' for Inactive)
ROOT
ATOM      1  C   UNL d   1      -5.348   2.991  -2.976  0.00  0.00     0.078 C 
ATOM      2  C1  UNL d   1      -3.921   2.877  -2.528  0.00  0.00    -0.077 A 
ATOM      3  C2  UNL d   1      -3.341   3.854  -1.710  0.00  0.00    -0.001 A 
ATOM      4  C3  UNL d   1      -2.009   3.739  -1.309  0.00  0.00     0.003 A 
ATOM      5  C4  UNL d   1      -1.245   2.649  -1.722  0.00  0.00    -0.005 A 
ATOM      6  C5  UNL d   1      -1.813   1.673  -2.538  0.00  0.00     0.003 A 
ATOM      7  C6  UNL d   1      -3.145   1.786  -2.940  0.00  0.00    -0.001 A 
ENDROOT
TORSDOF 0
ENDMDL
