MODEL 1
REMARK minimizedAffinity -3.51480508
REMARK minimizedRMSD -1
REMARK  0 active torsions:
REMARK  status: ('A' for Active; 'I' for Inactive)
ROOT
ATOM      1  C   UNL d   1      -0.139   0.316  -1.375  0.00  0.00     0.078 C 
ATOM      2  C1  UNL d   1      -0.708   1.503  -2.093  0.00  0.00    -0.077 A 
ATOM      3  C2  UNL d   1      -1.747   2.256  -1.532  0.00  0.00    -0.001 A 
ATOM      4  C3  UNL d   1      -2.273   3.353  -2.216  0.00  0.00     0.003 A 
ATOM      5  C4  UNL d   1      -1.768   3.707  -3.466  0.00  0.00    -0.005 A 
ATOM      6  C5  UNL d   1      -0.736   2.962  -4.033  0.00  0.00     0.003 A 
ATOM      7  C6  UNL d   1      -0.208   1.865  -3.351  0.00  0.00    -0.001 A 
ENDROOT
TORSDOF 0
ENDMDL
