MODEL 1
REMARK minimizedAffinity -4.91301584
REMARK minimizedRMSD -1
REMARK  0 active torsions:
REMARK  status: ('A' for Active; 'I' for Inactive)
ROOT
ATOM      1  C   UNL d   1      -0.542   0.109  -1.014  0.00  0.00     0.078 C 
ATOM      2  C1  UNL d   1       0.027  -0.145   0.350  0.00  0.00    -0.077 A 
ATOM      3  C2  UNL d   1       1.398  -0.005   0.597  0.00  0.00    -0.001 A 
ATOM      4  C3  UNL d   1       1.915  -0.254   1.869  0.00  0.00     0.003 A 
ATOM      5  C4  UNL d   1       1.069  -0.646   2.904  0.00  0.00    -0.005 A 
ATOM      6  C5  UNL d   1      -0.297  -0.791   2.667  0.00  0.00     0.003 A 
ATOM      7  C6  UNL d   1      -0.816  -0.542   1.396  0.00  0.00    -0.001 A 
ENDROOT
TORSDOF 0
ENDMDL
