MODEL 1
REMARK minimizedAffinity -4.50784969
REMARK minimizedRMSD -1
REMARK  0 active torsions:
REMARK  status: ('A' for Active; 'I' for Inactive)
ROOT
ATOM      1  C   UNL d   1      -0.407   0.272  -1.548  0.00  0.00     0.078 C 
ATOM      2  C1  UNL d   1      -0.011  -0.343  -0.239  0.00  0.00    -0.077 A 
ATOM      3  C2  UNL d   1      -0.801  -0.176   0.905  0.00  0.00    -0.001 A 
ATOM      4  C3  UNL d   1      -0.415  -0.747   2.119  0.00  0.00     0.003 A 
ATOM      5  C4  UNL d   1       0.763  -1.486   2.201  0.00  0.00    -0.005 A 
ATOM      6  C5  UNL d   1       1.558  -1.655   1.069  0.00  0.00     0.003 A 
ATOM      7  C6  UNL d   1       1.173  -1.085  -0.146  0.00  0.00    -0.001 A 
ENDROOT
TORSDOF 0
ENDMDL
