MODEL 1
REMARK minimizedAffinity -4.01409578
REMARK minimizedRMSD -1
REMARK  0 active torsions:
REMARK  status: ('A' for Active; 'I' for Inactive)
ROOT
ATOM      1  C   UNL d   1      -0.062   0.003  -0.822  0.00  0.00     0.078 C 
ATOM      2  C1  UNL d   1       0.591  -0.921   0.162  0.00  0.00    -0.077 A 
ATOM      3  C2  UNL d   1       1.627  -1.777  -0.230  0.00  0.00    -0.001 A 
ATOM      4  C3  UNL d   1       2.219  -2.639   0.695  0.00  0.00     0.003 A 
ATOM      5  C4  UNL d   1       1.781  -2.654   2.017  0.00  0.00    -0.005 A 
ATOM      6  C5  UNL d   1       0.749  -1.807   2.417  0.00  0.00     0.003 A 
ATOM      7  C6  UNL d   1       0.156  -0.944   1.493  0.00  0.00    -0.001 A 
ENDROOT
TORSDOF 0
ENDMDL
