MODEL 1
REMARK minimizedAffinity -4.89101839
REMARK minimizedRMSD -1
REMARK  0 active torsions:
REMARK  status: ('A' for Active; 'I' for Inactive)
ROOT
ATOM      1  C   UNL d   1      -0.043   1.408  -1.182  0.00  0.00     0.078 C 
ATOM      2  C1  UNL d   1       0.082   0.674   0.120  0.00  0.00    -0.077 A 
ATOM      3  C2  UNL d   1      -0.545  -0.563   0.313  0.00  0.00    -0.001 A 
ATOM      4  C3  UNL d   1      -0.428  -1.230   1.534  0.00  0.00     0.003 A 
ATOM      5  C4  UNL d   1       0.313  -0.667   2.571  0.00  0.00    -0.005 A 
ATOM      6  C5  UNL d   1       0.939   0.564   2.388  0.00  0.00     0.003 A 
ATOM      7  C6  UNL d   1       0.823   1.233   1.168  0.00  0.00    -0.001 A 
ENDROOT
TORSDOF 0
ENDMDL
