MODEL 1
REMARK minimizedAffinity -0.728966355
REMARK minimizedRMSD -1
REMARK  0 active torsions:
REMARK  status: ('A' for Active; 'I' for Inactive)
ROOT
ATOM      1  C   UNL d   1       2.252   0.028  -0.750  0.00  0.00     0.078 C 
ATOM      2  C1  UNL d   1       1.438  -0.352   0.450  0.00  0.00    -0.077 A 
ATOM      3  C2  UNL d   1       2.031  -0.486   1.711  0.00  0.00    -0.001 A 
ATOM      4  C3  UNL d   1       1.262  -0.850   2.818  0.00  0.00     0.003 A 
ATOM      5  C4  UNL d   1      -0.104  -1.084   2.674  0.00  0.00    -0.005 A 
ATOM      6  C5  UNL d   1      -0.703  -0.955   1.423  0.00  0.00     0.003 A 
ATOM      7  C6  UNL d   1       0.064  -0.591   0.315  0.00  0.00    -0.001 A 
ENDROOT
TORSDOF 0
ENDMDL
