MODEL 1
REMARK minimizedAffinity -3.98133779
REMARK minimizedRMSD -1
REMARK  0 active torsions:
REMARK  status: ('A' for Active; 'I' for Inactive)
ROOT
ATOM      1  C   UNL d   1       1.796  -0.810   3.252  0.00  0.00     0.078 C 
ATOM      2  C1  UNL d   1       0.904  -0.631   2.059  0.00  0.00    -0.077 A 
ATOM      3  C2  UNL d   1       1.426  -0.650   0.760  0.00  0.00    -0.001 A 
ATOM      4  C3  UNL d   1       0.586  -0.473  -0.341  0.00  0.00     0.003 A 
ATOM      5  C4  UNL d   1      -0.781  -0.275  -0.153  0.00  0.00    -0.005 A 
ATOM      6  C5  UNL d   1      -1.309  -0.253   1.136  0.00  0.00     0.003 A 
ATOM      7  C6  UNL d   1      -0.470  -0.430   2.238  0.00  0.00    -0.001 A 
ENDROOT
TORSDOF 0
ENDMDL
