MODEL 1
REMARK minimizedAffinity -2.82754636
REMARK minimizedRMSD -1
REMARK  0 active torsions:
REMARK  status: ('A' for Active; 'I' for Inactive)
ROOT
ATOM      1  C   UNL d   1      -0.012  -1.544   2.387  0.00  0.00     0.078 C 
ATOM      2  C1  UNL d   1       0.286  -1.067   0.997  0.00  0.00    -0.077 A 
ATOM      3  C2  UNL d   1      -0.329   0.081   0.482  0.00  0.00    -0.001 A 
ATOM      4  C3  UNL d   1      -0.051   0.509  -0.817  0.00  0.00     0.003 A 
ATOM      5  C4  UNL d   1       0.843  -0.206  -1.613  0.00  0.00    -0.005 A 
ATOM      6  C5  UNL d   1       1.458  -1.351  -1.110  0.00  0.00     0.003 A 
ATOM      7  C6  UNL d   1       1.180  -1.780   0.189  0.00  0.00    -0.001 A 
ENDROOT
TORSDOF 0
ENDMDL
