MODEL 1
REMARK minimizedAffinity -2.9435823
REMARK minimizedRMSD -1
REMARK  0 active torsions:
REMARK  status: ('A' for Active; 'I' for Inactive)
ROOT
ATOM      1  C   UNL d   1      -2.372   1.448   0.703  0.00  0.00    -0.002 A 
ATOM      2  C1  UNL d   1      -2.737   0.125   0.501  0.00  0.00     0.010 A 
ATOM      3  C2  UNL d   1      -1.856  -0.770  -0.109  0.00  0.00     0.041 A 
ATOM      4  C3  UNL d   1      -0.588  -0.309  -0.514  0.00  0.00    -0.075 A 
ATOM      5  S   UNL d   1       0.656  -1.225  -1.280  0.00  0.00     0.015 SA
ATOM      6  C4  UNL d   1       1.702   0.118  -1.356  0.00  0.00     0.022 A 
ATOM      7  C5  UNL d   1       1.132   1.247  -0.815  0.00  0.00     0.026 A 
ATOM      8  C6  UNL d   1      -0.197   1.019  -0.320  0.00  0.00    -0.082 A 
ATOM      9  C7  UNL d   1      -1.113   1.902   0.300  0.00  0.00     0.045 A 
ENDROOT
TORSDOF 0
ENDMDL
