MODEL 1
REMARK minimizedAffinity -2.04666185
REMARK minimizedRMSD -1
REMARK  0 active torsions:
REMARK  status: ('A' for Active; 'I' for Inactive)
ROOT
ATOM      1  C   UNL d   1       0.699  -0.945  -1.009  0.00  0.00    -0.002 A 
ATOM      2  C1  UNL d   1       1.366  -1.090   0.199  0.00  0.00     0.010 A 
ATOM      3  C2  UNL d   1       0.971  -0.359   1.321  0.00  0.00     0.041 A 
ATOM      4  C3  UNL d   1      -0.118   0.528   1.207  0.00  0.00    -0.075 A 
ATOM      5  S   UNL d   1      -0.779   1.527   2.447  0.00  0.00     0.015 SA
ATOM      6  C4  UNL d   1      -1.963   2.169   1.403  0.00  0.00     0.022 A 
ATOM      7  C5  UNL d   1      -1.871   1.645   0.135  0.00  0.00     0.026 A 
ATOM      8  C6  UNL d   1      -0.806   0.691   0.001  0.00  0.00    -0.082 A 
ATOM      9  C7  UNL d   1      -0.381  -0.064  -1.118  0.00  0.00     0.045 A 
ENDROOT
TORSDOF 0
ENDMDL
