MODEL 1
REMARK minimizedAffinity 1.58993423
REMARK minimizedRMSD -1
REMARK  0 active torsions:
REMARK  status: ('A' for Active; 'I' for Inactive)
ROOT
ATOM      1  C   UNL d   1       0.367  -0.835  -0.274  0.00  0.00    -0.002 A 
ATOM      2  C1  UNL d   1       1.201  -0.897   0.834  0.00  0.00     0.010 A 
ATOM      3  C2  UNL d   1       0.927  -0.136   1.972  0.00  0.00     0.041 A 
ATOM      4  C3  UNL d   1      -0.211   0.694   1.980  0.00  0.00    -0.075 A 
ATOM      5  S   UNL d   1      -0.745   1.714   3.263  0.00  0.00     0.015 SA
ATOM      6  C4  UNL d   1      -2.093   2.255   2.372  0.00  0.00     0.022 A 
ATOM      7  C5  UNL d   1      -2.150   1.682   1.124  0.00  0.00     0.026 A 
ATOM      8  C6  UNL d   1      -1.066   0.772   0.877  0.00  0.00    -0.082 A 
ATOM      9  C7  UNL d   1      -0.761  -0.010  -0.262  0.00  0.00     0.045 A 
ENDROOT
TORSDOF 0
ENDMDL
