MODEL 1
REMARK minimizedAffinity -1.12529874
REMARK minimizedRMSD -1
REMARK  0 active torsions:
REMARK  status: ('A' for Active; 'I' for Inactive)
ROOT
ATOM      1  C   UNL d   1      -2.069   1.962  -0.014  0.00  0.00    -0.002 A 
ATOM      2  C1  UNL d   1      -1.148   2.826  -0.589  0.00  0.00     0.010 A 
ATOM      3  C2  UNL d   1       0.034   2.335  -1.146  0.00  0.00     0.041 A 
ATOM      4  C3  UNL d   1       0.276   0.947  -1.118  0.00  0.00    -0.075 A 
ATOM      5  S   UNL d   1       1.654   0.120  -1.742  0.00  0.00     0.015 SA
ATOM      6  C4  UNL d   1       1.052  -1.400  -1.260  0.00  0.00     0.022 A 
ATOM      7  C5  UNL d   1      -0.169  -1.297  -0.638  0.00  0.00     0.026 A 
ATOM      8  C6  UNL d   1      -0.637   0.057  -0.546  0.00  0.00    -0.082 A 
ATOM      9  C7  UNL d   1      -1.826   0.586   0.012  0.00  0.00     0.045 A 
ENDROOT
TORSDOF 0
ENDMDL
