MODEL 1
REMARK minimizedAffinity 1.12052202
REMARK minimizedRMSD -1
REMARK  0 active torsions:
REMARK  status: ('A' for Active; 'I' for Inactive)
ROOT
ATOM      1  C   UNL d   1       0.002  -4.270  -3.085  0.00  0.00    -0.002 A 
ATOM      2  C1  UNL d   1       0.907  -4.740  -2.144  0.00  0.00     0.010 A 
ATOM      3  C2  UNL d   1       1.329  -3.923  -1.094  0.00  0.00     0.041 A 
ATOM      4  C3  UNL d   1       0.820  -2.612  -1.004  0.00  0.00    -0.075 A 
ATOM      5  S   UNL d   1       1.193  -1.432   0.197  0.00  0.00     0.015 SA
ATOM      6  C4  UNL d   1       0.159  -0.277  -0.511  0.00  0.00     0.022 A 
ATOM      7  C5  UNL d   1      -0.463  -0.762  -1.637  0.00  0.00     0.026 A 
ATOM      8  C6  UNL d   1      -0.093  -2.116  -1.939  0.00  0.00    -0.082 A 
ATOM      9  C7  UNL d   1      -0.501  -2.970  -2.992  0.00  0.00     0.045 A 
ENDROOT
TORSDOF 0
ENDMDL
