MODEL 1
REMARK minimizedAffinity 0.51524353
REMARK minimizedRMSD -1
REMARK  0 active torsions:
REMARK  status: ('A' for Active; 'I' for Inactive)
ROOT
ATOM      1  C   UNL d   1       0.052   0.569  -0.537  0.00  0.00    -0.002 A 
ATOM      2  C1  UNL d   1       1.418   0.417  -0.347  0.00  0.00     0.010 A 
ATOM      3  C2  UNL d   1       2.031  -0.820  -0.556  0.00  0.00     0.041 A 
ATOM      4  C3  UNL d   1       1.240  -1.912  -0.965  0.00  0.00    -0.075 A 
ATOM      5  S   UNL d   1       1.773  -3.520  -1.282  0.00  0.00     0.015 SA
ATOM      6  C4  UNL d   1       0.200  -4.043  -1.678  0.00  0.00     0.022 A 
ATOM      7  C5  UNL d   1      -0.721  -3.028  -1.576  0.00  0.00     0.026 A 
ATOM      8  C6  UNL d   1      -0.137  -1.783  -1.163  0.00  0.00    -0.082 A 
ATOM      9  C7  UNL d   1      -0.729  -0.516  -0.942  0.00  0.00     0.045 A 
ENDROOT
TORSDOF 0
ENDMDL
