MODEL 1
REMARK minimizedAffinity -1.12358999
REMARK minimizedRMSD -1
REMARK  0 active torsions:
REMARK  status: ('A' for Active; 'I' for Inactive)
ROOT
ATOM      1  C   UNL d   1      -0.027   0.394   0.562  0.00  0.00    -0.002 A 
ATOM      2  C1  UNL d   1      -1.174  -0.322   0.875  0.00  0.00     0.010 A 
ATOM      3  C2  UNL d   1      -1.486  -1.498   0.190  0.00  0.00     0.041 A 
ATOM      4  C3  UNL d   1      -0.616  -1.947  -0.824  0.00  0.00    -0.075 A 
ATOM      5  S   UNL d   1      -0.794  -3.360  -1.796  0.00  0.00     0.015 SA
ATOM      6  C4  UNL d   1       0.648  -3.046  -2.648  0.00  0.00     0.022 A 
ATOM      7  C5  UNL d   1       1.263  -1.896  -2.215  0.00  0.00     0.026 A 
ATOM      8  C6  UNL d   1       0.545  -1.243  -1.156  0.00  0.00    -0.082 A 
ATOM      9  C7  UNL d   1       0.833  -0.054  -0.444  0.00  0.00     0.045 A 
ENDROOT
TORSDOF 0
ENDMDL
