MODEL 1
REMARK minimizedAffinity -1.71939087
REMARK minimizedRMSD -1
REMARK  0 active torsions:
REMARK  status: ('A' for Active; 'I' for Inactive)
ROOT
ATOM      1  C   UNL d   1      -0.835   1.463   2.960  0.00  0.00    -0.002 A 
ATOM      2  C1  UNL d   1       0.012   0.371   3.090  0.00  0.00     0.010 A 
ATOM      3  C2  UNL d   1       0.321  -0.424   1.985  0.00  0.00     0.041 A 
ATOM      4  C3  UNL d   1      -0.240  -0.100   0.733  0.00  0.00    -0.075 A 
ATOM      5  S   UNL d   1      -0.002  -0.930  -0.759  0.00  0.00     0.015 SA
ATOM      6  C4  UNL d   1      -1.019   0.146  -1.605  0.00  0.00     0.022 A 
ATOM      7  C5  UNL d   1      -1.535   1.120  -0.784  0.00  0.00     0.026 A 
ATOM      8  C6  UNL d   1      -1.094   0.995   0.577  0.00  0.00    -0.082 A 
ATOM      9  C7  UNL d   1      -1.389   1.782   1.717  0.00  0.00     0.045 A 
ENDROOT
TORSDOF 0
ENDMDL
