MODEL 1
REMARK minimizedAffinity -2.89477253
REMARK minimizedRMSD -1
REMARK  0 active torsions:
REMARK  status: ('A' for Active; 'I' for Inactive)
ROOT
ATOM      1  C   UNL d   1      -1.305   1.124   2.906  0.00  0.00    -0.002 A 
ATOM      2  C1  UNL d   1      -0.847  -0.178   3.049  0.00  0.00     0.010 A 
ATOM      3  C2  UNL d   1      -0.191  -0.820   1.997  0.00  0.00     0.041 A 
ATOM      4  C3  UNL d   1       0.001  -0.124   0.788  0.00  0.00    -0.075 A 
ATOM      5  S   UNL d   1       0.778  -0.708  -0.636  0.00  0.00     0.015 SA
ATOM      6  C4  UNL d   1       0.521   0.757  -1.468  0.00  0.00     0.022 A 
ATOM      7  C5  UNL d   1      -0.140   1.680  -0.693  0.00  0.00     0.026 A 
ATOM      8  C6  UNL d   1      -0.450   1.188   0.619  0.00  0.00    -0.082 A 
ATOM      9  C7  UNL d   1      -1.113   1.811   1.704  0.00  0.00     0.045 A 
ENDROOT
TORSDOF 0
ENDMDL
