MODEL 1
REMARK minimizedAffinity -0.530037463
REMARK minimizedRMSD -1
REMARK  0 active torsions:
REMARK  status: ('A' for Active; 'I' for Inactive)
ROOT
ATOM      1  C   UNL d   1      -0.656   0.785   2.664  0.00  0.00    -0.002 A 
ATOM      2  C1  UNL d   1      -1.047   1.809   1.813  0.00  0.00     0.010 A 
ATOM      3  C2  UNL d   1      -1.030   1.627   0.428  0.00  0.00     0.041 A 
ATOM      4  C3  UNL d   1      -0.610   0.386  -0.091  0.00  0.00    -0.075 A 
ATOM      5  S   UNL d   1      -0.508  -0.065  -1.751  0.00  0.00     0.015 SA
ATOM      6  C4  UNL d   1       0.057  -1.627  -1.370  0.00  0.00     0.022 A 
ATOM      7  C5  UNL d   1       0.171  -1.817  -0.013  0.00  0.00     0.026 A 
ATOM      8  C6  UNL d   1      -0.212  -0.660   0.747  0.00  0.00    -0.082 A 
ATOM      9  C7  UNL d   1      -0.240  -0.444   2.146  0.00  0.00     0.045 A 
ENDROOT
TORSDOF 0
ENDMDL
