MODEL 1
REMARK minimizedAffinity -2.59537625
REMARK minimizedRMSD -1
REMARK  0 active torsions:
REMARK  status: ('A' for Active; 'I' for Inactive)
ROOT
ATOM      1  C   UNL d   1      -0.534   0.526   3.147  0.00  0.00    -0.002 A 
ATOM      2  C1  UNL d   1      -1.100   1.568   2.426  0.00  0.00     0.010 A 
ATOM      3  C2  UNL d   1      -1.072   1.562   1.030  0.00  0.00     0.041 A 
ATOM      4  C3  UNL d   1      -0.461   0.481   0.365  0.00  0.00    -0.075 A 
ATOM      5  S   UNL d   1      -0.310   0.260  -1.339  0.00  0.00     0.015 SA
ATOM      6  C4  UNL d   1       0.509  -1.223  -1.149  0.00  0.00     0.022 A 
ATOM      7  C5  UNL d   1       0.671  -1.556   0.175  0.00  0.00     0.026 A 
ATOM      8  C6  UNL d   1       0.114  -0.580   1.069  0.00  0.00    -0.082 A 
ATOM      9  C7  UNL d   1       0.070  -0.545   2.484  0.00  0.00     0.045 A 
ENDROOT
TORSDOF 0
ENDMDL
