MODEL 1
REMARK minimizedAffinity -3.6704042
REMARK minimizedRMSD -1
REMARK  0 active torsions:
REMARK  status: ('A' for Active; 'I' for Inactive)
ROOT
ATOM      1  C   UNL d   1      -0.246  -3.800  -1.888  0.00  0.00    -0.002 A 
ATOM      2  C1  UNL d   1       1.057  -3.478  -2.244  0.00  0.00     0.010 A 
ATOM      3  C2  UNL d   1       1.642  -2.292  -1.797  0.00  0.00     0.041 A 
ATOM      4  C3  UNL d   1       0.890  -1.426  -0.978  0.00  0.00    -0.075 A 
ATOM      5  S   UNL d   1       1.401   0.080  -0.313  0.00  0.00     0.015 SA
ATOM      6  C4  UNL d   1      -0.097   0.332   0.459  0.00  0.00     0.022 A 
ATOM      7  C5  UNL d   1      -0.977  -0.698   0.226  0.00  0.00     0.026 A 
ATOM      8  C6  UNL d   1      -0.422  -1.729  -0.606  0.00  0.00    -0.082 A 
ATOM      9  C7  UNL d   1      -0.988  -2.939  -1.076  0.00  0.00     0.045 A 
ENDROOT
TORSDOF 0
ENDMDL
