MODEL 1
REMARK minimizedAffinity 10.1971359
REMARK minimizedRMSD -1
REMARK  1 active torsions:
REMARK  status: ('A' for Active; 'I' for Inactive)
REMARK    1  A    between atoms: C1_2  and  C2_3 
ROOT
ATOM      1  C2  UNL d   1      -4.705   0.261   3.745  0.00  0.00    -0.081 A 
ATOM      2  C3  UNL d   1      -5.874   1.033   3.757  0.00  0.00     0.006 A 
ATOM      3  C4  UNL d   1      -5.933   2.218   4.495  0.00  0.00     0.002 A 
ATOM      4  C5  UNL d   1      -4.823   2.654   5.227  0.00  0.00    -0.080 A 
ATOM      5  C6  UNL d   1      -4.863   3.939   6.000  0.00  0.00     0.076 C 
ATOM      6  C7  UNL d   1      -3.662   1.874   5.230  0.00  0.00     0.002 A 
ATOM      7  C8  UNL d   1      -3.602   0.689   4.492  0.00  0.00     0.006 A 
ENDROOT
BRANCH   1   8
ATOM      8  C1  UNL d   1      -4.617  -0.982   2.898  0.00  0.00     0.054 C 
ATOM      9  C   UNL d   1      -6.000  -1.496   2.523  0.00  0.00     0.018 C 
ENDBRANCH   1   8
TORSDOF 1
ENDMDL
