MODEL 1
REMARK minimizedAffinity 17.827219
REMARK minimizedRMSD -1
REMARK  1 active torsions:
REMARK  status: ('A' for Active; 'I' for Inactive)
REMARK    1  A    between atoms: C1_2  and  C2_3 
ROOT
ATOM      1  C2  UNL d   1       2.253  -4.299  -1.931  0.00  0.00    -0.081 A 
ATOM      2  C3  UNL d   1       2.852  -3.867  -0.742  0.00  0.00     0.006 A 
ATOM      3  C4  UNL d   1       3.010  -2.503  -0.483  0.00  0.00     0.002 A 
ATOM      4  C5  UNL d   1       2.564  -1.550  -1.404  0.00  0.00    -0.080 A 
ATOM      5  C6  UNL d   1       2.699  -0.082  -1.125  0.00  0.00     0.076 C 
ATOM      6  C7  UNL d   1       1.980  -1.982  -2.600  0.00  0.00     0.002 A 
ATOM      7  C8  UNL d   1       1.823  -3.345  -2.860  0.00  0.00     0.006 A 
ENDROOT
BRANCH   1   8
ATOM      8  C1  UNL d   1       2.023  -5.767  -2.184  0.00  0.00     0.054 C 
ATOM      9  C   UNL d   1       0.737  -6.000  -2.965  0.00  0.00     0.018 C 
ENDBRANCH   1   8
TORSDOF 1
ENDMDL
