MODEL 1
REMARK minimizedAffinity 13.6664982
REMARK minimizedRMSD -1
REMARK  1 active torsions:
REMARK  status: ('A' for Active; 'I' for Inactive)
REMARK    1  A    between atoms: C1_2  and  C2_3 
ROOT
ATOM      1  C2  UNL d   1      -0.047  -2.651  -2.231  0.00  0.00    -0.081 A 
ATOM      2  C3  UNL d   1      -0.366  -3.915  -2.743  0.00  0.00     0.006 A 
ATOM      3  C4  UNL d   1      -1.495  -4.090  -3.546  0.00  0.00     0.002 A 
ATOM      4  C5  UNL d   1      -2.320  -3.004  -3.857  0.00  0.00    -0.080 A 
ATOM      5  C6  UNL d   1      -3.518  -3.172  -4.743  0.00  0.00     0.076 C 
ATOM      6  C7  UNL d   1      -2.012  -1.744  -3.332  0.00  0.00     0.002 A 
ATOM      7  C8  UNL d   1      -0.883  -1.569  -2.528  0.00  0.00     0.006 A 
ENDROOT
BRANCH   1   8
ATOM      8  C1  UNL d   1       1.205  -2.446  -1.418  0.00  0.00     0.054 C 
ATOM      9  C   UNL d   1       1.970  -1.214  -1.881  0.00  0.00     0.018 C 
ENDBRANCH   1   8
TORSDOF 1
ENDMDL
