MODEL 1
REMARK minimizedAffinity 10.8587151
REMARK minimizedRMSD -1
REMARK  1 active torsions:
REMARK  status: ('A' for Active; 'I' for Inactive)
REMARK    1  A    between atoms: C1_2  and  C2_3 
ROOT
ATOM      1  C2  UNL d   1      -0.672  -3.370  -2.901  0.00  0.00    -0.081 A 
ATOM      2  C3  UNL d   1       0.173  -2.274  -2.687  0.00  0.00     0.006 A 
ATOM      3  C4  UNL d   1      -0.292  -0.972  -2.889  0.00  0.00     0.002 A 
ATOM      4  C5  UNL d   1      -1.609  -0.745  -3.301  0.00  0.00    -0.080 A 
ATOM      5  C6  UNL d   1      -2.129   0.649  -3.493  0.00  0.00     0.076 C 
ATOM      6  C7  UNL d   1      -2.448  -1.841  -3.532  0.00  0.00     0.002 A 
ATOM      7  C8  UNL d   1      -1.984  -3.142  -3.330  0.00  0.00     0.006 A 
ENDROOT
BRANCH   1   8
ATOM      8  C1  UNL d   1      -0.193  -4.772  -2.621  0.00  0.00     0.054 C 
ATOM      9  C   UNL d   1      -1.263  -5.591  -1.912  0.00  0.00     0.018 C 
ENDBRANCH   1   8
TORSDOF 1
ENDMDL
