MODEL 1
REMARK minimizedAffinity 17.5094891
REMARK minimizedRMSD -1
REMARK  1 active torsions:
REMARK  status: ('A' for Active; 'I' for Inactive)
REMARK    1  A    between atoms: C1_2  and  C2_3 
ROOT
ATOM      1  C2  UNL d   1       3.525   0.553  -0.699  0.00  0.00    -0.081 A 
ATOM      2  C3  UNL d   1       2.610   0.804  -1.729  0.00  0.00     0.006 A 
ATOM      3  C4  UNL d   1       1.728  -0.193  -2.151  0.00  0.00     0.002 A 
ATOM      4  C5  UNL d   1       1.740  -1.455  -1.547  0.00  0.00    -0.080 A 
ATOM      5  C6  UNL d   1       0.778  -2.524  -1.970  0.00  0.00     0.076 C 
ATOM      6  C7  UNL d   1       2.666  -1.712  -0.530  0.00  0.00     0.002 A 
ATOM      7  C8  UNL d   1       3.549  -0.715  -0.108  0.00  0.00     0.006 A 
ENDROOT
BRANCH   1   8
ATOM      8  C1  UNL d   1       4.434   1.646  -0.197  0.00  0.00     0.054 C 
ATOM      9  C   UNL d   1       3.779   2.438   0.925  0.00  0.00     0.018 C 
ENDBRANCH   1   8
TORSDOF 1
ENDMDL
