MODEL 1
REMARK minimizedAffinity -0.572852612
REMARK minimizedRMSD -1
REMARK  1 active torsions:
REMARK  status: ('A' for Active; 'I' for Inactive)
REMARK    1  A    between atoms: C1_2  and  C2_3 
ROOT
ATOM      1  C2  UNL d   1      -4.127  -4.554  -5.017  0.00  0.00    -0.081 A 
ATOM      2  C3  UNL d   1      -3.888  -5.027  -3.721  0.00  0.00     0.006 A 
ATOM      3  C4  UNL d   1      -2.611  -4.946  -3.162  0.00  0.00     0.002 A 
ATOM      4  C5  UNL d   1      -1.553  -4.384  -3.885  0.00  0.00    -0.080 A 
ATOM      5  C6  UNL d   1      -0.184  -4.264  -3.285  0.00  0.00     0.076 C 
ATOM      6  C7  UNL d   1      -1.788  -3.928  -5.187  0.00  0.00     0.002 A 
ATOM      7  C8  UNL d   1      -3.065  -4.009  -5.747  0.00  0.00     0.006 A 
ENDROOT
BRANCH   1   8
ATOM      8  C1  UNL d   1      -5.517  -4.581  -5.599  0.00  0.00     0.054 C 
ATOM      9  C   UNL d   1      -6.000  -3.179  -5.943  0.00  0.00     0.018 C 
ENDBRANCH   1   8
TORSDOF 1
ENDMDL
