MODEL 1
REMARK minimizedAffinity 11.7791824
REMARK minimizedRMSD -1
REMARK  1 active torsions:
REMARK  status: ('A' for Active; 'I' for Inactive)
REMARK    1  A    between atoms: C1_2  and  C2_3 
ROOT
ATOM      1  C2  UNL d   1      -4.531  -3.965  -4.071  0.00  0.00    -0.081 A 
ATOM      2  C3  UNL d   1      -3.390  -3.157  -4.158  0.00  0.00     0.006 A 
ATOM      3  C4  UNL d   1      -2.225  -3.501  -3.469  0.00  0.00     0.002 A 
ATOM      4  C5  UNL d   1      -2.178  -4.662  -2.689  0.00  0.00    -0.080 A 
ATOM      5  C6  UNL d   1      -0.923  -5.059  -1.969  0.00  0.00     0.076 C 
ATOM      6  C7  UNL d   1      -3.323  -5.459  -2.589  0.00  0.00     0.002 A 
ATOM      7  C8  UNL d   1      -4.488  -5.115  -3.276  0.00  0.00     0.006 A 
ENDROOT
BRANCH   1   8
ATOM      8  C1  UNL d   1      -5.769  -3.631  -4.864  0.00  0.00     0.054 C 
ATOM      9  C   UNL d   1      -5.982  -4.621  -6.000  0.00  0.00     0.018 C 
ENDBRANCH   1   8
TORSDOF 1
ENDMDL
