MODEL 1
REMARK minimizedAffinity 7.39877748
REMARK minimizedRMSD -1
REMARK  1 active torsions:
REMARK  status: ('A' for Active; 'I' for Inactive)
REMARK    1  A    between atoms: C1_2  and  C2_3 
ROOT
ATOM      1  C2  UNL d   1      -2.496   0.468   2.105  0.00  0.00    -0.081 A 
ATOM      2  C3  UNL d   1      -1.392  -0.180   1.538  0.00  0.00     0.006 A 
ATOM      3  C4  UNL d   1      -0.095   0.148   1.939  0.00  0.00     0.002 A 
ATOM      4  C5  UNL d   1       0.119   1.123   2.919  0.00  0.00    -0.080 A 
ATOM      5  C6  UNL d   1       1.505   1.463   3.382  0.00  0.00     0.076 C 
ATOM      6  C7  UNL d   1      -0.983   1.783   3.473  0.00  0.00     0.002 A 
ATOM      7  C8  UNL d   1      -2.280   1.456   3.072  0.00  0.00     0.006 A 
ENDROOT
BRANCH   1   8
ATOM      8  C1  UNL d   1      -3.898   0.071   1.720  0.00  0.00     0.054 C 
ATOM      9  C   UNL d   1      -4.351  -1.167   2.480  0.00  0.00     0.018 C 
ENDBRANCH   1   8
TORSDOF 1
ENDMDL
