MODEL 1
REMARK minimizedAffinity 7.02937078
REMARK minimizedRMSD -1
REMARK  1 active torsions:
REMARK  status: ('A' for Active; 'I' for Inactive)
REMARK    1  A    between atoms: C1_2  and  C2_3 
ROOT
ATOM      1  C2  UNL d   1      -4.379  -3.585  -4.517  0.00  0.00    -0.081 A 
ATOM      2  C3  UNL d   1      -3.395  -2.622  -4.770  0.00  0.00     0.006 A 
ATOM      3  C4  UNL d   1      -2.135  -2.723  -4.176  0.00  0.00     0.002 A 
ATOM      4  C5  UNL d   1      -1.836  -3.792  -3.325  0.00  0.00    -0.080 A 
ATOM      5  C6  UNL d   1      -0.478  -3.929  -2.704  0.00  0.00     0.076 C 
ATOM      6  C7  UNL d   1      -2.825  -4.745  -3.058  0.00  0.00     0.002 A 
ATOM      7  C8  UNL d   1      -4.085  -4.644  -3.652  0.00  0.00     0.006 A 
ENDROOT
BRANCH   1   8
ATOM      8  C1  UNL d   1      -5.717  -3.514  -5.207  0.00  0.00     0.054 C 
ATOM      9  C   UNL d   1      -6.000  -4.782  -5.999  0.00  0.00     0.018 C 
ENDBRANCH   1   8
TORSDOF 1
ENDMDL
