MODEL 1
REMARK minimizedAffinity 12.8284521
REMARK minimizedRMSD -1
REMARK  1 active torsions:
REMARK  status: ('A' for Active; 'I' for Inactive)
REMARK    1  A    between atoms: C1_2  and  C2_3 
ROOT
ATOM      1  C2  UNL d   1      -3.337  -0.743   2.513  0.00  0.00    -0.081 A 
ATOM      2  C3  UNL d   1      -2.161  -1.485   2.673  0.00  0.00     0.006 A 
ATOM      3  C4  UNL d   1      -0.922  -0.842   2.738  0.00  0.00     0.002 A 
ATOM      4  C5  UNL d   1      -0.840   0.551   2.652  0.00  0.00    -0.080 A 
ATOM      5  C6  UNL d   1       0.481   1.256   2.750  0.00  0.00     0.076 C 
ATOM      6  C7  UNL d   1      -2.014   1.291   2.474  0.00  0.00     0.002 A 
ATOM      7  C8  UNL d   1      -3.253   0.650   2.409  0.00  0.00     0.006 A 
ENDROOT
BRANCH   1   8
ATOM      8  C1  UNL d   1      -4.680  -1.428   2.508  0.00  0.00     0.054 C 
ATOM      9  C   UNL d   1      -5.284  -1.451   1.111  0.00  0.00     0.018 C 
ENDBRANCH   1   8
TORSDOF 1
ENDMDL
