MODEL 1
REMARK minimizedAffinity 0.737170279
REMARK minimizedRMSD -1
REMARK  1 active torsions:
REMARK  status: ('A' for Active; 'I' for Inactive)
REMARK    1  A    between atoms: C1_2  and  C2_3 
ROOT
ATOM      1  C2  UNL d   1      -4.018  -4.385  -5.336  0.00  0.00    -0.081 A 
ATOM      2  C3  UNL d   1      -3.855  -4.893  -4.041  0.00  0.00     0.006 A 
ATOM      3  C4  UNL d   1      -2.612  -4.829  -3.407  0.00  0.00     0.002 A 
ATOM      4  C5  UNL d   1      -1.514  -4.252  -4.053  0.00  0.00    -0.080 A 
ATOM      5  C6  UNL d   1      -0.181  -4.150  -3.372  0.00  0.00     0.076 C 
ATOM      6  C7  UNL d   1      -1.672  -3.761  -5.354  0.00  0.00     0.002 A 
ATOM      7  C8  UNL d   1      -2.915  -3.824  -5.988  0.00  0.00     0.006 A 
ENDROOT
BRANCH   1   8
ATOM      8  C1  UNL d   1      -5.372  -4.394  -5.997  0.00  0.00     0.054 C 
ATOM      9  C   UNL d   1      -5.995  -3.005  -5.999  0.00  0.00     0.018 C 
ENDBRANCH   1   8
TORSDOF 1
ENDMDL
