MODEL 1
REMARK minimizedAffinity 19.9917526
REMARK minimizedRMSD -1
REMARK  1 active torsions:
REMARK  status: ('A' for Active; 'I' for Inactive)
REMARK    1  A    between atoms: C1_2  and  C2_3 
ROOT
ATOM      1  C2  UNL d   1      -2.768   0.507   2.747  0.00  0.00    -0.081 A 
ATOM      2  C3  UNL d   1      -3.190  -0.372   3.752  0.00  0.00     0.006 A 
ATOM      3  C4  UNL d   1      -4.243  -1.259   3.520  0.00  0.00     0.002 A 
ATOM      4  C5  UNL d   1      -4.886  -1.289   2.278  0.00  0.00    -0.080 A 
ATOM      5  C6  UNL d   1      -5.999  -2.257   2.006  0.00  0.00     0.076 C 
ATOM      6  C7  UNL d   1      -4.476  -0.399   1.280  0.00  0.00     0.002 A 
ATOM      7  C8  UNL d   1      -3.423   0.489   1.511  0.00  0.00     0.006 A 
ENDROOT
BRANCH   1   8
ATOM      8  C1  UNL d   1      -1.590   1.420   2.973  0.00  0.00     0.054 C 
ATOM      9  C   UNL d   1      -0.282   0.740   2.594  0.00  0.00     0.018 C 
ENDBRANCH   1   8
TORSDOF 1
ENDMDL
