MODEL 1
REMARK minimizedAffinity 5.30680943
REMARK minimizedRMSD -1
REMARK  1 active torsions:
REMARK  status: ('A' for Active; 'I' for Inactive)
REMARK    1  A    between atoms: C1_2  and  C2_3 
ROOT
ATOM      1  C2  UNL d   1      -1.735  -3.971  -4.201  0.00  0.00    -0.081 A 
ATOM      2  C3  UNL d   1      -2.854  -4.491  -3.538  0.00  0.00     0.006 A 
ATOM      3  C4  UNL d   1      -4.126  -4.383  -4.104  0.00  0.00     0.002 A 
ATOM      4  C5  UNL d   1      -4.300  -3.761  -5.345  0.00  0.00    -0.080 A 
ATOM      5  C6  UNL d   1      -5.657  -3.666  -5.978  0.00  0.00     0.076 C 
ATOM      6  C7  UNL d   1      -3.185  -3.227  -6.000  0.00  0.00     0.002 A 
ATOM      7  C8  UNL d   1      -1.913  -3.334  -5.434  0.00  0.00     0.006 A 
ENDROOT
BRANCH   1   8
ATOM      8  C1  UNL d   1      -0.354  -4.143  -3.623  0.00  0.00     0.054 C 
ATOM      9  C   UNL d   1      -0.356  -5.133  -2.468  0.00  0.00     0.018 C 
ENDBRANCH   1   8
TORSDOF 1
ENDMDL
