MODEL 1
REMARK minimizedAffinity -0.493428946
REMARK minimizedRMSD -1
REMARK  1 active torsions:
REMARK  status: ('A' for Active; 'I' for Inactive)
REMARK    1  A    between atoms: C1_2  and  C2_3 
ROOT
ATOM      1  C2  UNL d   1      -1.444  -4.325  -4.047  0.00  0.00    -0.081 A 
ATOM      2  C3  UNL d   1      -2.453  -4.833  -3.220  0.00  0.00     0.006 A 
ATOM      3  C4  UNL d   1      -3.760  -4.965  -3.696  0.00  0.00     0.002 A 
ATOM      4  C5  UNL d   1      -4.078  -4.599  -5.008  0.00  0.00    -0.080 A 
ATOM      5  C6  UNL d   1      -5.470  -4.763  -5.541  0.00  0.00     0.076 C 
ATOM      6  C7  UNL d   1      -3.073  -4.075  -5.829  0.00  0.00     0.002 A 
ATOM      7  C8  UNL d   1      -1.767  -3.942  -5.354  0.00  0.00     0.006 A 
ENDROOT
BRANCH   1   8
ATOM      8  C1  UNL d   1      -0.021  -4.243  -3.557  0.00  0.00     0.054 C 
ATOM      9  C   UNL d   1       0.452  -5.579  -3.002  0.00  0.00     0.018 C 
ENDBRANCH   1   8
TORSDOF 1
ENDMDL
