MODEL 1
REMARK minimizedAffinity 1.78412771
REMARK minimizedRMSD -1
REMARK  1 active torsions:
REMARK  status: ('A' for Active; 'I' for Inactive)
REMARK    1  A    between atoms: C1_2  and  C2_3 
ROOT
ATOM      1  C2  UNL d   1       0.790  -4.323  -2.929  0.00  0.00    -0.081 A 
ATOM      2  C3  UNL d   1       0.711  -3.193  -2.106  0.00  0.00     0.006 A 
ATOM      3  C4  UNL d   1       1.797  -2.820  -1.310  0.00  0.00     0.002 A 
ATOM      4  C5  UNL d   1       2.981  -3.565  -1.330  0.00  0.00    -0.080 A 
ATOM      5  C6  UNL d   1       4.164  -3.158  -0.503  0.00  0.00     0.076 C 
ATOM      6  C7  UNL d   1       3.053  -4.704  -2.139  0.00  0.00     0.002 A 
ATOM      7  C8  UNL d   1       1.968  -5.078  -2.935  0.00  0.00     0.006 A 
ENDROOT
BRANCH   1   8
ATOM      8  C1  UNL d   1      -0.355  -4.691  -3.838  0.00  0.00     0.054 C 
ATOM      9  C   UNL d   1      -1.667  -4.101  -3.340  0.00  0.00     0.018 C 
ENDBRANCH   1   8
TORSDOF 1
ENDMDL
