MODEL 1
REMARK minimizedAffinity -1.97175324
REMARK minimizedRMSD -1
REMARK  0 active torsions:
REMARK  status: ('A' for Active; 'I' for Inactive)
ROOT
ATOM      1  N1  IND d   1      -1.629  -0.846  -0.306  0.00  0.00    -0.196 N 
ATOM      2  C2  IND d   1      -0.616  -0.850  -1.224  0.00  0.00     0.054 A 
ATOM      3  C3  IND d   1       0.379  -0.024  -0.830  0.00  0.00    -0.031 A 
ATOM      4  C4  IND d   1       0.600   1.354   1.334  0.00  0.00     0.051 A 
ATOM      5  C5  IND d   1      -0.088   1.708   2.460  0.00  0.00    -0.031 A 
ATOM      6  C6  IND d   1      -1.349   1.217   2.729  0.00  0.00     0.015 A 
ATOM      7  C7  IND d   1      -1.967   0.341   1.883  0.00  0.00    -0.016 A 
ATOM      8  C8  IND d   1      -1.275  -0.016   0.735  0.00  0.00    -0.047 A 
ATOM      9  C9  IND d   1      -0.012   0.513   0.435  0.00  0.00    -0.096 A 
ATOM     10  HN1 IND d   1      -2.364  -1.288  -0.368  0.00  0.00     0.298 HD
ENDROOT
TORSDOF 0
ENDMDL
