MODEL 1
REMARK minimizedAffinity -2.79188848
REMARK minimizedRMSD -1
REMARK  0 active torsions:
REMARK  status: ('A' for Active; 'I' for Inactive)
ROOT
ATOM      1  N1  IND d   1       1.389   0.763  -0.348  0.00  0.00    -0.196 N 
ATOM      2  C2  IND d   1       0.913   0.087  -1.437  0.00  0.00     0.054 A 
ATOM      3  C3  IND d   1      -0.336  -0.371  -1.197  0.00  0.00    -0.031 A 
ATOM      4  C4  IND d   1      -1.830  -0.038   0.873  0.00  0.00     0.051 A 
ATOM      5  C5  IND d   1      -1.819   0.480   2.138  0.00  0.00    -0.031 A 
ATOM      6  C6  IND d   1      -0.717   1.135   2.648  0.00  0.00     0.015 A 
ATOM      7  C7  IND d   1       0.417   1.306   1.904  0.00  0.00    -0.016 A 
ATOM      8  C8  IND d   1       0.412   0.775   0.622  0.00  0.00    -0.047 A 
ATOM      9  C9  IND d   1      -0.689   0.073   0.114  0.00  0.00    -0.096 A 
ATOM     10  HN1 IND d   1       2.168   1.122  -0.281  0.00  0.00     0.298 HD
ENDROOT
TORSDOF 0
ENDMDL
