MODEL 1
REMARK minimizedAffinity -5.67477703
REMARK minimizedRMSD -1
REMARK  0 active torsions:
REMARK  status: ('A' for Active; 'I' for Inactive)
ROOT
ATOM      1  N1  IND d   1       0.690  -0.333  -0.048  0.00  0.00    -0.196 N 
ATOM      2  C2  IND d   1      -0.511  -0.053  -0.638  0.00  0.00     0.054 A 
ATOM      3  C3  IND d   1      -1.340   0.547   0.244  0.00  0.00    -0.031 A 
ATOM      4  C4  IND d   1      -0.900   1.260   2.678  0.00  0.00     0.051 A 
ATOM      5  C5  IND d   1       0.037   1.185   3.670  0.00  0.00    -0.031 A 
ATOM      6  C6  IND d   1       1.266   0.590   3.468  0.00  0.00     0.015 A 
ATOM      7  C7  IND d   1       1.609   0.057   2.258  0.00  0.00    -0.016 A 
ATOM      8  C8  IND d   1       0.657   0.125   1.251  0.00  0.00    -0.047 A 
ATOM      9  C9  IND d   1      -0.608   0.689   1.462  0.00  0.00    -0.096 A 
ATOM     10  HN1 IND d   1       1.354  -0.728  -0.424  0.00  0.00     0.298 HD
ENDROOT
TORSDOF 0
ENDMDL
