MODEL 1
REMARK minimizedAffinity -2.7933619
REMARK minimizedRMSD -1
REMARK  0 active torsions:
REMARK  status: ('A' for Active; 'I' for Inactive)
ROOT
ATOM      1  N1  IND d   1      -0.806  -0.684  -0.883  0.00  0.00    -0.196 N 
ATOM      2  C2  IND d   1       0.410  -1.081  -1.365  0.00  0.00     0.054 A 
ATOM      3  C3  IND d   1       1.404  -0.599  -0.585  0.00  0.00    -0.031 A 
ATOM      4  C4  IND d   1       1.259   0.776   1.587  0.00  0.00     0.051 A 
ATOM      5  C5  IND d   1       0.364   1.411   2.402  0.00  0.00    -0.031 A 
ATOM      6  C6  IND d   1      -0.994   1.377   2.161  0.00  0.00     0.015 A 
ATOM      7  C7  IND d   1      -1.511   0.694   1.096  0.00  0.00    -0.016 A 
ATOM      8  C8  IND d   1      -0.605   0.054   0.262  0.00  0.00    -0.047 A 
ATOM      9  C9  IND d   1       0.777   0.120   0.478  0.00  0.00    -0.096 A 
ATOM     10  HN1 IND d   1      -1.569  -0.866  -1.237  0.00  0.00     0.298 HD
ENDROOT
TORSDOF 0
ENDMDL
