MODEL 1
REMARK minimizedAffinity -2.7364471
REMARK minimizedRMSD -1
REMARK  0 active torsions:
REMARK  status: ('A' for Active; 'I' for Inactive)
ROOT
ATOM      1  N1  IND d   1      -0.767   1.768  -2.238  0.00  0.00    -0.196 N 
ATOM      2  C2  IND d   1       0.025   1.123  -3.147  0.00  0.00     0.054 A 
ATOM      3  C3  IND d   1       0.859   0.264  -2.519  0.00  0.00    -0.031 A 
ATOM      4  C4  IND d   1       1.024  -0.320  -0.018  0.00  0.00     0.051 A 
ATOM      5  C5  IND d   1       0.532   0.036   1.207  0.00  0.00    -0.031 A 
ATOM      6  C6  IND d   1      -0.440   1.005   1.348  0.00  0.00     0.015 A 
ATOM      7  C7  IND d   1      -0.967   1.649   0.264  0.00  0.00    -0.016 A 
ATOM      8  C8  IND d   1      -0.464   1.295  -0.980  0.00  0.00    -0.047 A 
ATOM      9  C9  IND d   1       0.553   0.343  -1.126  0.00  0.00    -0.096 A 
ATOM     10  HN1 IND d   1      -1.355   2.368  -2.421  0.00  0.00     0.298 HD
ENDROOT
TORSDOF 0
ENDMDL
