MODEL 1
REMARK minimizedAffinity -2.95599961
REMARK minimizedRMSD -1
REMARK  0 active torsions:
REMARK  status: ('A' for Active; 'I' for Inactive)
ROOT
ATOM      1  N1  IND d   1       0.686  -1.037  -0.289  0.00  0.00    -0.196 N 
ATOM      2  C2  IND d   1       0.850  -0.479  -1.526  0.00  0.00     0.054 A 
ATOM      3  C3  IND d   1       0.143   0.669  -1.622  0.00  0.00    -0.031 A 
ATOM      4  C4  IND d   1      -1.272   1.872   0.160  0.00  0.00     0.051 A 
ATOM      5  C5  IND d   1      -1.751   1.729   1.432  0.00  0.00    -0.031 A 
ATOM      6  C6  IND d   1      -1.433   0.636   2.212  0.00  0.00     0.015 A 
ATOM      7  C7  IND d   1      -0.612  -0.354   1.751  0.00  0.00    -0.016 A 
ATOM      8  C8  IND d   1      -0.130  -0.215   0.457  0.00  0.00    -0.047 A 
ATOM      9  C9  IND d   1      -0.483   0.870  -0.354  0.00  0.00    -0.096 A 
ATOM     10  HN1 IND d   1       1.033  -1.777  -0.023  0.00  0.00     0.298 HD
ENDROOT
TORSDOF 0
ENDMDL
