MODEL 1
REMARK minimizedAffinity -5.2483654
REMARK minimizedRMSD -1
REMARK  0 active torsions:
REMARK  status: ('A' for Active; 'I' for Inactive)
ROOT
ATOM      1  N1  IND d   1       1.156  -1.422   1.238  0.00  0.00    -0.196 N 
ATOM      2  C2  IND d   1       1.547  -1.764  -0.027  0.00  0.00     0.054 A 
ATOM      3  C3  IND d   1       0.640  -1.332  -0.932  0.00  0.00    -0.031 A 
ATOM      4  C4  IND d   1      -1.506   0.042  -0.570  0.00  0.00     0.051 A 
ATOM      5  C5  IND d   1      -2.300   0.561   0.414  0.00  0.00    -0.031 A 
ATOM      6  C6  IND d   1      -1.974   0.445   1.750  0.00  0.00     0.015 A 
ATOM      7  C7  IND d   1      -0.832  -0.187   2.153  0.00  0.00    -0.016 A 
ATOM      8  C8  IND d   1      -0.027  -0.721   1.156  0.00  0.00    -0.047 A 
ATOM      9  C9  IND d   1      -0.374  -0.644  -0.199  0.00  0.00    -0.096 A 
ATOM     10  HN1 IND d   1       1.578  -1.614   1.962  0.00  0.00     0.298 HD
ENDROOT
TORSDOF 0
ENDMDL
