MODEL 1
REMARK minimizedAffinity -5.29442215
REMARK minimizedRMSD -1
REMARK  0 active torsions:
REMARK  status: ('A' for Active; 'I' for Inactive)
ROOT
ATOM      1  N1  IND d   1       1.067   0.918  -0.559  0.00  0.00    -0.196 N 
ATOM      2  C2  IND d   1       0.582   0.354  -1.706  0.00  0.00     0.054 A 
ATOM      3  C3  IND d   1      -0.634  -0.194  -1.484  0.00  0.00    -0.031 A 
ATOM      4  C4  IND d   1      -2.062  -0.190   0.658  0.00  0.00     0.051 A 
ATOM      5  C5  IND d   1      -2.027   0.171   1.975  0.00  0.00    -0.031 A 
ATOM      6  C6  IND d   1      -0.938   0.816   2.526  0.00  0.00     0.015 A 
ATOM      7  C7  IND d   1       0.157   1.135   1.773  0.00  0.00    -0.016 A 
ATOM      8  C8  IND d   1       0.128   0.762   0.436  0.00  0.00    -0.047 A 
ATOM      9  C9  IND d   1      -0.957   0.070  -0.118  0.00  0.00    -0.096 A 
ATOM     10  HN1 IND d   1       1.830   1.305  -0.474  0.00  0.00     0.298 HD
ENDROOT
TORSDOF 0
ENDMDL
