MODEL 1
REMARK minimizedAffinity -2.74705291
REMARK minimizedRMSD -1
REMARK  0 active torsions:
REMARK  status: ('A' for Active; 'I' for Inactive)
ROOT
ATOM      1  N1  IND d   1       1.096  -0.689   1.446  0.00  0.00    -0.196 N 
ATOM      2  C2  IND d   1       0.259   0.320   1.834  0.00  0.00     0.054 A 
ATOM      3  C3  IND d   1      -0.364   0.854   0.759  0.00  0.00    -0.031 A 
ATOM      4  C4  IND d   1      -0.237   0.161  -1.717  0.00  0.00     0.051 A 
ATOM      5  C5  IND d   1       0.421  -0.684  -2.566  0.00  0.00    -0.031 A 
ATOM      6  C6  IND d   1       1.354  -1.593  -2.113  0.00  0.00     0.015 A 
ATOM      7  C7  IND d   1       1.658  -1.700  -0.785  0.00  0.00    -0.016 A 
ATOM      8  C8  IND d   1       0.997  -0.840   0.080  0.00  0.00    -0.047 A 
ATOM      9  C9  IND d   1       0.080   0.115  -0.380  0.00  0.00    -0.096 A 
ATOM     10  HN1 IND d   1       1.601  -1.151   1.967  0.00  0.00     0.298 HD
ENDROOT
TORSDOF 0
ENDMDL
