MODEL 1
REMARK minimizedAffinity -3.2156837
REMARK minimizedRMSD -1
REMARK  0 active torsions:
REMARK  status: ('A' for Active; 'I' for Inactive)
ROOT
ATOM      1  N1  IND d   1      -1.532   0.757   1.760  0.00  0.00    -0.196 N 
ATOM      2  C2  IND d   1      -0.448   1.423   2.260  0.00  0.00     0.054 A 
ATOM      3  C3  IND d   1       0.669   1.084   1.577  0.00  0.00    -0.031 A 
ATOM      4  C4  IND d   1       0.931  -0.467  -0.461  0.00  0.00     0.051 A 
ATOM      5  C5  IND d   1       0.229  -1.330  -1.255  0.00  0.00    -0.031 A 
ATOM      6  C6  IND d   1      -1.123  -1.544  -1.082  0.00  0.00     0.015 A 
ATOM      7  C7  IND d   1      -1.830  -0.891  -0.113  0.00  0.00    -0.016 A 
ATOM      8  C8  IND d   1      -1.119  -0.019   0.700  0.00  0.00    -0.047 A 
ATOM      9  C9  IND d   1       0.261   0.170   0.557  0.00  0.00    -0.096 A 
ATOM     10  HN1 IND d   1      -2.337   0.814   2.058  0.00  0.00     0.298 HD
ENDROOT
TORSDOF 0
ENDMDL
