MODEL 1
REMARK minimizedAffinity -2.66569448
REMARK minimizedRMSD -1
REMARK  0 active torsions:
REMARK  status: ('A' for Active; 'I' for Inactive)
ROOT
ATOM      1  N1  IND d   1       0.907   1.108  -2.867  0.00  0.00    -0.196 N 
ATOM      2  C2  IND d   1       1.587   0.199  -3.629  0.00  0.00     0.054 A 
ATOM      3  C3  IND d   1       1.978  -0.851  -2.872  0.00  0.00    -0.031 A 
ATOM      4  C4  IND d   1       1.522  -1.334  -0.385  0.00  0.00     0.051 A 
ATOM      5  C5  IND d   1       0.974  -0.779   0.737  0.00  0.00    -0.031 A 
ATOM      6  C6  IND d   1       0.361   0.457   0.714  0.00  0.00     0.015 A 
ATOM      7  C7  IND d   1       0.262   1.182  -0.439  0.00  0.00    -0.016 A 
ATOM      8  C8  IND d   1       0.824   0.625  -1.579  0.00  0.00    -0.047 A 
ATOM      9  C9  IND d   1       1.485  -0.610  -1.553  0.00  0.00    -0.096 A 
ATOM     10  HN1 IND d   1       0.585   1.855  -3.145  0.00  0.00     0.298 HD
ENDROOT
TORSDOF 0
ENDMDL
