MODEL 1
REMARK minimizedAffinity 10.0558434
REMARK minimizedRMSD -1
REMARK  1 active torsions:
REMARK  status: ('A' for Active; 'I' for Inactive)
REMARK    1  A    between atoms: C1_2  and  C2_3 
ROOT
ATOM      1  C2  UNL d   1       0.360   3.036   1.402  0.00  0.00    -0.077 A 
ATOM      2  C3  UNL d   1       1.718   2.811   1.669  0.00  0.00     0.002 A 
ATOM      3  C4  UNL d   1       2.111   2.182   2.851  0.00  0.00     0.002 A 
ATOM      4  C5  UNL d   1       1.152   1.769   3.775  0.00  0.00    -0.004 A 
ATOM      5  C6  UNL d   1      -0.201   1.990   3.520  0.00  0.00     0.002 A 
ATOM      6  C7  UNL d   1      -0.595   2.619   2.338  0.00  0.00     0.002 A 
ENDROOT
BRANCH   1   7
ATOM      7  C1  UNL d   1      -0.069   3.669   0.105  0.00  0.00     0.055 C 
ATOM      8  C   UNL d   1       0.870   4.798  -0.297  0.00  0.00     0.019 C 
ENDBRANCH   1   7
TORSDOF 1
ENDMDL
