MODEL 1
REMARK minimizedAffinity 5.08638239
REMARK minimizedRMSD -1
REMARK  1 active torsions:
REMARK  status: ('A' for Active; 'I' for Inactive)
REMARK    1  A    between atoms: C1_2  and  C2_3 
ROOT
ATOM      1  C2  UNL d   1      -0.089   3.593   0.767  0.00  0.00    -0.077 A 
ATOM      2  C3  UNL d   1       0.700   3.616  -0.391  0.00  0.00     0.002 A 
ATOM      3  C4  UNL d   1       0.919   4.816  -1.072  0.00  0.00     0.002 A 
ATOM      4  C5  UNL d   1       0.357   6.000  -0.600  0.00  0.00    -0.004 A 
ATOM      5  C6  UNL d   1      -0.431   5.986   0.550  0.00  0.00     0.002 A 
ATOM      6  C7  UNL d   1      -0.653   4.788   1.231  0.00  0.00     0.002 A 
ENDROOT
BRANCH   1   7
ATOM      7  C1  UNL d   1      -0.287   2.309   1.530  0.00  0.00     0.055 C 
ATOM      8  C   UNL d   1       0.526   2.299   2.817  0.00  0.00     0.019 C 
ENDBRANCH   1   7
TORSDOF 1
ENDMDL
