MODEL 1
REMARK minimizedAffinity 5.84831762
REMARK minimizedRMSD -1
REMARK  1 active torsions:
REMARK  status: ('A' for Active; 'I' for Inactive)
REMARK    1  A    between atoms: C1_2  and  C2_3 
ROOT
ATOM      1  C2  UNL d   1      -0.198   3.718   1.690  0.00  0.00    -0.077 A 
ATOM      2  C3  UNL d   1       0.256   3.391   0.405  0.00  0.00     0.002 A 
ATOM      3  C4  UNL d   1       0.218   4.338  -0.620  0.00  0.00     0.002 A 
ATOM      4  C5  UNL d   1      -0.270   5.619  -0.369  0.00  0.00    -0.004 A 
ATOM      5  C6  UNL d   1      -0.726   5.953   0.905  0.00  0.00     0.002 A 
ATOM      6  C7  UNL d   1      -0.690   5.008   1.930  0.00  0.00     0.002 A 
ENDROOT
BRANCH   1   7
ATOM      7  C1  UNL d   1      -0.112   2.713   2.810  0.00  0.00     0.055 C 
ATOM      8  C   UNL d   1       1.300   2.630   3.370  0.00  0.00     0.019 C 
ENDBRANCH   1   7
TORSDOF 1
ENDMDL
