MODEL 1
REMARK minimizedAffinity 3.02870369
REMARK minimizedRMSD -1
REMARK  1 active torsions:
REMARK  status: ('A' for Active; 'I' for Inactive)
REMARK    1  A    between atoms: C1_2  and  C2_3 
ROOT
ATOM      1  C2  UNL d   1      -0.212   3.818   1.448  0.00  0.00    -0.077 A 
ATOM      2  C3  UNL d   1       0.185   3.166   0.272  0.00  0.00     0.002 A 
ATOM      3  C4  UNL d   1       0.521   3.902  -0.865  0.00  0.00     0.002 A 
ATOM      4  C5  UNL d   1       0.468   5.294  -0.837  0.00  0.00    -0.004 A 
ATOM      5  C6  UNL d   1       0.073   5.952   0.327  0.00  0.00     0.002 A 
ATOM      6  C7  UNL d   1      -0.265   5.218   1.464  0.00  0.00     0.002 A 
ENDROOT
BRANCH   1   7
ATOM      7  C1  UNL d   1      -0.528   3.028   2.690  0.00  0.00     0.055 C 
ATOM      8  C   UNL d   1       0.705   2.306   3.216  0.00  0.00     0.019 C 
ENDBRANCH   1   7
TORSDOF 1
ENDMDL
