MODEL 1
REMARK minimizedAffinity 11.2291441
REMARK minimizedRMSD -1
REMARK  1 active torsions:
REMARK  status: ('A' for Active; 'I' for Inactive)
REMARK    1  A    between atoms: C1_2  and  C2_3 
ROOT
ATOM      1  C2  UNL d   1      -0.741   1.389   0.008  0.00  0.00    -0.077 A 
ATOM      2  C3  UNL d   1       0.372   0.753  -0.560  0.00  0.00     0.002 A 
ATOM      3  C4  UNL d   1       0.201  -0.325  -1.431  0.00  0.00     0.002 A 
ATOM      4  C5  UNL d   1      -1.081  -0.773  -1.745  0.00  0.00    -0.004 A 
ATOM      5  C6  UNL d   1      -2.194  -0.148  -1.184  0.00  0.00     0.002 A 
ATOM      6  C7  UNL d   1      -2.025   0.929  -0.312  0.00  0.00     0.002 A 
ENDROOT
BRANCH   1   7
ATOM      7  C1  UNL d   1      -0.561   2.583   0.908  0.00  0.00     0.055 C 
ATOM      8  C   UNL d   1      -0.308   3.850   0.104  0.00  0.00     0.019 C 
ENDBRANCH   1   7
TORSDOF 1
ENDMDL
