MODEL 1
REMARK minimizedAffinity 9.8319025
REMARK minimizedRMSD -1
REMARK  1 active torsions:
REMARK  status: ('A' for Active; 'I' for Inactive)
REMARK    1  A    between atoms: C1_2  and  C2_3 
ROOT
ATOM      1  C2  UNL d   1       0.282   3.511   1.179  0.00  0.00    -0.077 A 
ATOM      2  C3  UNL d   1       1.376   3.208   2.001  0.00  0.00     0.002 A 
ATOM      3  C4  UNL d   1       1.243   2.289   3.043  0.00  0.00     0.002 A 
ATOM      4  C5  UNL d   1       0.019   1.663   3.271  0.00  0.00    -0.004 A 
ATOM      5  C6  UNL d   1      -1.076   1.960   2.460  0.00  0.00     0.002 A 
ATOM      6  C7  UNL d   1      -0.945   2.879   1.418  0.00  0.00     0.002 A 
ENDROOT
BRANCH   1   7
ATOM      7  C1  UNL d   1       0.436   4.465   0.023  0.00  0.00     0.055 C 
ATOM      8  C   UNL d   1      -0.442   5.695   0.199  0.00  0.00     0.019 C 
ENDBRANCH   1   7
TORSDOF 1
ENDMDL
