MODEL 1
REMARK minimizedAffinity 4.080585
REMARK minimizedRMSD -1
REMARK  1 active torsions:
REMARK  status: ('A' for Active; 'I' for Inactive)
REMARK    1  A    between atoms: C1_2  and  C2_3 
ROOT
ATOM      1  C2  UNL d   1       0.811   1.876   2.259  0.00  0.00    -0.077 A 
ATOM      2  C3  UNL d   1      -0.045   2.922   1.888  0.00  0.00     0.002 A 
ATOM      3  C4  UNL d   1      -0.434   3.077   0.556  0.00  0.00     0.002 A 
ATOM      4  C5  UNL d   1       0.025   2.188  -0.414  0.00  0.00    -0.004 A 
ATOM      5  C6  UNL d   1       0.879   1.146  -0.055  0.00  0.00     0.002 A 
ATOM      6  C7  UNL d   1       1.269   0.990   1.276  0.00  0.00     0.002 A 
ENDROOT
BRANCH   1   7
ATOM      7  C1  UNL d   1       1.192   1.677   3.703  0.00  0.00     0.055 C 
ATOM      8  C   UNL d   1       1.353   0.201   4.035  0.00  0.00     0.019 C 
ENDBRANCH   1   7
TORSDOF 1
ENDMDL
