MODEL 1
REMARK minimizedAffinity 2.82941604
REMARK minimizedRMSD -1
REMARK  0 active torsions:
REMARK  status: ('A' for Active; 'I' for Inactive)
ROOT
ATOM      1  C1  BNZ d   1       5.998   0.007   0.004  0.00  0.00     0.000 A 
ATOM      2  C2  BNZ d   1       4.846  -0.657   0.329  0.00  0.00     0.000 A 
ATOM      3  C3  BNZ d   1       3.688  -0.428  -0.361  0.00  0.00     0.000 A 
ATOM      4  C4  BNZ d   1       3.675   0.491  -1.348  0.00  0.00     0.000 A 
ATOM      5  C5  BNZ d   1       4.827   1.175  -1.681  0.00  0.00     0.000 A 
ATOM      6  C6  BNZ d   1       6.000   0.914  -1.010  0.00  0.00     0.000 A 
ENDROOT
TORSDOF 0
ENDMDL
