MODEL 1
REMARK minimizedAffinity 3.75401735
REMARK minimizedRMSD -1
REMARK  0 active torsions:
REMARK  status: ('A' for Active; 'I' for Inactive)
ROOT
ATOM      1  C1  BNZ d   1       3.303   0.070  -0.623  0.00  0.00     0.000 A 
ATOM      2  C2  BNZ d   1       3.803   1.144  -1.311  0.00  0.00     0.000 A 
ATOM      3  C3  BNZ d   1       5.138   1.433  -1.282  0.00  0.00     0.000 A 
ATOM      4  C4  BNZ d   1       5.965   0.675  -0.534  0.00  0.00     0.000 A 
ATOM      5  C5  BNZ d   1       5.475  -0.405   0.173  0.00  0.00     0.000 A 
ATOM      6  C6  BNZ d   1       4.136  -0.717   0.110  0.00  0.00     0.000 A 
ENDROOT
TORSDOF 0
ENDMDL
