MODEL 1
REMARK minimizedAffinity 1.51682866
REMARK minimizedRMSD -1
REMARK  0 active torsions:
REMARK  status: ('A' for Active; 'I' for Inactive)
ROOT
ATOM      1  C1  BNZ d   1       2.155  -1.613  -0.246  0.00  0.00     0.000 A 
ATOM      2  C2  BNZ d   1       0.807  -1.775  -0.427  0.00  0.00     0.000 A 
ATOM      3  C3  BNZ d   1       0.322  -2.779  -1.217  0.00  0.00     0.000 A 
ATOM      4  C4  BNZ d   1       1.185  -3.596  -1.856  0.00  0.00     0.000 A 
ATOM      5  C5  BNZ d   1       2.547  -3.440  -1.691  0.00  0.00     0.000 A 
ATOM      6  C6  BNZ d   1       3.031  -2.452  -0.864  0.00  0.00     0.000 A 
ENDROOT
TORSDOF 0
ENDMDL
