MODEL 1
REMARK minimizedAffinity -0.231963679
REMARK minimizedRMSD -1
REMARK  0 active torsions:
REMARK  status: ('A' for Active; 'I' for Inactive)
ROOT
ATOM      1  C1  BNZ d   1       3.418  -0.058  -0.724  0.00  0.00     0.000 A 
ATOM      2  C2  BNZ d   1       4.168   1.059  -0.979  0.00  0.00     0.000 A 
ATOM      3  C3  BNZ d   1       5.456   1.154  -0.532  0.00  0.00     0.000 A 
ATOM      4  C4  BNZ d   1       5.979   0.150   0.202  0.00  0.00     0.000 A 
ATOM      5  C5  BNZ d   1       5.232  -0.978   0.475  0.00  0.00     0.000 A 
ATOM      6  C6  BNZ d   1       3.949  -1.087  -0.009  0.00  0.00     0.000 A 
ENDROOT
TORSDOF 0
ENDMDL
