MODEL 1
REMARK minimizedAffinity 3.7893374
REMARK minimizedRMSD -1
REMARK  0 active torsions:
REMARK  status: ('A' for Active; 'I' for Inactive)
ROOT
ATOM      1  C1  BNZ d   1       5.942   3.349  -0.523  0.00  0.00     0.000 A 
ATOM      2  C2  BNZ d   1       5.947   3.748  -1.833  0.00  0.00     0.000 A 
ATOM      3  C3  BNZ d   1       5.996   5.074  -2.160  0.00  0.00     0.000 A 
ATOM      4  C4  BNZ d   1       5.998   6.000  -1.180  0.00  0.00     0.000 A 
ATOM      5  C5  BNZ d   1       5.983   5.614   0.146  0.00  0.00     0.000 A 
ATOM      6  C6  BNZ d   1       5.974   4.277   0.472  0.00  0.00     0.000 A 
ENDROOT
TORSDOF 0
ENDMDL
