MODEL 1
REMARK minimizedAffinity -0.892602086
REMARK minimizedRMSD -1
REMARK  0 active torsions:
REMARK  status: ('A' for Active; 'I' for Inactive)
ROOT
ATOM      1  C2' OXE d   1       5.039  -2.532   3.433  0.00  0.00     0.078 C 
ATOM      2  C1' OXE d   1       2.706  -1.405   2.353  0.00  0.00     0.078 C 
ATOM      3  C1  OXE d   1       2.549  -2.457   3.423  0.00  0.00    -0.078 A 
ATOM      4  C2  OXE d   1       3.695  -3.037   3.912  0.00  0.00    -0.078 A 
ATOM      5  C3  OXE d   1       3.610  -3.973   4.939  0.00  0.00     0.003 A 
ATOM      6  C4  OXE d   1       2.363  -4.441   5.369  0.00  0.00    -0.002 A 
ATOM      7  C5  OXE d   1       1.183  -3.893   4.855  0.00  0.00    -0.002 A 
ATOM      8  C6  OXE d   1       1.259  -2.872   3.914  0.00  0.00     0.003 A 
ENDROOT
TORSDOF 0
ENDMDL
