MODEL 1
REMARK minimizedAffinity 6.46982288
REMARK minimizedRMSD -1
REMARK  0 active torsions:
REMARK  status: ('A' for Active; 'I' for Inactive)
ROOT
ATOM      1  C2' OXE d   1      -1.659   2.374   1.204  0.00  0.00     0.078 C 
ATOM      2  C1' OXE d   1      -2.331   4.003  -0.981  0.00  0.00     0.078 C 
ATOM      3  C1  OXE d   1      -3.384   3.771   0.073  0.00  0.00    -0.078 A 
ATOM      4  C2  OXE d   1      -3.062   2.935   1.115  0.00  0.00    -0.078 A 
ATOM      5  C3  OXE d   1      -3.978   2.730   2.143  0.00  0.00     0.003 A 
ATOM      6  C4  OXE d   1      -5.277   3.243   2.048  0.00  0.00    -0.002 A 
ATOM      7  C5  OXE d   1      -5.638   4.065   0.975  0.00  0.00    -0.002 A 
ATOM      8  C6  OXE d   1      -4.693   4.373   0.003  0.00  0.00     0.003 A 
ENDROOT
TORSDOF 0
ENDMDL
