MODEL 1
REMARK minimizedAffinity 3.40819764
REMARK minimizedRMSD -1
REMARK  0 active torsions:
REMARK  status: ('A' for Active; 'I' for Inactive)
ROOT
ATOM      1  C2' OXE d   1       4.736  -2.861   5.876  0.00  0.00     0.078 C 
ATOM      2  C1' OXE d   1       5.865  -2.053   3.436  0.00  0.00     0.078 C 
ATOM      3  C1  OXE d   1       4.370  -1.926   3.596  0.00  0.00    -0.078 A 
ATOM      4  C2  OXE d   1       3.821  -2.368   4.776  0.00  0.00    -0.078 A 
ATOM      5  C3  OXE d   1       2.454  -2.223   4.997  0.00  0.00     0.003 A 
ATOM      6  C4  OXE d   1       1.614  -1.775   3.970  0.00  0.00    -0.002 A 
ATOM      7  C5  OXE d   1       2.148  -1.358   2.746  0.00  0.00    -0.002 A 
ATOM      8  C6  OXE d   1       3.526  -1.387   2.559  0.00  0.00     0.003 A 
ENDROOT
TORSDOF 0
ENDMDL
