MODEL 1
REMARK minimizedAffinity 13.6261663
REMARK minimizedRMSD -1
REMARK  0 active torsions:
REMARK  status: ('A' for Active; 'I' for Inactive)
ROOT
ATOM      1  C2' OXE d   1       1.928   3.819  -1.049  0.00  0.00     0.078 C 
ATOM      2  C1' OXE d   1       3.021   1.629   0.326  0.00  0.00     0.078 C 
ATOM      3  C1  OXE d   1       1.545   1.600   0.018  0.00  0.00    -0.078 A 
ATOM      4  C2  OXE d   1       1.010   2.697  -0.614  0.00  0.00    -0.078 A 
ATOM      5  C3  OXE d   1      -0.336   2.698  -0.970  0.00  0.00     0.003 A 
ATOM      6  C4  OXE d   1      -1.180   1.661  -0.556  0.00  0.00    -0.002 A 
ATOM      7  C5  OXE d   1      -0.662   0.553   0.124  0.00  0.00    -0.002 A 
ATOM      8  C6  OXE d   1       0.703   0.487   0.380  0.00  0.00     0.003 A 
ENDROOT
TORSDOF 0
ENDMDL
