MODEL 1
REMARK minimizedAffinity 13.350893
REMARK minimizedRMSD -1
REMARK  0 active torsions:
REMARK  status: ('A' for Active; 'I' for Inactive)
ROOT
ATOM      1  C2' OXE d   1       5.647  -1.812  -4.344  0.00  0.00     0.078 C 
ATOM      2  C1' OXE d   1       3.378  -0.652  -3.167  0.00  0.00     0.078 C 
ATOM      3  C1  OXE d   1       4.148   0.169  -4.170  0.00  0.00    -0.078 A 
ATOM      4  C2  OXE d   1       5.283  -0.389  -4.706  0.00  0.00    -0.078 A 
ATOM      5  C3  OXE d   1       6.000   0.305  -5.677  0.00  0.00     0.003 A 
ATOM      6  C4  OXE d   1       5.663   1.625  -6.000  0.00  0.00    -0.002 A 
ATOM      7  C5  OXE d   1       4.533   2.227  -5.435  0.00  0.00    -0.002 A 
ATOM      8  C6  OXE d   1       3.742   1.499  -4.553  0.00  0.00     0.003 A 
ENDROOT
TORSDOF 0
ENDMDL
