MODEL 1
REMARK minimizedAffinity 14.7693157
REMARK minimizedRMSD -1
REMARK  0 active torsions:
REMARK  status: ('A' for Active; 'I' for Inactive)
ROOT
ATOM      1  C2' OXE d   1      -0.371   2.151  -0.026  0.00  0.00     0.078 C 
ATOM      2  C1' OXE d   1       0.644  -0.424   0.441  0.00  0.00     0.078 C 
ATOM      3  C1  OXE d   1       0.070  -0.130  -0.923  0.00  0.00    -0.078 A 
ATOM      4  C2  OXE d   1      -0.467   1.118  -1.127  0.00  0.00    -0.078 A 
ATOM      5  C3  OXE d   1      -0.960   1.459  -2.384  0.00  0.00     0.003 A 
ATOM      6  C4  OXE d   1      -1.053   0.494  -3.394  0.00  0.00    -0.002 A 
ATOM      7  C5  OXE d   1      -0.548  -0.795  -3.194  0.00  0.00    -0.002 A 
ATOM      8  C6  OXE d   1       0.054  -1.110  -1.981  0.00  0.00     0.003 A 
ENDROOT
TORSDOF 0
ENDMDL
