MODEL 1
REMARK minimizedAffinity 11.621685
REMARK minimizedRMSD -1
REMARK  0 active torsions:
REMARK  status: ('A' for Active; 'I' for Inactive)
ROOT
ATOM      1  C2' OXE d   1       1.560  -0.181   4.721  0.00  0.00     0.078 C 
ATOM      2  C1' OXE d   1       3.227  -0.856   2.565  0.00  0.00     0.078 C 
ATOM      3  C1  OXE d   1       2.545  -1.979   3.306  0.00  0.00    -0.078 A 
ATOM      4  C2  OXE d   1       1.768  -1.643   4.388  0.00  0.00    -0.078 A 
ATOM      5  C3  OXE d   1       1.073  -2.635   5.073  0.00  0.00     0.003 A 
ATOM      6  C4  OXE d   1       1.278  -3.985   4.765  0.00  0.00    -0.002 A 
ATOM      7  C5  OXE d   1       2.097  -4.352   3.691  0.00  0.00    -0.002 A 
ATOM      8  C6  OXE d   1       2.702  -3.361   2.926  0.00  0.00     0.003 A 
ENDROOT
TORSDOF 0
ENDMDL
