MODEL 1
REMARK minimizedAffinity 10.8478441
REMARK minimizedRMSD -1
REMARK  0 active torsions:
REMARK  status: ('A' for Active; 'I' for Inactive)
ROOT
ATOM      1  C2' OXE d   1       1.888  -3.887   4.506  0.00  0.00     0.078 C 
ATOM      2  C1' OXE d   1       4.209  -2.317   4.671  0.00  0.00     0.078 C 
ATOM      3  C1  OXE d   1       3.071  -1.802   3.826  0.00  0.00    -0.078 A 
ATOM      4  C2  OXE d   1       1.957  -2.599   3.713  0.00  0.00    -0.078 A 
ATOM      5  C3  OXE d   1       0.857  -2.148   2.990  0.00  0.00     0.003 A 
ATOM      6  C4  OXE d   1       0.933  -0.960   2.251  0.00  0.00    -0.002 A 
ATOM      7  C5  OXE d   1       2.073  -0.153   2.320  0.00  0.00    -0.002 A 
ATOM      8  C6  OXE d   1       3.132  -0.538   3.135  0.00  0.00     0.003 A 
ENDROOT
TORSDOF 0
ENDMDL
