MODEL 1
REMARK minimizedAffinity 2.72898436
REMARK minimizedRMSD -1
REMARK  0 active torsions:
REMARK  status: ('A' for Active; 'I' for Inactive)
ROOT
ATOM      1  C2' OXE d   1       2.473  -1.224   3.088  0.00  0.00     0.078 C 
ATOM      2  C1' OXE d   1       2.014  -2.106   5.713  0.00  0.00     0.078 C 
ATOM      3  C1  OXE d   1       3.429  -2.154   5.192  0.00  0.00    -0.078 A 
ATOM      4  C2  OXE d   1       3.637  -1.765   3.891  0.00  0.00    -0.078 A 
ATOM      5  C3  OXE d   1       4.930  -1.738   3.378  0.00  0.00     0.003 A 
ATOM      6  C4  OXE d   1       5.999  -2.249   4.123  0.00  0.00    -0.002 A 
ATOM      7  C5  OXE d   1       5.803  -2.688   5.437  0.00  0.00    -0.002 A 
ATOM      8  C6  OXE d   1       4.534  -2.607   6.000  0.00  0.00     0.003 A 
ENDROOT
TORSDOF 0
ENDMDL
