MODEL 1
REMARK minimizedAffinity 11.8617973
REMARK minimizedRMSD -1
REMARK  0 active torsions:
REMARK  status: ('A' for Active; 'I' for Inactive)
ROOT
ATOM      1  C2' OXE d   1       3.265  -2.685   3.278  0.00  0.00     0.078 C 
ATOM      2  C1' OXE d   1       2.635  -4.723   1.453  0.00  0.00     0.078 C 
ATOM      3  C1  OXE d   1       2.057  -3.352   1.204  0.00  0.00    -0.078 A 
ATOM      4  C2  OXE d   1       2.333  -2.372   2.127  0.00  0.00    -0.078 A 
ATOM      5  C3  OXE d   1       1.870  -1.077   1.917  0.00  0.00     0.003 A 
ATOM      6  C4  OXE d   1       1.000  -0.798   0.855  0.00  0.00    -0.002 A 
ATOM      7  C5  OXE d   1       0.674  -1.791  -0.075  0.00  0.00    -0.002 A 
ATOM      8  C6  OXE d   1       1.227  -3.060   0.061  0.00  0.00     0.003 A 
ENDROOT
TORSDOF 0
ENDMDL
