MODEL 1
REMARK minimizedAffinity 9.6776228
REMARK minimizedRMSD -1
REMARK  0 active torsions:
REMARK  status: ('A' for Active; 'I' for Inactive)
ROOT
ATOM      1  C2' OXE d   1       2.654  -1.239   3.769  0.00  0.00     0.078 C 
ATOM      2  C1' OXE d   1       2.103  -3.762   4.871  0.00  0.00     0.078 C 
ATOM      3  C1  OXE d   1       3.475  -3.178   5.101  0.00  0.00    -0.078 A 
ATOM      4  C2  OXE d   1       3.751  -1.964   4.519  0.00  0.00    -0.078 A 
ATOM      5  C3  OXE d   1       4.982  -1.356   4.746  0.00  0.00     0.003 A 
ATOM      6  C4  OXE d   1       5.995  -2.037   5.432  0.00  0.00    -0.002 A 
ATOM      7  C5  OXE d   1       5.747  -3.292   5.999  0.00  0.00    -0.002 A 
ATOM      8  C6  OXE d   1       4.482  -3.856   5.879  0.00  0.00     0.003 A 
ENDROOT
TORSDOF 0
ENDMDL
