MODEL 1
REMARK minimizedAffinity 6.41322184
REMARK minimizedRMSD -1
REMARK  0 active torsions:
REMARK  status: ('A' for Active; 'I' for Inactive)
ROOT
ATOM      1  C2' OXE d   1       5.445   5.235   0.815  0.00  0.00     0.078 C 
ATOM      2  C1' OXE d   1       5.320   5.200  -1.989  0.00  0.00     0.078 C 
ATOM      3  C1  OXE d   1       4.686   4.053  -1.242  0.00  0.00    -0.078 A 
ATOM      4  C2  OXE d   1       4.793   4.055   0.128  0.00  0.00    -0.078 A 
ATOM      5  C3  OXE d   1       4.178   3.049   0.868  0.00  0.00     0.003 A 
ATOM      6  C4  OXE d   1       3.586   1.956   0.224  0.00  0.00    -0.002 A 
ATOM      7  C5  OXE d   1       3.501   1.915  -1.172  0.00  0.00    -0.002 A 
ATOM      8  C6  OXE d   1       4.008   2.974  -1.917  0.00  0.00     0.003 A 
ENDROOT
TORSDOF 0
ENDMDL
