MODEL 1
REMARK minimizedAffinity 5.18344307
REMARK minimizedRMSD -1
REMARK  0 active torsions:
REMARK  status: ('A' for Active; 'I' for Inactive)
ROOT
ATOM      1  C2' OXE d   1       2.740   0.208   0.072  0.00  0.00     0.078 C 
ATOM      2  C1' OXE d   1       3.880   0.963  -2.379  0.00  0.00     0.078 C 
ATOM      3  C1  OXE d   1       4.433   1.589  -1.124  0.00  0.00    -0.078 A 
ATOM      4  C2  OXE d   1       3.838   1.249   0.067  0.00  0.00    -0.078 A 
ATOM      5  C3  OXE d   1       4.345   1.756   1.260  0.00  0.00     0.003 A 
ATOM      6  C4  OXE d   1       5.354   2.727   1.246  0.00  0.00    -0.002 A 
ATOM      7  C5  OXE d   1       5.947   3.117   0.040  0.00  0.00    -0.002 A 
ATOM      8  C6  OXE d   1       5.528   2.527  -1.147  0.00  0.00     0.003 A 
ENDROOT
TORSDOF 0
ENDMDL
