MODEL 1
REMARK minimizedAffinity 12.6371632
REMARK minimizedRMSD -1
REMARK  0 active torsions:
REMARK  status: ('A' for Active; 'I' for Inactive)
ROOT
ATOM      1  C2' OXE d   1       4.696   2.586  -1.736  0.00  0.00     0.078 C 
ATOM      2  C1' OXE d   1       4.476   2.236   1.041  0.00  0.00     0.078 C 
ATOM      3  C1  OXE d   1       3.720   1.282   0.149  0.00  0.00    -0.078 A 
ATOM      4  C2  OXE d   1       3.797   1.490  -1.207  0.00  0.00    -0.078 A 
ATOM      5  C3  OXE d   1       3.164   0.606  -2.076  0.00  0.00     0.003 A 
ATOM      6  C4  OXE d   1       2.325  -0.399  -1.579  0.00  0.00    -0.002 A 
ATOM      7  C5  OXE d   1       2.202  -0.603  -0.200  0.00  0.00    -0.002 A 
ATOM      8  C6  OXE d   1       2.925   0.200   0.675  0.00  0.00     0.003 A 
ENDROOT
TORSDOF 0
ENDMDL
