MODEL 1
REMARK minimizedAffinity 4.60716534
REMARK minimizedRMSD -1
REMARK  0 active torsions:
REMARK  status: ('A' for Active; 'I' for Inactive)
ROOT
ATOM      1  C2' OXE d   1       2.886  -1.602   1.412  0.00  0.00     0.078 C 
ATOM      2  C1' OXE d   1       5.263  -0.124   1.628  0.00  0.00     0.078 C 
ATOM      3  C1  OXE d   1       4.197   0.390   0.692  0.00  0.00    -0.078 A 
ATOM      4  C2  OXE d   1       3.057  -0.365   0.557  0.00  0.00    -0.078 A 
ATOM      5  C3  OXE d   1       2.020   0.092  -0.251  0.00  0.00     0.003 A 
ATOM      6  C4  OXE d   1       2.190   1.232  -1.046  0.00  0.00    -0.002 A 
ATOM      7  C5  OXE d   1       3.360   1.994  -0.953  0.00  0.00    -0.002 A 
ATOM      8  C6  OXE d   1       4.354   1.611  -0.059  0.00  0.00     0.003 A 
ENDROOT
TORSDOF 0
ENDMDL
