MODEL 1
REMARK minimizedAffinity 8.99396896
REMARK minimizedRMSD -1
REMARK  0 active torsions:
REMARK  status: ('A' for Active; 'I' for Inactive)
ROOT
ATOM      1  C2' OXE d   1       4.625   3.261  -1.608  0.00  0.00     0.078 C 
ATOM      2  C1' OXE d   1       4.940   2.947   1.164  0.00  0.00     0.078 C 
ATOM      3  C1  OXE d   1       4.024   1.987   0.447  0.00  0.00    -0.078 A 
ATOM      4  C2  OXE d   1       3.840   2.177  -0.902  0.00  0.00    -0.078 A 
ATOM      5  C3  OXE d   1       3.048   1.287  -1.621  0.00  0.00     0.003 A 
ATOM      6  C4  OXE d   1       2.317   0.293  -0.959  0.00  0.00    -0.002 A 
ATOM      7  C5  OXE d   1       2.460   0.108   0.420  0.00  0.00    -0.002 A 
ATOM      8  C6  OXE d   1       3.340   0.917   1.129  0.00  0.00     0.003 A 
ENDROOT
TORSDOF 0
ENDMDL
