MODEL 1
REMARK minimizedAffinity 9.72288513
REMARK minimizedRMSD -1
REMARK  0 active torsions:
REMARK  status: ('A' for Active; 'I' for Inactive)
ROOT
ATOM      1  C2' OXE d   1       3.159   1.963  -1.402  0.00  0.00     0.078 C 
ATOM      2  C1' OXE d   1       3.505   1.489   1.343  0.00  0.00     0.078 C 
ATOM      3  C1  OXE d   1       3.009   0.349   0.490  0.00  0.00    -0.078 A 
ATOM      4  C2  OXE d   1       2.797   0.603  -0.844  0.00  0.00    -0.078 A 
ATOM      5  C3  OXE d   1       2.392  -0.428  -1.687  0.00  0.00     0.003 A 
ATOM      6  C4  OXE d   1       2.051  -1.680  -1.161  0.00  0.00    -0.002 A 
ATOM      7  C5  OXE d   1       2.220  -1.948   0.202  0.00  0.00    -0.002 A 
ATOM      8  C6  OXE d   1       2.738  -0.959   1.031  0.00  0.00     0.003 A 
ENDROOT
TORSDOF 0
ENDMDL
