MODEL 1
REMARK minimizedAffinity 13.9390106
REMARK minimizedRMSD -1
REMARK  0 active torsions:
REMARK  status: ('A' for Active; 'I' for Inactive)
ROOT
ATOM      1  C2' OXE d   1       4.044   2.392  -1.591  0.00  0.00     0.078 C 
ATOM      2  C1' OXE d   1       5.210   2.102  -4.128  0.00  0.00     0.078 C 
ATOM      3  C1  OXE d   1       5.311   3.449  -3.457  0.00  0.00    -0.078 A 
ATOM      4  C2  OXE d   1       4.697   3.595  -2.236  0.00  0.00    -0.078 A 
ATOM      5  C3  OXE d   1       4.806   4.800  -1.549  0.00  0.00     0.003 A 
ATOM      6  C4  OXE d   1       5.403   5.911  -2.157  0.00  0.00    -0.002 A 
ATOM      7  C5  OXE d   1       6.000   5.796  -3.417  0.00  0.00    -0.002 A 
ATOM      8  C6  OXE d   1       6.000   4.563  -4.060  0.00  0.00     0.003 A 
ENDROOT
TORSDOF 0
ENDMDL
