MODEL 1
REMARK minimizedAffinity 11.8012609
REMARK minimizedRMSD -1
REMARK  0 active torsions:
REMARK  status: ('A' for Active; 'I' for Inactive)
ROOT
ATOM      1  C2' OXE d   1       2.597  -0.942  -2.276  0.00  0.00     0.078 C 
ATOM      2  C1' OXE d   1       1.982   0.600  -0.012  0.00  0.00     0.078 C 
ATOM      3  C1  OXE d   1       2.754   1.262  -1.126  0.00  0.00    -0.078 A 
ATOM      4  C2  OXE d   1       3.091   0.487  -2.209  0.00  0.00    -0.078 A 
ATOM      5  C3  OXE d   1       3.756   1.062  -3.289  0.00  0.00     0.003 A 
ATOM      6  C4  OXE d   1       4.218   2.381  -3.215  0.00  0.00    -0.002 A 
ATOM      7  C5  OXE d   1       3.920   3.177  -2.104  0.00  0.00    -0.002 A 
ATOM      8  C6  OXE d   1       3.154   2.646  -1.071  0.00  0.00     0.003 A 
ENDROOT
TORSDOF 0
ENDMDL
