MODEL 1
REMARK minimizedAffinity 6.33959532
REMARK minimizedRMSD -1
REMARK  0 active torsions:
REMARK  status: ('A' for Active; 'I' for Inactive)
ROOT
ATOM      1  C2' OXE d   1      -5.991   4.097   2.325  0.00  0.00     0.078 C 
ATOM      2  C1' OXE d   1      -3.263   4.754   2.260  0.00  0.00     0.078 C 
ATOM      3  C1  OXE d   1      -3.967   4.804   3.593  0.00  0.00    -0.078 A 
ATOM      4  C2  OXE d   1      -5.313   4.527   3.608  0.00  0.00    -0.078 A 
ATOM      5  C3  OXE d   1      -5.999   4.505   4.819  0.00  0.00     0.003 A 
ATOM      6  C4  OXE d   1      -5.366   4.913   6.000  0.00  0.00    -0.002 A 
ATOM      7  C5  OXE d   1      -4.005   5.239   6.000  0.00  0.00    -0.002 A 
ATOM      8  C6  OXE d   1      -3.283   5.148   4.815  0.00  0.00     0.003 A 
ENDROOT
TORSDOF 0
ENDMDL
