MODEL 1
REMARK minimizedAffinity 15.7894859
REMARK minimizedRMSD -1
REMARK  0 active torsions:
REMARK  status: ('A' for Active; 'I' for Inactive)
ROOT
ATOM      1  C2' OXE d   1       1.189  -1.747  -2.276  0.00  0.00     0.078 C 
ATOM      2  C1' OXE d   1       0.789  -3.667  -0.267  0.00  0.00     0.078 C 
ATOM      3  C1  OXE d   1       1.256  -2.296   0.153  0.00  0.00    -0.078 A 
ATOM      4  C2  OXE d   1       1.495  -1.377  -0.841  0.00  0.00    -0.078 A 
ATOM      5  C3  OXE d   1       1.875  -0.081  -0.504  0.00  0.00     0.003 A 
ATOM      6  C4  OXE d   1       2.165   0.250   0.825  0.00  0.00    -0.002 A 
ATOM      7  C5  OXE d   1       1.967  -0.682   1.848  0.00  0.00    -0.002 A 
ATOM      8  C6  OXE d   1       1.474  -1.944   1.535  0.00  0.00     0.003 A 
ENDROOT
TORSDOF 0
ENDMDL
