MODEL 1
REMARK minimizedAffinity 0.741558671
REMARK minimizedRMSD -1
REMARK  1 active torsions:
REMARK  status: ('A' for Active; 'I' for Inactive)
REMARK    1  A    between atoms: C1_2  and  C2_3 
ROOT
ATOM      1  C2  UNL d   1      -4.517  -5.261  -2.617  0.00  0.00    -0.077 A 
ATOM      2  C3  UNL d   1      -3.704  -5.642  -3.694  0.00  0.00     0.002 A 
ATOM      3  C4  UNL d   1      -4.038  -5.270  -4.998  0.00  0.00     0.002 A 
ATOM      4  C5  UNL d   1      -5.184  -4.513  -5.236  0.00  0.00    -0.004 A 
ATOM      5  C6  UNL d   1      -6.000  -4.131  -4.172  0.00  0.00     0.002 A 
ATOM      6  C7  UNL d   1      -5.668  -4.503  -2.869  0.00  0.00     0.002 A 
ENDROOT
BRANCH   1   7
ATOM      7  C1  UNL d   1      -4.131  -5.619  -1.206  0.00  0.00     0.055 C 
ATOM      8  C   UNL d   1      -3.376  -4.482  -0.533  0.00  0.00     0.019 C 
ENDBRANCH   1   7
TORSDOF 1
ENDMDL
