MODEL 1
REMARK minimizedAffinity 6.37316227
REMARK minimizedRMSD -1
REMARK  1 active torsions:
REMARK  status: ('A' for Active; 'I' for Inactive)
REMARK    1  A    between atoms: C1_2  and  C2_3 
ROOT
ATOM      1  C2  UNL d   1      -4.316  -4.840  -4.646  0.00  0.00    -0.077 A 
ATOM      2  C3  UNL d   1      -3.984  -5.884  -3.771  0.00  0.00     0.002 A 
ATOM      3  C4  UNL d   1      -4.624  -6.000  -2.536  0.00  0.00     0.002 A 
ATOM      4  C5  UNL d   1      -5.602  -5.078  -2.166  0.00  0.00    -0.004 A 
ATOM      5  C6  UNL d   1      -5.937  -4.036  -3.029  0.00  0.00     0.002 A 
ATOM      6  C7  UNL d   1      -5.298  -3.918  -4.264  0.00  0.00     0.002 A 
ENDROOT
BRANCH   1   7
ATOM      7  C1  UNL d   1      -3.662  -4.742  -6.000  0.00  0.00     0.055 C 
ATOM      8  C   UNL d   1      -2.269  -4.140  -5.899  0.00  0.00     0.019 C 
ENDBRANCH   1   7
TORSDOF 1
ENDMDL
