MODEL 1
REMARK minimizedAffinity -3.00767803
REMARK minimizedRMSD -1
REMARK  1 active torsions:
REMARK  status: ('A' for Active; 'I' for Inactive)
REMARK    1  A    between atoms: C1_2  and  C2_3 
ROOT
ATOM      1  C2  UNL d   1      -1.277  -2.530  -0.010  0.00  0.00    -0.077 A 
ATOM      2  C3  UNL d   1      -2.052  -1.874  -0.977  0.00  0.00     0.002 A 
ATOM      3  C4  UNL d   1      -2.378  -2.514  -2.174  0.00  0.00     0.002 A 
ATOM      4  C5  UNL d   1      -1.936  -3.813  -2.414  0.00  0.00    -0.004 A 
ATOM      5  C6  UNL d   1      -1.163  -4.473  -1.461  0.00  0.00     0.002 A 
ATOM      6  C7  UNL d   1      -0.835  -3.835  -0.263  0.00  0.00     0.002 A 
ENDROOT
BRANCH   1   7
ATOM      7  C1  UNL d   1      -0.966  -1.860   1.303  0.00  0.00     0.055 C 
ATOM      8  C   UNL d   1      -0.060  -0.653   1.107  0.00  0.00     0.019 C 
ENDBRANCH   1   7
TORSDOF 1
ENDMDL
