MODEL 1
REMARK minimizedAffinity 8.33639526
REMARK minimizedRMSD -1
REMARK  1 active torsions:
REMARK  status: ('A' for Active; 'I' for Inactive)
REMARK    1  A    between atoms: C1_2  and  C2_3 
ROOT
ATOM      1  C2  UNL d   1       5.929   0.713   0.800  0.00  0.00    -0.077 A 
ATOM      2  C3  UNL d   1       5.998   1.734   1.758  0.00  0.00     0.002 A 
ATOM      3  C4  UNL d   1       5.969   3.074   1.366  0.00  0.00     0.002 A 
ATOM      4  C5  UNL d   1       5.867   3.405   0.017  0.00  0.00    -0.004 A 
ATOM      5  C6  UNL d   1       5.800   2.396  -0.944  0.00  0.00     0.002 A 
ATOM      6  C7  UNL d   1       5.830   1.057  -0.554  0.00  0.00     0.002 A 
ENDROOT
BRANCH   1   7
ATOM      7  C1  UNL d   1       5.910  -0.732   1.225  0.00  0.00     0.055 C 
ATOM      8  C   UNL d   1       4.905  -0.967   2.343  0.00  0.00     0.019 C 
ENDBRANCH   1   7
TORSDOF 1
ENDMDL
