MODEL 1
REMARK minimizedAffinity 5.1742382
REMARK minimizedRMSD -1
REMARK  1 active torsions:
REMARK  status: ('A' for Active; 'I' for Inactive)
REMARK    1  A    between atoms: C1_2  and  C2_3 
ROOT
ATOM      1  C2  UNL d   1       4.274   0.471   1.704  0.00  0.00    -0.077 A 
ATOM      2  C3  UNL d   1       3.309  -0.347   2.309  0.00  0.00     0.002 A 
ATOM      3  C4  UNL d   1       1.969   0.045   2.336  0.00  0.00     0.002 A 
ATOM      4  C5  UNL d   1       1.581   1.252   1.758  0.00  0.00    -0.004 A 
ATOM      5  C6  UNL d   1       2.534   2.073   1.157  0.00  0.00     0.002 A 
ATOM      6  C7  UNL d   1       3.874   1.684   1.129  0.00  0.00     0.002 A 
ENDROOT
BRANCH   1   7
ATOM      7  C1  UNL d   1       5.711   0.028   1.630  0.00  0.00     0.055 C 
ATOM      8  C   UNL d   1       6.000  -0.698   0.323  0.00  0.00     0.019 C 
ENDBRANCH   1   7
TORSDOF 1
ENDMDL
