MODEL 1
REMARK minimizedAffinity 5.48762989
REMARK minimizedRMSD -1
REMARK  1 active torsions:
REMARK  status: ('A' for Active; 'I' for Inactive)
REMARK    1  A    between atoms: C1_2  and  C2_3 
ROOT
ATOM      1  C2  UNL d   1       5.999   1.569   0.419  0.00  0.00    -0.077 A 
ATOM      2  C3  UNL d   1       5.997   0.521  -0.512  0.00  0.00     0.002 A 
ATOM      3  C4  UNL d   1       5.997  -0.807  -0.081  0.00  0.00     0.002 A 
ATOM      4  C5  UNL d   1       5.995  -1.099   1.282  0.00  0.00    -0.004 A 
ATOM      5  C6  UNL d   1       5.999  -0.063   2.216  0.00  0.00     0.002 A 
ATOM      6  C7  UNL d   1       6.000   1.265   1.786  0.00  0.00     0.002 A 
ENDROOT
BRANCH   1   7
ATOM      7  C1  UNL d   1       5.949   3.002  -0.044  0.00  0.00     0.055 C 
ATOM      8  C   UNL d   1       5.837   3.960   1.133  0.00  0.00     0.019 C 
ENDBRANCH   1   7
TORSDOF 1
ENDMDL
