MODEL 1
REMARK minimizedAffinity 11.9537983
REMARK minimizedRMSD -1
REMARK  1 active torsions:
REMARK  status: ('A' for Active; 'I' for Inactive)
REMARK    1  A    between atoms: C1_2  and  C2_3 
ROOT
ATOM      1  C2  UNL d   1       2.378   0.664   1.723  0.00  0.00    -0.077 A 
ATOM      2  C3  UNL d   1       3.226  -0.416   2.005  0.00  0.00     0.002 A 
ATOM      3  C4  UNL d   1       4.521  -0.452   1.484  0.00  0.00     0.002 A 
ATOM      4  C5  UNL d   1       4.980   0.591   0.682  0.00  0.00    -0.004 A 
ATOM      5  C6  UNL d   1       4.143   1.668   0.394  0.00  0.00     0.002 A 
ATOM      6  C7  UNL d   1       2.848   1.705   0.912  0.00  0.00     0.002 A 
ENDROOT
BRANCH   1   7
ATOM      7  C1  UNL d   1       0.998   0.728   2.324  0.00  0.00     0.055 C 
ATOM      8  C   UNL d   1       0.302   2.036   1.976  0.00  0.00     0.019 C 
ENDBRANCH   1   7
TORSDOF 1
ENDMDL
