MODEL 1
REMARK minimizedAffinity -2.50887442
REMARK minimizedRMSD -1
REMARK  1 active torsions:
REMARK  status: ('A' for Active; 'I' for Inactive)
REMARK    1  A    between atoms: C1_2  and  C2_3 
ROOT
ATOM      1  C2  UNL d   1      -3.755  -5.124  -4.771  0.00  0.00    -0.077 A 
ATOM      2  C3  UNL d   1      -3.239  -5.598  -3.557  0.00  0.00     0.002 A 
ATOM      3  C4  UNL d   1      -4.094  -5.900  -2.496  0.00  0.00     0.002 A 
ATOM      4  C5  UNL d   1      -5.470  -5.735  -2.639  0.00  0.00    -0.004 A 
ATOM      5  C6  UNL d   1      -5.993  -5.262  -3.842  0.00  0.00     0.002 A 
ATOM      6  C7  UNL d   1      -5.140  -4.959  -4.903  0.00  0.00     0.002 A 
ENDROOT
BRANCH   1   7
ATOM      7  C1  UNL d   1      -2.839  -4.845  -5.934  0.00  0.00     0.055 C 
ATOM      8  C   UNL d   1      -1.701  -5.854  -5.997  0.00  0.00     0.019 C 
ENDBRANCH   1   7
TORSDOF 1
ENDMDL
