MODEL 1
REMARK minimizedAffinity 8.6587038
REMARK minimizedRMSD -1
REMARK  1 active torsions:
REMARK  status: ('A' for Active; 'I' for Inactive)
REMARK    1  A    between atoms: C1_2  and  C2_3 
ROOT
ATOM      1  C2  UNL d   1      -1.168  -3.531  -0.330  0.00  0.00    -0.077 A 
ATOM      2  C3  UNL d   1      -2.461  -3.014  -0.170  0.00  0.00     0.002 A 
ATOM      3  C4  UNL d   1      -3.360  -3.020  -1.239  0.00  0.00     0.002 A 
ATOM      4  C5  UNL d   1      -2.977  -3.545  -2.471  0.00  0.00    -0.004 A 
ATOM      5  C6  UNL d   1      -1.693  -4.059  -2.640  0.00  0.00     0.002 A 
ATOM      6  C7  UNL d   1      -0.792  -4.054  -1.574  0.00  0.00     0.002 A 
ENDROOT
BRANCH   1   7
ATOM      7  C1  UNL d   1      -0.213  -3.571   0.835  0.00  0.00     0.055 C 
ATOM      8  C   UNL d   1      -0.946  -3.402   2.158  0.00  0.00     0.019 C 
ENDBRANCH   1   7
TORSDOF 1
ENDMDL
