MODEL 1
REMARK minimizedAffinity 3.56627417
REMARK minimizedRMSD -1
REMARK  1 active torsions:
REMARK  status: ('A' for Active; 'I' for Inactive)
REMARK    1  A    between atoms: C1_2  and  C2_3 
ROOT
ATOM      1  C2  UNL d   1       1.103  -2.869  -5.994  0.00  0.00    -0.077 A 
ATOM      2  C3  UNL d   1       0.225  -1.776  -5.993  0.00  0.00     0.002 A 
ATOM      3  C4  UNL d   1      -1.156  -1.979  -5.996  0.00  0.00     0.002 A 
ATOM      4  C5  UNL d   1      -1.672  -3.274  -5.995  0.00  0.00    -0.004 A 
ATOM      5  C6  UNL d   1      -0.807  -4.367  -5.998  0.00  0.00     0.002 A 
ATOM      6  C7  UNL d   1       0.574  -4.166  -5.996  0.00  0.00     0.002 A 
ENDROOT
BRANCH   1   7
ATOM      7  C1  UNL d   1       2.592  -2.652  -5.941  0.00  0.00     0.055 C 
ATOM      8  C   UNL d   1       3.326  -3.934  -5.573  0.00  0.00     0.019 C 
ENDBRANCH   1   7
TORSDOF 1
ENDMDL
