MODEL 1
REMARK minimizedAffinity -4.09081268
REMARK minimizedRMSD -1
REMARK  2 active torsions:
REMARK  status: ('A' for Active; 'I' for Inactive)
REMARK    1  A    between atoms: C2'_3  and  C1'_4 
REMARK    2  A    between atoms: C1'_4  and  C1_5 
ROOT
ATOM      1  C1  I4B d   1       0.725  -0.882   0.008  0.00  0.00    -0.075 A 
ATOM      2  C2  I4B d   1       1.694  -1.039   0.967  0.00  0.00     0.003 A 
ATOM      3  C3  I4B d   1       1.943  -2.316   1.527  0.00  0.00     0.002 A 
ATOM      4  C4  I4B d   1       1.171  -3.391   1.137  0.00  0.00    -0.004 A 
ATOM      5  C5  I4B d   1       0.205  -3.235   0.147  0.00  0.00     0.002 A 
ATOM      6  C6  I4B d   1      -0.012  -1.975  -0.430  0.00  0.00     0.003 A 
ENDROOT
BRANCH   1   7
ATOM      7  C1' I4B d   1       0.465   0.486  -0.537  0.00  0.00     0.060 C 
BRANCH   7   8
ATOM      8  C2' I4B d   1      -1.017   0.769  -0.402  0.00  0.00    -0.013 C 
ATOM      9  C4' I4B d   1      -1.367   1.182   1.004  0.00  0.00     0.013 C 
ATOM     10  C3' I4B d   1      -1.376   1.842  -1.386  0.00  0.00     0.013 C 
ENDBRANCH   7   8
ENDBRANCH   1   7
TORSDOF 2
ENDMDL
