MODEL 1
REMARK minimizedAffinity -4.24300718
REMARK minimizedRMSD -1
REMARK  2 active torsions:
REMARK  status: ('A' for Active; 'I' for Inactive)
REMARK    1  A    between atoms: C2'_3  and  C1'_4 
REMARK    2  A    between atoms: C1'_4  and  C1_5 
ROOT
ATOM      1  C1  I4B d   1       0.015   0.309  -0.229  0.00  0.00    -0.075 A 
ATOM      2  C2  I4B d   1       1.384   0.384  -0.300  0.00  0.00     0.003 A 
ATOM      3  C3  I4B d   1       2.185  -0.608   0.316  0.00  0.00     0.002 A 
ATOM      4  C4  I4B d   1       1.581  -1.623   1.030  0.00  0.00    -0.004 A 
ATOM      5  C5  I4B d   1       0.192  -1.710   1.081  0.00  0.00     0.002 A 
ATOM      6  C6  I4B d   1      -0.596  -0.745   0.437  0.00  0.00     0.003 A 
ENDROOT
BRANCH   1   7
ATOM      7  C1' I4B d   1      -0.799   1.392  -0.862  0.00  0.00     0.060 C 
BRANCH   7   8
ATOM      8  C2' I4B d   1      -1.997   0.746  -1.528  0.00  0.00    -0.013 C 
ATOM      9  C4' I4B d   1      -3.223   0.844  -0.658  0.00  0.00     0.013 C 
ATOM     10  C3' I4B d   1      -2.215   1.424  -2.848  0.00  0.00     0.013 C 
ENDBRANCH   7   8
ENDBRANCH   1   7
TORSDOF 2
ENDMDL
