MODEL 1
REMARK minimizedAffinity -3.50364995
REMARK minimizedRMSD -1
REMARK  2 active torsions:
REMARK  status: ('A' for Active; 'I' for Inactive)
REMARK    1  A    between atoms: C2'_3  and  C1'_4 
REMARK    2  A    between atoms: C1'_4  and  C1_5 
ROOT
ATOM      1  C1  I4B d   1       0.091   0.589   0.041  0.00  0.00    -0.075 A 
ATOM      2  C2  I4B d   1      -0.355  -0.430   0.846  0.00  0.00     0.003 A 
ATOM      3  C3  I4B d   1       0.540  -1.436   1.283  0.00  0.00     0.002 A 
ATOM      4  C4  I4B d   1       1.851  -1.414   0.852  0.00  0.00    -0.004 A 
ATOM      5  C5  I4B d   1       2.306  -0.368   0.055  0.00  0.00     0.002 A 
ATOM      6  C6  I4B d   1       1.424   0.647  -0.344  0.00  0.00     0.003 A 
ENDROOT
BRANCH   1   7
ATOM      7  C1' I4B d   1      -0.889   1.617  -0.429  0.00  0.00     0.060 C 
BRANCH   7   8
ATOM      8  C2' I4B d   1      -1.634   1.044  -1.617  0.00  0.00    -0.013 C 
ATOM      9  C4' I4B d   1      -3.005   0.563  -1.221  0.00  0.00     0.013 C 
ATOM     10  C3' I4B d   1      -1.717   2.109  -2.670  0.00  0.00     0.013 C 
ENDBRANCH   7   8
ENDBRANCH   1   7
TORSDOF 2
ENDMDL
