MODEL 1
REMARK minimizedAffinity -2.55995512
REMARK minimizedRMSD -1
REMARK  2 active torsions:
REMARK  status: ('A' for Active; 'I' for Inactive)
REMARK    1  A    between atoms: C2'_3  and  C1'_4 
REMARK    2  A    between atoms: C1'_4  and  C1_5 
ROOT
ATOM      1  C1  I4B d   1       0.703  -0.478  -0.551  0.00  0.00    -0.075 A 
ATOM      2  C2  I4B d   1       2.037  -0.378  -0.243  0.00  0.00     0.003 A 
ATOM      3  C3  I4B d   1       2.616  -1.254   0.707  0.00  0.00     0.002 A 
ATOM      4  C4  I4B d   1       1.820  -2.174   1.357  0.00  0.00    -0.004 A 
ATOM      5  C5  I4B d   1       0.473  -2.290   1.027  0.00  0.00     0.002 A 
ATOM      6  C6  I4B d   1      -0.087  -1.445   0.058  0.00  0.00     0.003 A 
ENDROOT
BRANCH   1   7
ATOM      7  C1' I4B d   1       0.117   0.484  -1.535  0.00  0.00     0.060 C 
BRANCH   7   8
ATOM      8  C2' I4B d   1      -1.217   0.953  -0.991  0.00  0.00    -0.013 C 
ATOM      9  C4' I4B d   1      -1.069   1.534   0.391  0.00  0.00     0.013 C 
ATOM     10  C3' I4B d   1      -1.777   1.965  -1.946  0.00  0.00     0.013 C 
ENDBRANCH   7   8
ENDBRANCH   1   7
TORSDOF 2
ENDMDL
