MODEL 1
REMARK minimizedAffinity -0.621638656
REMARK minimizedRMSD -1
REMARK  2 active torsions:
REMARK  status: ('A' for Active; 'I' for Inactive)
REMARK    1  A    between atoms: C2'_3  and  C1'_4 
REMARK    2  A    between atoms: C1'_4  and  C1_5 
ROOT
ATOM      1  C1  I4B d   1      -0.110  -1.587   0.460  0.00  0.00    -0.075 A 
ATOM      2  C2  I4B d   1      -0.920  -2.285   1.322  0.00  0.00     0.003 A 
ATOM      3  C3  I4B d   1      -1.813  -1.594   2.177  0.00  0.00     0.002 A 
ATOM      4  C4  I4B d   1      -1.827  -0.214   2.174  0.00  0.00    -0.004 A 
ATOM      5  C5  I4B d   1      -1.022   0.490   1.283  0.00  0.00     0.002 A 
ATOM      6  C6  I4B d   1      -0.167  -0.201   0.412  0.00  0.00     0.003 A 
ENDROOT
BRANCH   1   7
ATOM      7  C1' I4B d   1       0.844  -2.347  -0.405  0.00  0.00     0.060 C 
BRANCH   7   8
ATOM      8  C2' I4B d   1       2.248  -2.068   0.091  0.00  0.00    -0.013 C 
ATOM      9  C4' I4B d   1       2.856  -0.891  -0.626  0.00  0.00     0.013 C 
ATOM     10  C3' I4B d   1       2.176  -1.823   1.569  0.00  0.00     0.013 C 
ENDBRANCH   7   8
ENDBRANCH   1   7
TORSDOF 2
ENDMDL
