MODEL 1
REMARK minimizedAffinity -3.13313389
REMARK minimizedRMSD -1
REMARK  2 active torsions:
REMARK  status: ('A' for Active; 'I' for Inactive)
REMARK    1  A    between atoms: C2'_3  and  C1'_4 
REMARK    2  A    between atoms: C1'_4  and  C1_5 
ROOT
ATOM      1  C1  I4B d   1      -1.421   0.854  -1.283  0.00  0.00    -0.075 A 
ATOM      2  C2  I4B d   1      -1.273   2.205  -1.473  0.00  0.00     0.003 A 
ATOM      3  C3  I4B d   1      -1.707   2.807  -2.679  0.00  0.00     0.002 A 
ATOM      4  C4  I4B d   1      -2.233   2.018  -3.681  0.00  0.00    -0.004 A 
ATOM      5  C5  I4B d   1      -2.403   0.652  -3.478  0.00  0.00     0.002 A 
ATOM      6  C6  I4B d   1      -2.006   0.067  -2.267  0.00  0.00     0.003 A 
ENDROOT
BRANCH   1   7
ATOM      7  C1' I4B d   1      -0.922   0.246  -0.011  0.00  0.00     0.060 C 
BRANCH   7   8
ATOM      8  C2' I4B d   1       0.338  -0.533  -0.328  0.00  0.00    -0.013 C 
ATOM      9  C4' I4B d   1       1.567   0.212   0.121  0.00  0.00     0.013 C 
ATOM     10  C3' I4B d   1       0.239  -1.869   0.345  0.00  0.00     0.013 C 
ENDBRANCH   7   8
ENDBRANCH   1   7
TORSDOF 2
ENDMDL
