MODEL 1
REMARK minimizedAffinity -3.22928715
REMARK minimizedRMSD -1
REMARK  2 active torsions:
REMARK  status: ('A' for Active; 'I' for Inactive)
REMARK    1  A    between atoms: C2'_3  and  C1'_4 
REMARK    2  A    between atoms: C1'_4  and  C1_5 
ROOT
ATOM      1  C1  I4B d   1      -0.144   0.361   0.016  0.00  0.00    -0.075 A 
ATOM      2  C2  I4B d   1       1.217   0.531  -0.045  0.00  0.00     0.003 A 
ATOM      3  C3  I4B d   1       2.082  -0.571   0.159  0.00  0.00     0.002 A 
ATOM      4  C4  I4B d   1       1.549  -1.806   0.469  0.00  0.00    -0.004 A 
ATOM      5  C5  I4B d   1       0.169  -1.981   0.507  0.00  0.00     0.002 A 
ATOM      6  C6  I4B d   1      -0.684  -0.894   0.267  0.00  0.00     0.003 A 
ENDROOT
BRANCH   1   7
ATOM      7  C1' I4B d   1      -1.028   1.553  -0.172  0.00  0.00     0.060 C 
BRANCH   7   8
ATOM      8  C2' I4B d   1      -1.576   1.511  -1.584  0.00  0.00    -0.013 C 
ATOM      9  C4' I4B d   1      -3.039   1.153  -1.591  0.00  0.00     0.013 C 
ATOM     10  C3' I4B d   1      -1.343   2.853  -2.211  0.00  0.00     0.013 C 
ENDBRANCH   7   8
ENDBRANCH   1   7
TORSDOF 2
ENDMDL
