MODEL 1
REMARK minimizedAffinity -4.73846006
REMARK minimizedRMSD -1
REMARK  2 active torsions:
REMARK  status: ('A' for Active; 'I' for Inactive)
REMARK    1  A    between atoms: C2'_3  and  C1'_4 
REMARK    2  A    between atoms: C1'_4  and  C1_5 
ROOT
ATOM      1  C1  I4B d   1      -0.987   1.182  -1.129  0.00  0.00    -0.075 A 
ATOM      2  C2  I4B d   1      -0.612   2.377  -1.693  0.00  0.00     0.003 A 
ATOM      3  C3  I4B d   1      -1.094   2.743  -2.973  0.00  0.00     0.002 A 
ATOM      4  C4  I4B d   1      -1.902   1.869  -3.671  0.00  0.00    -0.004 A 
ATOM      5  C5  I4B d   1      -2.299   0.668  -3.088  0.00  0.00     0.002 A 
ATOM      6  C6  I4B d   1      -1.849   0.328  -1.804  0.00  0.00     0.003 A 
ENDROOT
BRANCH   1   7
ATOM      7  C1' I4B d   1      -0.433   0.813   0.210  0.00  0.00     0.060 C 
BRANCH   7   8
ATOM      8  C2' I4B d   1      -0.367  -0.699   0.287  0.00  0.00    -0.013 C 
ATOM      9  C4' I4B d   1       1.056  -1.187   0.219  0.00  0.00     0.013 C 
ATOM     10  C3' I4B d   1      -1.026  -1.127   1.564  0.00  0.00     0.013 C 
ENDBRANCH   7   8
ENDBRANCH   1   7
TORSDOF 2
ENDMDL
