MODEL 1
REMARK minimizedAffinity -4.38466978
REMARK minimizedRMSD -1
REMARK  2 active torsions:
REMARK  status: ('A' for Active; 'I' for Inactive)
REMARK    1  A    between atoms: C2'_3  and  C1'_4 
REMARK    2  A    between atoms: C1'_4  and  C1_5 
ROOT
ATOM      1  C1  I4B d   1       0.936  -0.344  -0.029  0.00  0.00    -0.075 A 
ATOM      2  C2  I4B d   1       2.181  -0.348   0.548  0.00  0.00     0.003 A 
ATOM      3  C3  I4B d   1       2.601  -1.451   1.331  0.00  0.00     0.002 A 
ATOM      4  C4  I4B d   1       1.730  -2.498   1.551  0.00  0.00    -0.004 A 
ATOM      5  C5  I4B d   1       0.476  -2.503   0.947  0.00  0.00     0.002 A 
ATOM      6  C6  I4B d   1       0.081  -1.425   0.141  0.00  0.00     0.003 A 
ENDROOT
BRANCH   1   7
ATOM      7  C1' I4B d   1       0.513   0.851  -0.822  0.00  0.00     0.060 C 
BRANCH   7   8
ATOM      8  C2' I4B d   1      -0.984   1.014  -0.660  0.00  0.00    -0.013 C 
ATOM      9  C4' I4B d   1      -1.326   1.605   0.683  0.00  0.00     0.013 C 
ATOM     10  C3' I4B d   1      -1.480   1.883  -1.776  0.00  0.00     0.013 C 
ENDBRANCH   7   8
ENDBRANCH   1   7
TORSDOF 2
ENDMDL
