MODEL 1
REMARK minimizedAffinity -4.29725456
REMARK minimizedRMSD -1
REMARK  2 active torsions:
REMARK  status: ('A' for Active; 'I' for Inactive)
REMARK    1  A    between atoms: C2'_3  and  C1'_4 
REMARK    2  A    between atoms: C1'_4  and  C1_5 
ROOT
ATOM      1  C1  I4B d   1      -0.221   0.520   0.202  0.00  0.00    -0.075 A 
ATOM      2  C2  I4B d   1      -0.676  -0.569   0.902  0.00  0.00     0.003 A 
ATOM      3  C3  I4B d   1       0.200  -1.639   1.205  0.00  0.00     0.002 A 
ATOM      4  C4  I4B d   1       1.502  -1.601   0.749  0.00  0.00    -0.004 A 
ATOM      5  C5  I4B d   1       1.968  -0.485   0.059  0.00  0.00     0.002 A 
ATOM      6  C6  I4B d   1       1.105   0.588  -0.206  0.00  0.00     0.003 A 
ENDROOT
BRANCH   1   7
ATOM      7  C1' I4B d   1      -1.182   1.617  -0.129  0.00  0.00     0.060 C 
BRANCH   7   8
ATOM      8  C2' I4B d   1      -1.365   1.639  -1.633  0.00  0.00    -0.013 C 
ATOM      9  C4' I4B d   1      -2.782   1.302  -2.015  0.00  0.00     0.013 C 
ATOM     10  C3' I4B d   1      -0.981   3.002  -2.127  0.00  0.00     0.013 C 
ENDBRANCH   7   8
ENDBRANCH   1   7
TORSDOF 2
ENDMDL
