MODEL 1
REMARK minimizedAffinity -3.9868567
REMARK minimizedRMSD -1
REMARK  2 active torsions:
REMARK  status: ('A' for Active; 'I' for Inactive)
REMARK    1  A    between atoms: C2'_3  and  C1'_4 
REMARK    2  A    between atoms: C1'_4  and  C1_5 
ROOT
ATOM      1  C1  I4B d   1      -0.170   0.691  -0.481  0.00  0.00    -0.075 A 
ATOM      2  C2  I4B d   1      -0.956   0.067   0.455  0.00  0.00     0.003 A 
ATOM      3  C3  I4B d   1      -0.466  -1.058   1.163  0.00  0.00     0.002 A 
ATOM      4  C4  I4B d   1       0.788  -1.551   0.869  0.00  0.00    -0.004 A 
ATOM      5  C5  I4B d   1       1.593  -0.903  -0.063  0.00  0.00     0.002 A 
ATOM      6  C6  I4B d   1       1.117   0.232  -0.734  0.00  0.00     0.003 A 
ENDROOT
BRANCH   1   7
ATOM      7  C1' I4B d   1      -0.731   1.856  -1.233  0.00  0.00     0.060 C 
BRANCH   7   8
ATOM      8  C2' I4B d   1      -1.101   1.379  -2.623  0.00  0.00    -0.013 C 
ATOM      9  C4' I4B d   1      -2.518   0.871  -2.666  0.00  0.00     0.013 C 
ATOM     10  C3' I4B d   1      -0.907   2.524  -3.572  0.00  0.00     0.013 C 
ENDBRANCH   7   8
ENDBRANCH   1   7
TORSDOF 2
ENDMDL
