MODEL 1
REMARK minimizedAffinity -2.79337764
REMARK minimizedRMSD -1
REMARK  2 active torsions:
REMARK  status: ('A' for Active; 'I' for Inactive)
REMARK    1  A    between atoms: C2'_3  and  C1'_4 
REMARK    2  A    between atoms: C1'_4  and  C1_5 
ROOT
ATOM      1  C1  I4B d   1      -0.743   1.175  -1.055  0.00  0.00    -0.075 A 
ATOM      2  C2  I4B d   1      -0.631   2.430  -1.599  0.00  0.00     0.003 A 
ATOM      3  C3  I4B d   1      -1.467   2.818  -2.674  0.00  0.00     0.002 A 
ATOM      4  C4  I4B d   1      -2.359   1.908  -3.204  0.00  0.00    -0.004 A 
ATOM      5  C5  I4B d   1      -2.487   0.644  -2.636  0.00  0.00     0.002 A 
ATOM      6  C6  I4B d   1      -1.683   0.278  -1.547  0.00  0.00     0.003 A 
ENDROOT
BRANCH   1   7
ATOM      7  C1' I4B d   1       0.178   0.787   0.058  0.00  0.00     0.060 C 
BRANCH   7   8
ATOM      8  C2' I4B d   1       0.010  -0.699   0.306  0.00  0.00    -0.013 C 
ATOM      9  C4' I4B d   1       1.333  -1.416   0.240  0.00  0.00     0.013 C 
ATOM     10  C3' I4B d   1      -0.634  -0.873   1.650  0.00  0.00     0.013 C 
ENDBRANCH   7   8
ENDBRANCH   1   7
TORSDOF 2
ENDMDL
