MODEL 1
REMARK minimizedAffinity -1.16232061
REMARK minimizedRMSD -1
REMARK  2 active torsions:
REMARK  status: ('A' for Active; 'I' for Inactive)
REMARK    1  A    between atoms: C2'_3  and  C1'_4 
REMARK    2  A    between atoms: C1'_4  and  C1_5 
ROOT
ATOM      1  C1  I4B d   1      -0.226   0.241  -0.130  0.00  0.00    -0.075 A 
ATOM      2  C2  I4B d   1       1.142   0.239  -0.250  0.00  0.00     0.003 A 
ATOM      3  C3  I4B d   1       1.884  -0.921   0.080  0.00  0.00     0.002 A 
ATOM      4  C4  I4B d   1       1.228  -2.031   0.572  0.00  0.00    -0.004 A 
ATOM      5  C5  I4B d   1      -0.161  -2.034   0.671  0.00  0.00     0.002 A 
ATOM      6  C6  I4B d   1      -0.893  -0.895   0.306  0.00  0.00     0.003 A 
ENDROOT
BRANCH   1   7
ATOM      7  C1' I4B d   1      -0.975   1.494  -0.457  0.00  0.00     0.060 C 
BRANCH   7   8
ATOM      8  C2' I4B d   1      -1.346   1.447  -1.925  0.00  0.00    -0.013 C 
ATOM      9  C4' I4B d   1      -2.827   1.245  -2.107  0.00  0.00     0.013 C 
ATOM     10  C3' I4B d   1      -0.892   2.728  -2.559  0.00  0.00     0.013 C 
ENDBRANCH   7   8
ENDBRANCH   1   7
TORSDOF 2
ENDMDL
