MODEL 1
REMARK minimizedAffinity -3.18938756
REMARK minimizedRMSD -1
REMARK  0 active torsions:
REMARK  status: ('A' for Active; 'I' for Inactive)
ROOT
ATOM      1  C   UNL d   1       2.892  -0.737   0.803  0.00  0.00     0.124 A 
ATOM      2  C1  UNL d   1       2.629   0.619   0.937  0.00  0.00     0.062 A 
ATOM      3  C2  UNL d   1       1.421   1.146   0.491  0.00  0.00     0.162 A 
ATOM      4  C3  UNL d   1       0.464   0.315  -0.094  0.00  0.00    -0.034 A 
ATOM      5  C4  UNL d   1       0.736  -1.048  -0.226  0.00  0.00     0.162 A 
ATOM      6  C5  UNL d   1       1.946  -1.569   0.222  0.00  0.00     0.062 A 
ATOM      7  F   UNL d   1       2.198  -2.880   0.091  0.00  0.00    -0.097 F 
ATOM      8  F1  UNL d   1      -0.161  -1.875  -0.783  0.00  0.00    -0.096 F 
ATOM      9  I   UNL d   1      -1.344   1.098  -0.763  0.00  0.00    -0.060 I 
ATOM     10  F2  UNL d   1       1.194   2.460   0.633  0.00  0.00    -0.096 F 
ATOM     11  F3  UNL d   1       3.542   1.425   1.498  0.00  0.00    -0.097 F 
ATOM     12  F4  UNL d   1       4.056  -1.241   1.233  0.00  0.00    -0.092 F 
ENDROOT
TORSDOF 0
ENDMDL
