MODEL 1
REMARK minimizedAffinity 2.34395576
REMARK minimizedRMSD -1
REMARK  0 active torsions:
REMARK  status: ('A' for Active; 'I' for Inactive)
ROOT
ATOM      1  C   UNL d   1       2.402  -1.479   0.235  0.00  0.00     0.124 A 
ATOM      2  C1  UNL d   1       1.634  -1.605  -0.914  0.00  0.00     0.062 A 
ATOM      3  C2  UNL d   1       0.404  -0.962  -1.007  0.00  0.00     0.162 A 
ATOM      4  C3  UNL d   1      -0.067  -0.186   0.052  0.00  0.00    -0.034 A 
ATOM      5  C4  UNL d   1       0.710  -0.065   1.205  0.00  0.00     0.162 A 
ATOM      6  C5  UNL d   1       1.940  -0.710   1.293  0.00  0.00     0.062 A 
ATOM      7  F   UNL d   1       2.680  -0.587   2.405  0.00  0.00    -0.097 F 
ATOM      8  F1  UNL d   1       0.288   0.674   2.242  0.00  0.00    -0.096 F 
ATOM      9  I   UNL d   1      -1.907   0.778  -0.084  0.00  0.00    -0.060 I 
ATOM     10  F2  UNL d   1      -0.317  -1.101  -2.130  0.00  0.00    -0.096 F 
ATOM     11  F3  UNL d   1       2.079  -2.349  -1.937  0.00  0.00    -0.097 F 
ATOM     12  F4  UNL d   1       3.586  -2.100   0.323  0.00  0.00    -0.092 F 
ENDROOT
TORSDOF 0
ENDMDL
