MODEL 1
REMARK minimizedAffinity -3.43971539
REMARK minimizedRMSD -1
REMARK  0 active torsions:
REMARK  status: ('A' for Active; 'I' for Inactive)
ROOT
ATOM      1  C   UNL d   1       2.170  -0.692   0.603  0.00  0.00     0.124 A 
ATOM      2  C1  UNL d   1       1.318  -1.574  -0.046  0.00  0.00     0.062 A 
ATOM      3  C2  UNL d   1      -0.014  -1.231  -0.260  0.00  0.00     0.162 A 
ATOM      4  C3  UNL d   1      -0.502   0.002   0.174  0.00  0.00    -0.034 A 
ATOM      5  C4  UNL d   1       0.362   0.884   0.826  0.00  0.00     0.162 A 
ATOM      6  C5  UNL d   1       1.692   0.536   1.038  0.00  0.00     0.062 A 
ATOM      7  F   UNL d   1       2.515   1.390   1.664  0.00  0.00    -0.097 F 
ATOM      8  F1  UNL d   1      -0.074   2.077   1.256  0.00  0.00    -0.096 F 
ATOM      9  I   UNL d   1      -2.492   0.519  -0.144  0.00  0.00    -0.060 I 
ATOM     10  F2  UNL d   1      -0.816  -2.103  -0.889  0.00  0.00    -0.096 F 
ATOM     11  F3  UNL d   1       1.777  -2.762  -0.466  0.00  0.00    -0.097 F 
ATOM     12  F4  UNL d   1       3.451  -1.025   0.808  0.00  0.00    -0.092 F 
ENDROOT
TORSDOF 0
ENDMDL
