MODEL 1
REMARK minimizedAffinity 2.64885449
REMARK minimizedRMSD -1
REMARK  0 active torsions:
REMARK  status: ('A' for Active; 'I' for Inactive)
ROOT
ATOM      1  C   UNL d   1       1.485   1.072   0.850  0.00  0.00     0.124 A 
ATOM      2  C1  UNL d   1       0.677   2.034   0.260  0.00  0.00     0.062 A 
ATOM      3  C2  UNL d   1      -0.655   1.752  -0.024  0.00  0.00     0.162 A 
ATOM      4  C3  UNL d   1      -1.191   0.501   0.283  0.00  0.00    -0.034 A 
ATOM      5  C4  UNL d   1      -0.372  -0.463   0.875  0.00  0.00     0.162 A 
ATOM      6  C5  UNL d   1       0.959  -0.175   1.157  0.00  0.00     0.062 A 
ATOM      7  F   UNL d   1       1.737  -1.107   1.727  0.00  0.00    -0.097 F 
ATOM      8  F1  UNL d   1      -0.854  -1.676   1.183  0.00  0.00    -0.096 F 
ATOM      9  I   UNL d   1      -3.183   0.074  -0.141  0.00  0.00    -0.060 I 
ATOM     10  F2  UNL d   1      -1.412   2.701  -0.595  0.00  0.00    -0.096 F 
ATOM     11  F3  UNL d   1       1.183   3.240  -0.038  0.00  0.00    -0.097 F 
ATOM     12  F4  UNL d   1       2.767   1.346   1.122  0.00  0.00    -0.092 F 
ENDROOT
TORSDOF 0
ENDMDL
