MODEL 1
REMARK minimizedAffinity -3.28529191
REMARK minimizedRMSD -1
REMARK  0 active torsions:
REMARK  status: ('A' for Active; 'I' for Inactive)
ROOT
ATOM      1  C   UNL d   1       2.363   0.953   0.700  0.00  0.00     0.124 A 
ATOM      2  C1  UNL d   1       2.469  -0.426   0.815  0.00  0.00     0.062 A 
ATOM      3  C2  UNL d   1       1.554  -1.254   0.172  0.00  0.00     0.162 A 
ATOM      4  C3  UNL d   1       0.524  -0.706  -0.593  0.00  0.00    -0.034 A 
ATOM      5  C4  UNL d   1       0.424   0.682  -0.703  0.00  0.00     0.162 A 
ATOM      6  C5  UNL d   1       1.341   1.506  -0.058  0.00  0.00     0.062 A 
ATOM      7  F   UNL d   1       1.237   2.838  -0.170  0.00  0.00    -0.097 F 
ATOM      8  F1  UNL d   1      -0.554   1.243  -1.430  0.00  0.00    -0.096 F 
ATOM      9  I   UNL d   1      -0.846  -1.941  -1.555  0.00  0.00    -0.060 I 
ATOM     10  F2  UNL d   1       1.681  -2.583   0.301  0.00  0.00    -0.096 F 
ATOM     11  F3  UNL d   1       3.456  -0.962   1.548  0.00  0.00    -0.097 F 
ATOM     12  F4  UNL d   1       3.245   1.748   1.320  0.00  0.00    -0.092 F 
ENDROOT
TORSDOF 0
ENDMDL
