MODEL 1
REMARK minimizedAffinity -3.22816205
REMARK minimizedRMSD -1
REMARK  0 active torsions:
REMARK  status: ('A' for Active; 'I' for Inactive)
ROOT
ATOM      1  C   UNL d   1       3.047  -0.299  -0.155  0.00  0.00     0.124 A 
ATOM      2  C1  UNL d   1       2.649   1.028  -0.074  0.00  0.00     0.062 A 
ATOM      3  C2  UNL d   1       1.296   1.354  -0.075  0.00  0.00     0.162 A 
ATOM      4  C3  UNL d   1       0.330   0.351  -0.156  0.00  0.00    -0.034 A 
ATOM      5  C4  UNL d   1       0.738  -0.981  -0.238  0.00  0.00     0.162 A 
ATOM      6  C5  UNL d   1       2.092  -1.302  -0.237  0.00  0.00     0.062 A 
ATOM      7  F   UNL d   1       2.475  -2.585  -0.315  0.00  0.00    -0.097 F 
ATOM      8  F1  UNL d   1      -0.164  -1.971  -0.318  0.00  0.00    -0.096 F 
ATOM      9  I   UNL d   1      -1.694   0.835  -0.158  0.00  0.00    -0.060 I 
ATOM     10  F2  UNL d   1       0.940   2.645   0.004  0.00  0.00    -0.096 F 
ATOM     11  F3  UNL d   1       3.570   1.999   0.004  0.00  0.00    -0.097 F 
ATOM     12  F4  UNL d   1       4.350  -0.610  -0.155  0.00  0.00    -0.092 F 
ENDROOT
TORSDOF 0
ENDMDL
