MODEL 1
REMARK minimizedAffinity -1.88237262
REMARK minimizedRMSD -1
REMARK  0 active torsions:
REMARK  status: ('A' for Active; 'I' for Inactive)
ROOT
ATOM      1  C   UNL d   1       2.526  -1.336   0.435  0.00  0.00     0.124 A 
ATOM      2  C1  UNL d   1       2.170  -0.064   0.858  0.00  0.00     0.062 A 
ATOM      3  C2  UNL d   1       0.898   0.434   0.588  0.00  0.00     0.162 A 
ATOM      4  C3  UNL d   1      -0.027  -0.342  -0.110  0.00  0.00    -0.034 A 
ATOM      5  C4  UNL d   1       0.339  -1.621  -0.534  0.00  0.00     0.162 A 
ATOM      6  C5  UNL d   1       1.611  -2.113  -0.261  0.00  0.00     0.062 A 
ATOM      7  F   UNL d   1       1.953  -3.343  -0.671  0.00  0.00    -0.097 F 
ATOM      8  F1  UNL d   1      -0.527  -2.393  -1.207  0.00  0.00    -0.096 F 
ATOM      9  I   UNL d   1      -1.929   0.399  -0.517  0.00  0.00    -0.060 I 
ATOM     10  F2  UNL d   1       0.581   1.667   1.009  0.00  0.00    -0.096 F 
ATOM     11  F3  UNL d   1       3.053   0.690   1.530  0.00  0.00    -0.097 F 
ATOM     12  F4  UNL d   1       3.750  -1.812   0.696  0.00  0.00    -0.092 F 
ENDROOT
TORSDOF 0
ENDMDL
