MODEL 1
REMARK minimizedAffinity -4.25226641
REMARK minimizedRMSD -1
REMARK  0 active torsions:
REMARK  status: ('A' for Active; 'I' for Inactive)
ROOT
ATOM      1  C   UNL d   1       2.276  -0.708   0.787  0.00  0.00     0.124 A 
ATOM      2  C1  UNL d   1       1.846   0.610   0.853  0.00  0.00     0.062 A 
ATOM      3  C2  UNL d   1       0.589   0.962   0.369  0.00  0.00     0.162 A 
ATOM      4  C3  UNL d   1      -0.248  -0.007  -0.184  0.00  0.00    -0.034 A 
ATOM      5  C4  UNL d   1       0.192  -1.331  -0.248  0.00  0.00     0.162 A 
ATOM      6  C5  UNL d   1       1.449  -1.677   0.237  0.00  0.00     0.062 A 
ATOM      7  F   UNL d   1       1.863  -2.951   0.172  0.00  0.00    -0.097 F 
ATOM      8  F1  UNL d   1      -0.587  -2.288  -0.773  0.00  0.00    -0.096 F 
ATOM      9  I   UNL d   1      -2.128   0.513  -0.908  0.00  0.00    -0.060 I 
ATOM     10  F2  UNL d   1       0.199   2.243   0.446  0.00  0.00    -0.096 F 
ATOM     11  F3  UNL d   1       2.644   1.549   1.383  0.00  0.00    -0.097 F 
ATOM     12  F4  UNL d   1       3.487  -1.042   1.252  0.00  0.00    -0.092 F 
ENDROOT
TORSDOF 0
ENDMDL
