MODEL 1
REMARK minimizedAffinity -1.47564125
REMARK minimizedRMSD -1
REMARK  0 active torsions:
REMARK  status: ('A' for Active; 'I' for Inactive)
ROOT
ATOM      1  C   UNL d   1       0.771  -0.942  -0.209  0.00  0.00     0.124 A 
ATOM      2  C1  UNL d   1      -0.459  -1.080  -0.836  0.00  0.00     0.062 A 
ATOM      3  C2  UNL d   1      -1.548  -0.323  -0.414  0.00  0.00     0.162 A 
ATOM      4  C3  UNL d   1      -1.412   0.580   0.639  0.00  0.00    -0.034 A 
ATOM      5  C4  UNL d   1      -0.171   0.713   1.266  0.00  0.00     0.162 A 
ATOM      6  C5  UNL d   1       0.914  -0.046   0.841  0.00  0.00     0.062 A 
ATOM      7  F   UNL d   1       2.103   0.089   1.447  0.00  0.00    -0.097 F 
ATOM      8  F1  UNL d   1      -0.005   1.573   2.282  0.00  0.00    -0.096 F 
ATOM      9  I   UNL d   1      -3.038   1.714   1.273  0.00  0.00    -0.060 I 
ATOM     10  F2  UNL d   1      -2.726  -0.478  -1.038  0.00  0.00    -0.096 F 
ATOM     11  F3  UNL d   1      -0.600  -1.946  -1.850  0.00  0.00    -0.097 F 
ATOM     12  F4  UNL d   1       1.818  -1.673  -0.616  0.00  0.00    -0.092 F 
ENDROOT
TORSDOF 0
ENDMDL
