MODEL 1
REMARK minimizedAffinity 1.82317007
REMARK minimizedRMSD -1
REMARK  0 active torsions:
REMARK  status: ('A' for Active; 'I' for Inactive)
ROOT
ATOM      1  C   UNL d   1       1.969   1.384   0.967  0.00  0.00     0.124 A 
ATOM      2  C1  UNL d   1       1.083   1.730  -0.045  0.00  0.00     0.062 A 
ATOM      3  C2  UNL d   1       0.452   0.739  -0.792  0.00  0.00     0.162 A 
ATOM      4  C3  UNL d   1       0.704  -0.607  -0.530  0.00  0.00    -0.034 A 
ATOM      5  C4  UNL d   1       1.597  -0.948   0.488  0.00  0.00     0.162 A 
ATOM      6  C5  UNL d   1       2.225   0.046   1.232  0.00  0.00     0.062 A 
ATOM      7  F   UNL d   1       3.080  -0.290   2.208  0.00  0.00    -0.097 F 
ATOM      8  F1  UNL d   1       1.862  -2.233   0.766  0.00  0.00    -0.096 F 
ATOM      9  I   UNL d   1      -0.237  -2.092  -1.645  0.00  0.00    -0.060 I 
ATOM     10  F2  UNL d   1      -0.399   1.102  -1.763  0.00  0.00    -0.096 F 
ATOM     11  F3  UNL d   1       0.834   3.022  -0.303  0.00  0.00    -0.097 F 
ATOM     12  F4  UNL d   1       2.575   2.339   1.683  0.00  0.00    -0.092 F 
ENDROOT
TORSDOF 0
ENDMDL
