MODEL 1
REMARK minimizedAffinity -3.83400798
REMARK minimizedRMSD -1
REMARK  0 active torsions:
REMARK  status: ('A' for Active; 'I' for Inactive)
ROOT
ATOM      1  C   UNL d   1       2.589  -0.206   0.339  0.00  0.00     0.124 A 
ATOM      2  C1  UNL d   1       1.662  -1.159  -0.058  0.00  0.00     0.062 A 
ATOM      3  C2  UNL d   1       0.341  -0.793  -0.300  0.00  0.00     0.162 A 
ATOM      4  C3  UNL d   1      -0.060   0.534  -0.147  0.00  0.00    -0.034 A 
ATOM      5  C4  UNL d   1       0.878   1.487   0.254  0.00  0.00     0.162 A 
ATOM      6  C5  UNL d   1       2.197   1.116   0.495  0.00  0.00     0.062 A 
ATOM      7  F   UNL d   1       3.091   2.038   0.878  0.00  0.00    -0.097 F 
ATOM      8  F1  UNL d   1       0.526   2.772   0.411  0.00  0.00    -0.096 F 
ATOM      9  I   UNL d   1      -2.034   1.086  -0.509  0.00  0.00    -0.060 I 
ATOM     10  F2  UNL d   1      -0.533  -1.735  -0.683  0.00  0.00    -0.096 F 
ATOM     11  F3  UNL d   1       2.039  -2.438  -0.208  0.00  0.00    -0.097 F 
ATOM     12  F4  UNL d   1       3.859  -0.562   0.573  0.00  0.00    -0.092 F 
ENDROOT
TORSDOF 0
ENDMDL
