MODEL 1
REMARK minimizedAffinity 0.0777770951
REMARK minimizedRMSD -1
REMARK  0 active torsions:
REMARK  status: ('A' for Active; 'I' for Inactive)
ROOT
ATOM      1  C   UNL d   1       0.052  -1.930  -1.182  0.00  0.00     0.124 A 
ATOM      2  C1  UNL d   1      -0.601  -0.706  -1.202  0.00  0.00     0.062 A 
ATOM      3  C2  UNL d   1       0.026   0.430  -0.698  0.00  0.00     0.162 A 
ATOM      4  C3  UNL d   1       1.315   0.347  -0.171  0.00  0.00    -0.034 A 
ATOM      5  C4  UNL d   1       1.965  -0.888  -0.154  0.00  0.00     0.162 A 
ATOM      6  C5  UNL d   1       1.334  -2.020  -0.658  0.00  0.00     0.062 A 
ATOM      7  F   UNL d   1       1.967  -3.202  -0.638  0.00  0.00    -0.097 F 
ATOM      8  F1  UNL d   1       3.204  -1.003   0.346  0.00  0.00    -0.096 F 
ATOM      9  I   UNL d   1       2.256   2.044   0.584  0.00  0.00    -0.060 I 
ATOM     10  F2  UNL d   1      -0.629   1.601  -0.730  0.00  0.00    -0.096 F 
ATOM     11  F3  UNL d   1      -1.840  -0.616  -1.707  0.00  0.00    -0.097 F 
ATOM     12  F4  UNL d   1      -0.554  -3.022  -1.667  0.00  0.00    -0.092 F 
ENDROOT
TORSDOF 0
ENDMDL
