MODEL 1
REMARK minimizedAffinity -1.82799721
REMARK minimizedRMSD -1
REMARK  0 active torsions:
REMARK  status: ('A' for Active; 'I' for Inactive)
ROOT
ATOM      1  C   UNL d   1       2.172  -0.677   0.482  0.00  0.00     0.124 A 
ATOM      2  C1  UNL d   1       1.701   0.622   0.613  0.00  0.00     0.062 A 
ATOM      3  C2  UNL d   1       0.400   0.936   0.232  0.00  0.00     0.162 A 
ATOM      4  C3  UNL d   1      -0.440  -0.050  -0.284  0.00  0.00    -0.034 A 
ATOM      5  C4  UNL d   1       0.041  -1.354  -0.414  0.00  0.00     0.162 A 
ATOM      6  C5  UNL d   1       1.342  -1.664  -0.031  0.00  0.00     0.062 A 
ATOM      7  F   UNL d   1       1.796  -2.919  -0.159  0.00  0.00    -0.097 F 
ATOM      8  F1  UNL d   1      -0.740  -2.327  -0.906  0.00  0.00    -0.096 F 
ATOM      9  I   UNL d   1      -2.386   0.416  -0.855  0.00  0.00    -0.060 I 
ATOM     10  F2  UNL d   1      -0.028   2.200   0.370  0.00  0.00    -0.096 F 
ATOM     11  F3  UNL d   1       2.502   1.577   1.108  0.00  0.00    -0.097 F 
ATOM     12  F4  UNL d   1       3.425  -0.977   0.848  0.00  0.00    -0.092 F 
ENDROOT
TORSDOF 0
ENDMDL
