MODEL 1
REMARK minimizedAffinity -4.86245012
REMARK minimizedRMSD -1
REMARK  0 active torsions:
REMARK  status: ('A' for Active; 'I' for Inactive)
ROOT
ATOM      1  C   UNL d   1      -2.633  -1.829   0.534  0.00  0.00     0.023 A 
ATOM      2  C1  UNL d   1      -2.359  -0.730  -0.279  0.00  0.00     0.003 A 
ATOM      3  C2  UNL d   1      -1.178  -0.006  -0.103  0.00  0.00     0.048 A 
ATOM      4  C3  UNL d   1      -0.275  -0.387   0.888  0.00  0.00     0.023 A 
ATOM      5  C4  UNL d   1      -0.543  -1.488   1.704  0.00  0.00     0.048 A 
ATOM      6  C5  UNL d   1      -1.726  -2.208   1.524  0.00  0.00     0.003 A 
ATOM      7  I   UNL d   1       1.484   0.689   1.151  0.00  0.00    -0.146 I 
ENDROOT
TORSDOF 0
ENDMDL
