MODEL 1
REMARK minimizedAffinity -3.216506
REMARK minimizedRMSD -1
REMARK  0 active torsions:
REMARK  status: ('A' for Active; 'I' for Inactive)
ROOT
ATOM      1  C   UNL d   1       0.500  -0.950   1.900  0.00  0.00     0.023 A 
ATOM      2  C1  UNL d   1       1.004  -0.710   0.621  0.00  0.00     0.003 A 
ATOM      3  C2  UNL d   1       1.471   0.561   0.281  0.00  0.00     0.048 A 
ATOM      4  C3  UNL d   1       1.433   1.587   1.224  0.00  0.00     0.023 A 
ATOM      5  C4  UNL d   1       0.931   1.352   2.505  0.00  0.00     0.048 A 
ATOM      6  C5  UNL d   1       0.463   0.080   2.840  0.00  0.00     0.003 A 
ATOM      7  I   UNL d   1       2.129   3.479   0.720  0.00  0.00    -0.146 I 
ENDROOT
TORSDOF 0
ENDMDL
