MODEL 1
REMARK minimizedAffinity -3.60956383
REMARK minimizedRMSD -1
REMARK  0 active torsions:
REMARK  status: ('A' for Active; 'I' for Inactive)
ROOT
ATOM      1  C   UNL d   1       0.014  -1.061   1.242  0.00  0.00     0.023 A 
ATOM      2  C1  UNL d   1       0.329  -0.403   0.053  0.00  0.00     0.003 A 
ATOM      3  C2  UNL d   1       1.057   0.788   0.084  0.00  0.00     0.048 A 
ATOM      4  C3  UNL d   1       1.469   1.315   1.308  0.00  0.00     0.023 A 
ATOM      5  C4  UNL d   1       1.157   0.660   2.500  0.00  0.00     0.048 A 
ATOM      6  C5  UNL d   1       0.427  -0.530   2.464  0.00  0.00     0.003 A 
ATOM      7  I   UNL d   1       2.553   3.087   1.357  0.00  0.00    -0.146 I 
ENDROOT
TORSDOF 0
ENDMDL
