MODEL 1
REMARK minimizedAffinity -2.26070738
REMARK minimizedRMSD -1
REMARK  0 active torsions:
REMARK  status: ('A' for Active; 'I' for Inactive)
ROOT
ATOM      1  C   UNL d   1      -0.921  -1.104  -0.710  0.00  0.00     0.023 A 
ATOM      2  C1  UNL d   1       0.025  -1.120   0.315  0.00  0.00     0.003 A 
ATOM      3  C2  UNL d   1       0.946  -0.077   0.433  0.00  0.00     0.048 A 
ATOM      4  C3  UNL d   1       0.916   0.979  -0.477  0.00  0.00     0.023 A 
ATOM      5  C4  UNL d   1      -0.029   0.999  -1.505  0.00  0.00     0.048 A 
ATOM      6  C5  UNL d   1      -0.948  -0.046  -1.619  0.00  0.00     0.003 A 
ATOM      7  I   UNL d   1       2.286   2.531  -0.304  0.00  0.00    -0.146 I 
ENDROOT
TORSDOF 0
ENDMDL
