MODEL 1
REMARK minimizedAffinity -3.50246572
REMARK minimizedRMSD -1
REMARK  0 active torsions:
REMARK  status: ('A' for Active; 'I' for Inactive)
ROOT
ATOM      1  C   UNL d   1       1.749  -0.161   2.386  0.00  0.00     0.023 A 
ATOM      2  C1  UNL d   1       1.284  -1.387   1.911  0.00  0.00     0.003 A 
ATOM      3  C2  UNL d   1       0.367  -1.428   0.858  0.00  0.00     0.048 A 
ATOM      4  C3  UNL d   1      -0.079  -0.238   0.284  0.00  0.00     0.023 A 
ATOM      5  C4  UNL d   1       0.384   0.992   0.756  0.00  0.00     0.048 A 
ATOM      6  C5  UNL d   1       1.299   1.027   1.810  0.00  0.00     0.003 A 
ATOM      7  I   UNL d   1      -1.443  -0.295  -1.283  0.00  0.00    -0.146 I 
ENDROOT
TORSDOF 0
ENDMDL
