MODEL 1
REMARK minimizedAffinity -5.37552357
REMARK minimizedRMSD -1
REMARK  0 active torsions:
REMARK  status: ('A' for Active; 'I' for Inactive)
ROOT
ATOM      1  C   UNL d   1      -2.974  -2.277   0.091  0.00  0.00     0.023 A 
ATOM      2  C1  UNL d   1      -2.603  -1.130  -0.611  0.00  0.00     0.003 A 
ATOM      3  C2  UNL d   1      -1.436  -0.445  -0.266  0.00  0.00     0.048 A 
ATOM      4  C3  UNL d   1      -0.644  -0.913   0.783  0.00  0.00     0.023 A 
ATOM      5  C4  UNL d   1      -1.011  -2.060   1.488  0.00  0.00     0.048 A 
ATOM      6  C5  UNL d   1      -2.179  -2.741   1.139  0.00  0.00     0.003 A 
ATOM      7  I   UNL d   1       1.093   0.105   1.298  0.00  0.00    -0.146 I 
ENDROOT
TORSDOF 0
ENDMDL
