MODEL 1
REMARK minimizedAffinity -3.59561634
REMARK minimizedRMSD -1
REMARK  0 active torsions:
REMARK  status: ('A' for Active; 'I' for Inactive)
ROOT
ATOM      1  C   UNL d   1      -0.366  -0.682   0.696  0.00  0.00     0.023 A 
ATOM      2  C1  UNL d   1       1.006  -0.856   0.879  0.00  0.00     0.003 A 
ATOM      3  C2  UNL d   1       1.829   0.252   1.089  0.00  0.00     0.048 A 
ATOM      4  C3  UNL d   1       1.274   1.531   1.115  0.00  0.00     0.023 A 
ATOM      5  C4  UNL d   1      -0.098   1.710   0.933  0.00  0.00     0.048 A 
ATOM      6  C5  UNL d   1      -0.917   0.599   0.723  0.00  0.00     0.003 A 
ATOM      7  I   UNL d   1       2.498   3.182   1.428  0.00  0.00    -0.146 I 
ENDROOT
TORSDOF 0
ENDMDL
