MODEL 1
REMARK minimizedAffinity -5.04526186
REMARK minimizedRMSD -1
REMARK  0 active torsions:
REMARK  status: ('A' for Active; 'I' for Inactive)
ROOT
ATOM      1  C   UNL d   1       1.645   0.643   0.416  0.00  0.00     0.023 A 
ATOM      2  C1  UNL d   1       0.905   0.010   1.415  0.00  0.00     0.003 A 
ATOM      3  C2  UNL d   1      -0.414  -0.377   1.170  0.00  0.00     0.048 A 
ATOM      4  C3  UNL d   1      -0.987  -0.129  -0.077  0.00  0.00     0.023 A 
ATOM      5  C4  UNL d   1      -0.250   0.502  -1.081  0.00  0.00     0.048 A 
ATOM      6  C5  UNL d   1       1.068   0.888  -0.830  0.00  0.00     0.003 A 
ATOM      7  I   UNL d   1      -2.950  -0.705  -0.445  0.00  0.00    -0.146 I 
ENDROOT
TORSDOF 0
ENDMDL
