MODEL 1
REMARK minimizedAffinity -4.96347141
REMARK minimizedRMSD -1
REMARK  0 active torsions:
REMARK  status: ('A' for Active; 'I' for Inactive)
ROOT
ATOM      1  C   UNL d   1      -3.106  -1.339   0.238  0.00  0.00     0.023 A 
ATOM      2  C1  UNL d   1      -2.811  -0.568  -0.886  0.00  0.00     0.003 A 
ATOM      3  C2  UNL d   1      -1.542  -0.004  -1.034  0.00  0.00     0.048 A 
ATOM      4  C3  UNL d   1      -0.573  -0.215  -0.054  0.00  0.00     0.023 A 
ATOM      5  C4  UNL d   1      -0.864  -0.986   1.073  0.00  0.00     0.048 A 
ATOM      6  C5  UNL d   1      -2.134  -1.548   1.217  0.00  0.00     0.003 A 
ATOM      7  I   UNL d   1       1.316   0.624  -0.271  0.00  0.00    -0.146 I 
ENDROOT
TORSDOF 0
ENDMDL
