MODEL 1
REMARK minimizedAffinity -3.57507992
REMARK minimizedRMSD -1
REMARK  0 active torsions:
REMARK  status: ('A' for Active; 'I' for Inactive)
ROOT
ATOM      1  C   UNL d   1       1.156   0.744  -0.980  0.00  0.00     0.023 A 
ATOM      2  C1  UNL d   1       0.072   0.868  -1.849  0.00  0.00     0.003 A 
ATOM      3  C2  UNL d   1      -1.117   0.184  -1.586  0.00  0.00     0.048 A 
ATOM      4  C3  UNL d   1      -1.215  -0.621  -0.451  0.00  0.00     0.023 A 
ATOM      5  C4  UNL d   1      -0.133  -0.747   0.421  0.00  0.00     0.048 A 
ATOM      6  C5  UNL d   1       1.054  -0.062   0.154  0.00  0.00     0.003 A 
ATOM      7  I   UNL d   1      -2.984  -1.639  -0.058  0.00  0.00    -0.146 I 
ENDROOT
TORSDOF 0
ENDMDL
