MODEL 1
REMARK minimizedAffinity -4.3770318
REMARK minimizedRMSD -1
REMARK  0 active torsions:
REMARK  status: ('A' for Active; 'I' for Inactive)
ROOT
ATOM      1  C   UNL d   1      -2.198  -2.233   0.276  0.00  0.00     0.023 A 
ATOM      2  C1  UNL d   1      -2.272  -1.113  -0.552  0.00  0.00     0.003 A 
ATOM      3  C2  UNL d   1      -1.294  -0.119  -0.473  0.00  0.00     0.048 A 
ATOM      4  C3  UNL d   1      -0.245  -0.252   0.436  0.00  0.00     0.023 A 
ATOM      5  C4  UNL d   1      -0.166  -1.372   1.266  0.00  0.00     0.048 A 
ATOM      6  C5  UNL d   1      -1.147  -2.362   1.184  0.00  0.00     0.003 A 
ATOM      7  I   UNL d   1       1.212   1.225   0.555  0.00  0.00    -0.146 I 
ENDROOT
TORSDOF 0
ENDMDL
