MODEL 1
REMARK minimizedAffinity -2.42969632
REMARK minimizedRMSD -1
REMARK  0 active torsions:
REMARK  status: ('A' for Active; 'I' for Inactive)
ROOT
ATOM      1  C   UNL d   1      -1.042  -0.776  -0.632  0.00  0.00     0.023 A 
ATOM      2  C1  UNL d   1      -0.760  -1.020   0.712  0.00  0.00     0.003 A 
ATOM      3  C2  UNL d   1       0.137  -0.199   1.399  0.00  0.00     0.048 A 
ATOM      4  C3  UNL d   1       0.746   0.866   0.736  0.00  0.00     0.023 A 
ATOM      5  C4  UNL d   1       0.466   1.115  -0.609  0.00  0.00     0.048 A 
ATOM      6  C5  UNL d   1      -0.430   0.290  -1.292  0.00  0.00     0.003 A 
ATOM      7  I   UNL d   1       2.080   2.090   1.756  0.00  0.00    -0.146 I 
ENDROOT
TORSDOF 0
ENDMDL
