MODEL 1
REMARK minimizedAffinity 1.73532236
REMARK minimizedRMSD -1
REMARK  0 active torsions:
REMARK  status: ('A' for Active; 'I' for Inactive)
ROOT
ATOM      1  C   UNL d   1      -1.074   0.306  -2.172  0.00  0.00     0.023 A 
ATOM      2  C1  UNL d   1      -1.929  -0.701  -1.723  0.00  0.00     0.003 A 
ATOM      3  C2  UNL d   1      -1.588  -1.458  -0.601  0.00  0.00     0.048 A 
ATOM      4  C3  UNL d   1      -0.391  -1.203   0.069  0.00  0.00     0.023 A 
ATOM      5  C4  UNL d   1       0.466  -0.196  -0.377  0.00  0.00     0.048 A 
ATOM      6  C5  UNL d   1       0.122   0.558  -1.500  0.00  0.00     0.003 A 
ATOM      7  I   UNL d   1       0.118  -2.329   1.739  0.00  0.00    -0.146 I 
ENDROOT
TORSDOF 0
ENDMDL
