MODEL 1
REMARK minimizedAffinity -3.3375814
REMARK minimizedRMSD -1
REMARK  0 active torsions:
REMARK  status: ('A' for Active; 'I' for Inactive)
ROOT
ATOM      1  C   UNL d   1       1.500  -0.293   1.352  0.00  0.00     0.023 A 
ATOM      2  C1  UNL d   1       1.320   0.086   0.022  0.00  0.00     0.003 A 
ATOM      3  C2  UNL d   1       0.058  -0.010  -0.568  0.00  0.00     0.048 A 
ATOM      4  C3  UNL d   1      -1.020  -0.485   0.178  0.00  0.00     0.023 A 
ATOM      5  C4  UNL d   1      -0.845  -0.864   1.510  0.00  0.00     0.048 A 
ATOM      6  C5  UNL d   1       0.419  -0.767   2.095  0.00  0.00     0.003 A 
ATOM      7  I   UNL d   1      -2.899  -0.628  -0.698  0.00  0.00    -0.146 I 
ENDROOT
TORSDOF 0
ENDMDL
