MODEL 1
REMARK minimizedAffinity -0.753112733
REMARK minimizedRMSD -1
REMARK  0 active torsions:
REMARK  status: ('A' for Active; 'I' for Inactive)
ROOT
ATOM      1  C1  BNZ d   1       0.266   1.072  -0.422  0.00  0.00     0.000 A 
ATOM      2  C2  BNZ d   1       0.566   2.407  -0.388  0.00  0.00     0.000 A 
ATOM      3  C3  BNZ d   1      -0.332   3.338  -0.832  0.00  0.00     0.000 A 
ATOM      4  C4  BNZ d   1      -1.510   2.930  -1.346  0.00  0.00     0.000 A 
ATOM      5  C5  BNZ d   1      -1.824   1.587  -1.395  0.00  0.00     0.000 A 
ATOM      6  C6  BNZ d   1      -0.934   0.655  -0.912  0.00  0.00     0.000 A 
ENDROOT
TORSDOF 0
ENDMDL
