MODEL 1
REMARK minimizedAffinity 2.83019924
REMARK minimizedRMSD -1
REMARK  0 active torsions:
REMARK  status: ('A' for Active; 'I' for Inactive)
ROOT
ATOM      1  C1  BNZ d   1       4.116  -1.532   0.347  0.00  0.00     0.000 A 
ATOM      2  C2  BNZ d   1       5.167  -1.255  -0.486  0.00  0.00     0.000 A 
ATOM      3  C3  BNZ d   1       5.854  -2.262  -1.104  0.00  0.00     0.000 A 
ATOM      4  C4  BNZ d   1       5.516  -3.544  -0.858  0.00  0.00     0.000 A 
ATOM      5  C5  BNZ d   1       4.464  -3.840  -0.014  0.00  0.00     0.000 A 
ATOM      6  C6  BNZ d   1       3.750  -2.822   0.576  0.00  0.00     0.000 A 
ENDROOT
TORSDOF 0
ENDMDL
