MODEL 1
REMARK minimizedAffinity 4.82287359
REMARK minimizedRMSD -1
REMARK  0 active torsions:
REMARK  status: ('A' for Active; 'I' for Inactive)
ROOT
ATOM      1  C1  BNZ d   1       4.730  -5.001  -1.570  0.00  0.00     0.000 A 
ATOM      2  C2  BNZ d   1       5.411  -4.271  -0.632  0.00  0.00     0.000 A 
ATOM      3  C3  BNZ d   1       5.643  -2.937  -0.816  0.00  0.00     0.000 A 
ATOM      4  C4  BNZ d   1       5.231  -2.344  -1.955  0.00  0.00     0.000 A 
ATOM      5  C5  BNZ d   1       4.552  -3.068  -2.915  0.00  0.00     0.000 A 
ATOM      6  C6  BNZ d   1       4.285  -4.402  -2.708  0.00  0.00     0.000 A 
ENDROOT
TORSDOF 0
ENDMDL
