MODEL 1
REMARK minimizedAffinity 3.66872382
REMARK minimizedRMSD -1
REMARK  0 active torsions:
REMARK  status: ('A' for Active; 'I' for Inactive)
ROOT
ATOM      1  C1  BNZ d   1       3.077  -2.523  -0.440  0.00  0.00     0.000 A 
ATOM      2  C2  BNZ d   1       3.219  -3.882  -0.533  0.00  0.00     0.000 A 
ATOM      3  C3  BNZ d   1       4.203  -4.432  -1.307  0.00  0.00     0.000 A 
ATOM      4  C4  BNZ d   1       5.018  -3.624  -2.016  0.00  0.00     0.000 A 
ATOM      5  C5  BNZ d   1       4.882  -2.252  -1.939  0.00  0.00     0.000 A 
ATOM      6  C6  BNZ d   1       3.915  -1.702  -1.129  0.00  0.00     0.000 A 
ENDROOT
TORSDOF 0
ENDMDL
