MODEL 1
REMARK minimizedAffinity 4.3148036
REMARK minimizedRMSD -1
REMARK  0 active torsions:
REMARK  status: ('A' for Active; 'I' for Inactive)
ROOT
ATOM      1  C1  BNZ d   1       5.944  -2.185  -1.304  0.00  0.00     0.000 A 
ATOM      2  C2  BNZ d   1       5.788  -3.496  -0.941  0.00  0.00     0.000 A 
ATOM      3  C3  BNZ d   1       4.699  -3.897  -0.218  0.00  0.00     0.000 A 
ATOM      4  C4  BNZ d   1       3.790  -2.981   0.175  0.00  0.00     0.000 A 
ATOM      5  C5  BNZ d   1       3.939  -1.654  -0.176  0.00  0.00     0.000 A 
ATOM      6  C6  BNZ d   1       5.016  -1.261  -0.937  0.00  0.00     0.000 A 
ENDROOT
TORSDOF 0
ENDMDL
