MODEL 1
REMARK minimizedAffinity 6.57393742
REMARK minimizedRMSD -1
REMARK  0 active torsions:
REMARK  status: ('A' for Active; 'I' for Inactive)
ROOT
ATOM      1  C1  BNZ d   1       0.831   4.521   1.046  0.00  0.00     0.000 A 
ATOM      2  C2  BNZ d   1       1.072   5.608   0.249  0.00  0.00     0.000 A 
ATOM      3  C3  BNZ d   1       0.549   5.682  -1.012  0.00  0.00     0.000 A 
ATOM      4  C4  BNZ d   1      -0.181   4.652  -1.488  0.00  0.00     0.000 A 
ATOM      5  C5  BNZ d   1      -0.426   3.546  -0.699  0.00  0.00     0.000 A 
ATOM      6  C6  BNZ d   1       0.070   3.492   0.583  0.00  0.00     0.000 A 
ENDROOT
TORSDOF 0
ENDMDL
