MODEL 1
REMARK minimizedAffinity 0.257847965
REMARK minimizedRMSD -1
REMARK  0 active torsions:
REMARK  status: ('A' for Active; 'I' for Inactive)
ROOT
ATOM      1  C1  BNZ d   1       4.328  -3.237  -2.213  0.00  0.00     0.000 A 
ATOM      2  C2  BNZ d   1       4.018  -2.113  -1.495  0.00  0.00     0.000 A 
ATOM      3  C3  BNZ d   1       4.696  -1.807  -0.348  0.00  0.00     0.000 A 
ATOM      4  C4  BNZ d   1       5.653  -2.644   0.101  0.00  0.00     0.000 A 
ATOM      5  C5  BNZ d   1       5.970  -3.786  -0.607  0.00  0.00     0.000 A 
ATOM      6  C6  BNZ d   1       5.313  -4.071  -1.782  0.00  0.00     0.000 A 
ENDROOT
TORSDOF 0
ENDMDL
