MODEL 1
REMARK minimizedAffinity 0.527794182
REMARK minimizedRMSD -1
REMARK  0 active torsions:
REMARK  status: ('A' for Active; 'I' for Inactive)
ROOT
ATOM      1  C1  BNZ d   1       1.125   5.947  -0.515  0.00  0.00     0.000 A 
ATOM      2  C2  BNZ d   1       1.124   4.906   0.375  0.00  0.00     0.000 A 
ATOM      3  C3  BNZ d   1       0.199   3.905   0.281  0.00  0.00     0.000 A 
ATOM      4  C4  BNZ d   1      -0.749   3.965  -0.677  0.00  0.00     0.000 A 
ATOM      5  C5  BNZ d   1      -0.767   5.013  -1.576  0.00  0.00     0.000 A 
ATOM      6  C6  BNZ d   1       0.190   5.999  -1.502  0.00  0.00     0.000 A 
ENDROOT
TORSDOF 0
ENDMDL
