MODEL 1
REMARK minimizedAffinity 2.26927614
REMARK minimizedRMSD -1
REMARK  0 active torsions:
REMARK  status: ('A' for Active; 'I' for Inactive)
ROOT
ATOM      1  C1  BNZ d   1       4.607  -1.566   0.012  0.00  0.00     0.000 A 
ATOM      2  C2  BNZ d   1       5.401  -2.347  -0.785  0.00  0.00     0.000 A 
ATOM      3  C3  BNZ d   1       5.425  -3.705  -0.633  0.00  0.00     0.000 A 
ATOM      4  C4  BNZ d   1       4.687  -4.277   0.340  0.00  0.00     0.000 A 
ATOM      5  C5  BNZ d   1       3.888  -3.503   1.157  0.00  0.00     0.000 A 
ATOM      6  C6  BNZ d   1       3.837  -2.139   0.977  0.00  0.00     0.000 A 
ENDROOT
TORSDOF 0
ENDMDL
