MODEL 1
REMARK minimizedAffinity 11.0470648
REMARK minimizedRMSD -1
REMARK  0 active torsions:
REMARK  status: ('A' for Active; 'I' for Inactive)
ROOT
ATOM      1  C1  BNZ d   1       4.934  -4.779  -2.146  0.00  0.00     0.000 A 
ATOM      2  C2  BNZ d   1       5.415  -4.120  -1.046  0.00  0.00     0.000 A 
ATOM      3  C3  BNZ d   1       5.928  -2.858  -1.156  0.00  0.00     0.000 A 
ATOM      4  C4  BNZ d   1       5.997  -2.273  -2.369  0.00  0.00     0.000 A 
ATOM      5  C5  BNZ d   1       5.524  -2.928  -3.489  0.00  0.00     0.000 A 
ATOM      6  C6  BNZ d   1       4.972  -4.183  -3.368  0.00  0.00     0.000 A 
ENDROOT
TORSDOF 0
ENDMDL
