MODEL 1
REMARK minimizedAffinity -1.91643023
REMARK minimizedRMSD -1
REMARK  0 active torsions:
REMARK  status: ('A' for Active; 'I' for Inactive)
ROOT
ATOM      1  C   UNL d   1      -0.076   0.587  -0.178  0.00  0.00     0.172 C 
ATOM      2  N   UNL d   1      -0.472  -0.705   0.331  0.00  0.00    -0.070 N 
ATOM      3  C1  UNL d   1      -0.598  -1.037   1.654  0.00  0.00    -0.004 A 
ATOM      4  C2  UNL d   1      -0.994  -2.355   1.722  0.00  0.00    -0.047 A 
ATOM      5  C3  UNL d   1      -1.109  -2.833   0.395  0.00  0.00    -0.047 A 
ATOM      6  C4  UNL d   1      -0.780  -1.790  -0.446  0.00  0.00    -0.004 A 
ENDROOT
TORSDOF 0
ENDMDL
