MODEL 1
REMARK minimizedAffinity -2.12727475
REMARK minimizedRMSD -1
REMARK  0 active torsions:
REMARK  status: ('A' for Active; 'I' for Inactive)
ROOT
ATOM      1  C   UNL d   1      -0.031   1.146   0.140  0.00  0.00     0.172 C 
ATOM      2  N   UNL d   1       0.334  -0.054  -0.576  0.00  0.00    -0.070 N 
ATOM      3  C1  UNL d   1       0.299  -0.213  -1.936  0.00  0.00    -0.004 A 
ATOM      4  C2  UNL d   1       0.721  -1.494  -2.221  0.00  0.00    -0.047 A 
ATOM      5  C3  UNL d   1       1.018  -2.126  -0.990  0.00  0.00    -0.047 A 
ATOM      6  C4  UNL d   1       0.770  -1.212   0.011  0.00  0.00    -0.004 A 
ENDROOT
TORSDOF 0
ENDMDL
