MODEL 1
REMARK minimizedAffinity -2.70167184
REMARK minimizedRMSD -1
REMARK  0 active torsions:
REMARK  status: ('A' for Active; 'I' for Inactive)
ROOT
ATOM      1  C   UNL d   1       5.582  -5.618   5.997  0.00  0.00     0.172 C 
ATOM      2  N   UNL d   1       5.015  -4.296   5.868  0.00  0.00    -0.070 N 
ATOM      3  C1  UNL d   1       5.700  -3.118   5.999  0.00  0.00    -0.004 A 
ATOM      4  C2  UNL d   1       4.806  -2.086   5.805  0.00  0.00    -0.047 A 
ATOM      5  C3  UNL d   1       3.540  -2.665   5.550  0.00  0.00    -0.047 A 
ATOM      6  C4  UNL d   1       3.698  -4.034   5.595  0.00  0.00    -0.004 A 
ENDROOT
TORSDOF 0
ENDMDL
