MODEL 1
REMARK minimizedAffinity -3.16127658
REMARK minimizedRMSD -1
REMARK  0 active torsions:
REMARK  status: ('A' for Active; 'I' for Inactive)
ROOT
ATOM      1  C   UNL d   1      -1.934  -0.092   0.971  0.00  0.00     0.172 C 
ATOM      2  N   UNL d   1      -0.909  -1.043   0.609  0.00  0.00    -0.070 N 
ATOM      3  C1  UNL d   1      -0.742  -2.285   1.161  0.00  0.00    -0.004 A 
ATOM      4  C2  UNL d   1       0.340  -2.877   0.546  0.00  0.00    -0.047 A 
ATOM      5  C3  UNL d   1       0.841  -1.959  -0.407  0.00  0.00    -0.047 A 
ATOM      6  C4  UNL d   1       0.049  -0.832  -0.348  0.00  0.00    -0.004 A 
ENDROOT
TORSDOF 0
ENDMDL
