MODEL 1
REMARK minimizedAffinity -3.95469356
REMARK minimizedRMSD -1
REMARK  0 active torsions:
REMARK  status: ('A' for Active; 'I' for Inactive)
ROOT
ATOM      1  C   UNL d   1      -0.059   0.901  -0.140  0.00  0.00     0.172 C 
ATOM      2  N   UNL d   1      -0.169  -0.481   0.265  0.00  0.00    -0.070 N 
ATOM      3  C1  UNL d   1      -0.894  -0.945   1.330  0.00  0.00    -0.004 A 
ATOM      4  C2  UNL d   1      -0.742  -2.314   1.379  0.00  0.00    -0.047 A 
ATOM      5  C3  UNL d   1       0.105  -2.685   0.307  0.00  0.00    -0.047 A 
ATOM      6  C4  UNL d   1       0.445  -1.530  -0.366  0.00  0.00    -0.004 A 
ENDROOT
TORSDOF 0
ENDMDL
