MODEL 1
REMARK minimizedAffinity -3.21442342
REMARK minimizedRMSD -1
REMARK  0 active torsions:
REMARK  status: ('A' for Active; 'I' for Inactive)
ROOT
ATOM      1  C   UNL d   1       0.004   0.003  -1.550  0.00  0.00     0.172 C 
ATOM      2  N   UNL d   1      -0.488  -0.246  -0.216  0.00  0.00    -0.070 N 
ATOM      3  C1  UNL d   1      -0.769  -1.476   0.315  0.00  0.00    -0.004 A 
ATOM      4  C2  UNL d   1      -1.211  -1.288   1.607  0.00  0.00    -0.047 A 
ATOM      5  C3  UNL d   1      -1.196   0.104   1.860  0.00  0.00    -0.047 A 
ATOM      6  C4  UNL d   1      -0.744   0.726   0.716  0.00  0.00    -0.004 A 
ENDROOT
TORSDOF 0
ENDMDL
