MODEL 1
REMARK minimizedAffinity -3.56352496
REMARK minimizedRMSD -1
REMARK  0 active torsions:
REMARK  status: ('A' for Active; 'I' for Inactive)
ROOT
ATOM      1  C   UNL d   1       0.370  -3.028   0.507  0.00  0.00     0.172 C 
ATOM      2  N   UNL d   1       0.201  -1.635   0.166  0.00  0.00    -0.070 N 
ATOM      3  C1  UNL d   1      -0.524  -0.719   0.882  0.00  0.00    -0.004 A 
ATOM      4  C2  UNL d   1      -0.438   0.491   0.229  0.00  0.00    -0.047 A 
ATOM      5  C3  UNL d   1       0.366   0.296  -0.920  0.00  0.00    -0.047 A 
ATOM      6  C4  UNL d   1       0.747  -1.029  -0.934  0.00  0.00    -0.004 A 
ENDROOT
TORSDOF 0
ENDMDL
