MODEL 1
REMARK minimizedAffinity -1.9958775
REMARK minimizedRMSD -1
REMARK  0 active torsions:
REMARK  status: ('A' for Active; 'I' for Inactive)
ROOT
ATOM      1  C   UNL d   1       0.478   0.910   0.345  0.00  0.00     0.172 C 
ATOM      2  N   UNL d   1       0.130  -0.460   0.643  0.00  0.00    -0.070 N 
ATOM      3  C1  UNL d   1      -0.715  -0.870   1.639  0.00  0.00    -0.004 A 
ATOM      4  C2  UNL d   1      -0.785  -2.245   1.595  0.00  0.00    -0.047 A 
ATOM      5  C3  UNL d   1       0.049  -2.677   0.535  0.00  0.00    -0.047 A 
ATOM      6  C4  UNL d   1       0.602  -1.551  -0.037  0.00  0.00    -0.004 A 
ENDROOT
TORSDOF 0
ENDMDL
