MODEL 1
REMARK minimizedAffinity -2.45834613
REMARK minimizedRMSD -1
REMARK  0 active torsions:
REMARK  status: ('A' for Active; 'I' for Inactive)
ROOT
ATOM      1  C   UNL d   1      -2.830  -2.626   0.236  0.00  0.00     0.172 C 
ATOM      2  N   UNL d   1      -1.463  -2.263   0.530  0.00  0.00    -0.070 N 
ATOM      3  C1  UNL d   1      -0.350  -2.955   0.133  0.00  0.00    -0.004 A 
ATOM      4  C2  UNL d   1       0.756  -2.287   0.611  0.00  0.00    -0.047 A 
ATOM      5  C3  UNL d   1       0.292  -1.154   1.321  0.00  0.00    -0.047 A 
ATOM      6  C4  UNL d   1      -1.086  -1.164   1.255  0.00  0.00    -0.004 A 
ENDROOT
TORSDOF 0
ENDMDL
