MODEL 1
REMARK minimizedAffinity -3.47779942
REMARK minimizedRMSD -1
REMARK  0 active torsions:
REMARK  status: ('A' for Active; 'I' for Inactive)
ROOT
ATOM      1  C   UNL d   1      -0.115  -0.033  -2.317  0.00  0.00     0.172 C 
ATOM      2  N   UNL d   1      -0.125  -0.633  -1.003  0.00  0.00    -0.070 N 
ATOM      3  C1  UNL d   1      -0.781  -0.143   0.094  0.00  0.00    -0.004 A 
ATOM      4  C2  UNL d   1      -0.544  -1.000   1.146  0.00  0.00    -0.047 A 
ATOM      5  C3  UNL d   1       0.285  -2.042   0.665  0.00  0.00    -0.047 A 
ATOM      6  C4  UNL d   1       0.529  -1.789  -0.669  0.00  0.00    -0.004 A 
ENDROOT
TORSDOF 0
ENDMDL
