MODEL 1
REMARK minimizedAffinity -2.47682643
REMARK minimizedRMSD -1
REMARK  0 active torsions:
REMARK  status: ('A' for Active; 'I' for Inactive)
ROOT
ATOM      1  C   UNL d   1       0.113   0.415  -0.756  0.00  0.00     0.172 C 
ATOM      2  N   UNL d   1       0.103  -0.869  -0.096  0.00  0.00    -0.070 N 
ATOM      3  C1  UNL d   1       1.012  -1.875  -0.292  0.00  0.00    -0.004 A 
ATOM      4  C2  UNL d   1       0.656  -2.929   0.521  0.00  0.00    -0.047 A 
ATOM      5  C3  UNL d   1      -0.507  -2.545   1.229  0.00  0.00    -0.047 A 
ATOM      6  C4  UNL d   1      -0.828  -1.265   0.828  0.00  0.00    -0.004 A 
ENDROOT
TORSDOF 0
ENDMDL
