MODEL 1
REMARK minimizedAffinity -3.70650887
REMARK minimizedRMSD -1
REMARK  0 active torsions:
REMARK  status: ('A' for Active; 'I' for Inactive)
ROOT
ATOM      1  C   UNL d   1       0.140   0.802  -0.269  0.00  0.00     0.172 C 
ATOM      2  N   UNL d   1      -0.113  -0.570   0.103  0.00  0.00    -0.070 N 
ATOM      3  C1  UNL d   1      -0.578  -0.994   1.319  0.00  0.00    -0.004 A 
ATOM      4  C2  UNL d   1      -0.686  -2.367   1.275  0.00  0.00    -0.047 A 
ATOM      5  C3  UNL d   1      -0.270  -2.783  -0.013  0.00  0.00    -0.047 A 
ATOM      6  C4  UNL d   1       0.079  -1.650  -0.717  0.00  0.00    -0.004 A 
ENDROOT
TORSDOF 0
ENDMDL
