MODEL 1
REMARK minimizedAffinity -2.80092335
REMARK minimizedRMSD -1
REMARK  0 active torsions:
REMARK  status: ('A' for Active; 'I' for Inactive)
ROOT
ATOM      1  C   UNL d   1       0.013   0.711  -0.003  0.00  0.00     0.172 C 
ATOM      2  N   UNL d   1      -0.235  -0.708   0.101  0.00  0.00    -0.070 N 
ATOM      3  C1  UNL d   1       0.584  -1.699  -0.371  0.00  0.00    -0.004 A 
ATOM      4  C2  UNL d   1      -0.005  -2.910  -0.075  0.00  0.00    -0.047 A 
ATOM      5  C3  UNL d   1      -1.220  -2.637   0.597  0.00  0.00    -0.047 A 
ATOM      6  C4  UNL d   1      -1.338  -1.266   0.692  0.00  0.00    -0.004 A 
ENDROOT
TORSDOF 0
ENDMDL
