MODEL 1
REMARK minimizedAffinity -2.29153466
REMARK minimizedRMSD -1
REMARK  0 active torsions:
REMARK  status: ('A' for Active; 'I' for Inactive)
ROOT
ATOM      1  C   UNL d   1       0.134  -3.055   0.476  0.00  0.00     0.172 C 
ATOM      2  N   UNL d   1       0.003  -1.618   0.425  0.00  0.00    -0.070 N 
ATOM      3  C1  UNL d   1      -0.404  -0.891  -0.663  0.00  0.00    -0.004 A 
ATOM      4  C2  UNL d   1      -0.397   0.440  -0.307  0.00  0.00    -0.047 A 
ATOM      5  C3  UNL d   1       0.031   0.517   1.040  0.00  0.00    -0.047 A 
ATOM      6  C4  UNL d   1       0.271  -0.772   1.468  0.00  0.00    -0.004 A 
ENDROOT
TORSDOF 0
ENDMDL
