MODEL 1
REMARK minimizedAffinity -3.08014846
REMARK minimizedRMSD -1
REMARK  0 active torsions:
REMARK  status: ('A' for Active; 'I' for Inactive)
ROOT
ATOM      1  C   UNL d   1       0.051   1.150   0.001  0.00  0.00     0.172 C 
ATOM      2  N   UNL d   1      -0.115  -0.248   0.322  0.00  0.00    -0.070 N 
ATOM      3  C1  UNL d   1       0.473  -1.294  -0.339  0.00  0.00    -0.004 A 
ATOM      4  C2  UNL d   1       0.064  -2.461   0.270  0.00  0.00    -0.047 A 
ATOM      5  C3  UNL d   1      -0.800  -2.104   1.333  0.00  0.00    -0.047 A 
ATOM      6  C4  UNL d   1      -0.893  -0.729   1.342  0.00  0.00    -0.004 A 
ENDROOT
TORSDOF 0
ENDMDL
