MODEL 1
REMARK minimizedAffinity -3.36487842
REMARK minimizedRMSD -1
REMARK  0 active torsions:
REMARK  status: ('A' for Active; 'I' for Inactive)
ROOT
ATOM      1  C   UNL d   1      -3.733  -3.377  -0.892  0.00  0.00     0.172 C 
ATOM      2  N   UNL d   1      -2.312  -3.508  -0.671  0.00  0.00    -0.070 N 
ATOM      3  C1  UNL d   1      -1.448  -4.238  -1.443  0.00  0.00    -0.004 A 
ATOM      4  C2  UNL d   1      -0.187  -4.106  -0.903  0.00  0.00    -0.047 A 
ATOM      5  C3  UNL d   1      -0.297  -3.269   0.233  0.00  0.00    -0.047 A 
ATOM      6  C4  UNL d   1      -1.624  -2.913   0.353  0.00  0.00    -0.004 A 
ENDROOT
TORSDOF 0
ENDMDL
