MODEL 1
REMARK minimizedAffinity -3.5040679
REMARK minimizedRMSD -1
REMARK  0 active torsions:
REMARK  status: ('A' for Active; 'I' for Inactive)
ROOT
ATOM      1  C   UNL d   1       0.395   0.968  -0.011  0.00  0.00     0.172 C 
ATOM      2  N   UNL d   1       0.068  -0.422   0.210  0.00  0.00    -0.070 N 
ATOM      3  C1  UNL d   1      -0.949  -0.887   0.999  0.00  0.00    -0.004 A 
ATOM      4  C2  UNL d   1      -0.929  -2.264   0.947  0.00  0.00    -0.047 A 
ATOM      5  C3  UNL d   1       0.138  -2.639   0.096  0.00  0.00    -0.047 A 
ATOM      6  C4  UNL d   1       0.739  -1.479  -0.346  0.00  0.00    -0.004 A 
ENDROOT
TORSDOF 0
ENDMDL
