MODEL 1
REMARK minimizedAffinity -2.04519367
REMARK minimizedRMSD -1
REMARK  0 active torsions:
REMARK  status: ('A' for Active; 'I' for Inactive)
ROOT
ATOM      1  C   UNL d   1      -0.188  -3.115   0.373  0.00  0.00     0.172 C 
ATOM      2  N   UNL d   1      -0.105  -1.696   0.120  0.00  0.00    -0.070 N 
ATOM      3  C1  UNL d   1       0.481  -1.113  -0.971  0.00  0.00    -0.004 A 
ATOM      4  C2  UNL d   1       0.351   0.253  -0.840  0.00  0.00    -0.047 A 
ATOM      5  C3  UNL d   1      -0.335   0.499   0.373  0.00  0.00    -0.047 A 
ATOM      6  C4  UNL d   1      -0.605  -0.725   0.947  0.00  0.00    -0.004 A 
ENDROOT
TORSDOF 0
ENDMDL
