MODEL 1
REMARK minimizedAffinity -2.11538744
REMARK minimizedRMSD -1
REMARK  1 active torsions:
REMARK  status: ('A' for Active; 'I' for Inactive)
REMARK    1  A    between atoms: N_2  and  C1_3 
ROOT
ATOM      1  C1  UNL d   1       0.693  -0.598   0.060  0.00  0.00     0.143 A 
ATOM      2  C2  UNL d   1       0.097   0.664  -0.042  0.00  0.00    -0.057 A 
ATOM      3  C3  UNL d   1       0.828   1.833   0.201  0.00  0.00     0.033 A 
ATOM      4  C4  UNL d   1       2.164   1.760   0.579  0.00  0.00    -0.042 A 
ATOM      5  C5  UNL d   1       2.770   0.515   0.711  0.00  0.00     0.033 A 
ATOM      6  C6  UNL d   1       2.037  -0.649   0.460  0.00  0.00    -0.057 A 
ENDROOT
BRANCH   1   7
ATOM      7  N   UNL d   1      -0.006  -1.800  -0.073  0.00  0.00    -0.732 N 
ATOM      8  C   UNL d   1       0.006  -2.781   0.991  0.00  0.00     0.284 C 
ATOM      9  H3  UNL d   1      -0.915  -1.675  -0.513  0.00  0.00     0.395 HD
ENDBRANCH   1   7
TORSDOF 1
ENDMDL
