MODEL 1
REMARK minimizedAffinity -1.42922795
REMARK minimizedRMSD -1
REMARK  1 active torsions:
REMARK  status: ('A' for Active; 'I' for Inactive)
REMARK    1  A    between atoms: N_2  and  C1_3 
ROOT
ATOM      1  C1  UNL d   1       0.260  -0.042   0.147  0.00  0.00     0.143 A 
ATOM      2  C2  UNL d   1       0.751   1.265   0.246  0.00  0.00    -0.057 A 
ATOM      3  C3  UNL d   1       2.109   1.514   0.479  0.00  0.00     0.033 A 
ATOM      4  C4  UNL d   1       2.998   0.458   0.647  0.00  0.00    -0.042 A 
ATOM      5  C5  UNL d   1       2.528  -0.849   0.577  0.00  0.00     0.033 A 
ATOM      6  C6  UNL d   1       1.172  -1.092   0.337  0.00  0.00    -0.057 A 
ENDROOT
BRANCH   1   7
ATOM      7  N   UNL d   1      -1.094  -0.356   0.015  0.00  0.00    -0.732 N 
ATOM      8  C   UNL d   1      -1.800  -0.072  -1.216  0.00  0.00     0.284 C 
ATOM      9  H3  UNL d   1      -1.327  -1.255   0.429  0.00  0.00     0.395 HD
ENDBRANCH   1   7
TORSDOF 1
ENDMDL
