MODEL 1
REMARK minimizedAffinity -4.10832119
REMARK minimizedRMSD -1
REMARK  1 active torsions:
REMARK  status: ('A' for Active; 'I' for Inactive)
REMARK    1  A    between atoms: N_2  and  C1_3 
ROOT
ATOM      1  C1  UNL d   1      -0.129  -0.616   0.488  0.00  0.00     0.143 A 
ATOM      2  C2  UNL d   1       0.743   0.446   0.225  0.00  0.00    -0.057 A 
ATOM      3  C3  UNL d   1       2.015   0.502   0.808  0.00  0.00     0.033 A 
ATOM      4  C4  UNL d   1       2.427  -0.491   1.690  0.00  0.00    -0.042 A 
ATOM      5  C5  UNL d   1       1.567  -1.543   1.986  0.00  0.00     0.033 A 
ATOM      6  C6  UNL d   1       0.301  -1.597   1.395  0.00  0.00    -0.057 A 
ENDROOT
BRANCH   1   7
ATOM      7  N   UNL d   1      -1.442  -0.679   0.017  0.00  0.00    -0.732 N 
ATOM      8  C   UNL d   1      -1.875   0.167  -1.075  0.00  0.00     0.284 C 
ATOM      9  H3  UNL d   1      -1.792  -1.633  -0.033  0.00  0.00     0.395 HD
ENDBRANCH   1   7
TORSDOF 1
ENDMDL
