MODEL 1
REMARK minimizedAffinity -3.98398519
REMARK minimizedRMSD -1
REMARK  1 active torsions:
REMARK  status: ('A' for Active; 'I' for Inactive)
REMARK    1  A    between atoms: N_2  and  C1_3 
ROOT
ATOM      1  C1  UNL d   1       1.317   0.238   0.699  0.00  0.00     0.143 A 
ATOM      2  C2  UNL d   1       2.478   0.836   1.199  0.00  0.00    -0.057 A 
ATOM      3  C3  UNL d   1       3.425   0.096   1.918  0.00  0.00     0.033 A 
ATOM      4  C4  UNL d   1       3.211  -1.254   2.176  0.00  0.00    -0.042 A 
ATOM      5  C5  UNL d   1       2.052  -1.864   1.710  0.00  0.00     0.033 A 
ATOM      6  C6  UNL d   1       1.114  -1.121   0.987  0.00  0.00    -0.057 A 
ENDROOT
BRANCH   1   7
ATOM      7  N   UNL d   1       0.291   0.941   0.062  0.00  0.00    -0.732 N 
ATOM      8  C   UNL d   1      -0.960   0.289  -0.260  0.00  0.00     0.284 C 
ATOM      9  H3  UNL d   1       0.187   1.886   0.423  0.00  0.00     0.395 HD
ENDBRANCH   1   7
TORSDOF 1
ENDMDL
