MODEL 1
REMARK minimizedAffinity -3.41629601
REMARK minimizedRMSD -1
REMARK  0 active torsions:
REMARK  status: ('A' for Active; 'I' for Inactive)
ROOT
ATOM      1  N1  IND d   1       1.499   0.683  -0.123  0.00  0.00    -0.196 N 
ATOM      2  C2  IND d   1       0.551   1.595  -0.493  0.00  0.00     0.054 A 
ATOM      3  C3  IND d   1      -0.474   0.978  -1.123  0.00  0.00    -0.031 A 
ATOM      4  C4  IND d   1      -0.850  -1.530  -1.565  0.00  0.00     0.051 A 
ATOM      5  C5  IND d   1      -0.242  -2.748  -1.444  0.00  0.00    -0.031 A 
ATOM      6  C6  IND d   1       1.001  -2.888  -0.862  0.00  0.00     0.015 A 
ATOM      7  C7  IND d   1       1.681  -1.811  -0.367  0.00  0.00    -0.016 A 
ATOM      8  C8  IND d   1       1.070  -0.572  -0.495  0.00  0.00    -0.047 A 
ATOM      9  C9  IND d   1      -0.173  -0.419  -1.122  0.00  0.00    -0.096 A 
ATOM     10  HN1 IND d   1       2.240   0.863   0.275  0.00  0.00     0.298 HD
ENDROOT
TORSDOF 0
ENDMDL
