MODEL 1
REMARK minimizedAffinity 8.57145023
REMARK minimizedRMSD -1
REMARK  0 active torsions:
REMARK  status: ('A' for Active; 'I' for Inactive)
ROOT
ATOM      1  N1  IND d   1       2.035   0.675   4.434  0.00  0.00    -0.196 N 
ATOM      2  C2  IND d   1       1.330   0.754   3.266  0.00  0.00     0.054 A 
ATOM      3  C3  IND d   1       1.951   1.585   2.398  0.00  0.00    -0.031 A 
ATOM      4  C4  IND d   1       4.184   2.840   2.648  0.00  0.00     0.051 A 
ATOM      5  C5  IND d   1       5.174   3.108   3.552  0.00  0.00    -0.031 A 
ATOM      6  C6  IND d   1       5.169   2.565   4.820  0.00  0.00     0.015 A 
ATOM      7  C7  IND d   1       4.176   1.721   5.231  0.00  0.00    -0.016 A 
ATOM      8  C8  IND d   1       3.166   1.453   4.318  0.00  0.00    -0.047 A 
ATOM      9  C9  IND d   1       3.143   2.035   3.044  0.00  0.00    -0.096 A 
ATOM     10  HN1 IND d   1       1.810   0.216   5.126  0.00  0.00     0.298 HD
ENDROOT
TORSDOF 0
ENDMDL
