MODEL 1
REMARK minimizedAffinity 11.168705
REMARK minimizedRMSD -1
REMARK  0 active torsions:
REMARK  status: ('A' for Active; 'I' for Inactive)
ROOT
ATOM      1  N1  IND d   1       3.256  -1.664  -2.731  0.00  0.00    -0.196 N 
ATOM      2  C2  IND d   1       4.053  -0.695  -2.188  0.00  0.00     0.054 A 
ATOM      3  C3  IND d   1       3.673  -0.430  -0.919  0.00  0.00    -0.031 A 
ATOM      4  C4  IND d   1       1.833  -1.536   0.503  0.00  0.00     0.051 A 
ATOM      5  C5  IND d   1       0.816  -2.445   0.429  0.00  0.00    -0.031 A 
ATOM      6  C6  IND d   1       0.556  -3.157  -0.724  0.00  0.00     0.015 A 
ATOM      7  C7  IND d   1       1.315  -2.993  -1.849  0.00  0.00    -0.016 A 
ATOM      8  C8  IND d   1       2.344  -2.065  -1.780  0.00  0.00    -0.047 A 
ATOM      9  C9  IND d   1       2.586  -1.309  -0.625  0.00  0.00    -0.096 A 
ATOM     10  HN1 IND d   1       3.313  -1.970  -3.533  0.00  0.00     0.298 HD
ENDROOT
TORSDOF 0
ENDMDL
