MODEL 1
REMARK minimizedAffinity 1.15618682
REMARK minimizedRMSD -1
REMARK  0 active torsions:
REMARK  status: ('A' for Active; 'I' for Inactive)
ROOT
ATOM      1  N1  IND d   1       2.594   1.177  -0.680  0.00  0.00    -0.196 N 
ATOM      2  C2  IND d   1       3.793   0.563  -0.911  0.00  0.00     0.054 A 
ATOM      3  C3  IND d   1       3.632  -0.779  -0.964  0.00  0.00    -0.031 A 
ATOM      4  C4  IND d   1       1.475  -2.175  -0.801  0.00  0.00     0.051 A 
ATOM      5  C5  IND d   1       0.136  -2.063  -0.555  0.00  0.00    -0.031 A 
ATOM      6  C6  IND d   1      -0.466  -0.840  -0.336  0.00  0.00     0.015 A 
ATOM      7  C7  IND d   1       0.252   0.322  -0.367  0.00  0.00    -0.016 A 
ATOM      8  C8  IND d   1       1.613   0.212  -0.610  0.00  0.00    -0.047 A 
ATOM      9  C9  IND d   1       2.237  -1.030  -0.790  0.00  0.00    -0.096 A 
ATOM     10  HN1 IND d   1       2.472   2.024  -0.593  0.00  0.00     0.298 HD
ENDROOT
TORSDOF 0
ENDMDL
