MODEL 1
REMARK minimizedAffinity 1.19997859
REMARK minimizedRMSD -1
REMARK  0 active torsions:
REMARK  status: ('A' for Active; 'I' for Inactive)
ROOT
ATOM      1  N1  IND d   1      -0.347   1.351  -0.756  0.00  0.00    -0.196 N 
ATOM      2  C2  IND d   1       0.478   1.267   0.331  0.00  0.00     0.054 A 
ATOM      3  C3  IND d   1       0.815  -0.020   0.568  0.00  0.00    -0.031 A 
ATOM      4  C4  IND d   1       0.211  -2.140  -0.762  0.00  0.00     0.051 A 
ATOM      5  C5  IND d   1      -0.550  -2.573  -1.812  0.00  0.00    -0.031 A 
ATOM      6  C6  IND d   1      -1.294  -1.702  -2.581  0.00  0.00     0.015 A 
ATOM      7  C7  IND d   1      -1.297  -0.358  -2.334  0.00  0.00    -0.016 A 
ATOM      8  C8  IND d   1      -0.532   0.084  -1.264  0.00  0.00    -0.047 A 
ATOM      9  C9  IND d   1       0.193  -0.800  -0.454  0.00  0.00    -0.096 A 
ATOM     10  HN1 IND d   1      -0.692   2.074  -1.069  0.00  0.00     0.298 HD
ENDROOT
TORSDOF 0
ENDMDL
