MODEL 1
REMARK minimizedAffinity 0.672359288
REMARK minimizedRMSD -1
REMARK  0 active torsions:
REMARK  status: ('A' for Active; 'I' for Inactive)
ROOT
ATOM      1  N1  IND d   1       3.516   0.962  -1.136  0.00  0.00    -0.196 N 
ATOM      2  C2  IND d   1       4.719   0.322  -1.249  0.00  0.00     0.054 A 
ATOM      3  C3  IND d   1       4.552  -1.015  -1.145  0.00  0.00    -0.031 A 
ATOM      4  C4  IND d   1       2.383  -2.378  -0.891  0.00  0.00     0.051 A 
ATOM      5  C5  IND d   1       1.037  -2.235  -0.707  0.00  0.00    -0.031 A 
ATOM      6  C6  IND d   1       0.435  -0.994  -0.659  0.00  0.00     0.015 A 
ATOM      7  C7  IND d   1       1.160   0.155  -0.804  0.00  0.00    -0.016 A 
ATOM      8  C8  IND d   1       2.528   0.014  -0.984  0.00  0.00    -0.047 A 
ATOM      9  C9  IND d   1       3.150  -1.242  -0.991  0.00  0.00    -0.096 A 
ATOM     10  HN1 IND d   1       3.396   1.813  -1.157  0.00  0.00     0.298 HD
ENDROOT
TORSDOF 0
ENDMDL
