MODEL 1
REMARK minimizedAffinity -1.26274943
REMARK minimizedRMSD -1
REMARK  0 active torsions:
REMARK  status: ('A' for Active; 'I' for Inactive)
ROOT
ATOM      1  N1  IND d   1       1.169   0.360  -0.426  0.00  0.00    -0.196 N 
ATOM      2  C2  IND d   1       0.079  -0.460  -0.322  0.00  0.00     0.054 A 
ATOM      3  C3  IND d   1       0.347  -1.668  -0.867  0.00  0.00    -0.031 A 
ATOM      4  C4  IND d   1       2.536  -2.552  -1.892  0.00  0.00     0.051 A 
ATOM      5  C5  IND d   1       3.798  -2.159  -2.242  0.00  0.00    -0.031 A 
ATOM      6  C6  IND d   1       4.257  -0.881  -1.997  0.00  0.00     0.015 A 
ATOM      7  C7  IND d   1       3.473   0.052  -1.380  0.00  0.00    -0.016 A 
ATOM      8  C8  IND d   1       2.189  -0.342  -1.029  0.00  0.00    -0.047 A 
ATOM      9  C9  IND d   1       1.703  -1.624  -1.314  0.00  0.00    -0.096 A 
ATOM     10  HN1 IND d   1       1.209   1.176  -0.159  0.00  0.00     0.298 HD
ENDROOT
TORSDOF 0
ENDMDL
