MODEL 1
REMARK minimizedAffinity -0.506668508
REMARK minimizedRMSD -1
REMARK  0 active torsions:
REMARK  status: ('A' for Active; 'I' for Inactive)
ROOT
ATOM      1  N1  IND d   1       3.006  -2.821  -2.213  0.00  0.00    -0.196 N 
ATOM      2  C2  IND d   1       3.959  -3.268  -3.086  0.00  0.00     0.054 A 
ATOM      3  C3  IND d   1       4.866  -2.296  -3.330  0.00  0.00    -0.031 A 
ATOM      4  C4  IND d   1       5.040   0.068  -2.327  0.00  0.00     0.051 A 
ATOM      5  C5  IND d   1       4.379   0.944  -1.512  0.00  0.00    -0.031 A 
ATOM      6  C6  IND d   1       3.205   0.601  -0.874  0.00  0.00     0.015 A 
ATOM      7  C7  IND d   1       2.651  -0.639  -1.019  0.00  0.00    -0.016 A 
ATOM      8  C8  IND d   1       3.315  -1.528  -1.851  0.00  0.00    -0.047 A 
ATOM      9  C9  IND d   1       4.485  -1.172  -2.535  0.00  0.00    -0.096 A 
ATOM     10  HN1 IND d   1       2.328  -3.272  -1.936  0.00  0.00     0.298 HD
ENDROOT
TORSDOF 0
ENDMDL
