MODEL 1
REMARK minimizedAffinity 0.413404435
REMARK minimizedRMSD -1
REMARK  0 active torsions:
REMARK  status: ('A' for Active; 'I' for Inactive)
ROOT
ATOM      1  N1  IND d   1       2.833   0.349  -0.938  0.00  0.00    -0.196 N 
ATOM      2  C2  IND d   1       3.187  -0.863  -1.461  0.00  0.00     0.054 A 
ATOM      3  C3  IND d   1       2.178  -1.751  -1.316  0.00  0.00    -0.031 A 
ATOM      4  C4  IND d   1      -0.180  -1.403  -0.343  0.00  0.00     0.051 A 
ATOM      5  C5  IND d   1      -0.956  -0.475   0.293  0.00  0.00    -0.031 A 
ATOM      6  C6  IND d   1      -0.501   0.801   0.554  0.00  0.00     0.015 A 
ATOM      7  C7  IND d   1       0.749   1.203   0.177  0.00  0.00    -0.016 A 
ATOM      8  C8  IND d   1       1.543   0.261  -0.463  0.00  0.00    -0.047 A 
ATOM      9  C9  IND d   1       1.102  -1.049  -0.692  0.00  0.00    -0.096 A 
ATOM     10  HN1 IND d   1       3.332   1.048  -0.910  0.00  0.00     0.298 HD
ENDROOT
TORSDOF 0
ENDMDL
