MODEL 1
REMARK minimizedAffinity 1.65648854
REMARK minimizedRMSD -1
REMARK  0 active torsions:
REMARK  status: ('A' for Active; 'I' for Inactive)
ROOT
ATOM      1  N1  IND d   1       3.389   0.958  -1.325  0.00  0.00    -0.196 N 
ATOM      2  C2  IND d   1       4.333   0.088  -1.794  0.00  0.00     0.054 A 
ATOM      3  C3  IND d   1       3.843  -1.172  -1.813  0.00  0.00    -0.031 A 
ATOM      4  C4  IND d   1       1.488  -2.020  -1.214  0.00  0.00     0.051 A 
ATOM      5  C5  IND d   1       0.291  -1.604  -0.701  0.00  0.00    -0.031 A 
ATOM      6  C6  IND d   1       0.061  -0.285  -0.365  0.00  0.00     0.015 A 
ATOM      7  C7  IND d   1       1.019   0.672  -0.542  0.00  0.00    -0.016 A 
ATOM      8  C8  IND d   1       2.237   0.252  -1.056  0.00  0.00    -0.047 A 
ATOM      9  C9  IND d   1       2.491  -1.092  -1.359  0.00  0.00    -0.096 A 
ATOM     10  HN1 IND d   1       3.497   1.805  -1.216  0.00  0.00     0.298 HD
ENDROOT
TORSDOF 0
ENDMDL
