MODEL 1
REMARK minimizedAffinity -4.90105534
REMARK minimizedRMSD -1
REMARK  1 active torsions:
REMARK  status: ('A' for Active; 'I' for Inactive)
REMARK    1  A    between atoms: C1_2  and  C2_3 
ROOT
ATOM      1  C2  UNL d   1      -0.347   0.304  -0.001  0.00  0.00    -0.073 A 
ATOM      2  C3  UNL d   1      -1.279   0.288   1.043  0.00  0.00    -0.002 A 
ATOM      3  C4  UNL d   1      -1.232  -0.713   2.014  0.00  0.00     0.004 A 
ATOM      4  C5  UNL d   1      -0.250  -1.702   1.955  0.00  0.00    -0.004 A 
ATOM      5  C6  UNL d   1       0.697  -1.696   0.926  0.00  0.00    -0.075 A 
ATOM      6  C7  UNL d   1       1.757  -2.755   0.847  0.00  0.00     0.076 C 
ATOM      7  C8  UNL d   1       0.641  -0.689  -0.047  0.00  0.00     0.001 A 
ENDROOT
BRANCH   1   8
ATOM      8  C1  UNL d   1      -0.390   1.387  -1.048  0.00  0.00     0.053 C 
ATOM      9  C   UNL d   1      -1.798   1.615  -1.576  0.00  0.00     0.018 C 
ENDBRANCH   1   8
TORSDOF 1
ENDMDL
