MODEL 1
REMARK minimizedAffinity -6.13388729
REMARK minimizedRMSD -1
REMARK  1 active torsions:
REMARK  status: ('A' for Active; 'I' for Inactive)
REMARK    1  A    between atoms: C1_2  and  C2_3 
ROOT
ATOM      1  C2  UNL d   1      -0.156   0.302   0.283  0.00  0.00    -0.073 A 
ATOM      2  C3  UNL d   1       1.124   0.348  -0.280  0.00  0.00    -0.002 A 
ATOM      3  C4  UNL d   1       2.073  -0.622   0.046  0.00  0.00     0.004 A 
ATOM      4  C5  UNL d   1       1.749  -1.651   0.931  0.00  0.00    -0.004 A 
ATOM      5  C6  UNL d   1       0.471  -1.721   1.494  0.00  0.00    -0.075 A 
ATOM      6  C7  UNL d   1       0.108  -2.820   2.450  0.00  0.00     0.076 C 
ATOM      7  C8  UNL d   1      -0.475  -0.741   1.164  0.00  0.00     0.001 A 
ENDROOT
BRANCH   1   8
ATOM      8  C1  UNL d   1      -1.186   1.344  -0.071  0.00  0.00     0.053 C 
ATOM      9  C   UNL d   1      -1.102   1.755  -1.532  0.00  0.00     0.018 C 
ENDBRANCH   1   8
TORSDOF 1
ENDMDL
