MODEL 1
REMARK minimizedAffinity -5.19704962
REMARK minimizedRMSD -1
REMARK  1 active torsions:
REMARK  status: ('A' for Active; 'I' for Inactive)
REMARK    1  A    between atoms: C1_2  and  C2_3 
ROOT
ATOM      1  C2  UNL d   1      -0.046   0.043  -0.111  0.00  0.00    -0.073 A 
ATOM      2  C3  UNL d   1       1.205   0.229  -0.709  0.00  0.00    -0.002 A 
ATOM      3  C4  UNL d   1       2.274  -0.606  -0.384  0.00  0.00     0.004 A 
ATOM      4  C5  UNL d   1       2.102  -1.640   0.537  0.00  0.00    -0.004 A 
ATOM      5  C6  UNL d   1       0.857  -1.850   1.137  0.00  0.00    -0.075 A 
ATOM      6  C7  UNL d   1       0.656  -2.956   2.131  0.00  0.00     0.076 C 
ATOM      7  C8  UNL d   1      -0.211  -1.005   0.807  0.00  0.00     0.001 A 
ENDROOT
BRANCH   1   8
ATOM      8  C1  UNL d   1      -1.205   0.938  -0.464  0.00  0.00     0.053 C 
ATOM      9  C   UNL d   1      -1.095   1.480  -1.880  0.00  0.00     0.018 C 
ENDBRANCH   1   8
TORSDOF 1
ENDMDL
