MODEL 1
REMARK minimizedAffinity -3.18544102
REMARK minimizedRMSD -1
REMARK  1 active torsions:
REMARK  status: ('A' for Active; 'I' for Inactive)
REMARK    1  A    between atoms: C1_2  and  C2_3 
ROOT
ATOM      1  C2  UNL d   1      -1.319   1.089  -1.312  0.00  0.00    -0.073 A 
ATOM      2  C3  UNL d   1      -2.559   0.550  -1.671  0.00  0.00    -0.002 A 
ATOM      3  C4  UNL d   1      -3.062   0.736  -2.960  0.00  0.00     0.004 A 
ATOM      4  C5  UNL d   1      -2.328   1.456  -3.902  0.00  0.00    -0.004 A 
ATOM      5  C6  UNL d   1      -1.081   1.993  -3.566  0.00  0.00    -0.075 A 
ATOM      6  C7  UNL d   1      -0.280   2.771  -4.567  0.00  0.00     0.076 C 
ATOM      7  C8  UNL d   1      -0.584   1.803  -2.269  0.00  0.00     0.001 A 
ENDROOT
BRANCH   1   8
ATOM      8  C1  UNL d   1      -0.769   0.885   0.076  0.00  0.00     0.053 C 
ATOM      9  C   UNL d   1       0.226  -0.263   0.132  0.00  0.00     0.018 C 
ENDBRANCH   1   8
TORSDOF 1
ENDMDL
