MODEL 1
REMARK minimizedAffinity -3.95367169
REMARK minimizedRMSD -1
REMARK  1 active torsions:
REMARK  status: ('A' for Active; 'I' for Inactive)
REMARK    1  A    between atoms: C1_2  and  C2_3 
ROOT
ATOM      1  C2  UNL d   1       0.031   0.391  -0.054  0.00  0.00    -0.073 A 
ATOM      2  C3  UNL d   1       1.208   0.771  -0.709  0.00  0.00    -0.002 A 
ATOM      3  C4  UNL d   1       2.346  -0.034  -0.638  0.00  0.00     0.004 A 
ATOM      4  C5  UNL d   1       2.317  -1.229   0.082  0.00  0.00    -0.004 A 
ATOM      5  C6  UNL d   1       1.147  -1.632   0.733  0.00  0.00    -0.075 A 
ATOM      6  C7  UNL d   1       1.099  -2.912   1.514  0.00  0.00     0.076 C 
ATOM      7  C8  UNL d   1       0.009  -0.816   0.659  0.00  0.00     0.001 A 
ENDROOT
BRANCH   1   8
ATOM      8  C1  UNL d   1      -1.201   1.254  -0.133  0.00  0.00     0.053 C 
ATOM      9  C   UNL d   1      -1.375   1.874  -1.511  0.00  0.00     0.018 C 
ENDBRANCH   1   8
TORSDOF 1
ENDMDL
