MODEL 1
REMARK minimizedAffinity -4.89408636
REMARK minimizedRMSD -1
REMARK  1 active torsions:
REMARK  status: ('A' for Active; 'I' for Inactive)
REMARK    1  A    between atoms: C1_2  and  C2_3 
ROOT
ATOM      1  C2  UNL d   1      -0.240   0.105   0.451  0.00  0.00    -0.073 A 
ATOM      2  C3  UNL d   1       0.874   0.379  -0.350  0.00  0.00    -0.002 A 
ATOM      3  C4  UNL d   1       2.011  -0.427  -0.276  0.00  0.00     0.004 A 
ATOM      4  C5  UNL d   1       2.044  -1.517   0.594  0.00  0.00    -0.004 A 
ATOM      5  C6  UNL d   1       0.936  -1.813   1.395  0.00  0.00    -0.075 A 
ATOM      6  C7  UNL d   1       0.956  -2.980   2.338  0.00  0.00     0.076 C 
ATOM      7  C8  UNL d   1      -0.201  -0.998   1.316  0.00  0.00     0.001 A 
ENDROOT
BRANCH   1   8
ATOM      8  C1  UNL d   1      -1.472   0.968   0.370  0.00  0.00     0.053 C 
ATOM      9  C   UNL d   1      -1.620   1.623  -0.995  0.00  0.00     0.018 C 
ENDBRANCH   1   8
TORSDOF 1
ENDMDL
