MODEL 1
REMARK minimizedAffinity -4.08522034
REMARK minimizedRMSD -1
REMARK  1 active torsions:
REMARK  status: ('A' for Active; 'I' for Inactive)
REMARK    1  A    between atoms: C1_2  and  C2_3 
ROOT
ATOM      1  C2  UNL d   1       0.761  -0.316   0.031  0.00  0.00    -0.073 A 
ATOM      2  C3  UNL d   1       1.899  -1.098  -0.198  0.00  0.00    -0.002 A 
ATOM      3  C4  UNL d   1       2.155  -2.219   0.593  0.00  0.00     0.004 A 
ATOM      4  C5  UNL d   1       1.273  -2.574   1.613  0.00  0.00    -0.004 A 
ATOM      5  C6  UNL d   1       0.124  -1.813   1.849  0.00  0.00    -0.075 A 
ATOM      6  C7  UNL d   1      -0.833  -2.180   2.945  0.00  0.00     0.076 C 
ATOM      7  C8  UNL d   1      -0.124  -0.687   1.053  0.00  0.00     0.001 A 
ENDROOT
BRANCH   1   8
ATOM      8  C1  UNL d   1       0.477   0.891  -0.825  0.00  0.00     0.053 C 
ATOM      9  C   UNL d   1      -1.003   1.239  -0.847  0.00  0.00     0.018 C 
ENDBRANCH   1   8
TORSDOF 1
ENDMDL
