MODEL 1
REMARK minimizedAffinity -6.27367496
REMARK minimizedRMSD -1
REMARK  1 active torsions:
REMARK  status: ('A' for Active; 'I' for Inactive)
REMARK    1  A    between atoms: C1_2  and  C2_3 
ROOT
ATOM      1  C2  UNL d   1       0.161   0.132   0.618  0.00  0.00    -0.073 A 
ATOM      2  C3  UNL d   1       1.277  -0.288  -0.114  0.00  0.00    -0.002 A 
ATOM      3  C4  UNL d   1       1.934  -1.474   0.220  0.00  0.00     0.004 A 
ATOM      4  C5  UNL d   1       1.478  -2.252   1.283  0.00  0.00    -0.004 A 
ATOM      5  C6  UNL d   1       0.358  -1.855   2.020  0.00  0.00    -0.075 A 
ATOM      6  C7  UNL d   1      -0.144  -2.680   3.168  0.00  0.00     0.076 C 
ATOM      7  C8  UNL d   1      -0.295  -0.662   1.680  0.00  0.00     0.001 A 
ENDROOT
BRANCH   1   8
ATOM      8  C1  UNL d   1      -0.555   1.408   0.257  0.00  0.00     0.053 C 
ATOM      9  C   UNL d   1      -1.020   1.410  -1.191  0.00  0.00     0.018 C 
ENDBRANCH   1   8
TORSDOF 1
ENDMDL
