MODEL 1
REMARK minimizedAffinity -3.79741549
REMARK minimizedRMSD -1
REMARK  1 active torsions:
REMARK  status: ('A' for Active; 'I' for Inactive)
REMARK    1  A    between atoms: C1_2  and  C2_3 
ROOT
ATOM      1  C2  UNL d   1       0.061   0.332  -0.322  0.00  0.00    -0.073 A 
ATOM      2  C3  UNL d   1       1.269   0.817  -0.837  0.00  0.00    -0.002 A 
ATOM      3  C4  UNL d   1       2.442   0.073  -0.702  0.00  0.00     0.004 A 
ATOM      4  C5  UNL d   1       2.419  -1.164  -0.059  0.00  0.00    -0.004 A 
ATOM      5  C6  UNL d   1       1.219  -1.671   0.452  0.00  0.00    -0.075 A 
ATOM      6  C7  UNL d   1       1.177  -2.999   1.149  0.00  0.00     0.076 C 
ATOM      7  C8  UNL d   1       0.046  -0.917   0.315  0.00  0.00     0.001 A 
ENDROOT
BRANCH   1   8
ATOM      8  C1  UNL d   1      -1.209   1.129  -0.471  0.00  0.00     0.053 C 
ATOM      9  C   UNL d   1      -1.533   1.417  -1.929  0.00  0.00     0.018 C 
ENDBRANCH   1   8
TORSDOF 1
ENDMDL
