MODEL 1
REMARK minimizedAffinity -1.0975796
REMARK minimizedRMSD -1
REMARK  0 active torsions:
REMARK  status: ('A' for Active; 'I' for Inactive)
ROOT
ATOM      1  C1  DEN d   1       1.181   2.401   0.217  0.00  0.00     0.130 A 
ATOM      2  C2  DEN d   1       1.249   2.708   1.644  0.00  0.00    -0.031 A 
ATOM      3  C3  DEN d   1       0.571   1.620   2.377  0.00  0.00     0.027 A 
ATOM      4  C4  DEN d   1      -0.566  -0.501   1.448  0.00  0.00     0.027 A 
ATOM      5  C5  DEN d   1      -0.887  -1.191   0.300  0.00  0.00    -0.003 A 
ATOM      6  C6  DEN d   1      -0.574  -0.719  -0.948  0.00  0.00     0.001 A 
ATOM      7  C7  DEN d   1       0.120   0.455  -1.075  0.00  0.00     0.017 A 
ATOM      8  C8  DEN d   1       0.441   1.160   0.078  0.00  0.00    -0.094 A 
ATOM      9  C9  DEN d   1       0.126   0.661   1.330  0.00  0.00    -0.072 A 
ENDROOT
TORSDOF 0
ENDMDL
