MODEL 1
REMARK minimizedAffinity -2.83720875
REMARK minimizedRMSD -1
REMARK  0 active torsions:
REMARK  status: ('A' for Active; 'I' for Inactive)
ROOT
ATOM      1  C1  DEN d   1       0.623  -0.309  -1.265  0.00  0.00     0.130 A 
ATOM      2  C2  DEN d   1      -0.445  -1.304  -1.304  0.00  0.00    -0.031 A 
ATOM      3  C3  DEN d   1      -1.312  -1.089  -0.128  0.00  0.00     0.027 A 
ATOM      4  C4  DEN d   1      -1.106   0.681   1.737  0.00  0.00     0.027 A 
ATOM      5  C5  DEN d   1      -0.355   1.736   2.206  0.00  0.00    -0.003 A 
ATOM      6  C6  DEN d   1       0.785   2.158   1.574  0.00  0.00     0.001 A 
ATOM      7  C7  DEN d   1       1.182   1.550   0.412  0.00  0.00     0.017 A 
ATOM      8  C8  DEN d   1       0.433   0.481  -0.062  0.00  0.00    -0.094 A 
ATOM      9  C9  DEN d   1      -0.723   0.077   0.584  0.00  0.00    -0.072 A 
ENDROOT
TORSDOF 0
ENDMDL
