MODEL 1
REMARK minimizedAffinity -3.82265949
REMARK minimizedRMSD -1
REMARK  0 active torsions:
REMARK  status: ('A' for Active; 'I' for Inactive)
ROOT
ATOM      1  C1  DEN d   1       1.946   2.612   0.570  0.00  0.00     0.130 A 
ATOM      2  C2  DEN d   1       2.173   2.416   1.999  0.00  0.00    -0.031 A 
ATOM      3  C3  DEN d   1       1.271   1.342   2.462  0.00  0.00     0.027 A 
ATOM      4  C4  DEN d   1      -0.444  -0.031   1.110  0.00  0.00     0.027 A 
ATOM      5  C5  DEN d   1      -1.002  -0.217  -0.135  0.00  0.00    -0.003 A 
ATOM      6  C6  DEN d   1      -0.644   0.544  -1.216  0.00  0.00     0.001 A 
ATOM      7  C7  DEN d   1       0.331   1.497  -1.083  0.00  0.00     0.017 A 
ATOM      8  C8  DEN d   1       0.894   1.695   0.171  0.00  0.00    -0.094 A 
ATOM      9  C9  DEN d   1       0.527   0.907   1.249  0.00  0.00    -0.072 A 
ENDROOT
TORSDOF 0
ENDMDL
