MODEL 1
REMARK minimizedAffinity 0.13771902
REMARK minimizedRMSD -1
REMARK  0 active torsions:
REMARK  status: ('A' for Active; 'I' for Inactive)
ROOT
ATOM      1  C1  DEN d   1       3.117   2.405  -1.966  0.00  0.00     0.130 A 
ATOM      2  C2  DEN d   1       1.884   3.101  -1.608  0.00  0.00    -0.031 A 
ATOM      3  C3  DEN d   1       1.369   3.770  -2.820  0.00  0.00     0.027 A 
ATOM      4  C4  DEN d   1       2.354   3.791  -5.204  0.00  0.00     0.027 A 
ATOM      5  C5  DEN d   1       3.394   3.353  -5.992  0.00  0.00    -0.003 A 
ATOM      6  C6  DEN d   1       4.424   2.602  -5.491  0.00  0.00     0.001 A 
ATOM      7  C7  DEN d   1       4.414   2.229  -4.173  0.00  0.00     0.017 A 
ATOM      8  C8  DEN d   1       3.372   2.674  -3.370  0.00  0.00    -0.094 A 
ATOM      9  C9  DEN d   1       2.333   3.421  -3.898  0.00  0.00    -0.072 A 
ENDROOT
TORSDOF 0
ENDMDL
