MODEL 1
REMARK minimizedAffinity -1.90406454
REMARK minimizedRMSD -1
REMARK  0 active torsions:
REMARK  status: ('A' for Active; 'I' for Inactive)
ROOT
ATOM      1  C1  DEN d   1      -0.410  -0.861   1.365  0.00  0.00     0.130 A 
ATOM      2  C2  DEN d   1      -0.651  -0.539   2.768  0.00  0.00    -0.031 A 
ATOM      3  C3  DEN d   1      -0.276   0.873   2.983  0.00  0.00     0.027 A 
ATOM      4  C4  DEN d   1       0.643   2.584   1.287  0.00  0.00     0.027 A 
ATOM      5  C5  DEN d   1       1.027   2.772  -0.023  0.00  0.00    -0.003 A 
ATOM      6  C6  DEN d   1       0.991   1.760  -0.946  0.00  0.00     0.001 A 
ATOM      7  C7  DEN d   1       0.519   0.527  -0.583  0.00  0.00     0.017 A 
ATOM      8  C8  DEN d   1       0.138   0.328   0.737  0.00  0.00    -0.094 A 
ATOM      9  C9  DEN d   1       0.170   1.366   1.653  0.00  0.00    -0.072 A 
ENDROOT
TORSDOF 0
ENDMDL
