MODEL 1
REMARK minimizedAffinity -2.06374741
REMARK minimizedRMSD -1
REMARK  0 active torsions:
REMARK  status: ('A' for Active; 'I' for Inactive)
ROOT
ATOM      1  C1  DEN d   1      -1.108  -0.568  -0.554  0.00  0.00     0.130 A 
ATOM      2  C2  DEN d   1      -0.895  -0.198  -1.951  0.00  0.00    -0.031 A 
ATOM      3  C3  DEN d   1      -0.035   1.002  -1.979  0.00  0.00     0.027 A 
ATOM      4  C4  DEN d   1       0.988   2.313  -0.007  0.00  0.00     0.027 A 
ATOM      5  C5  DEN d   1       1.079   2.385   1.366  0.00  0.00    -0.003 A 
ATOM      6  C6  DEN d   1       0.425   1.507   2.188  0.00  0.00     0.001 A 
ATOM      7  C7  DEN d   1      -0.313   0.489   1.645  0.00  0.00     0.017 A 
ATOM      8  C8  DEN d   1      -0.416   0.413   0.262  0.00  0.00    -0.094 A 
ATOM      9  C9  DEN d   1       0.263   1.304  -0.553  0.00  0.00    -0.072 A 
ENDROOT
TORSDOF 0
ENDMDL
