MODEL 1
REMARK minimizedAffinity -6.13543224
REMARK minimizedRMSD -1
REMARK  0 active torsions:
REMARK  status: ('A' for Active; 'I' for Inactive)
ROOT
ATOM      1  C1  DEN d   1      -0.462   1.292   1.270  0.00  0.00     0.130 A 
ATOM      2  C2  DEN d   1       0.403   2.436   1.543  0.00  0.00    -0.031 A 
ATOM      3  C3  DEN d   1       1.663   2.244   0.798  0.00  0.00     0.027 A 
ATOM      4  C4  DEN d   1       2.353   0.298  -0.749  0.00  0.00     0.027 A 
ATOM      5  C5  DEN d   1       1.955  -0.909  -1.280  0.00  0.00    -0.003 A 
ATOM      6  C6  DEN d   1       0.747  -1.479  -0.974  0.00  0.00     0.001 A 
ATOM      7  C7  DEN d   1      -0.125  -0.819  -0.148  0.00  0.00     0.017 A 
ATOM      8  C8  DEN d   1       0.272   0.395   0.397  0.00  0.00    -0.094 A 
ATOM      9  C9  DEN d   1       1.492   0.960   0.066  0.00  0.00    -0.072 A 
ENDROOT
TORSDOF 0
ENDMDL
