MODEL 1
REMARK minimizedAffinity -2.19691563
REMARK minimizedRMSD -1
REMARK  0 active torsions:
REMARK  status: ('A' for Active; 'I' for Inactive)
ROOT
ATOM      1  C1  DEN d   1      -1.827   5.975  -5.632  0.00  0.00     0.130 A 
ATOM      2  C2  DEN d   1      -1.012   5.973  -4.420  0.00  0.00    -0.031 A 
ATOM      3  C3  DEN d   1      -1.923   5.960  -3.258  0.00  0.00     0.027 A 
ATOM      4  C4  DEN d   1      -4.501   5.938  -3.216  0.00  0.00     0.027 A 
ATOM      5  C5  DEN d   1      -5.637   5.946  -3.996  0.00  0.00    -0.003 A 
ATOM      6  C6  DEN d   1      -5.583   5.999  -5.364  0.00  0.00     0.001 A 
ATOM      7  C7  DEN d   1      -4.367   5.999  -5.996  0.00  0.00     0.017 A 
ATOM      8  C8  DEN d   1      -3.218   5.998  -5.216  0.00  0.00    -0.094 A 
ATOM      9  C9  DEN d   1      -3.293   5.933  -3.835  0.00  0.00    -0.072 A 
ENDROOT
TORSDOF 0
ENDMDL
