MODEL 1
REMARK minimizedAffinity -5.10622358
REMARK minimizedRMSD -1
REMARK  0 active torsions:
REMARK  status: ('A' for Active; 'I' for Inactive)
ROOT
ATOM      1  C1  DEN d   1       0.520   2.708   1.445  0.00  0.00     0.130 A 
ATOM      2  C2  DEN d   1       1.517   3.066   0.440  0.00  0.00    -0.031 A 
ATOM      3  C3  DEN d   1       1.792   1.868  -0.378  0.00  0.00     0.027 A 
ATOM      4  C4  DEN d   1       0.772  -0.493  -0.191  0.00  0.00     0.027 A 
ATOM      5  C5  DEN d   1      -0.108  -1.283   0.516  0.00  0.00    -0.003 A 
ATOM      6  C6  DEN d   1      -0.809  -0.812   1.593  0.00  0.00     0.001 A 
ATOM      7  C7  DEN d   1      -0.676   0.499   1.969  0.00  0.00     0.017 A 
ATOM      8  C8  DEN d   1       0.215   1.300   1.266  0.00  0.00    -0.094 A 
ATOM      9  C9  DEN d   1       0.905   0.808   0.172  0.00  0.00    -0.072 A 
ENDROOT
TORSDOF 0
ENDMDL
