MODEL 1
REMARK minimizedAffinity -3.70982957
REMARK minimizedRMSD -1
REMARK  0 active torsions:
REMARK  status: ('A' for Active; 'I' for Inactive)
ROOT
ATOM      1  C1  DEN d   1       1.816   1.437   0.654  0.00  0.00     0.130 A 
ATOM      2  C2  DEN d   1       1.646   2.059   1.964  0.00  0.00    -0.031 A 
ATOM      3  C3  DEN d   1       0.358   1.602   2.522  0.00  0.00     0.027 A 
ATOM      4  C4  DEN d   1      -1.379  -0.003   1.492  0.00  0.00     0.027 A 
ATOM      5  C5  DEN d   1      -1.680  -0.775   0.392  0.00  0.00    -0.003 A 
ATOM      6  C6  DEN d   1      -0.860  -0.836  -0.704  0.00  0.00     0.001 A 
ATOM      7  C7  DEN d   1       0.325  -0.148  -0.704  0.00  0.00     0.017 A 
ATOM      8  C8  DEN d   1       0.632   0.638   0.399  0.00  0.00    -0.094 A 
ATOM      9  C9  DEN d   1      -0.205   0.677   1.501  0.00  0.00    -0.072 A 
ENDROOT
TORSDOF 0
ENDMDL
