MODEL 1
REMARK minimizedAffinity -2.8182559
REMARK minimizedRMSD -1
REMARK  0 active torsions:
REMARK  status: ('A' for Active; 'I' for Inactive)
ROOT
ATOM      1  C1  DEN d   1      -5.815  -2.419  -1.330  0.00  0.00     0.130 A 
ATOM      2  C2  DEN d   1      -5.750  -3.342  -0.200  0.00  0.00    -0.031 A 
ATOM      3  C3  DEN d   1      -4.331  -3.682   0.031  0.00  0.00     0.027 A 
ATOM      4  C4  DEN d   1      -2.240  -2.870  -1.242  0.00  0.00     0.027 A 
ATOM      5  C5  DEN d   1      -1.794  -2.088  -2.284  0.00  0.00    -0.003 A 
ATOM      6  C6  DEN d   1      -2.651  -1.394  -3.095  0.00  0.00     0.001 A 
ATOM      7  C7  DEN d   1      -3.999  -1.432  -2.850  0.00  0.00     0.017 A 
ATOM      8  C8  DEN d   1      -4.457  -2.225  -1.806  0.00  0.00    -0.094 A 
ATOM      9  C9  DEN d   1      -3.573  -2.909  -0.989  0.00  0.00    -0.072 A 
ENDROOT
TORSDOF 0
ENDMDL
