MODEL 1
REMARK minimizedAffinity -5.42615509
REMARK minimizedRMSD -1
REMARK  0 active torsions:
REMARK  status: ('A' for Active; 'I' for Inactive)
ROOT
ATOM      1  C1  DEN d   1       3.086  -0.239  -0.386  0.00  0.00     0.130 A 
ATOM      2  C2  DEN d   1       4.083   0.594   0.281  0.00  0.00    -0.031 A 
ATOM      3  C3  DEN d   1       3.369   1.553   1.149  0.00  0.00     0.027 A 
ATOM      4  C4  DEN d   1       0.832   1.821   1.527  0.00  0.00     0.027 A 
ATOM      5  C5  DEN d   1      -0.412   1.349   1.172  0.00  0.00    -0.003 A 
ATOM      6  C6  DEN d   1      -0.577   0.345   0.254  0.00  0.00     0.001 A 
ATOM      7  C7  DEN d   1       0.522  -0.250  -0.306  0.00  0.00     0.017 A 
ATOM      8  C8  DEN d   1       1.779   0.226   0.042  0.00  0.00    -0.094 A 
ATOM      9  C9  DEN d   1       1.926   1.233   0.980  0.00  0.00    -0.072 A 
ENDROOT
TORSDOF 0
ENDMDL
