MODEL 1
REMARK minimizedAffinity -4.67345047
REMARK minimizedRMSD -1
REMARK  0 active torsions:
REMARK  status: ('A' for Active; 'I' for Inactive)
ROOT
ATOM      1  C1  DEN d   1      -3.810  -3.064   0.009  0.00  0.00     0.130 A 
ATOM      2  C2  DEN d   1      -5.237  -3.058  -0.304  0.00  0.00    -0.031 A 
ATOM      3  C3  DEN d   1      -5.418  -2.367  -1.596  0.00  0.00     0.027 A 
ATOM      4  C4  DEN d   1      -3.636  -1.316  -3.138  0.00  0.00     0.027 A 
ATOM      5  C5  DEN d   1      -2.291  -1.063  -3.289  0.00  0.00    -0.003 A 
ATOM      6  C6  DEN d   1      -1.369  -1.427  -2.343  0.00  0.00     0.001 A 
ATOM      7  C7  DEN d   1      -1.775  -2.104  -1.224  0.00  0.00     0.017 A 
ATOM      8  C8  DEN d   1      -3.131  -2.355  -1.061  0.00  0.00    -0.094 A 
ATOM      9  C9  DEN d   1      -4.046  -1.991  -2.034  0.00  0.00    -0.072 A 
ENDROOT
TORSDOF 0
ENDMDL
