MODEL 1
REMARK minimizedAffinity -3.89310932
REMARK minimizedRMSD -1
REMARK  0 active torsions:
REMARK  status: ('A' for Active; 'I' for Inactive)
ROOT
ATOM      1  C1  DEN d   1       0.053   0.549  -1.303  0.00  0.00     0.130 A 
ATOM      2  C2  DEN d   1       0.277   0.354   0.127  0.00  0.00    -0.031 A 
ATOM      3  C3  DEN d   1      -0.652  -0.694   0.595  0.00  0.00     0.027 A 
ATOM      4  C4  DEN d   1      -2.403  -2.029  -0.749  0.00  0.00     0.027 A 
ATOM      5  C5  DEN d   1      -2.967  -2.206  -1.993  0.00  0.00    -0.003 A 
ATOM      6  C6  DEN d   1      -2.591  -1.459  -3.078  0.00  0.00     0.001 A 
ATOM      7  C7  DEN d   1      -1.591  -0.531  -2.950  0.00  0.00     0.017 A 
ATOM      8  C8  DEN d   1      -1.023  -0.342  -1.697  0.00  0.00    -0.094 A 
ATOM      9  C9  DEN d   1      -1.408  -1.116  -0.615  0.00  0.00    -0.072 A 
ENDROOT
TORSDOF 0
ENDMDL
