MODEL 1
REMARK minimizedAffinity -5.05425692
REMARK minimizedRMSD -1
REMARK  0 active torsions:
REMARK  status: ('A' for Active; 'I' for Inactive)
ROOT
ATOM      1  C1  DEN d   1       0.288  -0.748  -0.618  0.00  0.00     0.130 A 
ATOM      2  C2  DEN d   1      -0.684  -1.472   0.197  0.00  0.00    -0.031 A 
ATOM      3  C3  DEN d   1      -0.956  -0.667   1.405  0.00  0.00     0.027 A 
ATOM      4  C4  DEN d   1       0.023   1.619   2.086  0.00  0.00     0.027 A 
ATOM      5  C5  DEN d   1       0.895   2.621   1.720  0.00  0.00    -0.003 A 
ATOM      6  C6  DEN d   1       1.645   2.555   0.576  0.00  0.00     0.001 A 
ATOM      7  C7  DEN d   1       1.503   1.484  -0.267  0.00  0.00     0.017 A 
ATOM      8  C8  DEN d   1       0.632   0.467   0.099  0.00  0.00    -0.094 A 
ATOM      9  C9  DEN d   1      -0.126   0.558   1.254  0.00  0.00    -0.072 A 
ENDROOT
TORSDOF 0
ENDMDL
