MODEL 1
REMARK minimizedAffinity -3.14617825
REMARK minimizedRMSD -1
REMARK  0 active torsions:
REMARK  status: ('A' for Active; 'I' for Inactive)
ROOT
ATOM      1  C1  DEN d   1       1.321  -1.440   0.043  0.00  0.00     0.130 A 
ATOM      2  C2  DEN d   1       2.423  -0.823  -0.690  0.00  0.00    -0.031 A 
ATOM      3  C3  DEN d   1       2.358   0.635  -0.471  0.00  0.00     0.027 A 
ATOM      4  C4  DEN d   1       0.668   1.991   0.930  0.00  0.00     0.027 A 
ATOM      5  C5  DEN d   1      -0.453   1.907   1.726  0.00  0.00    -0.003 A 
ATOM      6  C6  DEN d   1      -1.076   0.716   1.987  0.00  0.00     0.001 A 
ATOM      7  C7  DEN d   1      -0.555  -0.447   1.483  0.00  0.00     0.017 A 
ATOM      8  C8  DEN d   1       0.571  -0.370   0.674  0.00  0.00    -0.094 A 
ATOM      9  C9  DEN d   1       1.193   0.843   0.432  0.00  0.00    -0.072 A 
ENDROOT
TORSDOF 0
ENDMDL
