MODEL 1
REMARK minimizedAffinity -4.52339029
REMARK minimizedRMSD -1
REMARK  0 active torsions:
REMARK  status: ('A' for Active; 'I' for Inactive)
ROOT
ATOM      1  C1  DEN d   1       2.160   1.974   0.465  0.00  0.00     0.130 A 
ATOM      2  C2  DEN d   1       1.637   2.722   1.606  0.00  0.00    -0.031 A 
ATOM      3  C3  DEN d   1       0.443   2.012   2.108  0.00  0.00     0.027 A 
ATOM      4  C4  DEN d   1      -0.637  -0.163   1.239  0.00  0.00     0.027 A 
ATOM      5  C5  DEN d   1      -0.556  -1.153   0.284  0.00  0.00    -0.003 A 
ATOM      6  C6  DEN d   1       0.407  -1.152  -0.689  0.00  0.00     0.001 A 
ATOM      7  C7  DEN d   1       1.357  -0.164  -0.703  0.00  0.00     0.017 A 
ATOM      8  C8  DEN d   1       1.277   0.841   0.251  0.00  0.00    -0.094 A 
ATOM      9  C9  DEN d   1       0.303   0.816   1.235  0.00  0.00    -0.072 A 
ENDROOT
TORSDOF 0
ENDMDL
