MODEL 1
REMARK minimizedAffinity 5.64277124
REMARK minimizedRMSD -1
REMARK  1 active torsions:
REMARK  status: ('A' for Active; 'I' for Inactive)
REMARK    1  A    between atoms: C1_2  and  C2_3 
ROOT
ATOM      1  C2  UNL d   1      -0.316   2.333  -0.143  0.00  0.00    -0.073 A 
ATOM      2  C3  UNL d   1       1.008   1.946   0.094  0.00  0.00    -0.002 A 
ATOM      3  C4  UNL d   1       1.503   0.758  -0.447  0.00  0.00     0.004 A 
ATOM      4  C5  UNL d   1       0.683  -0.050  -1.234  0.00  0.00    -0.004 A 
ATOM      5  C6  UNL d   1      -0.640   0.326  -1.492  0.00  0.00    -0.075 A 
ATOM      6  C7  UNL d   1      -1.535  -0.534  -2.335  0.00  0.00     0.076 C 
ATOM      7  C8  UNL d   1      -1.130   1.518  -0.943  0.00  0.00     0.001 A 
ENDROOT
BRANCH   1   8
ATOM      8  C1  UNL d   1      -0.853   3.617   0.434  0.00  0.00     0.053 C 
ATOM      9  C   UNL d   1      -0.044   4.086   1.633  0.00  0.00     0.018 C 
ENDBRANCH   1   8
TORSDOF 1
ENDMDL
