MODEL 1
REMARK minimizedAffinity 8.46599197
REMARK minimizedRMSD -1
REMARK  1 active torsions:
REMARK  status: ('A' for Active; 'I' for Inactive)
REMARK    1  A    between atoms: C1_2  and  C2_3 
ROOT
ATOM      1  C2  UNL d   1       2.453   0.002  -1.235  0.00  0.00    -0.073 A 
ATOM      2  C3  UNL d   1       1.673  -1.027  -1.774  0.00  0.00    -0.002 A 
ATOM      3  C4  UNL d   1       0.283  -0.912  -1.810  0.00  0.00     0.004 A 
ATOM      4  C5  UNL d   1      -0.340   0.233  -1.316  0.00  0.00    -0.004 A 
ATOM      5  C6  UNL d   1       0.423   1.278  -0.784  0.00  0.00    -0.075 A 
ATOM      6  C7  UNL d   1      -0.232   2.516  -0.245  0.00  0.00     0.076 C 
ATOM      7  C8  UNL d   1       1.818   1.154  -0.748  0.00  0.00     0.001 A 
ENDROOT
BRANCH   1   8
ATOM      8  C1  UNL d   1       3.955  -0.115  -1.199  0.00  0.00     0.053 C 
ATOM      9  C   UNL d   1       4.637   1.219  -1.459  0.00  0.00     0.018 C 
ENDBRANCH   1   8
TORSDOF 1
ENDMDL
