MODEL 1
REMARK minimizedAffinity 8.30319023
REMARK minimizedRMSD -1
REMARK  1 active torsions:
REMARK  status: ('A' for Active; 'I' for Inactive)
REMARK    1  A    between atoms: C1_2  and  C2_3 
ROOT
ATOM      1  C2  UNL d   1       2.671   3.772   3.580  0.00  0.00    -0.073 A 
ATOM      2  C3  UNL d   1       3.116   4.234   4.824  0.00  0.00    -0.002 A 
ATOM      3  C4  UNL d   1       2.495   3.807   5.998  0.00  0.00     0.004 A 
ATOM      4  C5  UNL d   1       1.429   2.909   5.942  0.00  0.00    -0.004 A 
ATOM      5  C6  UNL d   1       0.977   2.427   4.710  0.00  0.00    -0.075 A 
ATOM      6  C7  UNL d   1      -0.170   1.462   4.632  0.00  0.00     0.076 C 
ATOM      7  C8  UNL d   1       1.604   2.862   3.535  0.00  0.00     0.001 A 
ENDROOT
BRANCH   1   8
ATOM      8  C1  UNL d   1       3.342   4.225   2.310  0.00  0.00     0.053 C 
ATOM      9  C   UNL d   1       4.773   4.681   2.553  0.00  0.00     0.018 C 
ENDBRANCH   1   8
TORSDOF 1
ENDMDL
