MODEL 1
REMARK minimizedAffinity 3.21811843
REMARK minimizedRMSD -1
REMARK  1 active torsions:
REMARK  status: ('A' for Active; 'I' for Inactive)
REMARK    1  A    between atoms: C1_2  and  C2_3 
ROOT
ATOM      1  C2  UNL d   1       5.260   2.216  -2.080  0.00  0.00    -0.073 A 
ATOM      2  C3  UNL d   1       5.700   2.269  -0.752  0.00  0.00    -0.002 A 
ATOM      3  C4  UNL d   1       5.016   1.575   0.246  0.00  0.00     0.004 A 
ATOM      4  C5  UNL d   1       3.891   0.814  -0.073  0.00  0.00    -0.004 A 
ATOM      5  C6  UNL d   1       3.443   0.739  -1.396  0.00  0.00    -0.075 A 
ATOM      6  C7  UNL d   1       2.233  -0.073  -1.755  0.00  0.00     0.076 C 
ATOM      7  C8  UNL d   1       4.134   1.441  -2.392  0.00  0.00     0.001 A 
ENDROOT
BRANCH   1   8
ATOM      8  C1  UNL d   1       6.000   2.959  -3.162  0.00  0.00     0.053 C 
ATOM      9  C   UNL d   1       5.632   4.434  -3.193  0.00  0.00     0.018 C 
ENDBRANCH   1   8
TORSDOF 1
ENDMDL
