MODEL 1
REMARK minimizedAffinity 3.7814033
REMARK minimizedRMSD -1
REMARK  1 active torsions:
REMARK  status: ('A' for Active; 'I' for Inactive)
REMARK    1  A    between atoms: C1_2  and  C2_3 
ROOT
ATOM      1  C2  UNL d   1      -1.028   0.646  -1.442  0.00  0.00    -0.073 A 
ATOM      2  C3  UNL d   1      -1.597   1.773  -0.839  0.00  0.00    -0.002 A 
ATOM      3  C4  UNL d   1      -0.822   2.609  -0.033  0.00  0.00     0.004 A 
ATOM      4  C5  UNL d   1       0.529   2.330   0.173  0.00  0.00    -0.004 A 
ATOM      5  C6  UNL d   1       1.119   1.215  -0.431  0.00  0.00    -0.075 A 
ATOM      6  C7  UNL d   1       2.570   0.900  -0.218  0.00  0.00     0.076 C 
ATOM      7  C8  UNL d   1       0.334   0.379  -1.236  0.00  0.00     0.001 A 
ENDROOT
BRANCH   1   8
ATOM      8  C1  UNL d   1      -1.859  -0.255  -2.318  0.00  0.00     0.053 C 
ATOM      9  C   UNL d   1      -1.865  -1.690  -1.816  0.00  0.00     0.018 C 
ENDBRANCH   1   8
TORSDOF 1
ENDMDL
