MODEL 1
REMARK minimizedAffinity 2.3921659
REMARK minimizedRMSD -1
REMARK  0 active torsions:
REMARK  status: ('A' for Active; 'I' for Inactive)
ROOT
ATOM      1  O1  BZF d   1       1.816  -4.496  -0.433  0.00  0.00    -0.204 OA
ATOM      2  C2  BZF d   1       3.130  -4.338  -0.036  0.00  0.00     0.174 A 
ATOM      3  C3  BZF d   1       3.360  -3.071   0.366  0.00  0.00    -0.012 A 
ATOM      4  C3A BZF d   1       2.088  -2.419   0.298  0.00  0.00    -0.107 A 
ATOM      5  C4  BZF d   1       1.667  -1.152   0.586  0.00  0.00     0.055 A 
ATOM      6  C5  BZF d   1       0.373  -0.815   0.341  0.00  0.00    -0.016 A 
ATOM      7  C6  BZF d   1      -0.523  -1.716  -0.196  0.00  0.00     0.022 A 
ATOM      8  C7  BZF d   1      -0.152  -2.985  -0.494  0.00  0.00     0.029 A 
ATOM      9  C7A BZF d   1       1.146  -3.339  -0.217  0.00  0.00     0.058 A 
ENDROOT
TORSDOF 0
ENDMDL
