MODEL 1
REMARK minimizedAffinity -2.76081491
REMARK minimizedRMSD -1
REMARK  0 active torsions:
REMARK  status: ('A' for Active; 'I' for Inactive)
ROOT
ATOM      1  O1  BZF d   1      -0.360  -2.113   1.275  0.00  0.00    -0.204 OA
ATOM      2  C2  BZF d   1      -0.307  -0.741   1.429  0.00  0.00     0.174 A 
ATOM      3  C3  BZF d   1       0.903  -0.266   1.068  0.00  0.00    -0.012 A 
ATOM      4  C3A BZF d   1       1.621  -1.401   0.575  0.00  0.00    -0.107 A 
ATOM      5  C4  BZF d   1       2.873  -1.567   0.055  0.00  0.00     0.055 A 
ATOM      6  C5  BZF d   1       3.296  -2.818  -0.263  0.00  0.00    -0.016 A 
ATOM      7  C6  BZF d   1       2.496  -3.926  -0.070  0.00  0.00     0.022 A 
ATOM      8  C7  BZF d   1       1.245  -3.811   0.437  0.00  0.00     0.029 A 
ATOM      9  C7A BZF d   1       0.802  -2.544   0.729  0.00  0.00     0.058 A 
ENDROOT
TORSDOF 0
ENDMDL
