MODEL 1
REMARK minimizedAffinity -0.386056513
REMARK minimizedRMSD -1
REMARK  0 active torsions:
REMARK  status: ('A' for Active; 'I' for Inactive)
ROOT
ATOM      1  O1  BZF d   1      -0.535  -2.940   0.494  0.00  0.00    -0.204 OA
ATOM      2  C2  BZF d   1      -1.293  -1.788   0.586  0.00  0.00     0.174 A 
ATOM      3  C3  BZF d   1      -0.508  -0.718   0.824  0.00  0.00    -0.012 A 
ATOM      4  C3A BZF d   1       0.832  -1.218   0.793  0.00  0.00    -0.107 A 
ATOM      5  C4  BZF d   1       2.056  -0.633   0.945  0.00  0.00     0.055 A 
ATOM      6  C5  BZF d   1       3.168  -1.415   0.932  0.00  0.00    -0.016 A 
ATOM      7  C6  BZF d   1       3.091  -2.783   0.773  0.00  0.00     0.022 A 
ATOM      8  C7  BZF d   1       1.900  -3.408   0.613  0.00  0.00     0.029 A 
ATOM      9  C7A BZF d   1       0.777  -2.617   0.594  0.00  0.00     0.058 A 
ENDROOT
TORSDOF 0
ENDMDL
