MODEL 1
REMARK minimizedAffinity -2.47134256
REMARK minimizedRMSD -1
REMARK  0 active torsions:
REMARK  status: ('A' for Active; 'I' for Inactive)
ROOT
ATOM      1  O1  BZF d   1       3.037  -2.436  -0.053  0.00  0.00    -0.204 OA
ATOM      2  C2  BZF d   1       2.827  -3.743  -0.450  0.00  0.00     0.174 A 
ATOM      3  C3  BZF d   1       1.517  -4.057  -0.386  0.00  0.00    -0.012 A 
ATOM      4  C3A BZF d   1       0.857  -2.845  -0.008  0.00  0.00    -0.107 A 
ATOM      5  C4  BZF d   1      -0.451  -2.514   0.202  0.00  0.00     0.055 A 
ATOM      6  C5  BZF d   1      -0.755  -1.262   0.634  0.00  0.00    -0.016 A 
ATOM      7  C6  BZF d   1       0.224  -0.318   0.870  0.00  0.00     0.022 A 
ATOM      8  C7  BZF d   1       1.535  -0.598   0.670  0.00  0.00     0.029 A 
ATOM      9  C7A BZF d   1       1.842  -1.852   0.202  0.00  0.00     0.058 A 
ENDROOT
TORSDOF 0
ENDMDL
