MODEL 1
REMARK minimizedAffinity 2.86998296
REMARK minimizedRMSD -1
REMARK  0 active torsions:
REMARK  status: ('A' for Active; 'I' for Inactive)
ROOT
ATOM      1  O1  BZF d   1       2.816  -0.241   1.818  0.00  0.00    -0.204 OA
ATOM      2  C2  BZF d   1       3.975  -0.886   1.432  0.00  0.00     0.174 A 
ATOM      3  C3  BZF d   1       3.692  -2.060   0.833  0.00  0.00    -0.012 A 
ATOM      4  C3A BZF d   1       2.264  -2.112   0.761  0.00  0.00    -0.107 A 
ATOM      5  C4  BZF d   1       1.382  -3.024   0.258  0.00  0.00     0.055 A 
ATOM      6  C5  BZF d   1       0.049  -2.809   0.412  0.00  0.00    -0.016 A 
ATOM      7  C6  BZF d   1      -0.436  -1.697   1.069  0.00  0.00     0.022 A 
ATOM      8  C7  BZF d   1       0.401  -0.761   1.581  0.00  0.00     0.029 A 
ATOM      9  C7A BZF d   1       1.747  -0.959   1.397  0.00  0.00     0.058 A 
ENDROOT
TORSDOF 0
ENDMDL
