MODEL 1
REMARK minimizedAffinity 2.23233509
REMARK minimizedRMSD -1
REMARK  0 active torsions:
REMARK  status: ('A' for Active; 'I' for Inactive)
ROOT
ATOM      1  O1  BZF d   1       3.165  -0.314   2.420  0.00  0.00    -0.204 OA
ATOM      2  C2  BZF d   1       4.208  -0.781   1.643  0.00  0.00     0.174 A 
ATOM      3  C3  BZF d   1       3.742  -1.371   0.523  0.00  0.00    -0.012 A 
ATOM      4  C3A BZF d   1       2.324  -1.183   0.560  0.00  0.00    -0.107 A 
ATOM      5  C4  BZF d   1       1.308  -1.532  -0.283  0.00  0.00     0.055 A 
ATOM      6  C5  BZF d   1       0.026  -1.266   0.081  0.00  0.00    -0.016 A 
ATOM      7  C6  BZF d   1      -0.276  -0.657   1.282  0.00  0.00     0.022 A 
ATOM      8  C7  BZF d   1       0.698  -0.288   2.149  0.00  0.00     0.029 A 
ATOM      9  C7A BZF d   1       1.997  -0.526   1.769  0.00  0.00     0.058 A 
ENDROOT
TORSDOF 0
ENDMDL
