MODEL 1
REMARK minimizedAffinity -5.73276997
REMARK minimizedRMSD -1
REMARK  0 active torsions:
REMARK  status: ('A' for Active; 'I' for Inactive)
ROOT
ATOM      1  O1  BZF d   1      -0.852  -2.693   1.125  0.00  0.00    -0.204 OA
ATOM      2  C2  BZF d   1      -1.428  -1.498   1.512  0.00  0.00     0.174 A 
ATOM      3  C3  BZF d   1      -0.519  -0.502   1.500  0.00  0.00    -0.012 A 
ATOM      4  C3A BZF d   1       0.679  -1.093   0.989  0.00  0.00    -0.107 A 
ATOM      5  C4  BZF d   1       1.928  -0.607   0.727  0.00  0.00     0.055 A 
ATOM      6  C5  BZF d   1       2.895  -1.462   0.303  0.00  0.00    -0.016 A 
ATOM      7  C6  BZF d   1       2.649  -2.810   0.135  0.00  0.00     0.022 A 
ATOM      8  C7  BZF d   1       1.425  -3.338   0.378  0.00  0.00     0.029 A 
ATOM      9  C7A BZF d   1       0.437  -2.470   0.775  0.00  0.00     0.058 A 
ENDROOT
TORSDOF 0
ENDMDL
