MODEL 1
REMARK minimizedAffinity -0.949957788
REMARK minimizedRMSD -1
REMARK  0 active torsions:
REMARK  status: ('A' for Active; 'I' for Inactive)
ROOT
ATOM      1  O1  BZF d   1      -0.514  -3.731   0.257  0.00  0.00    -0.204 OA
ATOM      2  C2  BZF d   1      -1.255  -2.604   0.556  0.00  0.00     0.174 A 
ATOM      3  C3  BZF d   1      -0.447  -1.557   0.820  0.00  0.00    -0.012 A 
ATOM      4  C3A BZF d   1       0.880  -2.038   0.588  0.00  0.00    -0.107 A 
ATOM      5  C4  BZF d   1       2.115  -1.460   0.667  0.00  0.00     0.055 A 
ATOM      6  C5  BZF d   1       3.217  -2.225   0.447  0.00  0.00    -0.016 A 
ATOM      7  C6  BZF d   1       3.121  -3.569   0.151  0.00  0.00     0.022 A 
ATOM      8  C7  BZF d   1       1.918  -4.185   0.057  0.00  0.00     0.029 A 
ATOM      9  C7A BZF d   1       0.801  -3.408   0.246  0.00  0.00     0.058 A 
ENDROOT
TORSDOF 0
ENDMDL
