MODEL 1
REMARK minimizedAffinity -4.3712697
REMARK minimizedRMSD -1
REMARK  0 active torsions:
REMARK  status: ('A' for Active; 'I' for Inactive)
ROOT
ATOM      1  O1  BZF d   1       2.648  -2.780   0.515  0.00  0.00    -0.204 OA
ATOM      2  C2  BZF d   1       2.172  -3.989   0.048  0.00  0.00     0.174 A 
ATOM      3  C3  BZF d   1       0.844  -3.926  -0.177  0.00  0.00    -0.012 A 
ATOM      4  C3A BZF d   1       0.482  -2.566   0.084  0.00  0.00    -0.107 A 
ATOM      5  C4  BZF d   1      -0.696  -1.880   0.021  0.00  0.00     0.055 A 
ATOM      6  C5  BZF d   1      -0.724  -0.578   0.411  0.00  0.00    -0.016 A 
ATOM      7  C6  BZF d   1       0.405   0.065   0.875  0.00  0.00     0.022 A 
ATOM      8  C7  BZF d   1       1.598  -0.573   0.951  0.00  0.00     0.029 A 
ATOM      9  C7A BZF d   1       1.636  -1.879   0.526  0.00  0.00     0.058 A 
ENDROOT
TORSDOF 0
ENDMDL
