MODEL 1
REMARK minimizedAffinity -4.13363409
REMARK minimizedRMSD -1
REMARK  0 active torsions:
REMARK  status: ('A' for Active; 'I' for Inactive)
ROOT
ATOM      1  O1  BZF d   1       3.268  -2.600   0.219  0.00  0.00    -0.204 OA
ATOM      2  C2  BZF d   1       3.325  -3.965   0.018  0.00  0.00     0.174 A 
ATOM      3  C3  BZF d   1       2.097  -4.514   0.108  0.00  0.00    -0.012 A 
ATOM      4  C3A BZF d   1       1.204  -3.410   0.290  0.00  0.00    -0.107 A 
ATOM      5  C4  BZF d   1      -0.151  -3.311   0.429  0.00  0.00     0.055 A 
ATOM      6  C5  BZF d   1      -0.703  -2.092   0.664  0.00  0.00    -0.016 A 
ATOM      7  C6  BZF d   1       0.068  -0.954   0.771  0.00  0.00     0.022 A 
ATOM      8  C7  BZF d   1       1.416  -1.001   0.636  0.00  0.00     0.029 A 
ATOM      9  C7A BZF d   1       1.974  -2.226   0.366  0.00  0.00     0.058 A 
ENDROOT
TORSDOF 0
ENDMDL
