MODEL 1
REMARK minimizedAffinity -3.38083076
REMARK minimizedRMSD -1
REMARK  0 active torsions:
REMARK  status: ('A' for Active; 'I' for Inactive)
ROOT
ATOM      1  O1  BZF d   1       2.923  -2.897   0.121  0.00  0.00    -0.204 OA
ATOM      2  C2  BZF d   1       2.422  -4.151  -0.171  0.00  0.00     0.174 A 
ATOM      3  C3  BZF d   1       1.079  -4.170  -0.046  0.00  0.00    -0.012 A 
ATOM      4  C3A BZF d   1       0.710  -2.822   0.258  0.00  0.00    -0.107 A 
ATOM      5  C4  BZF d   1      -0.487  -2.203   0.481  0.00  0.00     0.055 A 
ATOM      6  C5  BZF d   1      -0.497  -0.889   0.826  0.00  0.00    -0.016 A 
ATOM      7  C6  BZF d   1       0.669  -0.165   0.962  0.00  0.00     0.022 A 
ATOM      8  C7  BZF d   1       1.880  -0.733   0.747  0.00  0.00     0.029 A 
ATOM      9  C7A BZF d   1       1.892  -2.053   0.366  0.00  0.00     0.058 A 
ENDROOT
TORSDOF 0
ENDMDL
