MODEL 1
REMARK minimizedAffinity 0.0458136089
REMARK minimizedRMSD -1
REMARK  0 active torsions:
REMARK  status: ('A' for Active; 'I' for Inactive)
ROOT
ATOM      1  O1  BZF d   1       3.957  -2.191   0.246  0.00  0.00    -0.204 OA
ATOM      2  C2  BZF d   1       4.187  -3.523  -0.035  0.00  0.00     0.174 A 
ATOM      3  C3  BZF d   1       3.053  -4.242   0.090  0.00  0.00    -0.012 A 
ATOM      4  C3A BZF d   1       2.032  -3.285   0.384  0.00  0.00    -0.107 A 
ATOM      5  C4  BZF d   1       0.687  -3.384   0.603  0.00  0.00     0.055 A 
ATOM      6  C5  BZF d   1      -0.011  -2.267   0.938  0.00  0.00    -0.016 A 
ATOM      7  C6  BZF d   1       0.602  -1.039   1.067  0.00  0.00     0.022 A 
ATOM      8  C7  BZF d   1       1.933  -0.890   0.855  0.00  0.00     0.029 A 
ATOM      9  C7A BZF d   1       2.635  -2.010   0.485  0.00  0.00     0.058 A 
ENDROOT
TORSDOF 0
ENDMDL
