MODEL 1
REMARK minimizedAffinity 4.26144409
REMARK minimizedRMSD -1
REMARK  0 active torsions:
REMARK  status: ('A' for Active; 'I' for Inactive)
ROOT
ATOM      1  O1  BZF d   1       3.879   3.219   0.106  0.00  0.00    -0.204 OA
ATOM      2  C2  BZF d   1       3.145   4.387   0.194  0.00  0.00     0.174 A 
ATOM      3  C3  BZF d   1       2.295   4.497  -0.847  0.00  0.00    -0.012 A 
ATOM      4  C3A BZF d   1       2.444   3.281  -1.586  0.00  0.00    -0.107 A 
ATOM      5  C4  BZF d   1       1.855   2.791  -2.716  0.00  0.00     0.055 A 
ATOM      6  C5  BZF d   1       2.278   1.601  -3.218  0.00  0.00    -0.016 A 
ATOM      7  C6  BZF d   1       3.289   0.878  -2.620  0.00  0.00     0.022 A 
ATOM      8  C7  BZF d   1       3.900   1.322  -1.494  0.00  0.00     0.029 A 
ATOM      9  C7A BZF d   1       3.453   2.508  -0.966  0.00  0.00     0.058 A 
ENDROOT
TORSDOF 0
ENDMDL
