MODEL 1
REMARK minimizedAffinity 11.1217842
REMARK minimizedRMSD -1
REMARK  0 active torsions:
REMARK  status: ('A' for Active; 'I' for Inactive)
ROOT
ATOM      1  O1  BZF d   1      -2.793   2.133   4.171  0.00  0.00    -0.204 OA
ATOM      2  C2  BZF d   1      -2.831   2.673   2.900  0.00  0.00     0.174 A 
ATOM      3  C3  BZF d   1      -1.903   2.098   2.108  0.00  0.00    -0.012 A 
ATOM      4  C3A BZF d   1      -1.307   1.074   2.910  0.00  0.00    -0.107 A 
ATOM      5  C4  BZF d   1      -0.331   0.147   2.676  0.00  0.00     0.055 A 
ATOM      6  C5  BZF d   1       0.071  -0.659   3.693  0.00  0.00    -0.016 A 
ATOM      7  C6  BZF d   1      -0.476  -0.563   4.956  0.00  0.00     0.022 A 
ATOM      8  C7  BZF d   1      -1.450   0.337   5.234  0.00  0.00     0.029 A 
ATOM      9  C7A BZF d   1      -1.882   1.131   4.200  0.00  0.00     0.058 A 
ENDROOT
TORSDOF 0
ENDMDL
