MODEL 1
REMARK minimizedAffinity 2.81770253
REMARK minimizedRMSD -1
REMARK  0 active torsions:
REMARK  status: ('A' for Active; 'I' for Inactive)
ROOT
ATOM      1  O1  BZF d   1       5.056  -4.464  -0.281  0.00  0.00    -0.204 OA
ATOM      2  C2  BZF d   1       4.759  -5.811  -0.209  0.00  0.00     0.174 A 
ATOM      3  C3  BZF d   1       3.451  -5.999   0.059  0.00  0.00    -0.012 A 
ATOM      4  C3A BZF d   1       2.877  -4.689   0.069  0.00  0.00    -0.107 A 
ATOM      5  C4  BZF d   1       1.609  -4.221   0.264  0.00  0.00     0.055 A 
ATOM      6  C5  BZF d   1       1.396  -2.879   0.283  0.00  0.00    -0.016 A 
ATOM      7  C6  BZF d   1       2.427  -1.977   0.116  0.00  0.00     0.022 A 
ATOM      8  C7  BZF d   1       3.700  -2.394  -0.085  0.00  0.00     0.029 A 
ATOM      9  C7A BZF d   1       3.914  -3.750  -0.138  0.00  0.00     0.058 A 
ENDROOT
TORSDOF 0
ENDMDL
