MODEL 1
REMARK minimizedAffinity -3.96124864
REMARK minimizedRMSD -1
REMARK  0 active torsions:
REMARK  status: ('A' for Active; 'I' for Inactive)
ROOT
ATOM      1  C   UNL d   1       0.374  -0.051  -0.257  0.00  0.00     0.172 C 
ATOM      2  N   UNL d   1      -0.071   0.883   0.750  0.00  0.00    -0.070 N 
ATOM      3  C1  UNL d   1      -0.827   2.002   0.524  0.00  0.00    -0.004 A 
ATOM      4  C2  UNL d   1      -1.037   2.622   1.737  0.00  0.00    -0.047 A 
ATOM      5  C3  UNL d   1      -0.384   1.849   2.726  0.00  0.00    -0.047 A 
ATOM      6  C4  UNL d   1       0.206   0.779   2.088  0.00  0.00    -0.004 A 
ENDROOT
TORSDOF 0
ENDMDL
