MODEL 1
REMARK minimizedAffinity -3.30161953
REMARK minimizedRMSD -1
REMARK  0 active torsions:
REMARK  status: ('A' for Active; 'I' for Inactive)
ROOT
ATOM      1  C   UNL d   1      -0.012  -1.101  -0.376  0.00  0.00     0.172 C 
ATOM      2  N   UNL d   1      -0.134   0.054   0.482  0.00  0.00    -0.070 N 
ATOM      3  C1  UNL d   1       0.741   0.407   1.475  0.00  0.00    -0.004 A 
ATOM      4  C2  UNL d   1       0.273   1.564   2.058  0.00  0.00    -0.047 A 
ATOM      5  C3  UNL d   1      -0.925   1.919   1.393  0.00  0.00    -0.047 A 
ATOM      6  C4  UNL d   1      -1.154   0.967   0.422  0.00  0.00    -0.004 A 
ENDROOT
TORSDOF 0
ENDMDL
