MODEL 1
REMARK minimizedAffinity -3.93681407
REMARK minimizedRMSD -1
REMARK  0 active torsions:
REMARK  status: ('A' for Active; 'I' for Inactive)
ROOT
ATOM      1  C   UNL d   1       0.359  -0.517  -0.365  0.00  0.00     0.172 C 
ATOM      2  N   UNL d   1       0.044   0.403   0.703  0.00  0.00    -0.070 N 
ATOM      3  C1  UNL d   1      -0.889   1.403   0.645  0.00  0.00    -0.004 A 
ATOM      4  C2  UNL d   1      -0.889   2.052   1.861  0.00  0.00    -0.047 A 
ATOM      5  C3  UNL d   1       0.079   1.420   2.677  0.00  0.00    -0.047 A 
ATOM      6  C4  UNL d   1       0.641   0.402   1.936  0.00  0.00    -0.004 A 
ENDROOT
TORSDOF 0
ENDMDL
