MODEL 1
REMARK minimizedAffinity -2.89121389
REMARK minimizedRMSD -1
REMARK  0 active torsions:
REMARK  status: ('A' for Active; 'I' for Inactive)
ROOT
ATOM      1  C   UNL d   1      -0.509   2.144   2.119  0.00  0.00     0.172 C 
ATOM      2  N   UNL d   1      -0.074   1.112   1.207  0.00  0.00    -0.070 N 
ATOM      3  C1  UNL d   1      -0.340   1.070  -0.135  0.00  0.00    -0.004 A 
ATOM      4  C2  UNL d   1       0.247  -0.068  -0.646  0.00  0.00    -0.047 A 
ATOM      5  C3  UNL d   1       0.888  -0.732   0.427  0.00  0.00    -0.047 A 
ATOM      6  C4  UNL d   1       0.673   0.020   1.562  0.00  0.00    -0.004 A 
ENDROOT
TORSDOF 0
ENDMDL
