MODEL 1
REMARK minimizedAffinity -3.98949146
REMARK minimizedRMSD -1
REMARK  0 active torsions:
REMARK  status: ('A' for Active; 'I' for Inactive)
ROOT
ATOM      1  C   UNL d   1       0.101   0.215   2.239  0.00  0.00     0.172 C 
ATOM      2  N   UNL d   1      -0.260   1.425   1.539  0.00  0.00    -0.070 N 
ATOM      3  C1  UNL d   1       0.290   2.662   1.747  0.00  0.00    -0.004 A 
ATOM      4  C2  UNL d   1      -0.321   3.546   0.884  0.00  0.00    -0.047 A 
ATOM      5  C3  UNL d   1      -1.272   2.815   0.133  0.00  0.00    -0.047 A 
ATOM      6  C4  UNL d   1      -1.213   1.505   0.558  0.00  0.00    -0.004 A 
ENDROOT
TORSDOF 0
ENDMDL
