MODEL 1
REMARK minimizedAffinity -3.51433372
REMARK minimizedRMSD -1
REMARK  0 active torsions:
REMARK  status: ('A' for Active; 'I' for Inactive)
ROOT
ATOM      1  C   UNL d   1       0.370  -0.573  -0.652  0.00  0.00     0.172 C 
ATOM      2  N   UNL d   1       0.166   0.338   0.450  0.00  0.00    -0.070 N 
ATOM      3  C1  UNL d   1       0.427   0.068   1.767  0.00  0.00    -0.004 A 
ATOM      4  C2  UNL d   1       0.101   1.189   2.499  0.00  0.00    -0.047 A 
ATOM      5  C3  UNL d   1      -0.373   2.166   1.591  0.00  0.00    -0.047 A 
ATOM      6  C4  UNL d   1      -0.322   1.612   0.329  0.00  0.00    -0.004 A 
ENDROOT
TORSDOF 0
ENDMDL
