MODEL 1
REMARK minimizedAffinity -3.99997926
REMARK minimizedRMSD -1
REMARK  0 active torsions:
REMARK  status: ('A' for Active; 'I' for Inactive)
ROOT
ATOM      1  C   UNL d   1       0.412  -0.617  -0.398  0.00  0.00     0.172 C 
ATOM      2  N   UNL d   1      -0.065   0.510   0.369  0.00  0.00    -0.070 N 
ATOM      3  C1  UNL d   1      -0.765   1.576  -0.130  0.00  0.00    -0.004 A 
ATOM      4  C2  UNL d   1      -1.033   2.432   0.916  0.00  0.00    -0.047 A 
ATOM      5  C3  UNL d   1      -0.474   1.861   2.084  0.00  0.00    -0.047 A 
ATOM      6  C4  UNL d   1       0.120   0.672   1.717  0.00  0.00    -0.004 A 
ENDROOT
TORSDOF 0
ENDMDL
