MODEL 1
REMARK minimizedAffinity -1.18484533
REMARK minimizedRMSD -1
REMARK  1 active torsions:
REMARK  status: ('A' for Active; 'I' for Inactive)
REMARK    1  A    between atoms: C1_2  and  C2_3 
ROOT
ATOM      1  C2  UNL d   1       4.858   5.464  -4.462  0.00  0.00    -0.073 A 
ATOM      2  C3  UNL d   1       3.479   5.680  -4.371  0.00  0.00    -0.002 A 
ATOM      3  C4  UNL d   1       2.883   5.922  -3.133  0.00  0.00     0.004 A 
ATOM      4  C5  UNL d   1       3.659   5.956  -1.975  0.00  0.00    -0.004 A 
ATOM      5  C6  UNL d   1       5.041   5.754  -2.046  0.00  0.00    -0.075 A 
ATOM      6  C7  UNL d   1       5.891   5.786  -0.809  0.00  0.00     0.076 C 
ATOM      7  C8  UNL d   1       5.632   5.509  -3.293  0.00  0.00     0.001 A 
ENDROOT
BRANCH   1   8
ATOM      8  C1  UNL d   1       5.507   5.209  -5.798  0.00  0.00     0.053 C 
ATOM      9  C   UNL d   1       5.882   3.746  -5.980  0.00  0.00     0.018 C 
ENDBRANCH   1   8
TORSDOF 1
ENDMDL
