MODEL 1
REMARK minimizedAffinity 9.39489555
REMARK minimizedRMSD -1
REMARK  1 active torsions:
REMARK  status: ('A' for Active; 'I' for Inactive)
REMARK    1  A    between atoms: C1_2  and  C2_3 
ROOT
ATOM      1  C2  UNL d   1       3.249   4.855  -3.071  0.00  0.00    -0.073 A 
ATOM      2  C3  UNL d   1       3.966   6.000  -2.708  0.00  0.00    -0.002 A 
ATOM      3  C4  UNL d   1       5.333   5.919  -2.438  0.00  0.00     0.004 A 
ATOM      4  C5  UNL d   1       5.997   4.697  -2.535  0.00  0.00    -0.004 A 
ATOM      5  C6  UNL d   1       5.300   3.543  -2.909  0.00  0.00    -0.075 A 
ATOM      6  C7  UNL d   1       5.999   2.220  -3.016  0.00  0.00     0.076 C 
ATOM      7  C8  UNL d   1       3.927   3.632  -3.175  0.00  0.00     0.001 A 
ENDROOT
BRANCH   1   8
ATOM      8  C1  UNL d   1       1.774   4.938  -3.370  0.00  0.00     0.053 C 
ATOM      9  C   UNL d   1       0.995   5.562  -2.223  0.00  0.00     0.018 C 
ENDBRANCH   1   8
TORSDOF 1
ENDMDL
