MODEL 1
REMARK minimizedAffinity 6.26945543
REMARK minimizedRMSD -1
REMARK  1 active torsions:
REMARK  status: ('A' for Active; 'I' for Inactive)
REMARK    1  A    between atoms: C1_2  and  C2_3 
ROOT
ATOM      1  C2  UNL d   1       3.195  -2.622  -3.779  0.00  0.00    -0.073 A 
ATOM      2  C3  UNL d   1       3.929  -2.471  -4.961  0.00  0.00    -0.002 A 
ATOM      3  C4  UNL d   1       5.324  -2.489  -4.933  0.00  0.00     0.004 A 
ATOM      4  C5  UNL d   1       5.999  -2.666  -3.725  0.00  0.00    -0.004 A 
ATOM      5  C6  UNL d   1       5.284  -2.830  -2.534  0.00  0.00    -0.075 A 
ATOM      6  C7  UNL d   1       5.995  -3.019  -1.227  0.00  0.00     0.076 C 
ATOM      7  C8  UNL d   1       3.883  -2.808  -2.571  0.00  0.00     0.001 A 
ENDROOT
BRANCH   1   8
ATOM      8  C1  UNL d   1       1.689  -2.609  -3.806  0.00  0.00     0.053 C 
ATOM      9  C   UNL d   1       1.093  -2.675  -2.409  0.00  0.00     0.018 C 
ENDBRANCH   1   8
TORSDOF 1
ENDMDL
