MODEL 1
REMARK minimizedAffinity 9.7686224
REMARK minimizedRMSD -1
REMARK  1 active torsions:
REMARK  status: ('A' for Active; 'I' for Inactive)
REMARK    1  A    between atoms: C1_2  and  C2_3 
ROOT
ATOM      1  C2  UNL d   1       5.317  -2.383  -2.838  0.00  0.00    -0.073 A 
ATOM      2  C3  UNL d   1       4.750  -3.259  -3.770  0.00  0.00    -0.002 A 
ATOM      3  C4  UNL d   1       4.126  -2.764  -4.915  0.00  0.00     0.004 A 
ATOM      4  C5  UNL d   1       4.069  -1.389  -5.145  0.00  0.00    -0.004 A 
ATOM      5  C6  UNL d   1       4.641  -0.497  -4.231  0.00  0.00    -0.075 A 
ATOM      6  C7  UNL d   1       4.586   0.984  -4.462  0.00  0.00     0.076 C 
ATOM      7  C8  UNL d   1       5.263  -1.003  -3.082  0.00  0.00     0.001 A 
ENDROOT
BRANCH   1   8
ATOM      8  C1  UNL d   1       5.997  -2.913  -1.603  0.00  0.00     0.053 C 
ATOM      9  C   UNL d   1       6.000  -1.897  -0.472  0.00  0.00     0.018 C 
ENDBRANCH   1   8
TORSDOF 1
ENDMDL
