MODEL 1
REMARK minimizedAffinity 4.91385174
REMARK minimizedRMSD -1
REMARK  1 active torsions:
REMARK  status: ('A' for Active; 'I' for Inactive)
REMARK    1  A    between atoms: C1_2  and  C2_3 
ROOT
ATOM      1  C2  UNL d   1       3.177  -2.953  -3.765  0.00  0.00    -0.073 A 
ATOM      2  C3  UNL d   1       2.672  -3.185  -5.049  0.00  0.00    -0.002 A 
ATOM      3  C4  UNL d   1       1.325  -2.952  -5.329  0.00  0.00     0.004 A 
ATOM      4  C5  UNL d   1       0.472  -2.479  -4.332  0.00  0.00    -0.004 A 
ATOM      5  C6  UNL d   1       0.960  -2.230  -3.046  0.00  0.00    -0.075 A 
ATOM      6  C7  UNL d   1       0.055  -1.723  -1.962  0.00  0.00     0.076 C 
ATOM      7  C8  UNL d   1       2.313  -2.469  -2.771  0.00  0.00     0.001 A 
ENDROOT
BRANCH   1   8
ATOM      8  C1  UNL d   1       4.632  -3.197  -3.459  0.00  0.00     0.053 C 
ATOM      9  C   UNL d   1       5.445  -1.913  -3.494  0.00  0.00     0.018 C 
ENDBRANCH   1   8
TORSDOF 1
ENDMDL
