MODEL 1
REMARK minimizedAffinity -1.13288081
REMARK minimizedRMSD -1
REMARK  1 active torsions:
REMARK  status: ('A' for Active; 'I' for Inactive)
REMARK    1  A    between atoms: C1_2  and  C2_3 
ROOT
ATOM      1  C2  UNL d   1       4.451   3.938  -4.627  0.00  0.00    -0.073 A 
ATOM      2  C3  UNL d   1       3.113   3.893  -4.221  0.00  0.00    -0.002 A 
ATOM      3  C4  UNL d   1       2.713   4.520  -3.040  0.00  0.00     0.004 A 
ATOM      4  C5  UNL d   1       3.644   5.204  -2.258  0.00  0.00    -0.004 A 
ATOM      5  C6  UNL d   1       4.984   5.270  -2.654  0.00  0.00    -0.075 A 
ATOM      6  C7  UNL d   1       5.999   5.999  -1.823  0.00  0.00     0.076 C 
ATOM      7  C8  UNL d   1       5.378   4.635  -3.839  0.00  0.00     0.001 A 
ENDROOT
BRANCH   1   8
ATOM      8  C1  UNL d   1       4.887   3.267  -5.905  0.00  0.00     0.053 C 
ATOM      9  C   UNL d   1       4.586   1.777  -5.897  0.00  0.00     0.018 C 
ENDBRANCH   1   8
TORSDOF 1
ENDMDL
