MODEL 1
REMARK minimizedAffinity 6.46825266
REMARK minimizedRMSD -1
REMARK  1 active torsions:
REMARK  status: ('A' for Active; 'I' for Inactive)
REMARK    1  A    between atoms: C1_2  and  C2_3 
ROOT
ATOM      1  C2  UNL d   1       2.265   4.377  -0.691  0.00  0.00    -0.073 A 
ATOM      2  C3  UNL d   1       1.720   4.566  -1.966  0.00  0.00    -0.002 A 
ATOM      3  C4  UNL d   1       2.492   5.123  -2.986  0.00  0.00     0.004 A 
ATOM      4  C5  UNL d   1       3.815   5.491  -2.745  0.00  0.00    -0.004 A 
ATOM      5  C6  UNL d   1       4.381   5.299  -1.480  0.00  0.00    -0.075 A 
ATOM      6  C7  UNL d   1       5.803   5.691  -1.204  0.00  0.00     0.076 C 
ATOM      7  C8  UNL d   1       3.599   4.741  -0.460  0.00  0.00     0.001 A 
ENDROOT
BRANCH   1   8
ATOM      8  C1  UNL d   1       1.437   3.770   0.413  0.00  0.00     0.053 C 
ATOM      9  C   UNL d   1       0.639   4.819   1.170  0.00  0.00     0.018 C 
ENDBRANCH   1   8
TORSDOF 1
ENDMDL
