MODEL 1
REMARK minimizedAffinity 0.179388866
REMARK minimizedRMSD -1
REMARK  1 active torsions:
REMARK  status: ('A' for Active; 'I' for Inactive)
REMARK    1  A    between atoms: C1_2  and  C2_3 
ROOT
ATOM      1  C2  UNL d   1       5.626   3.393  -4.273  0.00  0.00    -0.073 A 
ATOM      2  C3  UNL d   1       5.950   4.480  -5.091  0.00  0.00    -0.002 A 
ATOM      3  C4  UNL d   1       5.999   5.771  -4.562  0.00  0.00     0.004 A 
ATOM      4  C5  UNL d   1       5.733   5.986  -3.210  0.00  0.00    -0.004 A 
ATOM      5  C6  UNL d   1       5.419   4.910  -2.373  0.00  0.00    -0.075 A 
ATOM      6  C7  UNL d   1       5.128   5.125  -0.917  0.00  0.00     0.076 C 
ATOM      7  C8  UNL d   1       5.369   3.618  -2.913  0.00  0.00     0.001 A 
ENDROOT
BRANCH   1   8
ATOM      8  C1  UNL d   1       5.578   1.997  -4.838  0.00  0.00     0.053 C 
ATOM      9  C   UNL d   1       4.205   1.654  -5.394  0.00  0.00     0.018 C 
ENDBRANCH   1   8
TORSDOF 1
ENDMDL
