MODEL 1
REMARK minimizedAffinity 14.8925095
REMARK minimizedRMSD -1
REMARK  1 active torsions:
REMARK  status: ('A' for Active; 'I' for Inactive)
REMARK    1  A    between atoms: C1_2  and  C2_3 
ROOT
ATOM      1  C2  UNL d   1       4.915  -3.437   4.601  0.00  0.00    -0.073 A 
ATOM      2  C3  UNL d   1       4.350  -2.926   5.775  0.00  0.00    -0.002 A 
ATOM      3  C4  UNL d   1       3.348  -1.956   5.711  0.00  0.00     0.004 A 
ATOM      4  C5  UNL d   1       2.898  -1.493   4.474  0.00  0.00    -0.004 A 
ATOM      5  C6  UNL d   1       3.442  -2.000   3.290  0.00  0.00    -0.075 A 
ATOM      6  C7  UNL d   1       2.970  -1.511   1.953  0.00  0.00     0.076 C 
ATOM      7  C8  UNL d   1       4.449  -2.972   3.363  0.00  0.00     0.001 A 
ENDROOT
BRANCH   1   8
ATOM      8  C1  UNL d   1       5.992  -4.489   4.665  0.00  0.00     0.053 C 
ATOM      9  C   UNL d   1       6.000  -5.216   6.000  0.00  0.00     0.018 C 
ENDBRANCH   1   8
TORSDOF 1
ENDMDL
