MODEL 1
REMARK minimizedAffinity 8.40046024
REMARK minimizedRMSD -1
REMARK  1 active torsions:
REMARK  status: ('A' for Active; 'I' for Inactive)
REMARK    1  A    between atoms: C1_2  and  C2_3 
ROOT
ATOM      1  C2  UNL d   1       5.243   3.742  -3.494  0.00  0.00    -0.073 A 
ATOM      2  C3  UNL d   1       3.843   3.732  -3.476  0.00  0.00    -0.002 A 
ATOM      3  C4  UNL d   1       3.146   4.446  -2.501  0.00  0.00     0.004 A 
ATOM      4  C5  UNL d   1       3.839   5.183  -1.540  0.00  0.00    -0.004 A 
ATOM      5  C6  UNL d   1       5.237   5.215  -1.549  0.00  0.00    -0.075 A 
ATOM      6  C7  UNL d   1       5.997   6.000  -0.521  0.00  0.00     0.076 C 
ATOM      7  C8  UNL d   1       5.930   4.492  -2.530  0.00  0.00     0.001 A 
ENDROOT
BRANCH   1   8
ATOM      8  C1  UNL d   1       6.000   2.977  -4.549  0.00  0.00     0.053 C 
ATOM      9  C   UNL d   1       5.989   1.480  -4.285  0.00  0.00     0.018 C 
ENDBRANCH   1   8
TORSDOF 1
ENDMDL
