MODEL 1
REMARK minimizedAffinity 9.52385139
REMARK minimizedRMSD -1
REMARK  1 active torsions:
REMARK  status: ('A' for Active; 'I' for Inactive)
REMARK    1  A    between atoms: C1_2  and  C2_3 
ROOT
ATOM      1  C2  UNL d   1       4.431  -1.213  -4.064  0.00  0.00    -0.073 A 
ATOM      2  C3  UNL d   1       5.743  -0.728  -4.095  0.00  0.00    -0.002 A 
ATOM      3  C4  UNL d   1       5.999   0.589  -4.480  0.00  0.00     0.004 A 
ATOM      4  C5  UNL d   1       4.946   1.435  -4.830  0.00  0.00    -0.004 A 
ATOM      5  C6  UNL d   1       3.627   0.972  -4.794  0.00  0.00    -0.075 A 
ATOM      6  C7  UNL d   1       2.484   1.868  -5.170  0.00  0.00     0.076 C 
ATOM      7  C8  UNL d   1       3.379  -0.353  -4.409  0.00  0.00     0.001 A 
ENDROOT
BRANCH   1   8
ATOM      8  C1  UNL d   1       4.149  -2.632  -3.643  0.00  0.00     0.053 C 
ATOM      9  C   UNL d   1       2.680  -2.849  -3.315  0.00  0.00     0.018 C 
ENDBRANCH   1   8
TORSDOF 1
ENDMDL
