MODEL 1
REMARK minimizedAffinity 9.84194946
REMARK minimizedRMSD -1
REMARK  1 active torsions:
REMARK  status: ('A' for Active; 'I' for Inactive)
REMARK    1  A    between atoms: C1_2  and  C2_3 
ROOT
ATOM      1  C2  UNL d   1       3.606   4.478  -1.012  0.00  0.00    -0.073 A 
ATOM      2  C3  UNL d   1       4.242   5.188   0.013  0.00  0.00    -0.002 A 
ATOM      3  C4  UNL d   1       5.435   5.868  -0.236  0.00  0.00     0.004 A 
ATOM      4  C5  UNL d   1       6.000   5.851  -1.511  0.00  0.00    -0.004 A 
ATOM      5  C6  UNL d   1       5.373   5.157  -2.551  0.00  0.00    -0.075 A 
ATOM      6  C7  UNL d   1       5.969   5.127  -3.928  0.00  0.00     0.076 C 
ATOM      7  C8  UNL d   1       4.176   4.475  -2.293  0.00  0.00     0.001 A 
ENDROOT
BRANCH   1   8
ATOM      8  C1  UNL d   1       2.314   3.748  -0.749  0.00  0.00     0.053 C 
ATOM      9  C   UNL d   1       1.593   4.287   0.476  0.00  0.00     0.018 C 
ENDBRANCH   1   8
TORSDOF 1
ENDMDL
