MODEL 1
REMARK minimizedAffinity -3.56113887
REMARK minimizedRMSD -1
REMARK  0 active torsions:
REMARK  status: ('A' for Active; 'I' for Inactive)
ROOT
ATOM      1  C1  DEN d   1       0.377   1.160  -0.577  0.00  0.00     0.130 A 
ATOM      2  C2  DEN d   1       1.516   1.988  -0.189  0.00  0.00    -0.031 A 
ATOM      3  C3  DEN d   1       1.804   1.730   1.236  0.00  0.00     0.027 A 
ATOM      4  C4  DEN d   1       0.605   0.135   2.871  0.00  0.00     0.027 A 
ATOM      5  C5  DEN d   1      -0.426  -0.769   3.004  0.00  0.00    -0.003 A 
ATOM      6  C6  DEN d   1      -1.275  -1.065   1.971  0.00  0.00     0.001 A 
ATOM      7  C7  DEN d   1      -1.081  -0.486   0.745  0.00  0.00     0.017 A 
ATOM      8  C8  DEN d   1      -0.049   0.432   0.605  0.00  0.00    -0.094 A 
ATOM      9  C9  DEN d   1       0.807   0.709   1.658  0.00  0.00    -0.072 A 
ENDROOT
TORSDOF 0
ENDMDL
