MODEL 1
REMARK minimizedAffinity 6.04276228
REMARK minimizedRMSD -1
REMARK  0 active torsions:
REMARK  status: ('A' for Active; 'I' for Inactive)
ROOT
ATOM      1  C1  DEN d   1       0.127   2.585   3.057  0.00  0.00     0.130 A 
ATOM      2  C2  DEN d   1      -1.121   3.073   3.637  0.00  0.00    -0.031 A 
ATOM      3  C3  DEN d   1      -2.231   2.291   3.057  0.00  0.00     0.027 A 
ATOM      4  C4  DEN d   1      -2.138   0.377   1.331  0.00  0.00     0.027 A 
ATOM      5  C5  DEN d   1      -1.304  -0.382   0.539  0.00  0.00    -0.003 A 
ATOM      6  C6  DEN d   1       0.051  -0.184   0.507  0.00  0.00     0.001 A 
ATOM      7  C7  DEN d   1       0.618   0.767   1.314  0.00  0.00     0.017 A 
ATOM      8  C8  DEN d   1      -0.217   1.541   2.109  0.00  0.00    -0.094 A 
ATOM      9  C9  DEN d   1      -1.583   1.317   2.137  0.00  0.00    -0.072 A 
ENDROOT
TORSDOF 0
ENDMDL
