MODEL 1
REMARK minimizedAffinity 1.56764257
REMARK minimizedRMSD -1
REMARK  0 active torsions:
REMARK  status: ('A' for Active; 'I' for Inactive)
ROOT
ATOM      1  C1  DEN d   1      -4.850  -5.996   1.129  0.00  0.00     0.130 A 
ATOM      2  C2  DEN d   1      -4.562  -5.136  -0.016  0.00  0.00    -0.031 A 
ATOM      3  C3  DEN d   1      -3.639  -4.074   0.432  0.00  0.00     0.027 A 
ATOM      4  C4  DEN d   1      -2.627  -3.684   2.772  0.00  0.00     0.027 A 
ATOM      5  C5  DEN d   1      -2.587  -4.147   4.069  0.00  0.00    -0.003 A 
ATOM      6  C6  DEN d   1      -3.319  -5.229   4.482  0.00  0.00     0.001 A 
ATOM      7  C7  DEN d   1      -4.087  -5.912   3.577  0.00  0.00     0.017 A 
ATOM      8  C8  DEN d   1      -4.139  -5.448   2.270  0.00  0.00    -0.094 A 
ATOM      9  C9  DEN d   1      -3.382  -4.359   1.870  0.00  0.00    -0.072 A 
ENDROOT
TORSDOF 0
ENDMDL
