MODEL 1
REMARK minimizedAffinity 7.6193924
REMARK minimizedRMSD -1
REMARK  0 active torsions:
REMARK  status: ('A' for Active; 'I' for Inactive)
ROOT
ATOM      1  C1  DEN d   1      -5.019  -1.626   0.775  0.00  0.00     0.130 A 
ATOM      2  C2  DEN d   1      -5.299  -2.994   1.202  0.00  0.00    -0.031 A 
ATOM      3  C3  DEN d   1      -4.013  -3.711   1.310  0.00  0.00     0.027 A 
ATOM      4  C4  DEN d   1      -1.627  -2.839   0.864  0.00  0.00     0.027 A 
ATOM      5  C5  DEN d   1      -0.886  -1.747   0.470  0.00  0.00    -0.003 A 
ATOM      6  C6  DEN d   1      -1.469  -0.558   0.119  0.00  0.00     0.001 A 
ATOM      7  C7  DEN d   1      -2.829  -0.419   0.200  0.00  0.00     0.017 A 
ATOM      8  C8  DEN d   1      -3.583  -1.518   0.590  0.00  0.00    -0.094 A 
ATOM      9  C9  DEN d   1      -2.974  -2.708   0.952  0.00  0.00    -0.072 A 
ENDROOT
TORSDOF 0
ENDMDL
