MODEL 1
REMARK minimizedAffinity 0.262217283
REMARK minimizedRMSD -1
REMARK  0 active torsions:
REMARK  status: ('A' for Active; 'I' for Inactive)
ROOT
ATOM      1  C1  DEN d   1      -5.193   2.363   2.635  0.00  0.00     0.130 A 
ATOM      2  C2  DEN d   1      -5.698   3.003   3.847  0.00  0.00    -0.031 A 
ATOM      3  C3  DEN d   1      -4.547   3.281   4.729  0.00  0.00     0.027 A 
ATOM      4  C4  DEN d   1      -2.046   2.791   4.338  0.00  0.00     0.027 A 
ATOM      5  C5  DEN d   1      -1.132   2.248   3.461  0.00  0.00    -0.003 A 
ATOM      6  C6  DEN d   1      -1.508   1.679   2.273  0.00  0.00     0.001 A 
ATOM      7  C7  DEN d   1      -2.829   1.681   1.908  0.00  0.00     0.017 A 
ATOM      8  C8  DEN d   1      -3.757   2.220   2.790  0.00  0.00    -0.094 A 
ATOM      9  C9  DEN d   1      -3.355   2.801   3.981  0.00  0.00    -0.072 A 
ENDROOT
TORSDOF 0
ENDMDL
