MODEL 1
REMARK minimizedAffinity -5.17211294
REMARK minimizedRMSD -1
REMARK  0 active torsions:
REMARK  status: ('A' for Active; 'I' for Inactive)
ROOT
ATOM      1  C1  DEN d   1       1.035  -0.938   1.591  0.00  0.00     0.130 A 
ATOM      2  C2  DEN d   1       0.086  -0.211   2.430  0.00  0.00    -0.031 A 
ATOM      3  C3  DEN d   1      -0.613   0.774   1.581  0.00  0.00     0.027 A 
ATOM      4  C4  DEN d   1      -0.322   1.240  -0.939  0.00  0.00     0.027 A 
ATOM      5  C5  DEN d   1       0.373   0.883  -2.074  0.00  0.00    -0.003 A 
ATOM      6  C6  DEN d   1       1.353  -0.073  -2.060  0.00  0.00     0.001 A 
ATOM      7  C7  DEN d   1       1.634  -0.739  -0.896  0.00  0.00     0.017 A 
ATOM      8  C8  DEN d   1       0.943  -0.380   0.254  0.00  0.00    -0.094 A 
ATOM      9  C9  DEN d   1      -0.053   0.581   0.216  0.00  0.00    -0.072 A 
ENDROOT
TORSDOF 0
ENDMDL
