MODEL 1
REMARK minimizedAffinity -4.22041655
REMARK minimizedRMSD -1
REMARK  0 active torsions:
REMARK  status: ('A' for Active; 'I' for Inactive)
ROOT
ATOM      1  C1  DEN d   1      -0.801   0.084   0.412  0.00  0.00     0.130 A 
ATOM      2  C2  DEN d   1      -0.433   0.163   1.823  0.00  0.00    -0.031 A 
ATOM      3  C3  DEN d   1       0.942  -0.357   1.966  0.00  0.00     0.027 A 
ATOM      4  C4  DEN d   1       2.530  -1.267   0.148  0.00  0.00     0.027 A 
ATOM      5  C5  DEN d   1       2.658  -1.543  -1.195  0.00  0.00    -0.003 A 
ATOM      6  C6  DEN d   1       1.638  -1.329  -2.084  0.00  0.00     0.001 A 
ATOM      7  C7  DEN d   1       0.460  -0.782  -1.648  0.00  0.00     0.017 A 
ATOM      8  C8  DEN d   1       0.321  -0.509  -0.294  0.00  0.00    -0.094 A 
ATOM      9  C9  DEN d   1       1.368  -0.720   0.587  0.00  0.00    -0.072 A 
ENDROOT
TORSDOF 0
ENDMDL
