MODEL 1
REMARK minimizedAffinity -5.55473709
REMARK minimizedRMSD -1
REMARK  0 active torsions:
REMARK  status: ('A' for Active; 'I' for Inactive)
ROOT
ATOM      1  C1  DEN d   1       1.397   1.072  -0.058  0.00  0.00     0.130 A 
ATOM      2  C2  DEN d   1       0.714   0.781  -1.316  0.00  0.00    -0.031 A 
ATOM      3  C3  DEN d   1      -0.468  -0.050  -1.012  0.00  0.00     0.027 A 
ATOM      4  C4  DEN d   1      -1.306  -0.906   1.273  0.00  0.00     0.027 A 
ATOM      5  C5  DEN d   1      -1.050  -0.927   2.626  0.00  0.00    -0.003 A 
ATOM      6  C6  DEN d   1       0.048  -0.317   3.171  0.00  0.00     0.001 A 
ATOM      7  C7  DEN d   1       0.909   0.379   2.364  0.00  0.00     0.017 A 
ATOM      8  C8  DEN d   1       0.662   0.398   0.997  0.00  0.00    -0.094 A 
ATOM      9  C9  DEN d   1      -0.461  -0.214   0.467  0.00  0.00    -0.072 A 
ENDROOT
TORSDOF 0
ENDMDL
