MODEL 1
REMARK minimizedAffinity -1.26094389
REMARK minimizedRMSD -1
REMARK  0 active torsions:
REMARK  status: ('A' for Active; 'I' for Inactive)
ROOT
ATOM      1  C1  DEN d   1       1.611  -0.928  -1.118  0.00  0.00     0.130 A 
ATOM      2  C2  DEN d   1       0.816  -0.077  -2.000  0.00  0.00    -0.031 A 
ATOM      3  C3  DEN d   1       0.044   0.859  -1.158  0.00  0.00     0.027 A 
ATOM      4  C4  DEN d   1       0.006   1.074   1.412  0.00  0.00     0.027 A 
ATOM      5  C5  DEN d   1       0.505   0.561   2.589  0.00  0.00    -0.003 A 
ATOM      6  C6  DEN d   1       1.375  -0.497   2.614  0.00  0.00     0.001 A 
ATOM      7  C7  DEN d   1       1.807  -1.048   1.437  0.00  0.00     0.017 A 
ATOM      8  C8  DEN d   1       1.302  -0.542   0.247  0.00  0.00    -0.094 A 
ATOM      9  C9  DEN d   1       0.433   0.536   0.242  0.00  0.00    -0.072 A 
ENDROOT
TORSDOF 0
ENDMDL
