MODEL 1
REMARK minimizedAffinity 12.6930542
REMARK minimizedRMSD -1
REMARK  0 active torsions:
REMARK  status: ('A' for Active; 'I' for Inactive)
ROOT
ATOM      1  C1  DEN d   1      -3.757  -5.992   1.672  0.00  0.00     0.130 A 
ATOM      2  C2  DEN d   1      -4.749  -5.956   0.601  0.00  0.00    -0.031 A 
ATOM      3  C3  DEN d   1      -4.029  -5.943  -0.688  0.00  0.00     0.027 A 
ATOM      4  C4  DEN d   1      -1.488  -5.979  -1.128  0.00  0.00     0.027 A 
ATOM      5  C5  DEN d   1      -0.246  -5.998  -0.532  0.00  0.00    -0.003 A 
ATOM      6  C6  DEN d   1      -0.088  -5.982   0.828  0.00  0.00     0.001 A 
ATOM      7  C7  DEN d   1      -1.191  -5.992   1.640  0.00  0.00     0.017 A 
ATOM      8  C8  DEN d   1      -2.447  -5.965   1.047  0.00  0.00    -0.094 A 
ATOM      9  C9  DEN d   1      -2.586  -5.994  -0.330  0.00  0.00    -0.072 A 
ENDROOT
TORSDOF 0
ENDMDL
