MODEL 1
REMARK minimizedAffinity -2.31701612
REMARK minimizedRMSD -1
REMARK  0 active torsions:
REMARK  status: ('A' for Active; 'I' for Inactive)
ROOT
ATOM      1  C1  DEN d   1       4.606  -0.374  -4.388  0.00  0.00     0.130 A 
ATOM      2  C2  DEN d   1       5.276   0.887  -4.081  0.00  0.00    -0.031 A 
ATOM      3  C3  DEN d   1       4.567   1.516  -2.948  0.00  0.00     0.027 A 
ATOM      4  C4  DEN d   1       2.512   0.662  -1.645  0.00  0.00     0.027 A 
ATOM      5  C5  DEN d   1       1.587  -0.354  -1.548  0.00  0.00    -0.003 A 
ATOM      6  C6  DEN d   1       1.583  -1.422  -2.405  0.00  0.00     0.001 A 
ATOM      7  C7  DEN d   1       2.550  -1.522  -3.370  0.00  0.00     0.017 A 
ATOM      8  C8  DEN d   1       3.482  -0.498  -3.479  0.00  0.00    -0.094 A 
ATOM      9  C9  DEN d   1       3.477   0.568  -2.594  0.00  0.00    -0.072 A 
ENDROOT
TORSDOF 0
ENDMDL
