MODEL 1
REMARK minimizedAffinity 19.6700058
REMARK minimizedRMSD -1
REMARK  0 active torsions:
REMARK  status: ('A' for Active; 'I' for Inactive)
ROOT
ATOM      1  C1  DEN d   1       1.910  -1.992  -2.131  0.00  0.00     0.130 A 
ATOM      2  C2  DEN d   1       0.726  -1.316  -1.610  0.00  0.00    -0.031 A 
ATOM      3  C3  DEN d   1       0.955   0.140  -1.699  0.00  0.00     0.027 A 
ATOM      4  C4  DEN d   1       3.016   1.407  -2.593  0.00  0.00     0.027 A 
ATOM      5  C5  DEN d   1       4.276   1.263  -3.131  0.00  0.00    -0.003 A 
ATOM      6  C6  DEN d   1       4.844   0.034  -3.339  0.00  0.00     0.001 A 
ATOM      7  C7  DEN d   1       4.134  -1.100  -3.050  0.00  0.00     0.017 A 
ATOM      8  C8  DEN d   1       2.866  -0.963  -2.501  0.00  0.00    -0.094 A 
ATOM      9  C9  DEN d   1       2.303   0.287  -2.309  0.00  0.00    -0.072 A 
ENDROOT
TORSDOF 0
ENDMDL
