MODEL 1
REMARK minimizedAffinity 2.74810648
REMARK minimizedRMSD -1
REMARK  0 active torsions:
REMARK  status: ('A' for Active; 'I' for Inactive)
ROOT
ATOM      1  C1  DEN d   1       1.292  -3.363   2.261  0.00  0.00     0.130 A 
ATOM      2  C2  DEN d   1       1.033  -4.076   3.509  0.00  0.00    -0.031 A 
ATOM      3  C3  DEN d   1       1.927  -3.522   4.545  0.00  0.00     0.027 A 
ATOM      4  C4  DEN d   1       3.674  -1.636   4.341  0.00  0.00     0.027 A 
ATOM      5  C5  DEN d   1       4.261  -0.738   3.477  0.00  0.00    -0.003 A 
ATOM      6  C6  DEN d   1       3.926  -0.676   2.150  0.00  0.00     0.001 A 
ATOM      7  C7  DEN d   1       2.946  -1.496   1.659  0.00  0.00     0.017 A 
ATOM      8  C8  DEN d   1       2.355  -2.410   2.522  0.00  0.00    -0.094 A 
ATOM      9  C9  DEN d   1       2.699  -2.449   3.862  0.00  0.00    -0.072 A 
ENDROOT
TORSDOF 0
ENDMDL
