MODEL 1
REMARK minimizedAffinity 10.7525444
REMARK minimizedRMSD -1
REMARK  0 active torsions:
REMARK  status: ('A' for Active; 'I' for Inactive)
ROOT
ATOM      1  C1  DEN d   1       3.561  -1.552  -2.944  0.00  0.00     0.130 A 
ATOM      2  C2  DEN d   1       3.495  -0.101  -2.794  0.00  0.00    -0.031 A 
ATOM      3  C3  DEN d   1       2.125   0.332  -3.135  0.00  0.00     0.027 A 
ATOM      4  C4  DEN d   1       0.108  -1.098  -3.871  0.00  0.00     0.027 A 
ATOM      5  C5  DEN d   1      -0.318  -2.377  -4.152  0.00  0.00    -0.003 A 
ATOM      6  C6  DEN d   1       0.521  -3.458  -4.085  0.00  0.00     0.001 A 
ATOM      7  C7  DEN d   1       1.819  -3.285  -3.683  0.00  0.00     0.017 A 
ATOM      8  C8  DEN d   1       2.258  -1.997  -3.404  0.00  0.00    -0.094 A 
ATOM      9  C9  DEN d   1       1.391  -0.920  -3.467  0.00  0.00    -0.072 A 
ENDROOT
TORSDOF 0
ENDMDL
