MODEL 1
REMARK minimizedAffinity -1.55679333
REMARK minimizedRMSD -1
REMARK  0 active torsions:
REMARK  status: ('A' for Active; 'I' for Inactive)
ROOT
ATOM      1  C   UNL d   1      -4.975   0.681   0.406  0.00  0.00     0.078 C 
ATOM      2  C1  UNL d   1      -3.700   0.261   1.074  0.00  0.00    -0.077 A 
ATOM      3  C2  UNL d   1      -2.777  -0.561   0.415  0.00  0.00    -0.001 A 
ATOM      4  C3  UNL d   1      -1.599  -0.953   1.053  0.00  0.00     0.003 A 
ATOM      5  C4  UNL d   1      -1.333  -0.528   2.353  0.00  0.00    -0.005 A 
ATOM      6  C5  UNL d   1      -2.246   0.288   3.018  0.00  0.00     0.003 A 
ATOM      7  C6  UNL d   1      -3.425   0.681   2.382  0.00  0.00    -0.001 A 
ENDROOT
TORSDOF 0
ENDMDL
