MODEL 1
REMARK minimizedAffinity -0.406996906
REMARK minimizedRMSD -1
REMARK  0 active torsions:
REMARK  status: ('A' for Active; 'I' for Inactive)
ROOT
ATOM      1  C   UNL d   1      -0.943   1.140  -5.998  0.00  0.00     0.078 C 
ATOM      2  C1  UNL d   1      -0.772   0.110  -4.921  0.00  0.00    -0.077 A 
ATOM      3  C2  UNL d   1      -0.952   0.440  -3.572  0.00  0.00    -0.001 A 
ATOM      4  C3  UNL d   1      -0.780  -0.527  -2.580  0.00  0.00     0.003 A 
ATOM      5  C4  UNL d   1      -0.425  -1.829  -2.926  0.00  0.00    -0.005 A 
ATOM      6  C5  UNL d   1      -0.241  -2.166  -4.266  0.00  0.00     0.003 A 
ATOM      7  C6  UNL d   1      -0.413  -1.201  -5.259  0.00  0.00    -0.001 A 
ENDROOT
TORSDOF 0
ENDMDL
