MODEL 1
REMARK minimizedAffinity -3.81363392
REMARK minimizedRMSD -1
REMARK  0 active torsions:
REMARK  status: ('A' for Active; 'I' for Inactive)
ROOT
ATOM      1  C   UNL d   1      -0.177  -2.923  -2.365  0.00  0.00     0.078 C 
ATOM      2  C1  UNL d   1      -0.506  -1.847  -3.356  0.00  0.00    -0.077 A 
ATOM      3  C2  UNL d   1      -0.422  -2.086  -4.734  0.00  0.00    -0.001 A 
ATOM      4  C3  UNL d   1      -0.721  -1.072  -5.645  0.00  0.00     0.003 A 
ATOM      5  C4  UNL d   1      -1.106   0.188  -5.189  0.00  0.00    -0.005 A 
ATOM      6  C5  UNL d   1      -1.190   0.435  -3.821  0.00  0.00     0.003 A 
ATOM      7  C6  UNL d   1      -0.891  -0.578  -2.908  0.00  0.00    -0.001 A 
ENDROOT
TORSDOF 0
ENDMDL
