MODEL 1
REMARK minimizedAffinity -0.62100631
REMARK minimizedRMSD -1
REMARK  0 active torsions:
REMARK  status: ('A' for Active; 'I' for Inactive)
ROOT
ATOM      1  C   UNL d   1       0.267  -2.618  -3.698  0.00  0.00     0.078 C 
ATOM      2  C1  UNL d   1       0.541  -1.379  -4.497  0.00  0.00    -0.077 A 
ATOM      3  C2  UNL d   1      -0.477  -0.747  -5.221  0.00  0.00    -0.001 A 
ATOM      4  C3  UNL d   1      -0.204   0.400  -5.968  0.00  0.00     0.003 A 
ATOM      5  C4  UNL d   1       1.086   0.925  -6.000  0.00  0.00    -0.005 A 
ATOM      6  C5  UNL d   1       2.107   0.301  -5.284  0.00  0.00     0.003 A 
ATOM      7  C6  UNL d   1       1.836  -0.846  -4.537  0.00  0.00    -0.001 A 
ENDROOT
TORSDOF 0
ENDMDL
