MODEL 1
REMARK minimizedAffinity 5.0776639
REMARK minimizedRMSD -1
REMARK  0 active torsions:
REMARK  status: ('A' for Active; 'I' for Inactive)
ROOT
ATOM      1  C   UNL d   1      -2.304   0.645   2.470  0.00  0.00     0.078 C 
ATOM      2  C1  UNL d   1      -1.026  -0.057   2.818  0.00  0.00    -0.077 A 
ATOM      3  C2  UNL d   1      -0.792  -1.375   2.407  0.00  0.00    -0.001 A 
ATOM      4  C3  UNL d   1       0.398  -2.020   2.747  0.00  0.00     0.003 A 
ATOM      5  C4  UNL d   1       1.364  -1.355   3.499  0.00  0.00    -0.005 A 
ATOM      6  C5  UNL d   1       1.140  -0.044   3.914  0.00  0.00     0.003 A 
ATOM      7  C6  UNL d   1      -0.050   0.603   3.575  0.00  0.00    -0.001 A 
ENDROOT
TORSDOF 0
ENDMDL
