MODEL 1
REMARK minimizedAffinity 0.414722979
REMARK minimizedRMSD -1
REMARK  0 active torsions:
REMARK  status: ('A' for Active; 'I' for Inactive)
ROOT
ATOM      1  C   UNL d   1      -4.789   1.229   1.039  0.00  0.00     0.078 C 
ATOM      2  C1  UNL d   1      -3.478   0.665   1.499  0.00  0.00    -0.077 A 
ATOM      3  C2  UNL d   1      -2.782   1.240   2.569  0.00  0.00    -0.001 A 
ATOM      4  C3  UNL d   1      -1.557   0.710   2.980  0.00  0.00     0.003 A 
ATOM      5  C4  UNL d   1      -1.018  -0.396   2.326  0.00  0.00    -0.005 A 
ATOM      6  C5  UNL d   1      -1.703  -0.973   1.259  0.00  0.00     0.003 A 
ATOM      7  C6  UNL d   1      -2.928  -0.445   0.846  0.00  0.00    -0.001 A 
ENDROOT
TORSDOF 0
ENDMDL
