MODEL 1
REMARK minimizedAffinity -0.809510887
REMARK minimizedRMSD -1
REMARK  0 active torsions:
REMARK  status: ('A' for Active; 'I' for Inactive)
ROOT
ATOM      1  C   UNL d   1       0.735  -0.113  -1.494  0.00  0.00     0.023 A 
ATOM      2  C1  UNL d   1       0.274   1.111  -1.008  0.00  0.00     0.003 A 
ATOM      3  C2  UNL d   1      -0.556   1.150   0.114  0.00  0.00     0.048 A 
ATOM      4  C3  UNL d   1      -0.919  -0.038   0.748  0.00  0.00     0.023 A 
ATOM      5  C4  UNL d   1      -0.458  -1.265   0.266  0.00  0.00     0.048 A 
ATOM      6  C5  UNL d   1       0.370  -1.299  -0.857  0.00  0.00     0.003 A 
ATOM      7  I   UNL d   1      -2.153   0.017   2.419  0.00  0.00    -0.146 I 
ENDROOT
TORSDOF 0
ENDMDL
