MODEL 1
REMARK minimizedAffinity -0.736699998
REMARK minimizedRMSD -1
REMARK  0 active torsions:
REMARK  status: ('A' for Active; 'I' for Inactive)
ROOT
ATOM      1  C   UNL d   1      -1.403   0.428   0.594  0.00  0.00     0.023 A 
ATOM      2  C1  UNL d   1      -0.617   1.403  -0.021  0.00  0.00     0.003 A 
ATOM      3  C2  UNL d   1       0.586   1.046  -0.636  0.00  0.00     0.048 A 
ATOM      4  C3  UNL d   1       0.995  -0.287  -0.632  0.00  0.00     0.023 A 
ATOM      5  C4  UNL d   1       0.211  -1.265  -0.019  0.00  0.00     0.048 A 
ATOM      6  C5  UNL d   1      -0.990  -0.904   0.595  0.00  0.00     0.003 A 
ATOM      7  I   UNL d   1       2.784  -0.820  -1.546  0.00  0.00    -0.146 I 
ENDROOT
TORSDOF 0
ENDMDL
