MODEL 1
REMARK minimizedAffinity -0.82182461
REMARK minimizedRMSD -1
REMARK  0 active torsions:
REMARK  status: ('A' for Active; 'I' for Inactive)
ROOT
ATOM      1  C   UNL d   1       1.500  -0.597  -1.578  0.00  0.00     0.023 A 
ATOM      2  C1  UNL d   1       0.774   0.590  -1.483  0.00  0.00     0.003 A 
ATOM      3  C2  UNL d   1      -0.007   0.845  -0.354  0.00  0.00     0.048 A 
ATOM      4  C3  UNL d   1      -0.056  -0.092   0.678  0.00  0.00     0.023 A 
ATOM      5  C4  UNL d   1       0.670  -1.281   0.589  0.00  0.00     0.048 A 
ATOM      6  C5  UNL d   1       1.448  -1.531  -0.543  0.00  0.00     0.003 A 
ATOM      7  I   UNL d   1      -1.217   0.285   2.361  0.00  0.00    -0.146 I 
ENDROOT
TORSDOF 0
ENDMDL
