MODEL 1
REMARK minimizedAffinity -0.592987359
REMARK minimizedRMSD -1
REMARK  0 active torsions:
REMARK  status: ('A' for Active; 'I' for Inactive)
ROOT
ATOM      1  C   UNL d   1       0.718   0.087  -1.027  0.00  0.00     0.023 A 
ATOM      2  C1  UNL d   1      -0.174   1.160  -1.010  0.00  0.00     0.003 A 
ATOM      3  C2  UNL d   1      -1.127   1.261   0.006  0.00  0.00     0.048 A 
ATOM      4  C3  UNL d   1      -1.181   0.287   1.003  0.00  0.00     0.023 A 
ATOM      5  C4  UNL d   1      -0.290  -0.787   0.990  0.00  0.00     0.048 A 
ATOM      6  C5  UNL d   1       0.660  -0.885  -0.029  0.00  0.00     0.003 A 
ATOM      7  I   UNL d   1      -2.597   0.436   2.517  0.00  0.00    -0.146 I 
ENDROOT
TORSDOF 0
ENDMDL
