MODEL 1
REMARK minimizedAffinity -1.80759132
REMARK minimizedRMSD -1
REMARK  0 active torsions:
REMARK  status: ('A' for Active; 'I' for Inactive)
ROOT
ATOM      1  C   UNL d   1       1.839  -0.897  -1.688  0.00  0.00     0.023 A 
ATOM      2  C1  UNL d   1       1.378  -1.855  -0.784  0.00  0.00     0.003 A 
ATOM      3  C2  UNL d   1       0.392  -1.521   0.146  0.00  0.00     0.048 A 
ATOM      4  C3  UNL d   1      -0.130  -0.228   0.167  0.00  0.00     0.023 A 
ATOM      5  C4  UNL d   1       0.327   0.733  -0.736  0.00  0.00     0.048 A 
ATOM      6  C5  UNL d   1       1.314   0.395  -1.664  0.00  0.00     0.003 A 
ATOM      7  I   UNL d   1      -1.599   0.271   1.550  0.00  0.00    -0.146 I 
ENDROOT
TORSDOF 0
ENDMDL
