MODEL 1
REMARK minimizedAffinity -0.702076554
REMARK minimizedRMSD -1
REMARK  0 active torsions:
REMARK  status: ('A' for Active; 'I' for Inactive)
ROOT
ATOM      1  C   UNL d   1       1.894  -0.973  -1.627  0.00  0.00     0.023 A 
ATOM      2  C1  UNL d   1       1.413   0.326  -1.792  0.00  0.00     0.003 A 
ATOM      3  C2  UNL d   1       0.437   0.825  -0.927  0.00  0.00     0.048 A 
ATOM      4  C3  UNL d   1      -0.052   0.020   0.102  0.00  0.00     0.023 A 
ATOM      5  C4  UNL d   1       0.427  -1.280   0.271  0.00  0.00     0.048 A 
ATOM      6  C5  UNL d   1       1.402  -1.775  -0.597  0.00  0.00     0.003 A 
ATOM      7  I   UNL d   1      -1.504   0.761   1.391  0.00  0.00    -0.146 I 
ENDROOT
TORSDOF 0
ENDMDL
