MODEL 1
REMARK minimizedAffinity -2.78070426
REMARK minimizedRMSD -1
REMARK  0 active torsions:
REMARK  status: ('A' for Active; 'I' for Inactive)
ROOT
ATOM      1  C   UNL d   1       0.362  -1.845   0.369  0.00  0.00     0.023 A 
ATOM      2  C1  UNL d   1       1.528  -1.934  -0.391  0.00  0.00     0.003 A 
ATOM      3  C2  UNL d   1       1.834  -0.940  -1.322  0.00  0.00     0.048 A 
ATOM      4  C3  UNL d   1       0.970   0.142  -1.488  0.00  0.00     0.023 A 
ATOM      5  C4  UNL d   1      -0.197   0.236  -0.729  0.00  0.00     0.048 A 
ATOM      6  C5  UNL d   1      -0.500  -0.761   0.200  0.00  0.00     0.003 A 
ATOM      7  I   UNL d   1       1.424   1.623  -2.873  0.00  0.00    -0.146 I 
ENDROOT
TORSDOF 0
ENDMDL
