MODEL 1
REMARK minimizedAffinity -2.76740813
REMARK minimizedRMSD -1
REMARK  0 active torsions:
REMARK  status: ('A' for Active; 'I' for Inactive)
ROOT
ATOM      1  C   UNL d   1      -2.173   1.709   3.130  0.00  0.00     0.023 A 
ATOM      2  C1  UNL d   1      -0.878   1.236   3.343  0.00  0.00     0.003 A 
ATOM      3  C2  UNL d   1      -0.247   0.461   2.367  0.00  0.00     0.048 A 
ATOM      4  C3  UNL d   1      -0.916   0.165   1.180  0.00  0.00     0.023 A 
ATOM      5  C4  UNL d   1      -2.212   0.637   0.962  0.00  0.00     0.048 A 
ATOM      6  C5  UNL d   1      -2.839   1.410   1.941  0.00  0.00     0.003 A 
ATOM      7  I   UNL d   1       0.021  -0.987  -0.274  0.00  0.00    -0.146 I 
ENDROOT
TORSDOF 0
ENDMDL
