MODEL 1
REMARK minimizedAffinity -2.24894905
REMARK minimizedRMSD -1
REMARK  0 active torsions:
REMARK  status: ('A' for Active; 'I' for Inactive)
ROOT
ATOM      1  C   UNL d   1       2.336  -0.836  -2.869  0.00  0.00     0.023 A 
ATOM      2  C1  UNL d   1       1.789  -1.291  -1.669  0.00  0.00     0.003 A 
ATOM      3  C2  UNL d   1       0.901  -0.484  -0.954  0.00  0.00     0.048 A 
ATOM      4  C3  UNL d   1       0.565   0.777  -1.446  0.00  0.00     0.023 A 
ATOM      5  C4  UNL d   1       1.109   1.236  -2.646  0.00  0.00     0.048 A 
ATOM      6  C5  UNL d   1       1.996   0.426  -3.357  0.00  0.00     0.003 A 
ATOM      7  I   UNL d   1      -0.756   1.980  -0.383  0.00  0.00    -0.146 I 
ENDROOT
TORSDOF 0
ENDMDL
