MODEL 1
REMARK minimizedAffinity -2.62162423
REMARK minimizedRMSD -1
REMARK  0 active torsions:
REMARK  status: ('A' for Active; 'I' for Inactive)
ROOT
ATOM      1  C   UNL d   1       1.020  -1.764   0.425  0.00  0.00     0.023 A 
ATOM      2  C1  UNL d   1       1.712  -2.060  -0.749  0.00  0.00     0.003 A 
ATOM      3  C2  UNL d   1       1.754  -1.129  -1.789  0.00  0.00     0.048 A 
ATOM      4  C3  UNL d   1       1.102   0.095  -1.648  0.00  0.00     0.023 A 
ATOM      5  C4  UNL d   1       0.409   0.396  -0.475  0.00  0.00     0.048 A 
ATOM      6  C5  UNL d   1       0.369  -0.538   0.562  0.00  0.00     0.003 A 
ATOM      7  I   UNL d   1       1.164   1.482  -3.195  0.00  0.00    -0.146 I 
ENDROOT
TORSDOF 0
ENDMDL
