MODEL 1
REMARK minimizedAffinity -2.8937037
REMARK minimizedRMSD -1
REMARK  0 active torsions:
REMARK  status: ('A' for Active; 'I' for Inactive)
ROOT
ATOM      1  C   UNL d   1       0.234  -1.037  -0.783  0.00  0.00     0.023 A 
ATOM      2  C1  UNL d   1      -0.120   0.307  -0.664  0.00  0.00     0.003 A 
ATOM      3  C2  UNL d   1      -0.790   0.756   0.476  0.00  0.00     0.048 A 
ATOM      4  C3  UNL d   1      -1.102  -0.145   1.494  0.00  0.00     0.023 A 
ATOM      5  C4  UNL d   1      -0.749  -1.490   1.380  0.00  0.00     0.048 A 
ATOM      6  C5  UNL d   1      -0.081  -1.935   0.237  0.00  0.00     0.003 A 
ATOM      7  I   UNL d   1      -2.098   0.521   3.192  0.00  0.00    -0.146 I 
ENDROOT
TORSDOF 0
ENDMDL
