MODEL 1
REMARK minimizedAffinity -3.48603582
REMARK minimizedRMSD -1
REMARK  0 active torsions:
REMARK  status: ('A' for Active; 'I' for Inactive)
ROOT
ATOM      1  C   UNL d   1      -1.347   1.978  -1.146  0.00  0.00     0.023 A 
ATOM      2  C1  UNL d   1      -1.773   0.858  -0.431  0.00  0.00     0.003 A 
ATOM      3  C2  UNL d   1      -0.915  -0.230  -0.261  0.00  0.00     0.048 A 
ATOM      4  C3  UNL d   1       0.367  -0.192  -0.806  0.00  0.00     0.023 A 
ATOM      5  C4  UNL d   1       0.798   0.926  -1.521  0.00  0.00     0.048 A 
ATOM      6  C5  UNL d   1      -0.063   2.012  -1.690  0.00  0.00     0.003 A 
ATOM      7  I   UNL d   1       1.646  -1.811  -0.553  0.00  0.00    -0.146 I 
ENDROOT
TORSDOF 0
ENDMDL
