MODEL 1
REMARK minimizedAffinity -1.71526754
REMARK minimizedRMSD -1
REMARK  0 active torsions:
REMARK  status: ('A' for Active; 'I' for Inactive)
ROOT
ATOM      1  C   UNL d   1       2.158  -1.090  -1.479  0.00  0.00     0.023 A 
ATOM      2  C1  UNL d   1       1.823  -1.845  -0.355  0.00  0.00     0.003 A 
ATOM      3  C2  UNL d   1       0.750  -1.461   0.452  0.00  0.00     0.048 A 
ATOM      4  C3  UNL d   1       0.015  -0.321   0.129  0.00  0.00     0.023 A 
ATOM      5  C4  UNL d   1       0.346   0.438  -0.996  0.00  0.00     0.048 A 
ATOM      6  C5  UNL d   1       1.420   0.050  -1.799  0.00  0.00     0.003 A 
ATOM      7  I   UNL d   1      -1.582   0.253   1.328  0.00  0.00    -0.146 I 
ENDROOT
TORSDOF 0
ENDMDL
