MODEL 1
REMARK minimizedAffinity -0.911158383
REMARK minimizedRMSD -1
REMARK  1 active torsions:
REMARK  status: ('A' for Active; 'I' for Inactive)
REMARK    1  A    between atoms: N_2  and  C1_3 
ROOT
ATOM      1  C1  UNL d   1       0.974  -0.132  -2.173  0.00  0.00     0.143 A 
ATOM      2  C2  UNL d   1       0.180   0.130  -3.295  0.00  0.00    -0.057 A 
ATOM      3  C3  UNL d   1       0.731   0.666  -4.465  0.00  0.00     0.033 A 
ATOM      4  C4  UNL d   1       2.085   0.978  -4.524  0.00  0.00    -0.042 A 
ATOM      5  C5  UNL d   1       2.889   0.750  -3.413  0.00  0.00     0.033 A 
ATOM      6  C6  UNL d   1       2.334   0.208  -2.249  0.00  0.00    -0.057 A 
ENDROOT
BRANCH   1   7
ATOM      7  N   UNL d   1       0.468  -0.572  -0.948  0.00  0.00    -0.732 N 
ATOM      8  C   UNL d   1       0.029   0.378   0.052  0.00  0.00     0.284 C 
ATOM      9  H3  UNL d   1      -0.139  -1.382  -1.047  0.00  0.00     0.395 HD
ENDBRANCH   1   7
TORSDOF 1
ENDMDL
