MODEL 1
REMARK minimizedAffinity 1.36305511
REMARK minimizedRMSD -1
REMARK  1 active torsions:
REMARK  status: ('A' for Active; 'I' for Inactive)
REMARK    1  A    between atoms: N_2  and  C1_3 
ROOT
ATOM      1  C1  UNL d   1       0.547  -0.230  -4.529  0.00  0.00     0.143 A 
ATOM      2  C2  UNL d   1       1.828   0.194  -4.899  0.00  0.00    -0.057 A 
ATOM      3  C3  UNL d   1       2.544   1.110  -4.118  0.00  0.00     0.033 A 
ATOM      4  C4  UNL d   1       1.977   1.641  -2.964  0.00  0.00    -0.042 A 
ATOM      5  C5  UNL d   1       0.695   1.253  -2.590  0.00  0.00     0.033 A 
ATOM      6  C6  UNL d   1      -0.012   0.333  -3.371  0.00  0.00    -0.057 A 
ENDROOT
BRANCH   1   7
ATOM      7  N   UNL d   1      -0.254  -1.062  -5.315  0.00  0.00    -0.732 N 
ATOM      8  C   UNL d   1      -1.547  -0.612  -5.784  0.00  0.00     0.284 C 
ATOM      9  H3  UNL d   1       0.284  -1.576  -6.009  0.00  0.00     0.395 HD
ENDBRANCH   1   7
TORSDOF 1
ENDMDL
