MODEL 1
REMARK minimizedAffinity -4.87167501
REMARK minimizedRMSD -1
REMARK  1 active torsions:
REMARK  status: ('A' for Active; 'I' for Inactive)
REMARK    1  A    between atoms: N_2  and  C1_3 
ROOT
ATOM      1  C1  UNL d   1       0.356   0.241   0.893  0.00  0.00     0.143 A 
ATOM      2  C2  UNL d   1      -0.630   1.055   1.462  0.00  0.00    -0.057 A 
ATOM      3  C3  UNL d   1      -0.528   1.503   2.784  0.00  0.00     0.033 A 
ATOM      4  C4  UNL d   1       0.552   1.121   3.573  0.00  0.00    -0.042 A 
ATOM      5  C5  UNL d   1       1.531   0.293   3.036  0.00  0.00     0.033 A 
ATOM      6  C6  UNL d   1       1.427  -0.147   1.713  0.00  0.00    -0.057 A 
ENDROOT
BRANCH   1   7
ATOM      7  N   UNL d   1       0.262  -0.318  -0.384  0.00  0.00    -0.732 N 
ATOM      8  C   UNL d   1      -0.769  -1.286  -0.691  0.00  0.00     0.284 C 
ATOM      9  H3  UNL d   1       0.421   0.367  -1.120  0.00  0.00     0.395 HD
ENDBRANCH   1   7
TORSDOF 1
ENDMDL
