MODEL 1
REMARK minimizedAffinity -2.34277034
REMARK minimizedRMSD -1
REMARK  1 active torsions:
REMARK  status: ('A' for Active; 'I' for Inactive)
REMARK    1  A    between atoms: N_2  and  C1_3 
ROOT
ATOM      1  C1  UNL d   1       0.313   0.790  -4.575  0.00  0.00     0.143 A 
ATOM      2  C2  UNL d   1       0.657   0.009  -3.466  0.00  0.00    -0.057 A 
ATOM      3  C3  UNL d   1       1.921   0.109  -2.873  0.00  0.00     0.033 A 
ATOM      4  C4  UNL d   1       2.877   0.972  -3.398  0.00  0.00    -0.042 A 
ATOM      5  C5  UNL d   1       2.565   1.739  -4.515  0.00  0.00     0.033 A 
ATOM      6  C6  UNL d   1       1.299   1.641  -5.099  0.00  0.00    -0.057 A 
ENDROOT
BRANCH   1   7
ATOM      7  N   UNL d   1      -0.893   0.665  -5.270  0.00  0.00    -0.732 N 
ATOM      8  C   UNL d   1      -1.337  -0.625  -5.751  0.00  0.00     0.284 C 
ATOM      9  H3  UNL d   1      -1.634   1.236  -4.867  0.00  0.00     0.395 HD
ENDBRANCH   1   7
TORSDOF 1
ENDMDL
