MODEL 1
REMARK minimizedAffinity -4.7476902
REMARK minimizedRMSD -1
REMARK  0 active torsions:
REMARK  status: ('A' for Active; 'I' for Inactive)
ROOT
ATOM      1  O1  BZF d   1       0.769   0.494  -2.019  0.00  0.00    -0.204 OA
ATOM      2  C2  BZF d   1       0.895   0.672  -0.655  0.00  0.00     0.174 A 
ATOM      3  C3  BZF d   1      -0.312   0.628  -0.054  0.00  0.00    -0.012 A 
ATOM      4  C3A BZF d   1      -1.240   0.316  -1.096  0.00  0.00    -0.107 A 
ATOM      5  C4  BZF d   1      -2.592   0.121  -1.122  0.00  0.00     0.055 A 
ATOM      6  C5  BZF d   1      -3.205  -0.096  -2.316  0.00  0.00    -0.016 A 
ATOM      7  C6  BZF d   1      -2.499  -0.121  -3.501  0.00  0.00     0.022 A 
ATOM      8  C7  BZF d   1      -1.156   0.061  -3.524  0.00  0.00     0.029 A 
ATOM      9  C7A BZF d   1      -0.529   0.249  -2.317  0.00  0.00     0.058 A 
ENDROOT
TORSDOF 0
ENDMDL
