MODEL 1
REMARK minimizedAffinity 0.820578039
REMARK minimizedRMSD -1
REMARK  0 active torsions:
REMARK  status: ('A' for Active; 'I' for Inactive)
ROOT
ATOM      1  O1  BZF d   1       0.081  -0.765  -0.183  0.00  0.00    -0.204 OA
ATOM      2  C2  BZF d   1       0.322   0.441   0.445  0.00  0.00     0.174 A 
ATOM      3  C3  BZF d   1      -0.466   1.411  -0.063  0.00  0.00    -0.012 A 
ATOM      4  C3A BZF d   1      -1.313   0.750  -1.008  0.00  0.00    -0.107 A 
ATOM      5  C4  BZF d   1      -2.320   1.178  -1.826  0.00  0.00     0.055 A 
ATOM      6  C5  BZF d   1      -2.897   0.293  -2.681  0.00  0.00    -0.016 A 
ATOM      7  C6  BZF d   1      -2.489  -1.023  -2.749  0.00  0.00     0.022 A 
ATOM      8  C7  BZF d   1      -1.498  -1.495  -1.953  0.00  0.00     0.029 A 
ATOM      9  C7A BZF d   1      -0.935  -0.611  -1.065  0.00  0.00     0.058 A 
ENDROOT
TORSDOF 0
ENDMDL
