MODEL 1
REMARK minimizedAffinity -0.826017559
REMARK minimizedRMSD -1
REMARK  0 active torsions:
REMARK  status: ('A' for Active; 'I' for Inactive)
ROOT
ATOM      1  O1  BZF d   1      -0.653  -1.392  -0.772  0.00  0.00    -0.204 OA
ATOM      2  C2  BZF d   1      -1.777  -0.589  -0.761  0.00  0.00     0.174 A 
ATOM      3  C3  BZF d   1      -1.507   0.604  -0.194  0.00  0.00    -0.012 A 
ATOM      4  C3A BZF d   1      -0.104   0.578   0.088  0.00  0.00    -0.107 A 
ATOM      5  C4  BZF d   1       0.760   1.481   0.639  0.00  0.00     0.055 A 
ATOM      6  C5  BZF d   1       2.054   1.117   0.842  0.00  0.00    -0.016 A 
ATOM      7  C6  BZF d   1       2.515  -0.140   0.512  0.00  0.00     0.022 A 
ATOM      8  C7  BZF d   1       1.697  -1.068  -0.041  0.00  0.00     0.029 A 
ATOM      9  C7A BZF d   1       0.397  -0.693  -0.278  0.00  0.00     0.058 A 
ENDROOT
TORSDOF 0
ENDMDL
