MODEL 1
REMARK minimizedAffinity -4.48930359
REMARK minimizedRMSD -1
REMARK  0 active torsions:
REMARK  status: ('A' for Active; 'I' for Inactive)
ROOT
ATOM      1  O1  BZF d   1       2.412   1.092   0.798  0.00  0.00    -0.204 OA
ATOM      2  C2  BZF d   1       1.487   1.479  -0.152  0.00  0.00     0.174 A 
ATOM      3  C3  BZF d   1       0.446   0.622  -0.184  0.00  0.00    -0.012 A 
ATOM      4  C3A BZF d   1       0.694  -0.311   0.873  0.00  0.00    -0.107 A 
ATOM      5  C4  BZF d   1       0.010  -1.391   1.351  0.00  0.00     0.055 A 
ATOM      6  C5  BZF d   1       0.561  -2.134   2.347  0.00  0.00    -0.016 A 
ATOM      7  C6  BZF d   1       1.795  -1.829   2.882  0.00  0.00     0.022 A 
ATOM      8  C7  BZF d   1       2.509  -0.764   2.444  0.00  0.00     0.029 A 
ATOM      9  C7A BZF d   1       1.940   0.008   1.460  0.00  0.00     0.058 A 
ENDROOT
TORSDOF 0
ENDMDL
