MODEL 1
REMARK minimizedAffinity -0.374165624
REMARK minimizedRMSD -1
REMARK  0 active torsions:
REMARK  status: ('A' for Active; 'I' for Inactive)
ROOT
ATOM      1  O1  BZF d   1      -1.852  -1.068  -0.421  0.00  0.00    -0.204 OA
ATOM      2  C2  BZF d   1      -1.364  -0.143   0.482  0.00  0.00     0.174 A 
ATOM      3  C3  BZF d   1      -1.566   1.114   0.035  0.00  0.00    -0.012 A 
ATOM      4  C3A BZF d   1      -2.304   0.967  -1.181  0.00  0.00    -0.107 A 
ATOM      5  C4  BZF d   1      -2.816   1.856  -2.082  0.00  0.00     0.055 A 
ATOM      6  C5  BZF d   1      -3.422   1.386  -3.204  0.00  0.00    -0.016 A 
ATOM      7  C6  BZF d   1      -3.529   0.034  -3.459  0.00  0.00     0.022 A 
ATOM      8  C7  BZF d   1      -3.041  -0.887  -2.592  0.00  0.00     0.029 A 
ATOM      9  C7A BZF d   1      -2.457  -0.415  -1.442  0.00  0.00     0.058 A 
ENDROOT
TORSDOF 0
ENDMDL
