MODEL 1
REMARK minimizedAffinity -1.95843172
REMARK minimizedRMSD -1
REMARK  0 active torsions:
REMARK  status: ('A' for Active; 'I' for Inactive)
ROOT
ATOM      1  O1  BZF d   1      -1.419   0.698  -0.294  0.00  0.00    -0.204 OA
ATOM      2  C2  BZF d   1      -0.643   1.822  -0.498  0.00  0.00     0.174 A 
ATOM      3  C3  BZF d   1       0.650   1.570  -0.208  0.00  0.00    -0.012 A 
ATOM      4  C3A BZF d   1       0.699   0.177   0.113  0.00  0.00    -0.107 A 
ATOM      5  C4  BZF d   1       1.710  -0.669   0.470  0.00  0.00     0.055 A 
ATOM      6  C5  BZF d   1       1.412  -1.956   0.788  0.00  0.00    -0.016 A 
ATOM      7  C6  BZF d   1       0.116  -2.429   0.766  0.00  0.00     0.022 A 
ATOM      8  C7  BZF d   1      -0.919  -1.628   0.414  0.00  0.00     0.029 A 
ATOM      9  C7A BZF d   1      -0.618  -0.336   0.060  0.00  0.00     0.058 A 
ENDROOT
TORSDOF 0
ENDMDL
