MODEL 1
REMARK minimizedAffinity -3.19804573
REMARK minimizedRMSD -1
REMARK  0 active torsions:
REMARK  status: ('A' for Active; 'I' for Inactive)
ROOT
ATOM      1  O1  BZF d   1      -0.351  -1.368  -0.759  0.00  0.00    -0.204 OA
ATOM      2  C2  BZF d   1       0.208  -0.382   0.031  0.00  0.00     0.174 A 
ATOM      3  C3  BZF d   1      -0.287   0.829  -0.293  0.00  0.00    -0.012 A 
ATOM      4  C3A BZF d   1      -1.282   0.574  -1.290  0.00  0.00    -0.107 A 
ATOM      5  C4  BZF d   1      -2.134   1.377  -1.992  0.00  0.00     0.055 A 
ATOM      6  C5  BZF d   1      -2.930   0.823  -2.945  0.00  0.00    -0.016 A 
ATOM      7  C6  BZF d   1      -2.894  -0.527  -3.224  0.00  0.00     0.022 A 
ATOM      8  C7  BZF d   1      -2.069  -1.365  -2.550  0.00  0.00     0.029 A 
ATOM      9  C7A BZF d   1      -1.288  -0.813  -1.564  0.00  0.00     0.058 A 
ENDROOT
TORSDOF 0
ENDMDL
