MODEL 1
REMARK minimizedAffinity -2.2259388
REMARK minimizedRMSD -1
REMARK  0 active torsions:
REMARK  status: ('A' for Active; 'I' for Inactive)
ROOT
ATOM      1  O1  BZF d   1      -1.122  -0.708   0.709  0.00  0.00    -0.204 OA
ATOM      2  C2  BZF d   1      -1.813   0.042  -0.222  0.00  0.00     0.174 A 
ATOM      3  C3  BZF d   1      -1.049   1.051  -0.687  0.00  0.00    -0.012 A 
ATOM      4  C3A BZF d   1       0.230   0.868  -0.072  0.00  0.00    -0.107 A 
ATOM      5  C4  BZF d   1       1.415   1.543  -0.151  0.00  0.00     0.055 A 
ATOM      6  C5  BZF d   1       2.452   1.150   0.634  0.00  0.00    -0.016 A 
ATOM      7  C6  BZF d   1       2.338   0.091   1.511  0.00  0.00     0.022 A 
ATOM      8  C7  BZF d   1       1.185  -0.612   1.621  0.00  0.00     0.029 A 
ATOM      9  C7A BZF d   1       0.145  -0.238   0.805  0.00  0.00     0.058 A 
ENDROOT
TORSDOF 0
ENDMDL
