MODEL 1
REMARK minimizedAffinity -4.23733807
REMARK minimizedRMSD -1
REMARK  0 active torsions:
REMARK  status: ('A' for Active; 'I' for Inactive)
ROOT
ATOM      1  O1  BZF d   1      -1.501  -0.373   0.696  0.00  0.00    -0.204 OA
ATOM      2  C2  BZF d   1      -2.181   0.307  -0.296  0.00  0.00     0.174 A 
ATOM      3  C3  BZF d   1      -1.342   1.100  -0.993  0.00  0.00    -0.012 A 
ATOM      4  C3A BZF d   1      -0.041   0.832  -0.460  0.00  0.00    -0.107 A 
ATOM      5  C4  BZF d   1       1.208   1.301  -0.753  0.00  0.00     0.055 A 
ATOM      6  C5  BZF d   1       2.260   0.892   0.004  0.00  0.00    -0.016 A 
ATOM      7  C6  BZF d   1       2.099   0.022   1.062  0.00  0.00     0.022 A 
ATOM      8  C7  BZF d   1       0.880  -0.473   1.387  0.00  0.00     0.029 A 
ATOM      9  C7A BZF d   1      -0.180  -0.088   0.604  0.00  0.00     0.058 A 
ENDROOT
TORSDOF 0
ENDMDL
