MODEL 1
REMARK minimizedAffinity -2.5634129
REMARK minimizedRMSD -1
REMARK  0 active torsions:
REMARK  status: ('A' for Active; 'I' for Inactive)
ROOT
ATOM      1  O1  BZF d   1      -0.398  -1.120  -0.808  0.00  0.00    -0.204 OA
ATOM      2  C2  BZF d   1      -0.235  -0.337   0.318  0.00  0.00     0.174 A 
ATOM      3  C3  BZF d   1      -1.041   0.744   0.269  0.00  0.00    -0.012 A 
ATOM      4  C3A BZF d   1      -1.818   0.581  -0.921  0.00  0.00    -0.107 A 
ATOM      5  C4  BZF d   1      -2.805   1.321  -1.506  0.00  0.00     0.055 A 
ATOM      6  C5  BZF d   1      -3.307   0.922  -2.704  0.00  0.00    -0.016 A 
ATOM      7  C6  BZF d   1      -2.843  -0.206  -3.347  0.00  0.00     0.022 A 
ATOM      8  C7  BZF d   1      -1.868  -0.975  -2.803  0.00  0.00     0.029 A 
ATOM      9  C7A BZF d   1      -1.382  -0.593  -1.577  0.00  0.00     0.058 A 
ENDROOT
TORSDOF 0
ENDMDL
