MODEL 1
REMARK minimizedAffinity 11.1996222
REMARK minimizedRMSD -1
REMARK  0 active torsions:
REMARK  status: ('A' for Active; 'I' for Inactive)
ROOT
ATOM      1  C   UNL d   1      -5.983   5.997   5.987  0.00  0.00     0.078 C 
ATOM      2  C1  UNL d   1      -5.456   5.327   4.753  0.00  0.00    -0.077 A 
ATOM      3  C2  UNL d   1      -4.590   5.999   3.881  0.00  0.00    -0.001 A 
ATOM      4  C3  UNL d   1      -4.116   5.367   2.731  0.00  0.00     0.003 A 
ATOM      5  C4  UNL d   1      -4.501   4.060   2.441  0.00  0.00    -0.005 A 
ATOM      6  C5  UNL d   1      -5.364   3.383   3.302  0.00  0.00     0.003 A 
ATOM      7  C6  UNL d   1      -5.840   4.014   4.452  0.00  0.00    -0.001 A 
ENDROOT
TORSDOF 0
ENDMDL
