MODEL 1
REMARK minimizedAffinity 3.88816786
REMARK minimizedRMSD -1
REMARK  0 active torsions:
REMARK  status: ('A' for Active; 'I' for Inactive)
ROOT
ATOM      1  C   UNL d   1      -5.650   0.394   0.094  0.00  0.00     0.078 C 
ATOM      2  C1  UNL d   1      -5.652   1.660  -0.710  0.00  0.00    -0.077 A 
ATOM      3  C2  UNL d   1      -5.338   2.890  -0.119  0.00  0.00    -0.001 A 
ATOM      4  C3  UNL d   1      -5.353   4.062  -0.877  0.00  0.00     0.003 A 
ATOM      5  C4  UNL d   1      -5.682   4.015  -2.231  0.00  0.00    -0.005 A 
ATOM      6  C5  UNL d   1      -5.997   2.796  -2.827  0.00  0.00     0.003 A 
ATOM      7  C6  UNL d   1      -5.983   1.624  -2.070  0.00  0.00    -0.001 A 
ENDROOT
TORSDOF 0
ENDMDL
