MODEL 1
REMARK minimizedAffinity 8.41540623
REMARK minimizedRMSD -1
REMARK  0 active torsions:
REMARK  status: ('A' for Active; 'I' for Inactive)
ROOT
ATOM      1  C   UNL d   1       2.188   2.744   2.987  0.00  0.00     0.078 C 
ATOM      2  C1  UNL d   1       2.439   1.988   1.717  0.00  0.00    -0.077 A 
ATOM      3  C2  UNL d   1       2.402   0.588   1.691  0.00  0.00    -0.001 A 
ATOM      4  C3  UNL d   1       2.648  -0.103   0.504  0.00  0.00     0.003 A 
ATOM      5  C4  UNL d   1       2.932   0.597  -0.667  0.00  0.00    -0.005 A 
ATOM      6  C5  UNL d   1       2.973   1.990  -0.651  0.00  0.00     0.003 A 
ATOM      7  C6  UNL d   1       2.728   2.682   0.536  0.00  0.00    -0.001 A 
ENDROOT
TORSDOF 0
ENDMDL
