MODEL 1
REMARK minimizedAffinity 4.63575602
REMARK minimizedRMSD -1
REMARK  0 active torsions:
REMARK  status: ('A' for Active; 'I' for Inactive)
ROOT
ATOM      1  C   UNL d   1       5.866   1.514   4.816  0.00  0.00     0.078 C 
ATOM      2  C1  UNL d   1       5.321   2.901   4.648  0.00  0.00    -0.077 A 
ATOM      3  C2  UNL d   1       4.877   3.354   3.400  0.00  0.00    -0.001 A 
ATOM      4  C3  UNL d   1       4.381   4.651   3.255  0.00  0.00     0.003 A 
ATOM      5  C4  UNL d   1       4.326   5.505   4.355  0.00  0.00    -0.005 A 
ATOM      6  C5  UNL d   1       4.768   5.064   5.600  0.00  0.00     0.003 A 
ATOM      7  C6  UNL d   1       5.264   3.768   5.746  0.00  0.00    -0.001 A 
ENDROOT
TORSDOF 0
ENDMDL
