MODEL 1
REMARK minimizedAffinity -2.91282821
REMARK minimizedRMSD -1
REMARK  0 active torsions:
REMARK  status: ('A' for Active; 'I' for Inactive)
ROOT
ATOM      1  C   UNL d   1       2.039  -1.717  -0.190  0.00  0.00     0.078 C 
ATOM      2  C1  UNL d   1       3.017  -0.581  -0.236  0.00  0.00    -0.077 A 
ATOM      3  C2  UNL d   1       2.888   0.444  -1.180  0.00  0.00    -0.001 A 
ATOM      4  C3  UNL d   1       3.811   1.490  -1.218  0.00  0.00     0.003 A 
ATOM      5  C4  UNL d   1       4.871   1.520  -0.314  0.00  0.00    -0.005 A 
ATOM      6  C5  UNL d   1       5.009   0.503   0.628  0.00  0.00     0.003 A 
ATOM      7  C6  UNL d   1       4.087  -0.544   0.667  0.00  0.00    -0.001 A 
ENDROOT
TORSDOF 0
ENDMDL
