MODEL 1
REMARK minimizedAffinity 3.2715168
REMARK minimizedRMSD -1
REMARK  0 active torsions:
REMARK  status: ('A' for Active; 'I' for Inactive)
ROOT
ATOM      1  C   UNL d   1       5.425   3.420   0.372  0.00  0.00     0.078 C 
ATOM      2  C1  UNL d   1       4.568   2.346  -0.228  0.00  0.00    -0.077 A 
ATOM      3  C2  UNL d   1       4.694   1.991  -1.577  0.00  0.00    -0.001 A 
ATOM      4  C3  UNL d   1       3.883   0.997  -2.124  0.00  0.00     0.003 A 
ATOM      5  C4  UNL d   1       2.938   0.349  -1.331  0.00  0.00    -0.005 A 
ATOM      6  C5  UNL d   1       2.803   0.696   0.011  0.00  0.00     0.003 A 
ATOM      7  C6  UNL d   1       3.614   1.691   0.561  0.00  0.00    -0.001 A 
ENDROOT
TORSDOF 0
ENDMDL
