MODEL 1
REMARK minimizedAffinity 8.86526108
REMARK minimizedRMSD -1
REMARK  0 active torsions:
REMARK  status: ('A' for Active; 'I' for Inactive)
ROOT
ATOM      1  C   UNL d   1      -3.769  -0.784  -2.377  0.00  0.00    -0.002 A 
ATOM      2  C1  UNL d   1      -2.438  -1.100  -2.141  0.00  0.00     0.010 A 
ATOM      3  C2  UNL d   1      -1.885  -0.941  -0.869  0.00  0.00     0.041 A 
ATOM      4  C3  UNL d   1      -2.699  -0.455   0.172  0.00  0.00    -0.075 A 
ATOM      5  S   UNL d   1      -2.238  -0.181   1.811  0.00  0.00     0.015 SA
ATOM      6  C4  UNL d   1      -3.797   0.361   2.237  0.00  0.00     0.022 A 
ATOM      7  C5  UNL d   1      -4.660   0.340   1.167  0.00  0.00     0.026 A 
ATOM      8  C6  UNL d   1      -4.042  -0.131  -0.040  0.00  0.00    -0.082 A 
ATOM      9  C7  UNL d   1      -4.574  -0.303  -1.341  0.00  0.00     0.045 A 
ENDROOT
TORSDOF 0
ENDMDL
