MODEL 1
REMARK minimizedAffinity 5.72137976
REMARK minimizedRMSD -1
REMARK  0 active torsions:
REMARK  status: ('A' for Active; 'I' for Inactive)
ROOT
ATOM      1  C   UNL d   1      -6.000  -1.872  -0.746  0.00  0.00    -0.002 A 
ATOM      2  C1  UNL d   1      -5.850  -0.621  -1.327  0.00  0.00     0.010 A 
ATOM      3  C2  UNL d   1      -4.965   0.313  -0.784  0.00  0.00     0.041 A 
ATOM      4  C3  UNL d   1      -4.224  -0.037   0.362  0.00  0.00    -0.075 A 
ATOM      5  S   UNL d   1      -3.079   0.943   1.199  0.00  0.00     0.015 SA
ATOM      6  C4  UNL d   1      -2.762  -0.276   2.347  0.00  0.00     0.022 A 
ATOM      7  C5  UNL d   1      -3.502  -1.411   2.112  0.00  0.00     0.026 A 
ATOM      8  C6  UNL d   1      -4.356  -1.292   0.964  0.00  0.00    -0.082 A 
ATOM      9  C7  UNL d   1      -5.263  -2.216   0.390  0.00  0.00     0.045 A 
ENDROOT
TORSDOF 0
ENDMDL
