MODEL 1
REMARK minimizedAffinity 21.0891705
REMARK minimizedRMSD -1
REMARK  0 active torsions:
REMARK  status: ('A' for Active; 'I' for Inactive)
ROOT
ATOM      1  C   UNL d   1      -4.844  -0.681   0.085  0.00  0.00    -0.002 A 
ATOM      2  C1  UNL d   1      -4.152  -0.196   1.186  0.00  0.00     0.010 A 
ATOM      3  C2  UNL d   1      -2.808   0.165   1.076  0.00  0.00     0.041 A 
ATOM      4  C3  UNL d   1      -2.165   0.031  -0.170  0.00  0.00    -0.075 A 
ATOM      5  S   UNL d   1      -0.525   0.412  -0.541  0.00  0.00     0.015 SA
ATOM      6  C4  UNL d   1      -0.705  -0.060  -2.169  0.00  0.00     0.022 A 
ATOM      7  C5  UNL d   1      -1.979  -0.500  -2.440  0.00  0.00     0.026 A 
ATOM      8  C6  UNL d   1      -2.842  -0.454  -1.293  0.00  0.00    -0.082 A 
ATOM      9  C7  UNL d   1      -4.204  -0.813  -1.150  0.00  0.00     0.045 A 
ENDROOT
TORSDOF 0
ENDMDL
