MODEL 1
REMARK minimizedAffinity 11.5341606
REMARK minimizedRMSD -1
REMARK  0 active torsions:
REMARK  status: ('A' for Active; 'I' for Inactive)
ROOT
ATOM      1  C   UNL d   1      -4.519   0.019  -0.285  0.00  0.00    -0.002 A 
ATOM      2  C1  UNL d   1      -3.651   0.564   0.651  0.00  0.00     0.010 A 
ATOM      3  C2  UNL d   1      -2.269   0.457   0.484  0.00  0.00     0.041 A 
ATOM      4  C3  UNL d   1      -1.769  -0.210  -0.652  0.00  0.00    -0.075 A 
ATOM      5  S   UNL d   1      -0.114  -0.461  -1.065  0.00  0.00     0.015 SA
ATOM      6  C4  UNL d   1      -0.520  -1.296  -2.495  0.00  0.00     0.022 A 
ATOM      7  C5  UNL d   1      -1.881  -1.390  -2.668  0.00  0.00     0.026 A 
ATOM      8  C6  UNL d   1      -2.623  -0.765  -1.609  0.00  0.00    -0.082 A 
ATOM      9  C7  UNL d   1      -4.019  -0.642  -1.410  0.00  0.00     0.045 A 
ENDROOT
TORSDOF 0
ENDMDL
