MODEL 1
REMARK minimizedAffinity -1.95355618
REMARK minimizedRMSD -1
REMARK  0 active torsions:
REMARK  status: ('A' for Active; 'I' for Inactive)
ROOT
ATOM      1  C1  DEN d   1      -0.411  -0.065   1.201  0.00  0.00     0.130 A 
ATOM      2  C2  DEN d   1      -1.427  -0.266   0.172  0.00  0.00    -0.031 A 
ATOM      3  C3  DEN d   1      -0.744  -0.678  -1.071  0.00  0.00     0.027 A 
ATOM      4  C4  DEN d   1       1.776  -1.027  -1.497  0.00  0.00     0.027 A 
ATOM      5  C5  DEN d   1       3.030  -0.965  -0.930  0.00  0.00    -0.003 A 
ATOM      6  C6  DEN d   1       3.226  -0.570   0.367  0.00  0.00     0.001 A 
ATOM      7  C7  DEN d   1       2.147  -0.264   1.154  0.00  0.00     0.017 A 
ATOM      8  C8  DEN d   1       0.880  -0.316   0.587  0.00  0.00    -0.094 A 
ATOM      9  C9  DEN d   1       0.702  -0.730  -0.723  0.00  0.00    -0.072 A 
ENDROOT
TORSDOF 0
ENDMDL
