MODEL 1
REMARK minimizedAffinity -4.51730156
REMARK minimizedRMSD -1
REMARK  0 active torsions:
REMARK  status: ('A' for Active; 'I' for Inactive)
ROOT
ATOM      1  C1  DEN d   1      -0.763  -0.486   0.010  0.00  0.00     0.130 A 
ATOM      2  C2  DEN d   1      -0.274  -0.565  -1.364  0.00  0.00    -0.031 A 
ATOM      3  C3  DEN d   1       1.169  -0.875  -1.318  0.00  0.00     0.027 A 
ATOM      4  C4  DEN d   1       2.685  -1.244   0.735  0.00  0.00     0.027 A 
ATOM      5  C5  DEN d   1       2.725  -1.266   2.112  0.00  0.00    -0.003 A 
ATOM      6  C6  DEN d   1       1.621  -1.000   2.878  0.00  0.00     0.001 A 
ATOM      7  C7  DEN d   1       0.420  -0.743   2.272  0.00  0.00     0.017 A 
ATOM      8  C8  DEN d   1       0.374  -0.710   0.885  0.00  0.00    -0.094 A 
ATOM      9  C9  DEN d   1       1.498  -0.995   0.128  0.00  0.00    -0.072 A 
ENDROOT
TORSDOF 0
ENDMDL
