MODEL 1
REMARK minimizedAffinity -2.30218196
REMARK minimizedRMSD -1
REMARK  0 active torsions:
REMARK  status: ('A' for Active; 'I' for Inactive)
ROOT
ATOM      1  C1  DEN d   1      -1.500  -1.059   1.196  0.00  0.00     0.130 A 
ATOM      2  C2  DEN d   1      -1.461  -0.646  -0.204  0.00  0.00    -0.031 A 
ATOM      3  C3  DEN d   1      -0.062  -0.317  -0.545  0.00  0.00     0.027 A 
ATOM      4  C4  DEN d   1       2.037  -0.413   0.951  0.00  0.00     0.027 A 
ATOM      5  C5  DEN d   1       2.501  -0.693   2.217  0.00  0.00    -0.003 A 
ATOM      6  C6  DEN d   1       1.667  -1.078   3.232  0.00  0.00     0.001 A 
ATOM      7  C7  DEN d   1       0.329  -1.238   2.987  0.00  0.00     0.017 A 
ATOM      8  C8  DEN d   1      -0.148  -0.951   1.715  0.00  0.00    -0.094 A 
ATOM      9  C9  DEN d   1       0.713  -0.574   0.698  0.00  0.00    -0.072 A 
ENDROOT
TORSDOF 0
ENDMDL
