MODEL 1
REMARK minimizedAffinity 0.978192687
REMARK minimizedRMSD -1
REMARK  0 active torsions:
REMARK  status: ('A' for Active; 'I' for Inactive)
ROOT
ATOM      1  C1  DEN d   1       1.668  -0.879   1.701  0.00  0.00     0.130 A 
ATOM      2  C2  DEN d   1       0.981  -1.377   2.889  0.00  0.00    -0.031 A 
ATOM      3  C3  DEN d   1      -0.472  -1.297   2.644  0.00  0.00     0.027 A 
ATOM      4  C4  DEN d   1      -1.720  -0.461   0.547  0.00  0.00     0.027 A 
ATOM      5  C5  DEN d   1      -1.565   0.071  -0.714  0.00  0.00    -0.003 A 
ATOM      6  C6  DEN d   1      -0.333   0.353  -1.241  0.00  0.00     0.001 A 
ATOM      7  C7  DEN d   1       0.796   0.062  -0.521  0.00  0.00     0.017 A 
ATOM      8  C8  DEN d   1       0.647  -0.467   0.754  0.00  0.00    -0.094 A 
ATOM      9  C9  DEN d   1      -0.607  -0.757   1.264  0.00  0.00    -0.072 A 
ENDROOT
TORSDOF 0
ENDMDL
