MODEL 1
REMARK minimizedAffinity 7.57724762
REMARK minimizedRMSD -1
REMARK  0 active torsions:
REMARK  status: ('A' for Active; 'I' for Inactive)
ROOT
ATOM      1  C1  DEN d   1       3.621   2.262   1.124  0.00  0.00     0.130 A 
ATOM      2  C2  DEN d   1       4.844   3.033   1.330  0.00  0.00    -0.031 A 
ATOM      3  C3  DEN d   1       5.994   2.134   1.107  0.00  0.00     0.027 A 
ATOM      4  C4  DEN d   1       5.999  -0.363   0.461  0.00  0.00     0.027 A 
ATOM      5  C5  DEN d   1       5.204  -1.454   0.187  0.00  0.00    -0.003 A 
ATOM      6  C6  DEN d   1       3.836  -1.391   0.239  0.00  0.00     0.001 A 
ATOM      7  C7  DEN d   1       3.222  -0.202   0.529  0.00  0.00     0.017 A 
ATOM      8  C8  DEN d   1       4.017   0.900   0.813  0.00  0.00    -0.094 A 
ATOM      9  C9  DEN d   1       5.398   0.820   0.743  0.00  0.00    -0.072 A 
ENDROOT
TORSDOF 0
ENDMDL
