MODEL 1
REMARK minimizedAffinity 11.646162
REMARK minimizedRMSD -1
REMARK  0 active torsions:
REMARK  status: ('A' for Active; 'I' for Inactive)
ROOT
ATOM      1  C1  DEN d   1       1.876  -3.946   2.424  0.00  0.00     0.130 A 
ATOM      2  C2  DEN d   1       2.655  -4.229   1.221  0.00  0.00    -0.031 A 
ATOM      3  C3  DEN d   1       2.396  -3.151   0.246  0.00  0.00     0.027 A 
ATOM      4  C4  DEN d   1       0.875  -1.081   0.481  0.00  0.00     0.027 A 
ATOM      5  C5  DEN d   1       0.002  -0.419   1.315  0.00  0.00    -0.003 A 
ATOM      6  C6  DEN d   1      -0.331  -0.899   2.554  0.00  0.00     0.001 A 
ATOM      7  C7  DEN d   1       0.248  -2.053   3.012  0.00  0.00     0.017 A 
ATOM      8  C8  DEN d   1       1.123  -2.731   2.174  0.00  0.00    -0.094 A 
ATOM      9  C9  DEN d   1       1.456  -2.222   0.930  0.00  0.00    -0.072 A 
ENDROOT
TORSDOF 0
ENDMDL
