MODEL 1
REMARK minimizedAffinity -0.822849929
REMARK minimizedRMSD -1
REMARK  0 active torsions:
REMARK  status: ('A' for Active; 'I' for Inactive)
ROOT
ATOM      1  C1  DEN d   1       1.754  -3.130   0.734  0.00  0.00     0.130 A 
ATOM      2  C2  DEN d   1       2.074  -4.549   0.869  0.00  0.00    -0.031 A 
ATOM      3  C3  DEN d   1       1.080  -5.156   1.776  0.00  0.00     0.027 A 
ATOM      4  C4  DEN d   1      -0.915  -4.045   2.976  0.00  0.00     0.027 A 
ATOM      5  C5  DEN d   1      -1.583  -2.858   3.178  0.00  0.00    -0.003 A 
ATOM      6  C6  DEN d   1      -1.169  -1.681   2.612  0.00  0.00     0.001 A 
ATOM      7  C7  DEN d   1      -0.082  -1.674   1.778  0.00  0.00     0.017 A 
ATOM      8  C8  DEN d   1       0.601  -2.866   1.575  0.00  0.00    -0.094 A 
ATOM      9  C9  DEN d   1       0.160  -4.047   2.147  0.00  0.00    -0.072 A 
ENDROOT
TORSDOF 0
ENDMDL
