MODEL 1
REMARK minimizedAffinity -0.034592215
REMARK minimizedRMSD -1
REMARK  0 active torsions:
REMARK  status: ('A' for Active; 'I' for Inactive)
ROOT
ATOM      1  C1  DEN d   1       1.441  -3.297   2.189  0.00  0.00     0.130 A 
ATOM      2  C2  DEN d   1       2.242  -3.380   0.971  0.00  0.00    -0.031 A 
ATOM      3  C3  DEN d   1       1.697  -2.410  -0.000  0.00  0.00     0.027 A 
ATOM      4  C4  DEN d   1      -0.294  -0.792   0.265  0.00  0.00     0.027 A 
ATOM      5  C5  DEN d   1      -1.290  -0.368   1.117  0.00  0.00    -0.003 A 
ATOM      6  C6  DEN d   1      -1.465  -0.910   2.363  0.00  0.00     0.001 A 
ATOM      7  C7  DEN d   1      -0.603  -1.876   2.810  0.00  0.00     0.017 A 
ATOM      8  C8  DEN d   1       0.399  -2.314   1.954  0.00  0.00    -0.094 A 
ATOM      9  C9  DEN d   1       0.567  -1.745   0.703  0.00  0.00    -0.072 A 
ENDROOT
TORSDOF 0
ENDMDL
