MODEL 1
REMARK minimizedAffinity 6.63763475
REMARK minimizedRMSD -1
REMARK  0 active torsions:
REMARK  status: ('A' for Active; 'I' for Inactive)
ROOT
ATOM      1  C1  DEN d   1      -0.844  -0.713  -0.925  0.00  0.00     0.130 A 
ATOM      2  C2  DEN d   1       0.522  -1.222  -0.836  0.00  0.00    -0.031 A 
ATOM      3  C3  DEN d   1       0.885  -1.306   0.593  0.00  0.00     0.027 A 
ATOM      4  C4  DEN d   1      -0.529  -0.703   2.665  0.00  0.00     0.027 A 
ATOM      5  C5  DEN d   1      -1.745  -0.219   3.091  0.00  0.00    -0.003 A 
ATOM      6  C6  DEN d   1      -2.726   0.164   2.215  0.00  0.00     0.001 A 
ATOM      7  C7  DEN d   1      -2.524   0.026   0.867  0.00  0.00     0.017 A 
ATOM      8  C8  DEN d   1      -1.297  -0.455   0.429  0.00  0.00    -0.094 A 
ATOM      9  C9  DEN d   1      -0.323  -0.848   1.331  0.00  0.00    -0.072 A 
ENDROOT
TORSDOF 0
ENDMDL
