MODEL 1
REMARK minimizedAffinity -1.33891273
REMARK minimizedRMSD -1
REMARK  0 active torsions:
REMARK  status: ('A' for Active; 'I' for Inactive)
ROOT
ATOM      1  C1  DEN d   1       2.418  -3.663   0.520  0.00  0.00     0.130 A 
ATOM      2  C2  DEN d   1       3.019  -4.134   1.765  0.00  0.00    -0.031 A 
ATOM      3  C3  DEN d   1       2.426  -3.365   2.878  0.00  0.00     0.027 A 
ATOM      4  C4  DEN d   1       0.642  -1.505   2.795  0.00  0.00     0.027 A 
ATOM      5  C5  DEN d   1      -0.159  -0.754   1.963  0.00  0.00    -0.003 A 
ATOM      6  C6  DEN d   1      -0.133  -0.895   0.601  0.00  0.00     0.001 A 
ATOM      7  C7  DEN d   1       0.679  -1.840   0.032  0.00  0.00     0.017 A 
ATOM      8  C8  DEN d   1       1.495  -2.596   0.864  0.00  0.00    -0.094 A 
ATOM      9  C9  DEN d   1       1.445  -2.447   2.239  0.00  0.00    -0.072 A 
ENDROOT
TORSDOF 0
ENDMDL
