MODEL 1
REMARK minimizedAffinity -2.22380543
REMARK minimizedRMSD -1
REMARK  0 active torsions:
REMARK  status: ('A' for Active; 'I' for Inactive)
ROOT
ATOM      1  C1  DEN d   1       2.584  -0.176  -0.636  0.00  0.00     0.130 A 
ATOM      2  C2  DEN d   1       2.006  -0.762  -1.842  0.00  0.00    -0.031 A 
ATOM      3  C3  DEN d   1       0.590  -1.075  -1.565  0.00  0.00     0.027 A 
ATOM      4  C4  DEN d   1      -0.759  -0.707   0.603  0.00  0.00     0.027 A 
ATOM      5  C5  DEN d   1      -0.695  -0.249   1.900  0.00  0.00    -0.003 A 
ATOM      6  C6  DEN d   1       0.465   0.229   2.450  0.00  0.00     0.001 A 
ATOM      7  C7  DEN d   1       1.598   0.303   1.684  0.00  0.00     0.017 A 
ATOM      8  C8  DEN d   1       1.544  -0.163   0.377  0.00  0.00    -0.094 A 
ATOM      9  C9  DEN d   1       0.359  -0.632  -0.164  0.00  0.00    -0.072 A 
ENDROOT
TORSDOF 0
ENDMDL
