MODEL 1
REMARK minimizedAffinity 2.93635225
REMARK minimizedRMSD -1
REMARK  0 active torsions:
REMARK  status: ('A' for Active; 'I' for Inactive)
ROOT
ATOM      1  C2' OXE d   1       5.069  -6.000   4.612  0.00  0.00     0.078 C 
ATOM      2  C1' OXE d   1       5.689  -5.684   1.892  0.00  0.00     0.078 C 
ATOM      3  C1  OXE d   1       4.233  -5.766   2.277  0.00  0.00    -0.078 A 
ATOM      4  C2  OXE d   1       3.940  -5.968   3.605  0.00  0.00    -0.078 A 
ATOM      5  C3  OXE d   1       2.612  -5.996   4.021  0.00  0.00     0.003 A 
ATOM      6  C4  OXE d   1       1.574  -5.976   3.082  0.00  0.00    -0.002 A 
ATOM      7  C5  OXE d   1       1.852  -5.811   1.720  0.00  0.00    -0.002 A 
ATOM      8  C6  OXE d   1       3.171  -5.662   1.307  0.00  0.00     0.003 A 
ENDROOT
TORSDOF 0
ENDMDL
