MODEL 1
REMARK minimizedAffinity -2.49207926
REMARK minimizedRMSD -1
REMARK  0 active torsions:
REMARK  status: ('A' for Active; 'I' for Inactive)
ROOT
ATOM      1  C2' OXE d   1       6.000  -4.547   4.891  0.00  0.00     0.078 C 
ATOM      2  C1' OXE d   1       5.967  -4.321   2.094  0.00  0.00     0.078 C 
ATOM      3  C1  OXE d   1       5.972  -3.048   2.902  0.00  0.00    -0.078 A 
ATOM      4  C2  OXE d   1       5.941  -3.168   4.271  0.00  0.00    -0.078 A 
ATOM      5  C3  OXE d   1       6.000  -2.026   5.065  0.00  0.00     0.003 A 
ATOM      6  C4  OXE d   1       5.935  -0.754   4.483  0.00  0.00    -0.002 A 
ATOM      7  C5  OXE d   1       5.926  -0.610   3.091  0.00  0.00    -0.002 A 
ATOM      8  C6  OXE d   1       5.987  -1.743   2.288  0.00  0.00     0.003 A 
ENDROOT
TORSDOF 0
ENDMDL
