MODEL 1
REMARK minimizedAffinity -1.50653887
REMARK minimizedRMSD -1
REMARK  0 active torsions:
REMARK  status: ('A' for Active; 'I' for Inactive)
ROOT
ATOM      1  C2' OXE d   1       5.165  -2.903   1.499  0.00  0.00     0.078 C 
ATOM      2  C1' OXE d   1       3.408  -5.081   1.277  0.00  0.00     0.078 C 
ATOM      3  C1  OXE d   1       4.291  -5.011   2.498  0.00  0.00    -0.078 A 
ATOM      4  C2  OXE d   1       5.181  -3.967   2.575  0.00  0.00    -0.078 A 
ATOM      5  C3  OXE d   1       5.980  -3.825   3.706  0.00  0.00     0.003 A 
ATOM      6  C4  OXE d   1       5.995  -4.818   4.693  0.00  0.00    -0.002 A 
ATOM      7  C5  OXE d   1       5.125  -5.911   4.613  0.00  0.00    -0.002 A 
ATOM      8  C6  OXE d   1       4.238  -6.000   3.546  0.00  0.00     0.003 A 
ENDROOT
TORSDOF 0
ENDMDL
