MODEL 1
REMARK minimizedAffinity 0.485327572
REMARK minimizedRMSD -1
REMARK  0 active torsions:
REMARK  status: ('A' for Active; 'I' for Inactive)
ROOT
ATOM      1  C2' OXE d   1       0.712  -4.461   0.852  0.00  0.00     0.078 C 
ATOM      2  C1' OXE d   1       0.232  -5.605   3.370  0.00  0.00     0.078 C 
ATOM      3  C1  OXE d   1       1.660  -5.531   2.892  0.00  0.00    -0.078 A 
ATOM      4  C2  OXE d   1       1.881  -5.013   1.639  0.00  0.00    -0.078 A 
ATOM      5  C3  OXE d   1       3.185  -4.872   1.171  0.00  0.00     0.003 A 
ATOM      6  C4  OXE d   1       4.260  -5.394   1.901  0.00  0.00    -0.002 A 
ATOM      7  C5  OXE d   1       4.053  -5.962   3.162  0.00  0.00    -0.002 A 
ATOM      8  C6  OXE d   1       2.767  -6.000   3.689  0.00  0.00     0.003 A 
ENDROOT
TORSDOF 0
ENDMDL
