MODEL 1
REMARK minimizedAffinity 2.3565402
REMARK minimizedRMSD -1
REMARK  0 active torsions:
REMARK  status: ('A' for Active; 'I' for Inactive)
ROOT
ATOM      1  C2' OXE d   1      -4.570  -1.266   1.974  0.00  0.00     0.078 C 
ATOM      2  C1' OXE d   1      -5.013  -4.006   2.390  0.00  0.00     0.078 C 
ATOM      3  C1  OXE d   1      -4.727  -3.149   3.597  0.00  0.00    -0.078 A 
ATOM      4  C2  OXE d   1      -4.465  -1.817   3.380  0.00  0.00    -0.078 A 
ATOM      5  C3  OXE d   1      -4.249  -0.971   4.463  0.00  0.00     0.003 A 
ATOM      6  C4  OXE d   1      -4.144  -1.491   5.759  0.00  0.00    -0.002 A 
ATOM      7  C5  OXE d   1      -4.368  -2.851   5.998  0.00  0.00    -0.002 A 
ATOM      8  C6  OXE d   1      -4.702  -3.684   4.936  0.00  0.00     0.003 A 
ENDROOT
TORSDOF 0
ENDMDL
