MODEL 1
REMARK minimizedAffinity 6.59411955
REMARK minimizedRMSD -1
REMARK  0 active torsions:
REMARK  status: ('A' for Active; 'I' for Inactive)
ROOT
ATOM      1  C2' OXE d   1      -1.534  -4.870   1.484  0.00  0.00     0.078 C 
ATOM      2  C1' OXE d   1       0.268  -3.417  -0.103  0.00  0.00     0.078 C 
ATOM      3  C1  OXE d   1       0.839  -4.327   0.955  0.00  0.00    -0.078 A 
ATOM      4  C2  OXE d   1      -0.051  -4.999   1.758  0.00  0.00    -0.078 A 
ATOM      5  C3  OXE d   1       0.422  -5.894   2.714  0.00  0.00     0.003 A 
ATOM      6  C4  OXE d   1       1.795  -6.000   2.967  0.00  0.00    -0.002 A 
ATOM      7  C5  OXE d   1       2.717  -5.294   2.187  0.00  0.00    -0.002 A 
ATOM      8  C6  OXE d   1       2.258  -4.488   1.151  0.00  0.00     0.003 A 
ENDROOT
TORSDOF 0
ENDMDL
