MODEL 1
REMARK minimizedAffinity 0.391070396
REMARK minimizedRMSD -1
REMARK  0 active torsions:
REMARK  status: ('A' for Active; 'I' for Inactive)
ROOT
ATOM      1  C2' OXE d   1      -1.299   4.875   3.474  0.00  0.00     0.078 C 
ATOM      2  C1' OXE d   1      -3.689   3.665   2.634  0.00  0.00     0.078 C 
ATOM      3  C1  OXE d   1      -2.390   3.000   2.250  0.00  0.00    -0.078 A 
ATOM      4  C2  OXE d   1      -1.225   3.624   2.625  0.00  0.00    -0.078 A 
ATOM      5  C3  OXE d   1      -0.001   3.025   2.343  0.00  0.00     0.003 A 
ATOM      6  C4  OXE d   1       0.059   1.873   1.549  0.00  0.00    -0.002 A 
ATOM      7  C5  OXE d   1      -1.115   1.243   1.123  0.00  0.00    -0.002 A 
ATOM      8  C6  OXE d   1      -2.346   1.769   1.500  0.00  0.00     0.003 A 
ENDROOT
TORSDOF 0
ENDMDL
