MODEL 1
REMARK minimizedAffinity -0.375269413
REMARK minimizedRMSD -1
REMARK  0 active torsions:
REMARK  status: ('A' for Active; 'I' for Inactive)
ROOT
ATOM      1  C2' OXE d   1      -5.839   5.998   5.594  0.00  0.00     0.078 C 
ATOM      2  C1' OXE d   1      -3.035   5.999   5.722  0.00  0.00     0.078 C 
ATOM      3  C1  OXE d   1      -3.683   5.397   4.501  0.00  0.00    -0.078 A 
ATOM      4  C2  OXE d   1      -5.056   5.359   4.468  0.00  0.00    -0.078 A 
ATOM      5  C3  OXE d   1      -5.705   4.865   3.340  0.00  0.00     0.003 A 
ATOM      6  C4  OXE d   1      -4.974   4.266   2.307  0.00  0.00    -0.002 A 
ATOM      7  C5  OXE d   1      -3.575   4.258   2.339  0.00  0.00    -0.002 A 
ATOM      8  C6  OXE d   1      -2.915   4.857   3.406  0.00  0.00     0.003 A 
ENDROOT
TORSDOF 0
ENDMDL
