MODEL 1
REMARK minimizedAffinity -0.519588053
REMARK minimizedRMSD -1
REMARK  0 active torsions:
REMARK  status: ('A' for Active; 'I' for Inactive)
ROOT
ATOM      1  C2' OXE d   1      -2.676  -6.000   2.899  0.00  0.00     0.078 C 
ATOM      2  C1' OXE d   1      -2.147  -4.855   0.391  0.00  0.00     0.078 C 
ATOM      3  C1  OXE d   1      -0.974  -5.146   1.293  0.00  0.00    -0.078 A 
ATOM      4  C2  OXE d   1      -1.245  -5.663   2.537  0.00  0.00    -0.078 A 
ATOM      5  C3  OXE d   1      -0.196  -6.000   3.387  0.00  0.00     0.003 A 
ATOM      6  C4  OXE d   1       1.123  -5.675   3.048  0.00  0.00    -0.002 A 
ATOM      7  C5  OXE d   1       1.418  -5.112   1.802  0.00  0.00    -0.002 A 
ATOM      8  C6  OXE d   1       0.388  -4.880   0.898  0.00  0.00     0.003 A 
ENDROOT
TORSDOF 0
ENDMDL
