MODEL 1
REMARK minimizedAffinity 1.99088478
REMARK minimizedRMSD -1
REMARK  0 active torsions:
REMARK  status: ('A' for Active; 'I' for Inactive)
ROOT
ATOM      1  C2' OXE d   1      -2.267  -6.000  -0.840  0.00  0.00     0.078 C 
ATOM      2  C1' OXE d   1      -1.481  -5.994   1.855  0.00  0.00     0.078 C 
ATOM      3  C1  OXE d   1      -2.959  -5.985   1.553  0.00  0.00    -0.078 A 
ATOM      4  C2  OXE d   1      -3.334  -5.940   0.232  0.00  0.00    -0.078 A 
ATOM      5  C3  OXE d   1      -4.684  -5.985  -0.103  0.00  0.00     0.003 A 
ATOM      6  C4  OXE d   1      -5.664  -5.920   0.894  0.00  0.00    -0.002 A 
ATOM      7  C5  OXE d   1      -5.304  -5.924   2.246  0.00  0.00    -0.002 A 
ATOM      8  C6  OXE d   1      -3.959  -5.999   2.592  0.00  0.00     0.003 A 
ENDROOT
TORSDOF 0
ENDMDL
