MODEL 1
REMARK minimizedAffinity 5.45165253
REMARK minimizedRMSD -1
REMARK  0 active torsions:
REMARK  status: ('A' for Active; 'I' for Inactive)
ROOT
ATOM      1  C2' OXE d   1       0.689   2.492   3.380  0.00  0.00     0.078 C 
ATOM      2  C1' OXE d   1      -1.962   3.182   3.996  0.00  0.00     0.078 C 
ATOM      3  C1  OXE d   1      -1.729   2.259   2.826  0.00  0.00    -0.078 A 
ATOM      4  C2  OXE d   1      -0.426   1.964   2.503  0.00  0.00    -0.078 A 
ATOM      5  C3  OXE d   1      -0.157   1.075   1.467  0.00  0.00     0.003 A 
ATOM      6  C4  OXE d   1      -1.193   0.599   0.654  0.00  0.00    -0.002 A 
ATOM      7  C5  OXE d   1      -2.525   0.919   0.941  0.00  0.00    -0.002 A 
ATOM      8  C6  OXE d   1      -2.812   1.711   2.047  0.00  0.00     0.003 A 
ENDROOT
TORSDOF 0
ENDMDL
