MODEL 1
REMARK minimizedAffinity 3.88864779
REMARK minimizedRMSD -1
REMARK  0 active torsions:
REMARK  status: ('A' for Active; 'I' for Inactive)
ROOT
ATOM      1  C2' OXE d   1      -5.987   1.917   2.168  0.00  0.00     0.078 C 
ATOM      2  C1' OXE d   1      -5.965  -0.890   2.208  0.00  0.00     0.078 C 
ATOM      3  C1  OXE d   1      -5.974  -0.168   3.532  0.00  0.00    -0.078 A 
ATOM      4  C2  OXE d   1      -5.938   1.206   3.503  0.00  0.00    -0.078 A 
ATOM      5  C3  OXE d   1      -6.000   1.922   4.695  0.00  0.00     0.003 A 
ATOM      6  C4  OXE d   1      -5.944   1.257   5.925  0.00  0.00    -0.002 A 
ATOM      7  C5  OXE d   1      -5.941  -0.141   5.977  0.00  0.00    -0.002 A 
ATOM      8  C6  OXE d   1      -5.998  -0.867   4.793  0.00  0.00     0.003 A 
ENDROOT
TORSDOF 0
ENDMDL
