MODEL 1
REMARK minimizedAffinity 5.73519135
REMARK minimizedRMSD -1
REMARK  0 active torsions:
REMARK  status: ('A' for Active; 'I' for Inactive)
ROOT
ATOM      1  C2' OXE d   1      -2.971  -1.492   0.359  0.00  0.00     0.078 C 
ATOM      2  C1' OXE d   1      -2.907   1.314   0.308  0.00  0.00     0.078 C 
ATOM      3  C1  OXE d   1      -1.704   0.593   0.863  0.00  0.00    -0.078 A 
ATOM      4  C2  OXE d   1      -1.763  -0.778   0.927  0.00  0.00    -0.078 A 
ATOM      5  C3  OXE d   1      -0.659  -1.495   1.379  0.00  0.00     0.003 A 
ATOM      6  C4  OXE d   1       0.450  -0.827   1.912  0.00  0.00    -0.002 A 
ATOM      7  C5  OXE d   1       0.514   0.570   1.893  0.00  0.00    -0.002 A 
ATOM      8  C6  OXE d   1      -0.535   1.293   1.334  0.00  0.00     0.003 A 
ENDROOT
TORSDOF 0
ENDMDL
