MODEL 1
REMARK minimizedAffinity 5.76515293
REMARK minimizedRMSD -1
REMARK  0 active torsions:
REMARK  status: ('A' for Active; 'I' for Inactive)
ROOT
ATOM      1  C2' OXE d   1      -3.606  -3.373   0.006  0.00  0.00     0.078 C 
ATOM      2  C1' OXE d   1      -1.367  -1.753   0.503  0.00  0.00     0.078 C 
ATOM      3  C1  OXE d   1      -1.214  -3.242   0.689  0.00  0.00    -0.078 A 
ATOM      4  C2  OXE d   1      -2.327  -4.022   0.489  0.00  0.00    -0.078 A 
ATOM      5  C3  OXE d   1      -2.227  -5.407   0.594  0.00  0.00     0.003 A 
ATOM      6  C4  OXE d   1      -1.043  -5.999   1.052  0.00  0.00    -0.002 A 
ATOM      7  C5  OXE d   1       0.091  -5.219   1.300  0.00  0.00    -0.002 A 
ATOM      8  C6  OXE d   1       0.035  -3.846   1.083  0.00  0.00     0.003 A 
ENDROOT
TORSDOF 0
ENDMDL
