MODEL 1
REMARK minimizedAffinity 10.1782808
REMARK minimizedRMSD -1
REMARK  0 active torsions:
REMARK  status: ('A' for Active; 'I' for Inactive)
ROOT
ATOM      1  C2' OXE d   1      -1.612   0.333   0.506  0.00  0.00     0.078 C 
ATOM      2  C1' OXE d   1      -3.461   1.735   2.086  0.00  0.00     0.078 C 
ATOM      3  C1  OXE d   1      -1.995   2.014   2.304  0.00  0.00    -0.078 A 
ATOM      4  C2  OXE d   1      -1.095   1.290   1.559  0.00  0.00    -0.078 A 
ATOM      5  C3  OXE d   1       0.267   1.548   1.682  0.00  0.00     0.003 A 
ATOM      6  C4  OXE d   1       0.736   2.427   2.665  0.00  0.00    -0.002 A 
ATOM      7  C5  OXE d   1      -0.161   3.146   3.462  0.00  0.00    -0.002 A 
ATOM      8  C6  OXE d   1      -1.528   2.983   3.265  0.00  0.00     0.003 A 
ENDROOT
TORSDOF 0
ENDMDL
