MODEL 1
REMARK minimizedAffinity 7.25229406
REMARK minimizedRMSD -1
REMARK  0 active torsions:
REMARK  status: ('A' for Active; 'I' for Inactive)
ROOT
ATOM      1  C2' OXE d   1      -5.831  -0.966   1.991  0.00  0.00     0.078 C 
ATOM      2  C1' OXE d   1      -5.994   1.823   2.265  0.00  0.00     0.078 C 
ATOM      3  C1  OXE d   1      -5.955   0.994   3.524  0.00  0.00    -0.078 A 
ATOM      4  C2  OXE d   1      -5.923  -0.372   3.381  0.00  0.00    -0.078 A 
ATOM      5  C3  OXE d   1      -5.831  -1.182   4.509  0.00  0.00     0.003 A 
ATOM      6  C4  OXE d   1      -5.926  -0.626   5.790  0.00  0.00    -0.002 A 
ATOM      7  C5  OXE d   1      -6.000   0.761   5.959  0.00  0.00    -0.002 A 
ATOM      8  C6  OXE d   1      -5.973   1.586   4.839  0.00  0.00     0.003 A 
ENDROOT
TORSDOF 0
ENDMDL
