MODEL 1
REMARK minimizedAffinity 10.8761454
REMARK minimizedRMSD -1
REMARK  0 active torsions:
REMARK  status: ('A' for Active; 'I' for Inactive)
ROOT
ATOM      1  C2' OXE d   1       6.000   5.236  -0.757  0.00  0.00     0.078 C 
ATOM      2  C1' OXE d   1       3.264   5.822  -0.524  0.00  0.00     0.078 C 
ATOM      3  C1  OXE d   1       3.718   4.427  -0.170  0.00  0.00    -0.078 A 
ATOM      4  C2  OXE d   1       5.051   4.136  -0.332  0.00  0.00    -0.078 A 
ATOM      5  C3  OXE d   1       5.532   2.882   0.032  0.00  0.00     0.003 A 
ATOM      6  C4  OXE d   1       4.646   1.867   0.415  0.00  0.00    -0.002 A 
ATOM      7  C5  OXE d   1       3.279   2.131   0.548  0.00  0.00    -0.002 A 
ATOM      8  C6  OXE d   1       2.806   3.415   0.301  0.00  0.00     0.003 A 
ENDROOT
TORSDOF 0
ENDMDL
