MODEL 1
REMARK minimizedAffinity 12.3538408
REMARK minimizedRMSD -1
REMARK  0 active torsions:
REMARK  status: ('A' for Active; 'I' for Inactive)
ROOT
ATOM      1  C2' OXE d   1       3.358  -1.134  -1.800  0.00  0.00     0.078 C 
ATOM      2  C1' OXE d   1       5.163  -0.165  -3.719  0.00  0.00     0.078 C 
ATOM      3  C1  OXE d   1       3.871  -0.769  -4.211  0.00  0.00    -0.078 A 
ATOM      4  C2  OXE d   1       3.014  -1.283  -3.267  0.00  0.00    -0.078 A 
ATOM      5  C3  OXE d   1       1.785  -1.801  -3.662  0.00  0.00     0.003 A 
ATOM      6  C4  OXE d   1       1.479  -1.944  -5.021  0.00  0.00    -0.002 A 
ATOM      7  C5  OXE d   1       2.356  -1.464  -6.000  0.00  0.00    -0.002 A 
ATOM      8  C6  OXE d   1       3.534  -0.836  -5.611  0.00  0.00     0.003 A 
ENDROOT
TORSDOF 0
ENDMDL
