MODEL 1
REMARK minimizedAffinity -5.12668228
REMARK minimizedRMSD -1
REMARK  1 active torsions:
REMARK  status: ('A' for Active; 'I' for Inactive)
REMARK    1  A    between atoms: C1_2  and  C2_3 
ROOT
ATOM      1  C2  UNL d   1       0.355   0.490   0.611  0.00  0.00    -0.076 A 
ATOM      2  C3  UNL d   1       1.045   0.596   1.831  0.00  0.00     0.004 A 
ATOM      3  C4  UNL d   1       1.767   1.745   2.149  0.00  0.00    -0.003 A 
ATOM      4  C5  UNL d   1       1.811   2.807   1.253  0.00  0.00     0.000 A 
ATOM      5  C6  UNL d   1       1.118   2.726   0.045  0.00  0.00     0.000 A 
ATOM      6  C7  UNL d   1       0.371   1.582  -0.284  0.00  0.00    -0.073 A 
ATOM      7  C8  UNL d   1      -0.352   1.546  -1.602  0.00  0.00     0.078 C 
ENDROOT
BRANCH   1   8
ATOM      8  C1  UNL d   1      -0.389  -0.791   0.308  0.00  0.00     0.053 C 
ATOM      9  C   UNL d   1       0.469  -1.802  -0.436  0.00  0.00     0.018 C 
ENDBRANCH   1   8
TORSDOF 1
ENDMDL
