MODEL 1
REMARK minimizedAffinity -1.82566404
REMARK minimizedRMSD -1
REMARK  1 active torsions:
REMARK  status: ('A' for Active; 'I' for Inactive)
REMARK    1  A    between atoms: C1_2  and  C2_3 
ROOT
ATOM      1  C2  UNL d   1      -0.404  -0.964   0.431  0.00  0.00    -0.076 A 
ATOM      2  C3  UNL d   1       0.211  -0.604  -0.781  0.00  0.00     0.004 A 
ATOM      3  C4  UNL d   1       0.542   0.723  -1.051  0.00  0.00    -0.003 A 
ATOM      4  C5  UNL d   1       0.264   1.711  -0.113  0.00  0.00     0.000 A 
ATOM      5  C6  UNL d   1      -0.329   1.369   1.102  0.00  0.00     0.000 A 
ATOM      6  C7  UNL d   1      -0.654   0.034   1.397  0.00  0.00    -0.073 A 
ATOM      7  C8  UNL d   1      -1.298  -0.277   2.720  0.00  0.00     0.078 C 
ENDROOT
BRANCH   1   8
ATOM      8  C1  UNL d   1      -0.765  -2.415   0.657  0.00  0.00     0.053 C 
ATOM      9  C   UNL d   1      -0.600  -3.259  -0.598  0.00  0.00     0.018 C 
ENDBRANCH   1   8
TORSDOF 1
ENDMDL
