MODEL 1
REMARK minimizedAffinity -5.39781523
REMARK minimizedRMSD -1
REMARK  1 active torsions:
REMARK  status: ('A' for Active; 'I' for Inactive)
REMARK    1  A    between atoms: C1_2  and  C2_3 
ROOT
ATOM      1  C2  UNL d   1       0.068  -0.420   0.441  0.00  0.00    -0.076 A 
ATOM      2  C3  UNL d   1       1.064  -1.312   0.008  0.00  0.00     0.004 A 
ATOM      3  C4  UNL d   1       0.944  -2.683   0.227  0.00  0.00    -0.003 A 
ATOM      4  C5  UNL d   1      -0.175  -3.185   0.882  0.00  0.00     0.000 A 
ATOM      5  C6  UNL d   1      -1.181  -2.317   1.303  0.00  0.00     0.000 A 
ATOM      6  C7  UNL d   1      -1.084  -0.934   1.076  0.00  0.00    -0.073 A 
ATOM      7  C8  UNL d   1      -2.196  -0.043   1.557  0.00  0.00     0.078 C 
ENDROOT
BRANCH   1   8
ATOM      8  C1  UNL d   1       0.265   1.059   0.200  0.00  0.00     0.053 C 
ATOM      9  C   UNL d   1      -0.127   1.477  -1.209  0.00  0.00     0.018 C 
ENDBRANCH   1   8
TORSDOF 1
ENDMDL
