MODEL 1
REMARK minimizedAffinity -3.60477495
REMARK minimizedRMSD -1
REMARK  1 active torsions:
REMARK  status: ('A' for Active; 'I' for Inactive)
REMARK    1  A    between atoms: C1_2  and  C2_3 
ROOT
ATOM      1  C2  UNL d   1       1.138   1.348   0.501  0.00  0.00    -0.076 A 
ATOM      2  C3  UNL d   1       1.680   0.502   1.485  0.00  0.00     0.004 A 
ATOM      3  C4  UNL d   1       1.259  -0.821   1.605  0.00  0.00    -0.003 A 
ATOM      4  C5  UNL d   1       0.288  -1.320   0.743  0.00  0.00     0.000 A 
ATOM      5  C6  UNL d   1      -0.248  -0.501  -0.250  0.00  0.00     0.000 A 
ATOM      6  C7  UNL d   1       0.178   0.831  -0.395  0.00  0.00    -0.073 A 
ATOM      7  C8  UNL d   1      -0.438   1.672  -1.479  0.00  0.00     0.078 C 
ENDROOT
BRANCH   1   8
ATOM      8  C1  UNL d   1       1.614   2.781   0.437  0.00  0.00     0.053 C 
ATOM      9  C   UNL d   1       2.169   3.272   1.765  0.00  0.00     0.018 C 
ENDBRANCH   1   8
TORSDOF 1
ENDMDL
