MODEL 1
REMARK minimizedAffinity -4.20343542
REMARK minimizedRMSD -1
REMARK  1 active torsions:
REMARK  status: ('A' for Active; 'I' for Inactive)
REMARK    1  A    between atoms: C1_2  and  C2_3 
ROOT
ATOM      1  C2  UNL d   1       0.261   0.219   0.179  0.00  0.00    -0.076 A 
ATOM      2  C3  UNL d   1      -0.116   0.243   1.532  0.00  0.00     0.004 A 
ATOM      3  C4  UNL d   1      -0.632  -0.893   2.154  0.00  0.00    -0.003 A 
ATOM      4  C5  UNL d   1      -0.777  -2.072   1.431  0.00  0.00     0.000 A 
ATOM      5  C6  UNL d   1      -0.391  -2.119   0.092  0.00  0.00     0.000 A 
ATOM      6  C7  UNL d   1       0.146  -0.987  -0.545  0.00  0.00    -0.073 A 
ATOM      7  C8  UNL d   1       0.540  -1.092  -1.992  0.00  0.00     0.078 C 
ENDROOT
BRANCH   1   8
ATOM      8  C1  UNL d   1       0.789   1.490  -0.449  0.00  0.00     0.053 C 
ATOM      9  C   UNL d   1       1.038   2.586   0.576  0.00  0.00     0.018 C 
ENDBRANCH   1   8
TORSDOF 1
ENDMDL
