MODEL 1
REMARK minimizedAffinity -1.47435224
REMARK minimizedRMSD -1
REMARK  1 active torsions:
REMARK  status: ('A' for Active; 'I' for Inactive)
REMARK    1  A    between atoms: C1_2  and  C2_3 
ROOT
ATOM      1  C2  UNL d   1       0.449  -0.234   0.604  0.00  0.00    -0.076 A 
ATOM      2  C3  UNL d   1       0.866  -1.505   0.172  0.00  0.00     0.004 A 
ATOM      3  C4  UNL d   1       0.831  -1.851  -1.177  0.00  0.00    -0.003 A 
ATOM      4  C5  UNL d   1       0.379  -0.931  -2.117  0.00  0.00     0.000 A 
ATOM      5  C6  UNL d   1      -0.021   0.341  -1.709  0.00  0.00     0.000 A 
ATOM      6  C7  UNL d   1       0.023   0.711  -0.354  0.00  0.00    -0.073 A 
ATOM      7  C8  UNL d   1      -0.426   2.094   0.032  0.00  0.00     0.078 C 
ENDROOT
BRANCH   1   8
ATOM      8  C1  UNL d   1       0.484   0.076   2.084  0.00  0.00     0.053 C 
ATOM      9  C   UNL d   1      -0.808  -0.306   2.789  0.00  0.00     0.018 C 
ENDBRANCH   1   8
TORSDOF 1
ENDMDL
