MODEL 1
REMARK minimizedAffinity -3.65148258
REMARK minimizedRMSD -1
REMARK  1 active torsions:
REMARK  status: ('A' for Active; 'I' for Inactive)
REMARK    1  A    between atoms: C1_2  and  C2_3 
ROOT
ATOM      1  C2  UNL d   1       0.059  -0.877  -0.363  0.00  0.00    -0.076 A 
ATOM      2  C3  UNL d   1      -0.513  -1.115   0.898  0.00  0.00     0.004 A 
ATOM      3  C4  UNL d   1      -1.053  -2.360   1.217  0.00  0.00    -0.003 A 
ATOM      4  C5  UNL d   1      -1.027  -3.387   0.281  0.00  0.00     0.000 A 
ATOM      5  C6  UNL d   1      -0.447  -3.174  -0.969  0.00  0.00     0.000 A 
ATOM      6  C7  UNL d   1       0.115  -1.930  -1.302  0.00  0.00    -0.073 A 
ATOM      7  C8  UNL d   1       0.722  -1.753  -2.667  0.00  0.00     0.078 C 
ENDROOT
BRANCH   1   8
ATOM      8  C1  UNL d   1       0.604   0.502  -0.663  0.00  0.00     0.053 C 
ATOM      9  C   UNL d   1       0.321   1.495   0.454  0.00  0.00     0.018 C 
ENDBRANCH   1   8
TORSDOF 1
ENDMDL
