MODEL 1
REMARK minimizedAffinity -0.49043566
REMARK minimizedRMSD -1
REMARK  1 active torsions:
REMARK  status: ('A' for Active; 'I' for Inactive)
REMARK    1  A    between atoms: C1_2  and  C2_3 
ROOT
ATOM      1  C2  UNL d   1       0.185   1.303   0.377  0.00  0.00    -0.076 A 
ATOM      2  C3  UNL d   1       0.271   0.556   1.565  0.00  0.00     0.004 A 
ATOM      3  C4  UNL d   1       0.004  -0.812   1.573  0.00  0.00    -0.003 A 
ATOM      4  C5  UNL d   1      -0.352  -1.456   0.393  0.00  0.00     0.000 A 
ATOM      5  C6  UNL d   1      -0.424  -0.734  -0.798  0.00  0.00     0.000 A 
ATOM      6  C7  UNL d   1      -0.143   0.642  -0.827  0.00  0.00    -0.073 A 
ATOM      7  C8  UNL d   1      -0.243   1.372  -2.138  0.00  0.00     0.078 C 
ENDROOT
BRANCH   1   8
ATOM      8  C1  UNL d   1       0.459   2.789   0.434  0.00  0.00     0.053 C 
ATOM      9  C   UNL d   1       1.922   3.122   0.186  0.00  0.00     0.018 C 
ENDBRANCH   1   8
TORSDOF 1
ENDMDL
