MODEL 1
REMARK minimizedAffinity -3.17615294
REMARK minimizedRMSD -1
REMARK  1 active torsions:
REMARK  status: ('A' for Active; 'I' for Inactive)
REMARK    1  A    between atoms: C1_2  and  C2_3 
ROOT
ATOM      1  C2  UNL d   1       0.350  -1.606  -0.110  0.00  0.00    -0.076 A 
ATOM      2  C3  UNL d   1      -0.135  -0.830   0.957  0.00  0.00     0.004 A 
ATOM      3  C4  UNL d   1      -0.425   0.522   0.787  0.00  0.00    -0.003 A 
ATOM      4  C5  UNL d   1      -0.235   1.121  -0.454  0.00  0.00     0.000 A 
ATOM      5  C6  UNL d   1       0.229   0.362  -1.528  0.00  0.00     0.000 A 
ATOM      6  C7  UNL d   1       0.510  -1.006  -1.378  0.00  0.00    -0.073 A 
ATOM      7  C8  UNL d   1       1.013  -1.775  -2.569  0.00  0.00     0.078 C 
ENDROOT
BRANCH   1   8
ATOM      8  C1  UNL d   1       0.672  -3.062   0.141  0.00  0.00     0.053 C 
ATOM      9  C   UNL d   1      -0.515  -3.835   0.695  0.00  0.00     0.018 C 
ENDBRANCH   1   8
TORSDOF 1
ENDMDL
