MODEL 1
REMARK minimizedAffinity -3.95034075
REMARK minimizedRMSD -1
REMARK  1 active torsions:
REMARK  status: ('A' for Active; 'I' for Inactive)
REMARK    1  A    between atoms: C1_2  and  C2_3 
ROOT
ATOM      1  C2  UNL d   1      -0.312  -0.243  -0.085  0.00  0.00    -0.076 A 
ATOM      2  C3  UNL d   1      -0.670  -0.197   1.273  0.00  0.00     0.004 A 
ATOM      3  C4  UNL d   1      -0.947  -1.365   1.982  0.00  0.00    -0.003 A 
ATOM      4  C5  UNL d   1      -0.871  -2.598   1.344  0.00  0.00     0.000 A 
ATOM      5  C6  UNL d   1      -0.500  -2.664   0.001  0.00  0.00     0.000 A 
ATOM      6  C7  UNL d   1      -0.201  -1.497  -0.724  0.00  0.00    -0.073 A 
ATOM      7  C8  UNL d   1       0.188  -1.626  -2.171  0.00  0.00     0.078 C 
ENDROOT
BRANCH   1   8
ATOM      8  C1  UNL d   1      -0.049   1.058  -0.810  0.00  0.00     0.053 C 
ATOM      9  C   UNL d   1       0.673   2.074   0.061  0.00  0.00     0.018 C 
ENDBRANCH   1   8
TORSDOF 1
ENDMDL
