MODEL 1
REMARK minimizedAffinity -5.57752752
REMARK minimizedRMSD -1
REMARK  1 active torsions:
REMARK  status: ('A' for Active; 'I' for Inactive)
REMARK    1  A    between atoms: C1_2  and  C2_3 
ROOT
ATOM      1  C2  UNL d   1       0.372  -1.425   0.032  0.00  0.00    -0.076 A 
ATOM      2  C3  UNL d   1       1.363  -0.482  -0.288  0.00  0.00     0.004 A 
ATOM      3  C4  UNL d   1       1.206   0.864   0.039  0.00  0.00    -0.003 A 
ATOM      4  C5  UNL d   1       0.054   1.288   0.694  0.00  0.00     0.000 A 
ATOM      5  C6  UNL d   1      -0.932   0.362   1.035  0.00  0.00     0.000 A 
ATOM      6  C7  UNL d   1      -0.781  -1.000   0.726  0.00  0.00    -0.073 A 
ATOM      7  C8  UNL d   1      -1.879  -1.954   1.112  0.00  0.00     0.078 C 
ENDROOT
BRANCH   1   8
ATOM      8  C1  UNL d   1       0.586  -2.866  -0.373  0.00  0.00     0.053 C 
ATOM      9  C   UNL d   1       0.373  -3.091  -1.862  0.00  0.00     0.018 C 
ENDBRANCH   1   8
TORSDOF 1
ENDMDL
