MODEL 1
REMARK minimizedAffinity -3.78551531
REMARK minimizedRMSD -1
REMARK  1 active torsions:
REMARK  status: ('A' for Active; 'I' for Inactive)
REMARK    1  A    between atoms: C1_2  and  C2_3 
ROOT
ATOM      1  C2  UNL d   1       1.445   0.387   0.319  0.00  0.00    -0.076 A 
ATOM      2  C3  UNL d   1       1.145  -0.043  -0.985  0.00  0.00     0.004 A 
ATOM      3  C4  UNL d   1       0.527  -1.272  -1.211  0.00  0.00    -0.003 A 
ATOM      4  C5  UNL d   1       0.198  -2.090  -0.135  0.00  0.00     0.000 A 
ATOM      5  C6  UNL d   1       0.473  -1.671   1.166  0.00  0.00     0.000 A 
ATOM      6  C7  UNL d   1       1.081  -0.428   1.412  0.00  0.00    -0.073 A 
ATOM      7  C8  UNL d   1       1.360  -0.029   2.835  0.00  0.00     0.078 C 
ENDROOT
BRANCH   1   8
ATOM      8  C1  UNL d   1       2.141   1.718   0.500  0.00  0.00     0.053 C 
ATOM      9  C   UNL d   1       1.312   2.884  -0.017  0.00  0.00     0.018 C 
ENDBRANCH   1   8
TORSDOF 1
ENDMDL
