MODEL 1
REMARK minimizedAffinity -2.54658604
REMARK minimizedRMSD -1
REMARK  0 active torsions:
REMARK  status: ('A' for Active; 'I' for Inactive)
ROOT
ATOM      1  O1  BZF d   1       5.000  -0.996  -3.851  0.00  0.00    -0.204 OA
ATOM      2  C2  BZF d   1       5.489   0.292  -3.748  0.00  0.00     0.174 A 
ATOM      3  C3  BZF d   1       4.482   1.175  -3.590  0.00  0.00    -0.012 A 
ATOM      4  C3A BZF d   1       3.295   0.380  -3.502  0.00  0.00    -0.107 A 
ATOM      5  C4  BZF d   1       1.975   0.682  -3.327  0.00  0.00     0.055 A 
ATOM      6  C5  BZF d   1       1.058  -0.321  -3.360  0.00  0.00    -0.016 A 
ATOM      7  C6  BZF d   1       1.426  -1.634  -3.571  0.00  0.00     0.022 A 
ATOM      8  C7  BZF d   1       2.724  -1.982  -3.746  0.00  0.00     0.029 A 
ATOM      9  C7A BZF d   1       3.656  -0.975  -3.680  0.00  0.00     0.058 A 
ENDROOT
TORSDOF 0
ENDMDL
