MODEL 1
REMARK minimizedAffinity -5.12653017
REMARK minimizedRMSD -1
REMARK  0 active torsions:
REMARK  status: ('A' for Active; 'I' for Inactive)
ROOT
ATOM      1  O1  BZF d   1       1.245   1.488   3.374  0.00  0.00    -0.204 OA
ATOM      2  C2  BZF d   1       0.829   2.564   4.134  0.00  0.00     0.174 A 
ATOM      3  C3  BZF d   1      -0.515   2.589   4.233  0.00  0.00    -0.012 A 
ATOM      4  C3A BZF d   1      -0.964   1.407   3.564  0.00  0.00    -0.107 A 
ATOM      5  C4  BZF d   1      -2.198   0.866   3.340  0.00  0.00     0.055 A 
ATOM      6  C5  BZF d   1      -2.298  -0.262   2.589  0.00  0.00    -0.016 A 
ATOM      7  C6  BZF d   1      -1.187  -0.873   2.044  0.00  0.00     0.022 A 
ATOM      8  C7  BZF d   1       0.058  -0.376   2.243  0.00  0.00     0.029 A 
ATOM      9  C7A BZF d   1       0.165   0.745   3.029  0.00  0.00     0.058 A 
ENDROOT
TORSDOF 0
ENDMDL
