MODEL 1
REMARK minimizedAffinity -6.15230322
REMARK minimizedRMSD -1
REMARK  0 active torsions:
REMARK  status: ('A' for Active; 'I' for Inactive)
ROOT
ATOM      1  O1  BZF d   1       0.695  -0.227   0.277  0.00  0.00    -0.204 OA
ATOM      2  C2  BZF d   1       0.285  -0.039  -1.029  0.00  0.00     0.174 A 
ATOM      3  C3  BZF d   1      -1.056   0.092  -1.095  0.00  0.00    -0.012 A 
ATOM      4  C3A BZF d   1      -1.504   0.071   0.264  0.00  0.00    -0.107 A 
ATOM      5  C4  BZF d   1      -2.733   0.176   0.849  0.00  0.00     0.055 A 
ATOM      6  C5  BZF d   1      -2.836   0.043   2.197  0.00  0.00    -0.016 A 
ATOM      7  C6  BZF d   1      -1.733  -0.200   2.990  0.00  0.00     0.022 A 
ATOM      8  C7  BZF d   1      -0.492  -0.307   2.455  0.00  0.00     0.029 A 
ATOM      9  C7A BZF d   1      -0.380  -0.140   1.097  0.00  0.00     0.058 A 
ENDROOT
TORSDOF 0
ENDMDL
