MODEL 1
REMARK minimizedAffinity -0.364022017
REMARK minimizedRMSD -1
REMARK  0 active torsions:
REMARK  status: ('A' for Active; 'I' for Inactive)
ROOT
ATOM      1  O1  BZF d   1       0.367   0.388   2.523  0.00  0.00    -0.204 OA
ATOM      2  C2  BZF d   1      -0.691  -0.023   3.311  0.00  0.00     0.174 A 
ATOM      3  C3  BZF d   1      -1.719  -0.446   2.548  0.00  0.00    -0.012 A 
ATOM      4  C3A BZF d   1      -1.242  -0.377   1.201  0.00  0.00    -0.107 A 
ATOM      5  C4  BZF d   1      -1.798  -0.681  -0.009  0.00  0.00     0.055 A 
ATOM      6  C5  BZF d   1      -1.092  -0.430  -1.142  0.00  0.00    -0.016 A 
ATOM      7  C6  BZF d   1       0.169   0.129  -1.103  0.00  0.00     0.022 A 
ATOM      8  C7  BZF d   1       0.764   0.443   0.073  0.00  0.00     0.029 A 
ATOM      9  C7A BZF d   1       0.066   0.160   1.222  0.00  0.00     0.058 A 
ENDROOT
TORSDOF 0
ENDMDL
