MODEL 1
REMARK minimizedAffinity -3.91473651
REMARK minimizedRMSD -1
REMARK  0 active torsions:
REMARK  status: ('A' for Active; 'I' for Inactive)
ROOT
ATOM      1  O1  BZF d   1       4.919  -0.667  -4.259  0.00  0.00    -0.204 OA
ATOM      2  C2  BZF d   1       5.260   0.663  -4.109  0.00  0.00     0.174 A 
ATOM      3  C3  BZF d   1       4.203   1.383  -3.681  0.00  0.00    -0.012 A 
ATOM      4  C3A BZF d   1       3.159   0.428  -3.468  0.00  0.00    -0.107 A 
ATOM      5  C4  BZF d   1       1.870   0.528  -3.028  0.00  0.00     0.055 A 
ATOM      6  C5  BZF d   1       1.092  -0.586  -3.004  0.00  0.00    -0.016 A 
ATOM      7  C6  BZF d   1       1.567  -1.813  -3.416  0.00  0.00     0.022 A 
ATOM      8  C7  BZF d   1       2.841  -1.963  -3.856  0.00  0.00     0.029 A 
ATOM      9  C7A BZF d   1       3.640  -0.846  -3.850  0.00  0.00     0.058 A 
ENDROOT
TORSDOF 0
ENDMDL
