MODEL 1
REMARK minimizedAffinity 1.41081774
REMARK minimizedRMSD -1
REMARK  0 active torsions:
REMARK  status: ('A' for Active; 'I' for Inactive)
ROOT
ATOM      1  O1  BZF d   1      -1.123  -0.188  -2.203  0.00  0.00    -0.204 OA
ATOM      2  C2  BZF d   1       0.160  -0.522  -2.589  0.00  0.00     0.174 A 
ATOM      3  C3  BZF d   1       0.944  -0.733  -1.512  0.00  0.00    -0.012 A 
ATOM      4  C3A BZF d   1       0.074  -0.608  -0.383  0.00  0.00    -0.107 A 
ATOM      5  C4  BZF d   1       0.262  -0.725   0.965  0.00  0.00     0.055 A 
ATOM      6  C5  BZF d   1      -0.778  -0.469   1.801  0.00  0.00    -0.016 A 
ATOM      7  C6  BZF d   1      -2.017  -0.091   1.325  0.00  0.00     0.022 A 
ATOM      8  C7  BZF d   1      -2.252   0.033  -0.004  0.00  0.00     0.029 A 
ATOM      9  C7A BZF d   1      -1.212  -0.256  -0.853  0.00  0.00     0.058 A 
ENDROOT
TORSDOF 0
ENDMDL
