MODEL 1
REMARK minimizedAffinity -5.12532091
REMARK minimizedRMSD -1
REMARK  0 active torsions:
REMARK  status: ('A' for Active; 'I' for Inactive)
ROOT
ATOM      1  O1  BZF d   1       0.771   0.769  -0.434  0.00  0.00    -0.204 OA
ATOM      2  C2  BZF d   1      -0.254   0.821  -1.358  0.00  0.00     0.174 A 
ATOM      3  C3  BZF d   1      -1.394   0.323  -0.837  0.00  0.00    -0.012 A 
ATOM      4  C3A BZF d   1      -1.084   0.022   0.527  0.00  0.00    -0.107 A 
ATOM      5  C4  BZF d   1      -1.812  -0.485   1.565  0.00  0.00     0.055 A 
ATOM      6  C5  BZF d   1      -1.192  -0.727   2.750  0.00  0.00    -0.016 A 
ATOM      7  C6  BZF d   1       0.153  -0.480   2.930  0.00  0.00     0.022 A 
ATOM      8  C7  BZF d   1       0.916   0.028   1.931  0.00  0.00     0.029 A 
ATOM      9  C7A BZF d   1       0.285   0.304   0.742  0.00  0.00     0.058 A 
ENDROOT
TORSDOF 0
ENDMDL
