MODEL 1
REMARK minimizedAffinity -1.77086914
REMARK minimizedRMSD -1
REMARK  0 active torsions:
REMARK  status: ('A' for Active; 'I' for Inactive)
ROOT
ATOM      1  O1  BZF d   1       0.765   0.789  -0.648  0.00  0.00    -0.204 OA
ATOM      2  C2  BZF d   1      -0.348   0.729  -1.464  0.00  0.00     0.174 A 
ATOM      3  C3  BZF d   1      -1.373   0.122  -0.832  0.00  0.00    -0.012 A 
ATOM      4  C3A BZF d   1      -0.898  -0.135   0.493  0.00  0.00    -0.107 A 
ATOM      5  C4  BZF d   1      -1.462  -0.705   1.599  0.00  0.00     0.055 A 
ATOM      6  C5  BZF d   1      -0.705  -0.873   2.715  0.00  0.00    -0.016 A 
ATOM      7  C6  BZF d   1       0.620  -0.489   2.758  0.00  0.00     0.022 A 
ATOM      8  C7  BZF d   1       1.222   0.085   1.688  0.00  0.00     0.029 A 
ATOM      9  C7A BZF d   1       0.450   0.287   0.570  0.00  0.00     0.058 A 
ENDROOT
TORSDOF 0
ENDMDL
