MODEL 1
REMARK minimizedAffinity 6.3117404
REMARK minimizedRMSD -1
REMARK  0 active torsions:
REMARK  status: ('A' for Active; 'I' for Inactive)
ROOT
ATOM      1  O1  BZF d   1      -1.246  -0.287   1.160  0.00  0.00    -0.204 OA
ATOM      2  C2  BZF d   1      -0.776  -0.546   2.433  0.00  0.00     0.174 A 
ATOM      3  C3  BZF d   1       0.456  -0.025   2.604  0.00  0.00    -0.012 A 
ATOM      4  C3A BZF d   1       0.739   0.677   1.390  0.00  0.00    -0.107 A 
ATOM      5  C4  BZF d   1       1.804   1.415   0.958  0.00  0.00     0.055 A 
ATOM      6  C5  BZF d   1       1.797   1.906  -0.309  0.00  0.00    -0.016 A 
ATOM      7  C6  BZF d   1       0.746   1.674  -1.172  0.00  0.00     0.022 A 
ATOM      8  C7  BZF d   1      -0.335   0.953  -0.787  0.00  0.00     0.029 A 
ATOM      9  C7A BZF d   1      -0.346   0.483   0.504  0.00  0.00     0.058 A 
ENDROOT
TORSDOF 0
ENDMDL
