MODEL 1
REMARK minimizedAffinity 5.16750669
REMARK minimizedRMSD -1
REMARK  0 active torsions:
REMARK  status: ('A' for Active; 'I' for Inactive)
ROOT
ATOM      1  O1  BZF d   1       0.472   2.004  -0.562  0.00  0.00    -0.204 OA
ATOM      2  C2  BZF d   1       1.509   2.681   0.050  0.00  0.00     0.174 A 
ATOM      3  C3  BZF d   1       1.693   2.235   1.310  0.00  0.00    -0.012 A 
ATOM      4  C3A BZF d   1       0.770   1.153   1.465  0.00  0.00    -0.107 A 
ATOM      5  C4  BZF d   1       0.489   0.298   2.492  0.00  0.00     0.055 A 
ATOM      6  C5  BZF d   1      -0.521  -0.599   2.347  0.00  0.00    -0.016 A 
ATOM      7  C6  BZF d   1      -1.272  -0.667   1.193  0.00  0.00     0.022 A 
ATOM      8  C7  BZF d   1      -1.028   0.157   0.144  0.00  0.00     0.029 A 
ATOM      9  C7A BZF d   1       0.014   1.043   0.275  0.00  0.00     0.058 A 
ENDROOT
TORSDOF 0
ENDMDL
