MODEL 1
REMARK minimizedAffinity -5.57124853
REMARK minimizedRMSD -1
REMARK  0 active torsions:
REMARK  status: ('A' for Active; 'I' for Inactive)
ROOT
ATOM      1  O1  BZF d   1      -1.362   0.502  -0.383  0.00  0.00    -0.204 OA
ATOM      2  C2  BZF d   1      -0.002   0.469  -0.625  0.00  0.00     0.174 A 
ATOM      3  C3  BZF d   1       0.676   0.156   0.498  0.00  0.00    -0.012 A 
ATOM      4  C3A BZF d   1      -0.328  -0.109   1.483  0.00  0.00    -0.107 A 
ATOM      5  C4  BZF d   1      -0.280  -0.486   2.794  0.00  0.00     0.055 A 
ATOM      6  C5  BZF d   1      -1.440  -0.589   3.494  0.00  0.00    -0.016 A 
ATOM      7  C6  BZF d   1      -2.664  -0.318   2.917  0.00  0.00     0.022 A 
ATOM      8  C7  BZF d   1      -2.762   0.054   1.617  0.00  0.00     0.029 A 
ATOM      9  C7A BZF d   1      -1.594   0.127   0.898  0.00  0.00     0.058 A 
ENDROOT
TORSDOF 0
ENDMDL
