MODEL 1
REMARK minimizedAffinity -5.36796951
REMARK minimizedRMSD -1
REMARK  0 active torsions:
REMARK  status: ('A' for Active; 'I' for Inactive)
ROOT
ATOM      1  O1  BZF d   1       4.277  -1.159  -4.359  0.00  0.00    -0.204 OA
ATOM      2  C2  BZF d   1       4.815   0.084  -4.087  0.00  0.00     0.174 A 
ATOM      3  C3  BZF d   1       3.874   0.916  -3.596  0.00  0.00    -0.012 A 
ATOM      4  C3A BZF d   1       2.693   0.117  -3.472  0.00  0.00    -0.107 A 
ATOM      5  C4  BZF d   1       1.428   0.373  -3.026  0.00  0.00     0.055 A 
ATOM      6  C5  BZF d   1       0.489  -0.606  -3.105  0.00  0.00    -0.016 A 
ATOM      7  C6  BZF d   1       0.779  -1.850  -3.627  0.00  0.00     0.022 A 
ATOM      8  C7  BZF d   1       2.021  -2.153  -4.078  0.00  0.00     0.029 A 
ATOM      9  C7A BZF d   1       2.980  -1.176  -3.969  0.00  0.00     0.058 A 
ENDROOT
TORSDOF 0
ENDMDL
