MODEL 1
REMARK minimizedAffinity 1.01167166
REMARK minimizedRMSD -1
REMARK  0 active torsions:
REMARK  status: ('A' for Active; 'I' for Inactive)
ROOT
ATOM      1  O1  BZF d   1      -1.495   0.392  -0.340  0.00  0.00    -0.204 OA
ATOM      2  C2  BZF d   1      -1.129  -0.442  -1.379  0.00  0.00     0.174 A 
ATOM      3  C3  BZF d   1       0.052  -1.040  -1.119  0.00  0.00    -0.012 A 
ATOM      4  C3A BZF d   1       0.402  -0.621   0.204  0.00  0.00    -0.107 A 
ATOM      5  C4  BZF d   1       1.459  -0.893   1.026  0.00  0.00     0.055 A 
ATOM      6  C5  BZF d   1       1.539  -0.265   2.228  0.00  0.00    -0.016 A 
ATOM      7  C6  BZF d   1       0.585   0.644   2.638  0.00  0.00     0.022 A 
ATOM      8  C7  BZF d   1      -0.484   0.942   1.859  0.00  0.00     0.029 A 
ATOM      9  C7A BZF d   1      -0.585   0.284   0.657  0.00  0.00     0.058 A 
ENDROOT
TORSDOF 0
ENDMDL
