MODEL 1
REMARK minimizedAffinity 1.14425409
REMARK minimizedRMSD -1
REMARK  0 active torsions:
REMARK  status: ('A' for Active; 'I' for Inactive)
ROOT
ATOM      1  O1  BZF d   1      -2.359  -0.888   2.800  0.00  0.00    -0.204 OA
ATOM      2  C2  BZF d   1      -3.103   0.083   2.159  0.00  0.00     0.174 A 
ATOM      3  C3  BZF d   1      -2.299   1.016   1.610  0.00  0.00    -0.012 A 
ATOM      4  C3A BZF d   1      -0.966   0.552   1.848  0.00  0.00    -0.107 A 
ATOM      5  C4  BZF d   1       0.269   1.039   1.527  0.00  0.00     0.055 A 
ATOM      6  C5  BZF d   1       1.373   0.383   1.971  0.00  0.00    -0.016 A 
ATOM      7  C6  BZF d   1       1.279  -0.757   2.741  0.00  0.00     0.022 A 
ATOM      8  C7  BZF d   1       0.076  -1.281   3.080  0.00  0.00     0.029 A 
ATOM      9  C7A BZF d   1      -1.041  -0.639   2.605  0.00  0.00     0.058 A 
ENDROOT
TORSDOF 0
ENDMDL
