MODEL 1
REMARK minimizedAffinity 2.15986657
REMARK minimizedRMSD -1
REMARK  0 active torsions:
REMARK  status: ('A' for Active; 'I' for Inactive)
ROOT
ATOM      1  O1  BZF d   1       0.829  -1.235   3.277  0.00  0.00    -0.204 OA
ATOM      2  C2  BZF d   1      -0.420  -0.670   3.105  0.00  0.00     0.174 A 
ATOM      3  C3  BZF d   1      -0.353   0.398   2.284  0.00  0.00    -0.012 A 
ATOM      4  C3A BZF d   1       1.008   0.452   1.847  0.00  0.00    -0.107 A 
ATOM      5  C4  BZF d   1       1.692   1.282   1.005  0.00  0.00     0.055 A 
ATOM      6  C5  BZF d   1       3.030   1.107   0.848  0.00  0.00    -0.016 A 
ATOM      7  C6  BZF d   1       3.717   0.117   1.519  0.00  0.00     0.022 A 
ATOM      8  C7  BZF d   1       3.081  -0.734   2.361  0.00  0.00     0.029 A 
ATOM      9  C7A BZF d   1       1.723  -0.581   2.497  0.00  0.00     0.058 A 
ENDROOT
TORSDOF 0
ENDMDL
