MODEL 1
REMARK minimizedAffinity 2.05464172
REMARK minimizedRMSD -1
REMARK  0 active torsions:
REMARK  status: ('A' for Active; 'I' for Inactive)
ROOT
ATOM      1  O1  BZF d   1      -3.379  -0.068   1.049  0.00  0.00    -0.204 OA
ATOM      2  C2  BZF d   1      -3.798   1.023   1.785  0.00  0.00     0.174 A 
ATOM      3  C3  BZF d   1      -2.822   1.442   2.617  0.00  0.00    -0.012 A 
ATOM      4  C3A BZF d   1      -1.693   0.614   2.320  0.00  0.00    -0.107 A 
ATOM      5  C4  BZF d   1      -0.418   0.557   2.805  0.00  0.00     0.055 A 
ATOM      6  C5  BZF d   1       0.416  -0.417   2.355  0.00  0.00    -0.016 A 
ATOM      7  C6  BZF d   1       0.008  -1.350   1.425  0.00  0.00     0.022 A 
ATOM      8  C7  BZF d   1      -1.246  -1.330   0.911  0.00  0.00     0.029 A 
ATOM      9  C7A BZF d   1      -2.081  -0.328   1.339  0.00  0.00     0.058 A 
ENDROOT
TORSDOF 0
ENDMDL
