MODEL 1
REMARK minimizedAffinity 4.55803537
REMARK minimizedRMSD -1
REMARK  0 active torsions:
REMARK  status: ('A' for Active; 'I' for Inactive)
ROOT
ATOM      1  O1  BZF d   1      -0.059  -0.151   3.408  0.00  0.00    -0.204 OA
ATOM      2  C2  BZF d   1       0.976  -0.462   2.547  0.00  0.00     0.174 A 
ATOM      3  C3  BZF d   1       0.567  -0.396   1.264  0.00  0.00    -0.012 A 
ATOM      4  C3A BZF d   1      -0.785   0.069   1.323  0.00  0.00    -0.107 A 
ATOM      5  C4  BZF d   1      -1.724   0.350   0.372  0.00  0.00     0.055 A 
ATOM      6  C5  BZF d   1      -2.972   0.715   0.765  0.00  0.00    -0.016 A 
ATOM      7  C6  BZF d   1      -3.318   0.803   2.097  0.00  0.00     0.022 A 
ATOM      8  C7  BZF d   1      -2.419   0.539   3.077  0.00  0.00     0.029 A 
ATOM      9  C7A BZF d   1      -1.147   0.202   2.684  0.00  0.00     0.058 A 
ENDROOT
TORSDOF 0
ENDMDL
