MODEL 1
REMARK minimizedAffinity 1.66947258
REMARK minimizedRMSD -1
REMARK  0 active torsions:
REMARK  status: ('A' for Active; 'I' for Inactive)
ROOT
ATOM      1  O1  BZF d   1       1.897   2.327   1.969  0.00  0.00    -0.204 OA
ATOM      2  C2  BZF d   1       1.933   2.446   3.345  0.00  0.00     0.174 A 
ATOM      3  C3  BZF d   1       0.967   1.697   3.915  0.00  0.00    -0.012 A 
ATOM      4  C3A BZF d   1       0.344   0.999   2.833  0.00  0.00    -0.107 A 
ATOM      5  C4  BZF d   1      -0.673   0.090   2.763  0.00  0.00     0.055 A 
ATOM      6  C5  BZF d   1      -1.089  -0.344   1.544  0.00  0.00    -0.016 A 
ATOM      7  C6  BZF d   1      -0.514   0.113   0.376  0.00  0.00     0.022 A 
ATOM      8  C7  BZF d   1       0.501   1.010   0.395  0.00  0.00     0.029 A 
ATOM      9  C7A BZF d   1       0.946   1.426   1.626  0.00  0.00     0.058 A 
ENDROOT
TORSDOF 0
ENDMDL
