MODEL 1
REMARK minimizedAffinity -2.21262121
REMARK minimizedRMSD -1
REMARK  0 active torsions:
REMARK  status: ('A' for Active; 'I' for Inactive)
ROOT
ATOM      1  C   UNL d   1      -2.611   1.244  -2.943  0.00  0.00     0.023 A 
ATOM      2  C1  UNL d   1      -2.375   2.206  -1.961  0.00  0.00     0.003 A 
ATOM      3  C2  UNL d   1      -1.560   3.305  -2.240  0.00  0.00     0.048 A 
ATOM      4  C3  UNL d   1      -0.986   3.437  -3.504  0.00  0.00     0.023 A 
ATOM      5  C4  UNL d   1      -1.220   2.477  -4.490  0.00  0.00     0.048 A 
ATOM      6  C5  UNL d   1      -2.034   1.379  -4.206  0.00  0.00     0.003 A 
ATOM      7  I   UNL d   1       0.227   5.072  -3.922  0.00  0.00    -0.146 I 
ENDROOT
TORSDOF 0
ENDMDL
