MODEL 1
REMARK minimizedAffinity -1.42584264
REMARK minimizedRMSD -1
REMARK  0 active torsions:
REMARK  status: ('A' for Active; 'I' for Inactive)
ROOT
ATOM      1  C   UNL d   1      -2.972   2.184  -2.384  0.00  0.00     0.023 A 
ATOM      2  C1  UNL d   1      -1.738   2.145  -3.032  0.00  0.00     0.003 A 
ATOM      3  C2  UNL d   1      -0.650   1.511  -2.427  0.00  0.00     0.048 A 
ATOM      4  C3  UNL d   1      -0.805   0.917  -1.175  0.00  0.00     0.023 A 
ATOM      5  C4  UNL d   1      -2.039   0.953  -0.524  0.00  0.00     0.048 A 
ATOM      6  C5  UNL d   1      -3.123   1.589  -1.132  0.00  0.00     0.003 A 
ATOM      7  I   UNL d   1       0.811  -0.029  -0.273  0.00  0.00    -0.146 I 
ENDROOT
TORSDOF 0
ENDMDL
