MODEL 1
REMARK minimizedAffinity -2.56675243
REMARK minimizedRMSD -1
REMARK  0 active torsions:
REMARK  status: ('A' for Active; 'I' for Inactive)
ROOT
ATOM      1  C   UNL d   1      -2.286   1.699  -3.732  0.00  0.00     0.023 A 
ATOM      2  C1  UNL d   1      -3.046   0.845  -2.932  0.00  0.00     0.003 A 
ATOM      3  C2  UNL d   1      -2.758   0.719  -1.572  0.00  0.00     0.048 A 
ATOM      4  C3  UNL d   1      -1.708   1.451  -1.017  0.00  0.00     0.023 A 
ATOM      5  C4  UNL d   1      -0.945   2.307  -1.813  0.00  0.00     0.048 A 
ATOM      6  C5  UNL d   1      -1.237   2.429  -3.173  0.00  0.00     0.003 A 
ATOM      7  I   UNL d   1      -1.277   1.265   1.008  0.00  0.00    -0.146 I 
ENDROOT
TORSDOF 0
ENDMDL
