MODEL 1
REMARK minimizedAffinity -2.8608737
REMARK minimizedRMSD -1
REMARK  0 active torsions:
REMARK  status: ('A' for Active; 'I' for Inactive)
ROOT
ATOM      1  C   UNL d   1       1.633   0.211  -0.628  0.00  0.00     0.023 A 
ATOM      2  C1  UNL d   1       2.161  -0.886   0.054  0.00  0.00     0.003 A 
ATOM      3  C2  UNL d   1       1.424  -1.499   1.069  0.00  0.00     0.048 A 
ATOM      4  C3  UNL d   1       0.159  -1.011   1.397  0.00  0.00     0.023 A 
ATOM      5  C4  UNL d   1      -0.373   0.085   0.718  0.00  0.00     0.048 A 
ATOM      6  C5  UNL d   1       0.367   0.696  -0.296  0.00  0.00     0.003 A 
ATOM      7  I   UNL d   1      -0.939  -1.922   2.908  0.00  0.00    -0.146 I 
ENDROOT
TORSDOF 0
ENDMDL
