MODEL 1
REMARK minimizedAffinity 0.177620187
REMARK minimizedRMSD -1
REMARK  0 active torsions:
REMARK  status: ('A' for Active; 'I' for Inactive)
ROOT
ATOM      1  C   UNL d   1       1.079  -1.197   1.300  0.00  0.00     0.023 A 
ATOM      2  C1  UNL d   1       1.821  -0.694   0.232  0.00  0.00     0.003 A 
ATOM      3  C2  UNL d   1       1.259   0.255  -0.625  0.00  0.00     0.048 A 
ATOM      4  C3  UNL d   1      -0.045   0.697  -0.406  0.00  0.00     0.023 A 
ATOM      5  C4  UNL d   1      -0.791   0.198   0.663  0.00  0.00     0.048 A 
ATOM      6  C5  UNL d   1      -0.225  -0.752   1.516  0.00  0.00     0.003 A 
ATOM      7  I   UNL d   1      -0.883   2.110  -1.679  0.00  0.00    -0.146 I 
ENDROOT
TORSDOF 0
ENDMDL
