MODEL 1
REMARK minimizedAffinity -0.0818355978
REMARK minimizedRMSD -1
REMARK  0 active torsions:
REMARK  status: ('A' for Active; 'I' for Inactive)
ROOT
ATOM      1  C   UNL d   1      -1.118   1.548  -0.577  0.00  0.00     0.023 A 
ATOM      2  C1  UNL d   1      -1.480   0.580   0.361  0.00  0.00     0.003 A 
ATOM      3  C2  UNL d   1      -0.527  -0.320   0.841  0.00  0.00     0.048 A 
ATOM      4  C3  UNL d   1       0.787  -0.246   0.380  0.00  0.00     0.023 A 
ATOM      5  C4  UNL d   1       1.155   0.721  -0.556  0.00  0.00     0.048 A 
ATOM      6  C5  UNL d   1       0.198   1.619  -1.034  0.00  0.00     0.003 A 
ATOM      7  I   UNL d   1       2.208  -1.584   1.094  0.00  0.00    -0.146 I 
ENDROOT
TORSDOF 0
ENDMDL
