MODEL 1
REMARK minimizedAffinity -2.34703732
REMARK minimizedRMSD -1
REMARK  0 active torsions:
REMARK  status: ('A' for Active; 'I' for Inactive)
ROOT
ATOM      1  C   UNL d   1      -0.989  -1.217   2.773  0.00  0.00     0.023 A 
ATOM      2  C1  UNL d   1      -1.545  -0.143   2.077  0.00  0.00     0.003 A 
ATOM      3  C2  UNL d   1      -0.851   0.435   1.013  0.00  0.00     0.048 A 
ATOM      4  C3  UNL d   1       0.399  -0.066   0.648  0.00  0.00     0.023 A 
ATOM      5  C4  UNL d   1       0.959  -1.140   1.340  0.00  0.00     0.048 A 
ATOM      6  C5  UNL d   1       0.261  -1.715   2.405  0.00  0.00     0.003 A 
ATOM      7  I   UNL d   1       1.433   0.794  -0.936  0.00  0.00    -0.146 I 
ENDROOT
TORSDOF 0
ENDMDL
