MODEL 1
REMARK minimizedAffinity -4.01434994
REMARK minimizedRMSD -1
REMARK  0 active torsions:
REMARK  status: ('A' for Active; 'I' for Inactive)
ROOT
ATOM      1  C   UNL d   1       1.173  -1.901   1.915  0.00  0.00     0.023 A 
ATOM      2  C1  UNL d   1      -0.112  -1.440   2.206  0.00  0.00     0.003 A 
ATOM      3  C2  UNL d   1      -0.706  -0.469   1.398  0.00  0.00     0.048 A 
ATOM      4  C3  UNL d   1      -0.010   0.038   0.301  0.00  0.00     0.023 A 
ATOM      5  C4  UNL d   1       1.275  -0.421   0.006  0.00  0.00     0.048 A 
ATOM      6  C5  UNL d   1       1.865  -1.392   0.817  0.00  0.00     0.003 A 
ATOM      7  I   UNL d   1      -0.892   1.484  -0.904  0.00  0.00    -0.146 I 
ENDROOT
TORSDOF 0
ENDMDL
