MODEL 1
REMARK minimizedAffinity -3.68209076
REMARK minimizedRMSD -1
REMARK  0 active torsions:
REMARK  status: ('A' for Active; 'I' for Inactive)
ROOT
ATOM      1  C   UNL d   1      -1.045  -0.319   1.525  0.00  0.00     0.023 A 
ATOM      2  C1  UNL d   1      -0.083  -0.288   0.516  0.00  0.00     0.003 A 
ATOM      3  C2  UNL d   1      -0.240   0.571  -0.574  0.00  0.00     0.048 A 
ATOM      4  C3  UNL d   1      -1.361   1.398  -0.647  0.00  0.00     0.023 A 
ATOM      5  C4  UNL d   1      -2.325   1.371   0.361  0.00  0.00     0.048 A 
ATOM      6  C5  UNL d   1      -2.165   0.510   1.448  0.00  0.00     0.003 A 
ATOM      7  I   UNL d   1      -1.596   2.677  -2.268  0.00  0.00    -0.146 I 
ENDROOT
TORSDOF 0
ENDMDL
