MODEL 1
REMARK minimizedAffinity -3.45603275
REMARK minimizedRMSD -1
REMARK  0 active torsions:
REMARK  status: ('A' for Active; 'I' for Inactive)
ROOT
ATOM      1  C   UNL d   1       1.431  -1.839   1.713  0.00  0.00     0.023 A 
ATOM      2  C1  UNL d   1       2.008  -1.389   0.526  0.00  0.00     0.003 A 
ATOM      3  C2  UNL d   1       1.358  -0.425  -0.247  0.00  0.00     0.048 A 
ATOM      4  C3  UNL d   1       0.130   0.086   0.174  0.00  0.00     0.023 A 
ATOM      5  C4  UNL d   1      -0.451  -0.361   1.362  0.00  0.00     0.048 A 
ATOM      6  C5  UNL d   1       0.203  -1.326   2.131  0.00  0.00     0.003 A 
ATOM      7  I   UNL d   1      -0.839   1.521  -0.974  0.00  0.00    -0.146 I 
ENDROOT
TORSDOF 0
ENDMDL
