MODEL 1
REMARK minimizedAffinity 0.895896733
REMARK minimizedRMSD -1
REMARK  0 active torsions:
REMARK  status: ('A' for Active; 'I' for Inactive)
ROOT
ATOM      1  C   UNL d   1       1.570  -0.219  -0.468  0.00  0.00     0.023 A 
ATOM      2  C1  UNL d   1       2.316  -1.061   0.357  0.00  0.00     0.003 A 
ATOM      3  C2  UNL d   1       1.779  -1.511   1.565  0.00  0.00     0.048 A 
ATOM      4  C3  UNL d   1       0.495  -1.116   1.941  0.00  0.00     0.023 A 
ATOM      5  C4  UNL d   1      -0.255  -0.275   1.117  0.00  0.00     0.048 A 
ATOM      6  C5  UNL d   1       0.287   0.173  -0.089  0.00  0.00     0.003 A 
ATOM      7  I   UNL d   1      -0.307  -1.785   3.738  0.00  0.00    -0.146 I 
ENDROOT
TORSDOF 0
ENDMDL
