MODEL 1
REMARK minimizedAffinity -3.51780796
REMARK minimizedRMSD -1
REMARK  0 active torsions:
REMARK  status: ('A' for Active; 'I' for Inactive)
ROOT
ATOM      1  C   UNL d   1       0.618  -2.691   2.818  0.00  0.00     0.023 A 
ATOM      2  C1  UNL d   1       1.569  -2.649   1.799  0.00  0.00     0.003 A 
ATOM      3  C2  UNL d   1       1.439  -1.727   0.758  0.00  0.00     0.048 A 
ATOM      4  C3  UNL d   1       0.356  -0.849   0.744  0.00  0.00     0.023 A 
ATOM      5  C4  UNL d   1      -0.598  -0.886   1.763  0.00  0.00     0.048 A 
ATOM      6  C5  UNL d   1      -0.464  -1.811   2.800  0.00  0.00     0.003 A 
ATOM      7  I   UNL d   1       0.160   0.525  -0.803  0.00  0.00    -0.146 I 
ENDROOT
TORSDOF 0
ENDMDL
