MODEL 1
REMARK minimizedAffinity 3.24408937
REMARK minimizedRMSD -1
REMARK  0 active torsions:
REMARK  status: ('A' for Active; 'I' for Inactive)
ROOT
ATOM      1  C   UNL d   1       2.036  -0.391  -0.060  0.00  0.00     0.023 A 
ATOM      2  C1  UNL d   1       0.795   0.195  -0.307  0.00  0.00     0.003 A 
ATOM      3  C2  UNL d   1      -0.271  -0.031   0.566  0.00  0.00     0.048 A 
ATOM      4  C3  UNL d   1      -0.089  -0.844   1.685  0.00  0.00     0.023 A 
ATOM      5  C4  UNL d   1       1.152  -1.431   1.936  0.00  0.00     0.048 A 
ATOM      6  C5  UNL d   1       2.215  -1.203   1.060  0.00  0.00     0.003 A 
ATOM      7  I   UNL d   1      -1.674  -1.182   2.986  0.00  0.00    -0.146 I 
ENDROOT
TORSDOF 0
ENDMDL
