MODEL 1
REMARK minimizedAffinity -0.674205422
REMARK minimizedRMSD -1
REMARK  0 active torsions:
REMARK  status: ('A' for Active; 'I' for Inactive)
ROOT
ATOM      1  C   UNL d   1       2.494  -0.249   0.305  0.00  0.00     0.023 A 
ATOM      2  C1  UNL d   1       1.793  -1.304   0.890  0.00  0.00     0.003 A 
ATOM      3  C2  UNL d   1       0.397  -1.275   0.938  0.00  0.00     0.048 A 
ATOM      4  C3  UNL d   1      -0.291  -0.188   0.398  0.00  0.00     0.023 A 
ATOM      5  C4  UNL d   1       0.407   0.869  -0.189  0.00  0.00     0.048 A 
ATOM      6  C5  UNL d   1       1.802   0.836  -0.234  0.00  0.00     0.003 A 
ATOM      7  I   UNL d   1      -2.367  -0.143   0.468  0.00  0.00    -0.146 I 
ENDROOT
TORSDOF 0
ENDMDL
