MODEL 1
REMARK minimizedAffinity 4.40745878
REMARK minimizedRMSD -1
REMARK  3 active torsions:
REMARK  status: ('A' for Active; 'I' for Inactive)
REMARK    1  A    between atoms: C3'_2  and  C2'_3 
REMARK    2  A    between atoms: C2'_3  and  C1'_4 
REMARK    3  A    between atoms: C1'_4  and  C1_5 
ROOT
ATOM      1  C1  N4B d   1      -2.602   0.026   2.117  0.00  0.00    -0.075 A 
ATOM      2  C2  N4B d   1      -3.046   0.405   3.403  0.00  0.00     0.002 A 
ATOM      3  C3  N4B d   1      -4.298   0.947   3.565  0.00  0.00     0.002 A 
ATOM      4  C4  N4B d   1      -5.112   1.136   2.458  0.00  0.00    -0.004 A 
ATOM      5  C5  N4B d   1      -4.685   0.744   1.223  0.00  0.00     0.002 A 
ATOM      6  C6  N4B d   1      -3.431   0.195   1.046  0.00  0.00     0.002 A 
ENDROOT
BRANCH   1   7
ATOM      7  C1' N4B d   1      -1.210  -0.490   1.878  0.00  0.00     0.057 C 
BRANCH   7   8
ATOM      8  C2' N4B d   1      -1.067  -1.864   2.526  0.00  0.00     0.009 C 
BRANCH   8   9
ATOM      9  C3' N4B d   1      -0.838  -2.957   1.496  0.00  0.00     0.004 C 
ATOM     10  C4' N4B d   1      -0.068  -4.120   2.045  0.00  0.00     0.003 C 
ENDBRANCH   8   9
ENDBRANCH   7   8
ENDBRANCH   1   7
TORSDOF 3
ENDMDL
