MODEL 1
REMARK minimizedAffinity 12.3998652
REMARK minimizedRMSD -1
REMARK  3 active torsions:
REMARK  status: ('A' for Active; 'I' for Inactive)
REMARK    1  A    between atoms: C3'_2  and  C2'_3 
REMARK    2  A    between atoms: C2'_3  and  C1'_4 
REMARK    3  A    between atoms: C1'_4  and  C1_5 
ROOT
ATOM      1  C1  N4B d   1      -3.073   0.717   2.027  0.00  0.00    -0.075 A 
ATOM      2  C2  N4B d   1      -2.899   0.143   3.305  0.00  0.00     0.002 A 
ATOM      3  C3  N4B d   1      -1.651  -0.264   3.711  0.00  0.00     0.002 A 
ATOM      4  C4  N4B d   1      -0.571  -0.125   2.852  0.00  0.00    -0.004 A 
ATOM      5  C5  N4B d   1      -0.744   0.454   1.629  0.00  0.00     0.002 A 
ATOM      6  C6  N4B d   1      -1.991   0.871   1.209  0.00  0.00     0.002 A 
ENDROOT
BRANCH   1   7
ATOM      7  C1' N4B d   1      -4.432   1.098   1.506  0.00  0.00     0.057 C 
BRANCH   7   8
ATOM      8  C2' N4B d   1      -4.889   0.056   0.490  0.00  0.00     0.009 C 
BRANCH   8   9
ATOM      9  C3' N4B d   1      -4.927  -1.341   1.086  0.00  0.00     0.004 C 
ATOM     10  C4' N4B d   1      -4.458  -2.394   0.127  0.00  0.00     0.003 C 
ENDBRANCH   8   9
ENDBRANCH   7   8
ENDBRANCH   1   7
TORSDOF 3
ENDMDL
