MODEL 1
REMARK minimizedAffinity 8.46186829
REMARK minimizedRMSD -1
REMARK  3 active torsions:
REMARK  status: ('A' for Active; 'I' for Inactive)
REMARK    1  A    between atoms: C3'_2  and  C2'_3 
REMARK    2  A    between atoms: C2'_3  and  C1'_4 
REMARK    3  A    between atoms: C1'_4  and  C1_5 
ROOT
ATOM      1  C1  N4B d   1      -2.968  -2.734  -5.999  0.00  0.00    -0.075 A 
ATOM      2  C2  N4B d   1      -3.916  -3.780  -5.994  0.00  0.00     0.002 A 
ATOM      3  C3  N4B d   1      -5.258  -3.491  -5.979  0.00  0.00     0.002 A 
ATOM      4  C4  N4B d   1      -5.674  -2.168  -5.950  0.00  0.00    -0.004 A 
ATOM      5  C5  N4B d   1      -4.753  -1.163  -5.980  0.00  0.00     0.002 A 
ATOM      6  C6  N4B d   1      -3.400  -1.439  -6.000  0.00  0.00     0.002 A 
ENDROOT
BRANCH   1   7
ATOM      7  C1' N4B d   1      -1.489  -3.001  -5.929  0.00  0.00     0.057 C 
BRANCH   7   8
ATOM      8  C2' N4B d   1      -0.743  -1.672  -5.853  0.00  0.00     0.009 C 
BRANCH   8   9
ATOM      9  C3' N4B d   1       0.728  -1.865  -5.525  0.00  0.00     0.004 C 
ATOM     10  C4' N4B d   1       1.267  -0.794  -4.624  0.00  0.00     0.003 C 
ENDBRANCH   8   9
ENDBRANCH   7   8
ENDBRANCH   1   7
TORSDOF 3
ENDMDL
