MODEL 1
REMARK minimizedAffinity 11.7829275
REMARK minimizedRMSD -1
REMARK  3 active torsions:
REMARK  status: ('A' for Active; 'I' for Inactive)
REMARK    1  A    between atoms: C3'_2  and  C2'_3 
REMARK    2  A    between atoms: C2'_3  and  C1'_4 
REMARK    3  A    between atoms: C1'_4  and  C1_5 
ROOT
ATOM      1  C1  N4B d   1      -3.962   1.110   0.964  0.00  0.00    -0.075 A 
ATOM      2  C2  N4B d   1      -2.758   0.557   1.454  0.00  0.00     0.002 A 
ATOM      3  C3  N4B d   1      -2.504  -0.783   1.296  0.00  0.00     0.002 A 
ATOM      4  C4  N4B d   1      -3.442  -1.590   0.669  0.00  0.00    -0.004 A 
ATOM      5  C5  N4B d   1      -4.590  -1.043   0.175  0.00  0.00     0.002 A 
ATOM      6  C6  N4B d   1      -4.857   0.303   0.324  0.00  0.00     0.002 A 
ENDROOT
BRANCH   1   7
ATOM      7  C1' N4B d   1      -4.323   2.553   1.189  0.00  0.00     0.057 C 
BRANCH   7   8
ATOM      8  C2' N4B d   1      -4.309   2.845   2.687  0.00  0.00     0.009 C 
BRANCH   8   9
ATOM      9  C3' N4B d   1      -5.638   3.397   3.171  0.00  0.00     0.004 C 
ATOM     10  C4' N4B d   1      -5.796   3.312   4.660  0.00  0.00     0.003 C 
ENDBRANCH   8   9
ENDBRANCH   7   8
ENDBRANCH   1   7
TORSDOF 3
ENDMDL
