MODEL 1
REMARK minimizedAffinity 10.286171
REMARK minimizedRMSD -1
REMARK  3 active torsions:
REMARK  status: ('A' for Active; 'I' for Inactive)
REMARK    1  A    between atoms: C3'_2  and  C2'_3 
REMARK    2  A    between atoms: C2'_3  and  C1'_4 
REMARK    3  A    between atoms: C1'_4  and  C1_5 
ROOT
ATOM      1  C1  N4B d   1      -4.541   0.376   3.473  0.00  0.00    -0.075 A 
ATOM      2  C2  N4B d   1      -4.165  -0.369   4.612  0.00  0.00     0.002 A 
ATOM      3  C3  N4B d   1      -4.567   0.036   5.862  0.00  0.00     0.002 A 
ATOM      4  C4  N4B d   1      -5.327   1.188   5.997  0.00  0.00    -0.004 A 
ATOM      5  C5  N4B d   1      -5.708   1.888   4.890  0.00  0.00     0.002 A 
ATOM      6  C6  N4B d   1      -5.314   1.490   3.628  0.00  0.00     0.002 A 
ENDROOT
BRANCH   1   7
ATOM      7  C1' N4B d   1      -4.053   0.021   2.095  0.00  0.00     0.057 C 
BRANCH   7   8
ATOM      8  C2' N4B d   1      -3.481   1.269   1.430  0.00  0.00     0.009 C 
BRANCH   8   9
ATOM      9  C3' N4B d   1      -2.088   1.596   1.939  0.00  0.00     0.004 C 
ATOM     10  C4' N4B d   1      -1.206   0.387   2.036  0.00  0.00     0.003 C 
ENDBRANCH   8   9
ENDBRANCH   7   8
ENDBRANCH   1   7
TORSDOF 3
ENDMDL
