MODEL 1
REMARK minimizedAffinity -0.929187179
REMARK minimizedRMSD -1
REMARK  3 active torsions:
REMARK  status: ('A' for Active; 'I' for Inactive)
REMARK    1  A    between atoms: C3'_2  and  C2'_3 
REMARK    2  A    between atoms: C2'_3  and  C1'_4 
REMARK    3  A    between atoms: C1'_4  and  C1_5 
ROOT
ATOM      1  C1  N4B d   1      -2.065   1.280   2.753  0.00  0.00    -0.075 A 
ATOM      2  C2  N4B d   1      -1.331   0.086   2.932  0.00  0.00     0.002 A 
ATOM      3  C3  N4B d   1      -0.026   0.140   3.355  0.00  0.00     0.002 A 
ATOM      4  C4  N4B d   1       0.570   1.371   3.587  0.00  0.00    -0.004 A 
ATOM      5  C5  N4B d   1      -0.154   2.518   3.436  0.00  0.00     0.002 A 
ATOM      6  C6  N4B d   1      -1.468   2.478   3.015  0.00  0.00     0.002 A 
ENDROOT
BRANCH   1   7
ATOM      7  C1' N4B d   1      -3.468   1.275   2.210  0.00  0.00     0.057 C 
BRANCH   7   8
ATOM      8  C2' N4B d   1      -4.376   0.515   3.172  0.00  0.00     0.009 C 
BRANCH   8   9
ATOM      9  C3' N4B d   1      -4.503   1.221   4.511  0.00  0.00     0.004 C 
ATOM     10  C4' N4B d   1      -4.547   0.268   5.668  0.00  0.00     0.003 C 
ENDBRANCH   8   9
ENDBRANCH   7   8
ENDBRANCH   1   7
TORSDOF 3
ENDMDL
