MODEL 1
REMARK minimizedAffinity 1.56914639
REMARK minimizedRMSD -1
REMARK  3 active torsions:
REMARK  status: ('A' for Active; 'I' for Inactive)
REMARK    1  A    between atoms: C3'_2  and  C2'_3 
REMARK    2  A    between atoms: C2'_3  and  C1'_4 
REMARK    3  A    between atoms: C1'_4  and  C1_5 
ROOT
ATOM      1  C1  N4B d   1      -3.538  -2.598  -6.000  0.00  0.00    -0.075 A 
ATOM      2  C2  N4B d   1      -3.809  -1.213  -5.959  0.00  0.00     0.002 A 
ATOM      3  C3  N4B d   1      -2.774  -0.313  -5.892  0.00  0.00     0.002 A 
ATOM      4  C4  N4B d   1      -1.467  -0.773  -5.846  0.00  0.00    -0.004 A 
ATOM      5  C5  N4B d   1      -1.213  -2.112  -5.912  0.00  0.00     0.002 A 
ATOM      6  C6  N4B d   1      -2.243  -3.028  -5.983  0.00  0.00     0.002 A 
ENDROOT
BRANCH   1   7
ATOM      7  C1' N4B d   1      -4.639  -3.623  -5.987  0.00  0.00     0.057 C 
BRANCH   7   8
ATOM      8  C2' N4B d   1      -5.973  -2.923  -5.742  0.00  0.00     0.009 C 
BRANCH   8   9
ATOM      9  C3' N4B d   1      -5.955  -2.098  -4.466  0.00  0.00     0.004 C 
ATOM     10  C4' N4B d   1      -5.699  -2.927  -3.243  0.00  0.00     0.003 C 
ENDBRANCH   8   9
ENDBRANCH   7   8
ENDBRANCH   1   7
TORSDOF 3
ENDMDL
