MODEL 1
REMARK minimizedAffinity 13.9860401
REMARK minimizedRMSD -1
REMARK  3 active torsions:
REMARK  status: ('A' for Active; 'I' for Inactive)
REMARK    1  A    between atoms: C3'_2  and  C2'_3 
REMARK    2  A    between atoms: C2'_3  and  C1'_4 
REMARK    3  A    between atoms: C1'_4  and  C1_5 
ROOT
ATOM      1  C1  N4B d   1      -2.086  -2.400  -5.973  0.00  0.00    -0.075 A 
ATOM      2  C2  N4B d   1      -2.922  -3.538  -5.997  0.00  0.00     0.002 A 
ATOM      3  C3  N4B d   1      -4.287  -3.387  -5.958  0.00  0.00     0.002 A 
ATOM      4  C4  N4B d   1      -4.835  -2.116  -5.877  0.00  0.00    -0.004 A 
ATOM      5  C5  N4B d   1      -4.020  -1.021  -5.881  0.00  0.00     0.002 A 
ATOM      6  C6  N4B d   1      -2.647  -1.157  -5.923  0.00  0.00     0.002 A 
ENDROOT
BRANCH   1   7
ATOM      7  C1' N4B d   1      -0.587  -2.518  -5.927  0.00  0.00     0.057 C 
BRANCH   7   8
ATOM      8  C2' N4B d   1       0.001  -1.219  -5.384  0.00  0.00     0.009 C 
BRANCH   8   9
ATOM      9  C3' N4B d   1       1.275  -1.459  -4.592  0.00  0.00     0.004 C 
ATOM     10  C4' N4B d   1       2.142  -0.238  -4.503  0.00  0.00     0.003 C 
ENDBRANCH   8   9
ENDBRANCH   7   8
ENDBRANCH   1   7
TORSDOF 3
ENDMDL
