MODEL 1
REMARK minimizedAffinity 1.63507438
REMARK minimizedRMSD -1
REMARK  3 active torsions:
REMARK  status: ('A' for Active; 'I' for Inactive)
REMARK    1  A    between atoms: C3'_2  and  C2'_3 
REMARK    2  A    between atoms: C2'_3  and  C1'_4 
REMARK    3  A    between atoms: C1'_4  and  C1_5 
ROOT
ATOM      1  C1  N4B d   1      -3.297  -1.732  -5.728  0.00  0.00    -0.075 A 
ATOM      2  C2  N4B d   1      -4.685  -1.544  -5.546  0.00  0.00     0.002 A 
ATOM      3  C3  N4B d   1      -5.536  -2.620  -5.599  0.00  0.00     0.002 A 
ATOM      4  C4  N4B d   1      -5.027  -3.886  -5.851  0.00  0.00    -0.004 A 
ATOM      5  C5  N4B d   1      -3.683  -4.063  -6.000  0.00  0.00     0.002 A 
ATOM      6  C6  N4B d   1      -2.815  -2.991  -5.945  0.00  0.00     0.002 A 
ENDROOT
BRANCH   1   7
ATOM      7  C1' N4B d   1      -2.337  -0.575  -5.763  0.00  0.00     0.057 C 
BRANCH   7   8
ATOM      8  C2' N4B d   1      -0.909  -1.105  -5.660  0.00  0.00     0.009 C 
BRANCH   8   9
ATOM      9  C3' N4B d   1      -0.500  -1.355  -4.218  0.00  0.00     0.004 C 
ATOM     10  C4' N4B d   1       0.761  -0.636  -3.840  0.00  0.00     0.003 C 
ENDBRANCH   8   9
ENDBRANCH   7   8
ENDBRANCH   1   7
TORSDOF 3
ENDMDL
