MODEL 1
REMARK minimizedAffinity 12.0941629
REMARK minimizedRMSD -1
REMARK  3 active torsions:
REMARK  status: ('A' for Active; 'I' for Inactive)
REMARK    1  A    between atoms: C3'_2  and  C2'_3 
REMARK    2  A    between atoms: C2'_3  and  C1'_4 
REMARK    3  A    between atoms: C1'_4  and  C1_5 
ROOT
ATOM      1  C1  N4B d   1       0.930   0.767   0.522  0.00  0.00    -0.075 A 
ATOM      2  C2  N4B d   1      -0.180  -0.099   0.408  0.00  0.00     0.002 A 
ATOM      3  C3  N4B d   1      -0.862  -0.493   1.534  0.00  0.00     0.002 A 
ATOM      4  C4  N4B d   1      -0.443  -0.051   2.779  0.00  0.00    -0.004 A 
ATOM      5  C5  N4B d   1       0.614   0.806   2.879  0.00  0.00     0.002 A 
ATOM      6  C6  N4B d   1       1.306   1.214   1.756  0.00  0.00     0.002 A 
ENDROOT
BRANCH   1   7
ATOM      7  C1' N4B d   1       1.759   1.157  -0.671  0.00  0.00     0.057 C 
BRANCH   7   8
ATOM      8  C2' N4B d   1       1.450   0.210  -1.826  0.00  0.00     0.009 C 
BRANCH   8   9
ATOM      9  C3' N4B d   1       2.646   0.023  -2.743  0.00  0.00     0.004 C 
ATOM     10  C4' N4B d   1       2.260  -0.452  -4.112  0.00  0.00     0.003 C 
ENDBRANCH   8   9
ENDBRANCH   7   8
ENDBRANCH   1   7
TORSDOF 3
ENDMDL
