MODEL 1
REMARK minimizedAffinity 0.674941123
REMARK minimizedRMSD -1
REMARK  3 active torsions:
REMARK  status: ('A' for Active; 'I' for Inactive)
REMARK    1  A    between atoms: C3'_2  and  C2'_3 
REMARK    2  A    between atoms: C2'_3  and  C1'_4 
REMARK    3  A    between atoms: C1'_4  and  C1_5 
ROOT
ATOM      1  C1  N4B d   1      -4.881   1.464   3.230  0.00  0.00    -0.075 A 
ATOM      2  C2  N4B d   1      -4.285   0.193   3.380  0.00  0.00     0.002 A 
ATOM      3  C3  N4B d   1      -3.323  -0.224   2.493  0.00  0.00     0.002 A 
ATOM      4  C4  N4B d   1      -2.956   0.602   1.441  0.00  0.00    -0.004 A 
ATOM      5  C5  N4B d   1      -3.518   1.839   1.318  0.00  0.00     0.002 A 
ATOM      6  C6  N4B d   1      -4.483   2.273   2.205  0.00  0.00     0.002 A 
ENDROOT
BRANCH   1   7
ATOM      7  C1' N4B d   1      -5.998   1.928   4.124  0.00  0.00     0.057 C 
BRANCH   7   8
ATOM      8  C2' N4B d   1      -5.996   3.453   4.178  0.00  0.00     0.009 C 
BRANCH   8   9
ATOM      9  C3' N4B d   1      -5.991   3.971   5.606  0.00  0.00     0.004 C 
ATOM     10  C4' N4B d   1      -5.173   5.218   5.768  0.00  0.00     0.003 C 
ENDBRANCH   8   9
ENDBRANCH   7   8
ENDBRANCH   1   7
TORSDOF 3
ENDMDL
