MODEL 1
REMARK minimizedAffinity 14.1777725
REMARK minimizedRMSD -1
REMARK  3 active torsions:
REMARK  status: ('A' for Active; 'I' for Inactive)
REMARK    1  A    between atoms: C3'_2  and  C2'_3 
REMARK    2  A    between atoms: C2'_3  and  C1'_4 
REMARK    3  A    between atoms: C1'_4  and  C1_5 
ROOT
ATOM      1  C1  N4B d   1      -2.920   1.063   1.680  0.00  0.00    -0.075 A 
ATOM      2  C2  N4B d   1      -2.893   2.426   2.050  0.00  0.00     0.002 A 
ATOM      3  C3  N4B d   1      -1.693   3.047   2.294  0.00  0.00     0.002 A 
ATOM      4  C4  N4B d   1      -0.513   2.325   2.194  0.00  0.00    -0.004 A 
ATOM      5  C5  N4B d   1      -0.546   1.016   1.812  0.00  0.00     0.002 A 
ATOM      6  C6  N4B d   1      -1.745   0.379   1.559  0.00  0.00     0.002 A 
ENDROOT
BRANCH   1   7
ATOM      7  C1' N4B d   1      -4.212   0.318   1.487  0.00  0.00     0.057 C 
BRANCH   7   8
ATOM      8  C2' N4B d   1      -4.814  -0.004   2.851  0.00  0.00     0.009 C 
BRANCH   8   9
ATOM      9  C3' N4B d   1      -3.785   0.099   3.964  0.00  0.00     0.004 C 
ATOM     10  C4' N4B d   1      -3.698  -1.148   4.793  0.00  0.00     0.003 C 
ENDBRANCH   8   9
ENDBRANCH   7   8
ENDBRANCH   1   7
TORSDOF 3
ENDMDL
