MODEL 1
REMARK minimizedAffinity -4.25404882
REMARK minimizedRMSD -1
REMARK  0 active torsions:
REMARK  status: ('A' for Active; 'I' for Inactive)
ROOT
ATOM      1  C   UNL d   1      -5.127  -0.731  -1.762  0.00  0.00     0.078 C 
ATOM      2  C1  UNL d   1      -4.482  -0.092  -0.568  0.00  0.00    -0.077 A 
ATOM      3  C2  UNL d   1      -3.233   0.532  -0.671  0.00  0.00    -0.001 A 
ATOM      4  C3  UNL d   1      -2.640   1.113   0.451  0.00  0.00     0.003 A 
ATOM      5  C4  UNL d   1      -3.288   1.076   1.684  0.00  0.00    -0.005 A 
ATOM      6  C5  UNL d   1      -4.531   0.455   1.796  0.00  0.00     0.003 A 
ATOM      7  C6  UNL d   1      -5.125  -0.127   0.675  0.00  0.00    -0.001 A 
ENDROOT
TORSDOF 0
ENDMDL
