MODEL 1
REMARK minimizedAffinity -2.64333153
REMARK minimizedRMSD -1
REMARK  0 active torsions:
REMARK  status: ('A' for Active; 'I' for Inactive)
ROOT
ATOM      1  C   UNL d   1       3.252   2.003   0.003  0.00  0.00     0.078 C 
ATOM      2  C1  UNL d   1       2.437   0.751  -0.120  0.00  0.00    -0.077 A 
ATOM      3  C2  UNL d   1       3.051  -0.502  -0.232  0.00  0.00    -0.001 A 
ATOM      4  C3  UNL d   1       2.279  -1.659  -0.356  0.00  0.00     0.003 A 
ATOM      5  C4  UNL d   1       0.888  -1.573  -0.370  0.00  0.00    -0.005 A 
ATOM      6  C5  UNL d   1       0.268  -0.330  -0.262  0.00  0.00     0.003 A 
ATOM      7  C6  UNL d   1       1.038   0.827  -0.138  0.00  0.00    -0.001 A 
ENDROOT
TORSDOF 0
ENDMDL
