MODEL 1
REMARK minimizedAffinity -3.15757775
REMARK minimizedRMSD -1
REMARK  0 active torsions:
REMARK  status: ('A' for Active; 'I' for Inactive)
ROOT
ATOM      1  C   UNL d   1       2.632  -1.323   1.168  0.00  0.00     0.078 C 
ATOM      2  C1  UNL d   1       1.567  -0.405   0.645  0.00  0.00    -0.077 A 
ATOM      3  C2  UNL d   1       0.310  -0.897   0.273  0.00  0.00    -0.001 A 
ATOM      4  C3  UNL d   1      -0.668  -0.033  -0.221  0.00  0.00     0.003 A 
ATOM      5  C4  UNL d   1      -0.399   1.328  -0.349  0.00  0.00    -0.005 A 
ATOM      6  C5  UNL d   1       0.850   1.827   0.017  0.00  0.00     0.003 A 
ATOM      7  C6  UNL d   1       1.829   0.964   0.511  0.00  0.00    -0.001 A 
ENDROOT
TORSDOF 0
ENDMDL
