MODEL 1
REMARK minimizedAffinity -4.67062521
REMARK minimizedRMSD -1
REMARK  0 active torsions:
REMARK  status: ('A' for Active; 'I' for Inactive)
ROOT
ATOM      1  C   UNL d   1      -1.561   0.406  -0.984  0.00  0.00     0.078 C 
ATOM      2  C1  UNL d   1      -2.682   0.407   0.012  0.00  0.00    -0.077 A 
ATOM      3  C2  UNL d   1      -2.729   1.352   1.044  0.00  0.00    -0.001 A 
ATOM      4  C3  UNL d   1      -3.773   1.335   1.970  0.00  0.00     0.003 A 
ATOM      5  C4  UNL d   1      -4.778   0.374   1.874  0.00  0.00    -0.005 A 
ATOM      6  C5  UNL d   1      -4.738  -0.572   0.852  0.00  0.00     0.003 A 
ATOM      7  C6  UNL d   1      -3.694  -0.557  -0.075  0.00  0.00    -0.001 A 
ENDROOT
TORSDOF 0
ENDMDL
