MODEL 1
REMARK minimizedAffinity -5.26786375
REMARK minimizedRMSD -1
REMARK  0 active torsions:
REMARK  status: ('A' for Active; 'I' for Inactive)
ROOT
ATOM      1  C   UNL d   1       2.726  -1.547   0.725  0.00  0.00     0.078 C 
ATOM      2  C1  UNL d   1       1.611  -0.813   0.043  0.00  0.00    -0.077 A 
ATOM      3  C2  UNL d   1       0.772  -1.462  -0.871  0.00  0.00    -0.001 A 
ATOM      4  C3  UNL d   1      -0.255  -0.764  -1.507  0.00  0.00     0.003 A 
ATOM      5  C4  UNL d   1      -0.454   0.589  -1.236  0.00  0.00    -0.005 A 
ATOM      6  C5  UNL d   1       0.377   1.244  -0.330  0.00  0.00     0.003 A 
ATOM      7  C6  UNL d   1       1.406   0.547   0.307  0.00  0.00    -0.001 A 
ENDROOT
TORSDOF 0
ENDMDL
