MODEL 1
REMARK minimizedAffinity -3.67066717
REMARK minimizedRMSD -1
REMARK  0 active torsions:
REMARK  status: ('A' for Active; 'I' for Inactive)
ROOT
ATOM      1  C   UNL d   1      -0.567   0.719  -0.181  0.00  0.00     0.078 C 
ATOM      2  C1  UNL d   1       0.408  -0.355   0.199  0.00  0.00    -0.077 A 
ATOM      3  C2  UNL d   1       0.456  -0.855   1.506  0.00  0.00    -0.001 A 
ATOM      4  C3  UNL d   1       1.375  -1.848   1.849  0.00  0.00     0.003 A 
ATOM      5  C4  UNL d   1       2.254  -2.349   0.890  0.00  0.00    -0.005 A 
ATOM      6  C5  UNL d   1       2.215  -1.856  -0.412  0.00  0.00     0.003 A 
ATOM      7  C6  UNL d   1       1.297  -0.863  -0.757  0.00  0.00    -0.001 A 
ENDROOT
TORSDOF 0
ENDMDL
