MODEL 1
REMARK minimizedAffinity 4.03853607
REMARK minimizedRMSD -1
REMARK  0 active torsions:
REMARK  status: ('A' for Active; 'I' for Inactive)
ROOT
ATOM      1  C2' OXE d   1       1.031   1.092   1.554  0.00  0.00     0.078 C 
ATOM      2  C1' OXE d   1       0.636  -1.453   0.436  0.00  0.00     0.078 C 
ATOM      3  C1  OXE d   1       0.914  -0.307  -0.504  0.00  0.00    -0.078 A 
ATOM      4  C2  OXE d   1       1.060   0.943   0.048  0.00  0.00    -0.078 A 
ATOM      5  C3  OXE d   1       1.373   2.026  -0.769  0.00  0.00     0.003 A 
ATOM      6  C4  OXE d   1       1.388   1.881  -2.162  0.00  0.00    -0.002 A 
ATOM      7  C5  OXE d   1       1.203   0.624  -2.747  0.00  0.00    -0.002 A 
ATOM      8  C6  OXE d   1       1.008  -0.485  -1.932  0.00  0.00     0.003 A 
ENDROOT
TORSDOF 0
ENDMDL
