MODEL 1
REMARK minimizedAffinity 7.79799843
REMARK minimizedRMSD -1
REMARK  0 active torsions:
REMARK  status: ('A' for Active; 'I' for Inactive)
ROOT
ATOM      1  C2' OXE d   1      -0.317  -1.179  -1.936  0.00  0.00     0.078 C 
ATOM      2  C1' OXE d   1       0.712   1.049  -3.299  0.00  0.00     0.078 C 
ATOM      3  C1  OXE d   1       1.005   0.929  -1.824  0.00  0.00    -0.078 A 
ATOM      4  C2  OXE d   1       0.459  -0.140  -1.156  0.00  0.00    -0.078 A 
ATOM      5  C3  OXE d   1       0.743  -0.327   0.194  0.00  0.00     0.003 A 
ATOM      6  C4  OXE d   1       1.453   0.644   0.911  0.00  0.00    -0.002 A 
ATOM      7  C5  OXE d   1       1.985   1.761   0.257  0.00  0.00    -0.002 A 
ATOM      8  C6  OXE d   1       1.806   1.896  -1.115  0.00  0.00     0.003 A 
ENDROOT
TORSDOF 0
ENDMDL
