MODEL 1
REMARK minimizedAffinity 8.65028572
REMARK minimizedRMSD -1
REMARK  0 active torsions:
REMARK  status: ('A' for Active; 'I' for Inactive)
ROOT
ATOM      1  C2' OXE d   1       1.280  -1.504   0.431  0.00  0.00     0.078 C 
ATOM      2  C1' OXE d   1       2.186   0.814   1.728  0.00  0.00     0.078 C 
ATOM      3  C1  OXE d   1       1.645   0.958   0.328  0.00  0.00    -0.078 A 
ATOM      4  C2  OXE d   1       1.247  -0.189  -0.317  0.00  0.00    -0.078 A 
ATOM      5  C3  OXE d   1       0.689  -0.106  -1.589  0.00  0.00     0.003 A 
ATOM      6  C4  OXE d   1       0.672   1.113  -2.278  0.00  0.00    -0.002 A 
ATOM      7  C5  OXE d   1       1.109   2.286  -1.655  0.00  0.00    -0.002 A 
ATOM      8  C6  OXE d   1       1.558   2.233  -0.340  0.00  0.00     0.003 A 
ENDROOT
TORSDOF 0
ENDMDL
