MODEL 1
REMARK minimizedAffinity 4.45812464
REMARK minimizedRMSD -1
REMARK  0 active torsions:
REMARK  status: ('A' for Active; 'I' for Inactive)
ROOT
ATOM      1  C2' OXE d   1       3.403   0.006   0.594  0.00  0.00     0.078 C 
ATOM      2  C1' OXE d   1       1.623   1.966   1.527  0.00  0.00     0.078 C 
ATOM      3  C1  OXE d   1       1.325   1.322   0.196  0.00  0.00    -0.078 A 
ATOM      4  C2  OXE d   1       2.227   0.398  -0.274  0.00  0.00    -0.078 A 
ATOM      5  C3  OXE d   1       1.972  -0.266  -1.471  0.00  0.00     0.003 A 
ATOM      6  C4  OXE d   1       0.887   0.109  -2.273  0.00  0.00    -0.002 A 
ATOM      7  C5  OXE d   1      -0.021   1.076  -1.831  0.00  0.00    -0.002 A 
ATOM      8  C6  OXE d   1       0.160   1.661  -0.582  0.00  0.00     0.003 A 
ENDROOT
TORSDOF 0
ENDMDL
