MODEL 1
REMARK minimizedAffinity -0.0420973487
REMARK minimizedRMSD -1
REMARK  0 active torsions:
REMARK  status: ('A' for Active; 'I' for Inactive)
ROOT
ATOM      1  C2' OXE d   1       1.453   2.539  -1.780  0.00  0.00     0.078 C 
ATOM      2  C1' OXE d   1       1.207   1.870   0.936  0.00  0.00     0.078 C 
ATOM      3  C1  OXE d   1       1.102   0.756  -0.075  0.00  0.00    -0.078 A 
ATOM      4  C2  OXE d   1       1.177   1.099  -1.404  0.00  0.00    -0.078 A 
ATOM      5  C3  OXE d   1       1.140   0.103  -2.376  0.00  0.00     0.003 A 
ATOM      6  C4  OXE d   1       0.875  -1.225  -2.020  0.00  0.00    -0.002 A 
ATOM      7  C5  OXE d   1       0.756  -1.590  -0.675  0.00  0.00    -0.002 A 
ATOM      8  C6  OXE d   1       0.909  -0.620   0.310  0.00  0.00     0.003 A 
ENDROOT
TORSDOF 0
ENDMDL
