MODEL 1
REMARK minimizedAffinity 3.84416056
REMARK minimizedRMSD -1
REMARK  0 active torsions:
REMARK  status: ('A' for Active; 'I' for Inactive)
ROOT
ATOM      1  C2' OXE d   1      -3.041   0.796   4.799  0.00  0.00     0.078 C 
ATOM      2  C1' OXE d   1      -5.075   0.382   2.909  0.00  0.00     0.078 C 
ATOM      3  C1  OXE d   1      -4.026   1.419   2.597  0.00  0.00    -0.078 A 
ATOM      4  C2  OXE d   1      -3.061   1.648   3.548  0.00  0.00    -0.078 A 
ATOM      5  C3  OXE d   1      -2.038   2.555   3.288  0.00  0.00     0.003 A 
ATOM      6  C4  OXE d   1      -2.069   3.346   2.133  0.00  0.00    -0.002 A 
ATOM      7  C5  OXE d   1      -3.065   3.157   1.169  0.00  0.00    -0.002 A 
ATOM      8  C6  OXE d   1      -4.025   2.170   1.366  0.00  0.00     0.003 A 
ENDROOT
TORSDOF 0
ENDMDL
