MODEL 1
REMARK minimizedAffinity 2.73174119
REMARK minimizedRMSD -1
REMARK  0 active torsions:
REMARK  status: ('A' for Active; 'I' for Inactive)
ROOT
ATOM      1  C2' OXE d   1       1.353  -0.429  -2.816  0.00  0.00     0.078 C 
ATOM      2  C1' OXE d   1       0.220  -1.109  -0.340  0.00  0.00     0.078 C 
ATOM      3  C1  OXE d   1       0.845   0.256  -0.476  0.00  0.00    -0.078 A 
ATOM      4  C2  OXE d   1       1.439   0.563  -1.677  0.00  0.00    -0.078 A 
ATOM      5  C3  OXE d   1       1.982   1.829  -1.873  0.00  0.00     0.003 A 
ATOM      6  C4  OXE d   1       2.066   2.738  -0.811  0.00  0.00    -0.002 A 
ATOM      7  C5  OXE d   1       1.503   2.430   0.432  0.00  0.00    -0.002 A 
ATOM      8  C6  OXE d   1       0.853   1.213   0.603  0.00  0.00     0.003 A 
ENDROOT
TORSDOF 0
ENDMDL
