MODEL 1
REMARK minimizedAffinity 3.54482889
REMARK minimizedRMSD -1
REMARK  0 active torsions:
REMARK  status: ('A' for Active; 'I' for Inactive)
ROOT
ATOM      1  C2' OXE d   1       1.595  -1.535   0.520  0.00  0.00     0.078 C 
ATOM      2  C1' OXE d   1       1.857   1.006   1.683  0.00  0.00     0.078 C 
ATOM      3  C1  OXE d   1       1.478   0.935   0.225  0.00  0.00    -0.078 A 
ATOM      4  C2  OXE d   1       1.397  -0.311  -0.348  0.00  0.00    -0.078 A 
ATOM      5  C3  OXE d   1       0.998  -0.435  -1.675  0.00  0.00     0.003 A 
ATOM      6  C4  OXE d   1       0.827   0.703  -2.473  0.00  0.00    -0.002 A 
ATOM      7  C5  OXE d   1       0.943   1.982  -1.919  0.00  0.00    -0.002 A 
ATOM      8  C6  OXE d   1       1.225   2.115  -0.564  0.00  0.00     0.003 A 
ENDROOT
TORSDOF 0
ENDMDL
