MODEL 1
REMARK minimizedAffinity 6.58383417
REMARK minimizedRMSD -1
REMARK  0 active torsions:
REMARK  status: ('A' for Active; 'I' for Inactive)
ROOT
ATOM      1  C2' OXE d   1      -2.821   1.515   4.475  0.00  0.00     0.078 C 
ATOM      2  C1' OXE d   1      -4.433   0.209   2.584  0.00  0.00     0.078 C 
ATOM      3  C1  OXE d   1      -3.710   1.459   2.149  0.00  0.00    -0.078 A 
ATOM      4  C2  OXE d   1      -2.961   2.117   3.094  0.00  0.00    -0.078 A 
ATOM      5  C3  OXE d   1      -2.230   3.245   2.731  0.00  0.00     0.003 A 
ATOM      6  C4  OXE d   1      -2.372   3.802   1.454  0.00  0.00    -0.002 A 
ATOM      7  C5  OXE d   1      -3.162   3.169   0.488  0.00  0.00    -0.002 A 
ATOM      8  C6  OXE d   1      -3.802   1.976   0.806  0.00  0.00     0.003 A 
ENDROOT
TORSDOF 0
ENDMDL
