MODEL 1
REMARK minimizedAffinity 5.71354151
REMARK minimizedRMSD -1
REMARK  0 active torsions:
REMARK  status: ('A' for Active; 'I' for Inactive)
ROOT
ATOM      1  C2' OXE d   1       0.555  -0.694  -2.129  0.00  0.00     0.078 C 
ATOM      2  C1' OXE d   1       0.502   2.109  -2.276  0.00  0.00     0.078 C 
ATOM      3  C1  OXE d   1       0.953   1.481  -0.981  0.00  0.00    -0.078 A 
ATOM      4  C2  OXE d   1       0.931   0.109  -0.902  0.00  0.00    -0.078 A 
ATOM      5  C3  OXE d   1       1.388  -0.523   0.251  0.00  0.00     0.003 A 
ATOM      6  C4  OXE d   1       1.724   0.227   1.384  0.00  0.00    -0.002 A 
ATOM      7  C5  OXE d   1       1.716   1.626   1.338  0.00  0.00    -0.002 A 
ATOM      8  C6  OXE d   1       1.374   2.266   0.153  0.00  0.00     0.003 A 
ENDROOT
TORSDOF 0
ENDMDL
