MODEL 1
REMARK minimizedAffinity 6.58916235
REMARK minimizedRMSD -1
REMARK  0 active torsions:
REMARK  status: ('A' for Active; 'I' for Inactive)
ROOT
ATOM      1  C2' OXE d   1       1.321   1.311   1.471  0.00  0.00     0.078 C 
ATOM      2  C1' OXE d   1       0.992  -1.292   0.475  0.00  0.00     0.078 C 
ATOM      3  C1  OXE d   1       1.037  -0.159  -0.520  0.00  0.00    -0.078 A 
ATOM      4  C2  OXE d   1       1.151   1.116  -0.020  0.00  0.00    -0.078 A 
ATOM      5  C3  OXE d   1       1.252   2.193  -0.896  0.00  0.00     0.003 A 
ATOM      6  C4  OXE d   1       1.084   2.005  -2.274  0.00  0.00    -0.002 A 
ATOM      7  C5  OXE d   1       0.926   0.718  -2.800  0.00  0.00    -0.002 A 
ATOM      8  C6  OXE d   1       0.943  -0.376  -1.942  0.00  0.00     0.003 A 
ENDROOT
TORSDOF 0
ENDMDL
