MODEL 1
REMARK minimizedAffinity 1.97417188
REMARK minimizedRMSD -1
REMARK  0 active torsions:
REMARK  status: ('A' for Active; 'I' for Inactive)
ROOT
ATOM      1  C2' OXE d   1       1.867   2.381   1.564  0.00  0.00     0.078 C 
ATOM      2  C1' OXE d   1       4.074   0.889   0.678  0.00  0.00     0.078 C 
ATOM      3  C1  OXE d   1       2.704   0.460   0.216  0.00  0.00    -0.078 A 
ATOM      4  C2  OXE d   1       1.626   1.168   0.692  0.00  0.00    -0.078 A 
ATOM      5  C3  OXE d   1       0.344   0.848   0.254  0.00  0.00     0.003 A 
ATOM      6  C4  OXE d   1       0.129  -0.282  -0.545  0.00  0.00    -0.002 A 
ATOM      7  C5  OXE d   1       1.210  -1.040  -1.008  0.00  0.00    -0.002 A 
ATOM      8  C6  OXE d   1       2.504  -0.658  -0.673  0.00  0.00     0.003 A 
ENDROOT
TORSDOF 0
ENDMDL
