MODEL 1
REMARK minimizedAffinity 2.66864252
REMARK minimizedRMSD -1
REMARK  0 active torsions:
REMARK  status: ('A' for Active; 'I' for Inactive)
ROOT
ATOM      1  C2' OXE d   1       2.937   2.246   2.335  0.00  0.00     0.078 C 
ATOM      2  C1' OXE d   1       4.452   0.769   0.490  0.00  0.00     0.078 C 
ATOM      3  C1  OXE d   1       2.953   0.783   0.318  0.00  0.00    -0.078 A 
ATOM      4  C2  OXE d   1       2.217   1.470   1.253  0.00  0.00    -0.078 A 
ATOM      5  C3  OXE d   1       0.835   1.561   1.111  0.00  0.00     0.003 A 
ATOM      6  C4  OXE d   1       0.175   0.832   0.114  0.00  0.00    -0.002 A 
ATOM      7  C5  OXE d   1       0.904   0.094  -0.825  0.00  0.00    -0.002 A 
ATOM      8  C6  OXE d   1       2.293   0.093  -0.762  0.00  0.00     0.003 A 
ENDROOT
TORSDOF 0
ENDMDL
