MODEL 1
REMARK minimizedAffinity 4.37378645
REMARK minimizedRMSD -1
REMARK  0 active torsions:
REMARK  status: ('A' for Active; 'I' for Inactive)
ROOT
ATOM      1  C2' OXE d   1       1.402   3.484  -1.705  0.00  0.00     0.078 C 
ATOM      2  C1' OXE d   1       1.112   3.258   1.078  0.00  0.00     0.078 C 
ATOM      3  C1  OXE d   1       1.186   1.985   0.273  0.00  0.00    -0.078 A 
ATOM      4  C2  OXE d   1       1.281   2.105  -1.093  0.00  0.00    -0.078 A 
ATOM      5  C3  OXE d   1       1.407   0.963  -1.878  0.00  0.00     0.003 A 
ATOM      6  C4  OXE d   1       1.284  -0.309  -1.305  0.00  0.00    -0.002 A 
ATOM      7  C5  OXE d   1       1.147  -0.453   0.080  0.00  0.00    -0.002 A 
ATOM      8  C6  OXE d   1       1.139   0.680   0.886  0.00  0.00     0.003 A 
ENDROOT
TORSDOF 0
ENDMDL
