MODEL 1
REMARK minimizedAffinity 0.90196532
REMARK minimizedRMSD -1
REMARK  0 active torsions:
REMARK  status: ('A' for Active; 'I' for Inactive)
ROOT
ATOM      1  C2' OXE d   1       0.370  -0.726  -1.782  0.00  0.00     0.078 C 
ATOM      2  C1' OXE d   1       1.491  -2.011   0.447  0.00  0.00     0.078 C 
ATOM      3  C1  OXE d   1       1.231  -0.529   0.547  0.00  0.00    -0.078 A 
ATOM      4  C2  OXE d   1       0.726   0.101  -0.565  0.00  0.00    -0.078 A 
ATOM      5  C3  OXE d   1       0.416   1.457  -0.509  0.00  0.00     0.003 A 
ATOM      6  C4  OXE d   1       0.758   2.216   0.617  0.00  0.00    -0.002 A 
ATOM      7  C5  OXE d   1       1.310   1.602   1.746  0.00  0.00    -0.002 A 
ATOM      8  C6  OXE d   1       1.513   0.226   1.743  0.00  0.00     0.003 A 
ENDROOT
TORSDOF 0
ENDMDL
