MODEL 1
REMARK minimizedAffinity 2.86070395
REMARK minimizedRMSD -1
REMARK  0 active torsions:
REMARK  status: ('A' for Active; 'I' for Inactive)
ROOT
ATOM      1  C2' OXE d   1       0.481   2.909   1.205  0.00  0.00     0.078 C 
ATOM      2  C1' OXE d   1       2.407   1.181   2.295  0.00  0.00     0.078 C 
ATOM      3  C1  OXE d   1       1.762   0.783   0.991  0.00  0.00    -0.078 A 
ATOM      4  C2  OXE d   1       0.787   1.611   0.489  0.00  0.00    -0.078 A 
ATOM      5  C3  OXE d   1       0.199   1.318  -0.738  0.00  0.00     0.003 A 
ATOM      6  C4  OXE d   1       0.480   0.111  -1.389  0.00  0.00    -0.002 A 
ATOM      7  C5  OXE d   1       1.441  -0.766  -0.875  0.00  0.00    -0.002 A 
ATOM      8  C6  OXE d   1       2.120  -0.426   0.290  0.00  0.00     0.003 A 
ENDROOT
TORSDOF 0
ENDMDL
