MODEL 1
REMARK minimizedAffinity 5.79359245
REMARK minimizedRMSD -1
REMARK  0 active torsions:
REMARK  status: ('A' for Active; 'I' for Inactive)
ROOT
ATOM      1  C2' OXE d   1       1.238  -0.236  -2.917  0.00  0.00     0.078 C 
ATOM      2  C1' OXE d   1       0.752   2.496  -2.492  0.00  0.00     0.078 C 
ATOM      3  C1  OXE d   1       0.943   1.618  -1.280  0.00  0.00    -0.078 A 
ATOM      4  C2  OXE d   1       1.134   0.275  -1.496  0.00  0.00    -0.078 A 
ATOM      5  C3  OXE d   1       1.371  -0.570  -0.416  0.00  0.00     0.003 A 
ATOM      6  C4  OXE d   1       1.264  -0.091   0.895  0.00  0.00    -0.002 A 
ATOM      7  C5  OXE d   1       1.030   1.266   1.138  0.00  0.00    -0.002 A 
ATOM      8  C6  OXE d   1       0.910   2.140   0.064  0.00  0.00     0.003 A 
ENDROOT
TORSDOF 0
ENDMDL
