MODEL 1
REMARK minimizedAffinity 3.50765872
REMARK minimizedRMSD -1
REMARK  0 active torsions:
REMARK  status: ('A' for Active; 'I' for Inactive)
ROOT
ATOM      1  C2' OXE d   1      -0.129  -2.047  -1.719  0.00  0.00     0.078 C 
ATOM      2  C1' OXE d   1       1.546  -2.690   0.440  0.00  0.00     0.078 C 
ATOM      3  C1  OXE d   1       1.150  -1.246   0.262  0.00  0.00    -0.078 A 
ATOM      4  C2  OXE d   1       0.368  -0.933  -0.824  0.00  0.00    -0.078 A 
ATOM      5  C3  OXE d   1      -0.071   0.376  -1.004  0.00  0.00     0.003 A 
ATOM      6  C4  OXE d   1       0.402   1.402  -0.177  0.00  0.00    -0.002 A 
ATOM      7  C5  OXE d   1       1.232   1.111   0.911  0.00  0.00    -0.002 A 
ATOM      8  C6  OXE d   1       1.579  -0.210   1.169  0.00  0.00     0.003 A 
ENDROOT
TORSDOF 0
ENDMDL
