MODEL 1
REMARK minimizedAffinity 2.4381361
REMARK minimizedRMSD -1
REMARK  0 active torsions:
REMARK  status: ('A' for Active; 'I' for Inactive)
ROOT
ATOM      1  C   UNL d   1       1.517   1.123   0.572  0.00  0.00    -0.002 A 
ATOM      2  C1  UNL d   1       0.546   2.101   0.730  0.00  0.00     0.010 A 
ATOM      3  C2  UNL d   1      -0.424   2.305  -0.253  0.00  0.00     0.041 A 
ATOM      4  C3  UNL d   1      -0.403   1.499  -1.409  0.00  0.00    -0.075 A 
ATOM      5  S   UNL d   1      -1.491   1.568  -2.744  0.00  0.00     0.015 SA
ATOM      6  C4  UNL d   1      -0.694   0.299  -3.555  0.00  0.00     0.022 A 
ATOM      7  C5  UNL d   1       0.379  -0.177  -2.839  0.00  0.00     0.026 A 
ATOM      8  C6  UNL d   1       0.564   0.506  -1.590  0.00  0.00    -0.082 A 
ATOM      9  C7  UNL d   1       1.535   0.325  -0.575  0.00  0.00     0.045 A 
ENDROOT
TORSDOF 0
ENDMDL
