MODEL 1
REMARK minimizedAffinity 11.3708248
REMARK minimizedRMSD -1
REMARK  0 active torsions:
REMARK  status: ('A' for Active; 'I' for Inactive)
ROOT
ATOM      1  C   UNL d   1      -3.105   0.972  -4.331  0.00  0.00    -0.002 A 
ATOM      2  C1  UNL d   1      -1.771   1.223  -4.616  0.00  0.00     0.010 A 
ATOM      3  C2  UNL d   1      -1.332   2.524  -4.873  0.00  0.00     0.041 A 
ATOM      4  C3  UNL d   1      -2.266   3.578  -4.837  0.00  0.00    -0.075 A 
ATOM      5  S   UNL d   1      -1.958   5.250  -5.118  0.00  0.00     0.015 SA
ATOM      6  C4  UNL d   1      -3.590   5.670  -4.866  0.00  0.00     0.022 A 
ATOM      7  C5  UNL d   1      -4.366   4.574  -4.573  0.00  0.00     0.026 A 
ATOM      8  C6  UNL d   1      -3.616   3.349  -4.551  0.00  0.00    -0.082 A 
ATOM      9  C7  UNL d   1      -4.029   2.020  -4.296  0.00  0.00     0.045 A 
ENDROOT
TORSDOF 0
ENDMDL
