MODEL 1
REMARK minimizedAffinity 0.0625498071
REMARK minimizedRMSD -1
REMARK  0 active torsions:
REMARK  status: ('A' for Active; 'I' for Inactive)
ROOT
ATOM      1  C   UNL d   1      -4.339   1.536  -3.079  0.00  0.00    -0.002 A 
ATOM      2  C1  UNL d   1      -5.421   1.132  -3.847  0.00  0.00     0.010 A 
ATOM      3  C2  UNL d   1      -5.997   2.001  -4.777  0.00  0.00     0.041 A 
ATOM      4  C3  UNL d   1      -5.459   3.295  -4.924  0.00  0.00    -0.075 A 
ATOM      5  S   UNL d   1      -6.000   4.529  -6.000  0.00  0.00     0.015 SA
ATOM      6  C4  UNL d   1      -4.805   5.621  -5.466  0.00  0.00     0.022 A 
ATOM      7  C5  UNL d   1      -4.005   5.074  -4.491  0.00  0.00     0.026 A 
ATOM      8  C6  UNL d   1      -4.368   3.725  -4.163  0.00  0.00    -0.082 A 
ATOM      9  C7  UNL d   1      -3.808   2.821  -3.228  0.00  0.00     0.045 A 
ENDROOT
TORSDOF 0
ENDMDL
