MODEL 1
REMARK minimizedAffinity 14.9896183
REMARK minimizedRMSD -1
REMARK  1 active torsions:
REMARK  status: ('A' for Active; 'I' for Inactive)
REMARK    1  A    between atoms: C1_2  and  C2_3 
ROOT
ATOM      1  C2  UNL d   1      -3.711   2.522  -3.395  0.00  0.00    -0.076 A 
ATOM      2  C3  UNL d   1      -4.090   3.195  -2.221  0.00  0.00     0.004 A 
ATOM      3  C4  UNL d   1      -4.315   4.571  -2.223  0.00  0.00    -0.003 A 
ATOM      4  C5  UNL d   1      -4.164   5.296  -3.400  0.00  0.00     0.000 A 
ATOM      5  C6  UNL d   1      -3.805   4.642  -4.578  0.00  0.00     0.000 A 
ATOM      6  C7  UNL d   1      -3.591   3.253  -4.597  0.00  0.00    -0.073 A 
ATOM      7  C8  UNL d   1      -3.200   2.601  -5.894  0.00  0.00     0.078 C 
ENDROOT
BRANCH   1   8
ATOM      8  C1  UNL d   1      -3.455   1.034  -3.327  0.00  0.00     0.053 C 
ATOM      9  C   UNL d   1      -2.845   0.608  -2.000  0.00  0.00     0.018 C 
ENDBRANCH   1   8
TORSDOF 1
ENDMDL
