MODEL 1
REMARK minimizedAffinity 8.52898026
REMARK minimizedRMSD -1
REMARK  1 active torsions:
REMARK  status: ('A' for Active; 'I' for Inactive)
REMARK    1  A    between atoms: C1_2  and  C2_3 
ROOT
ATOM      1  C2  UNL d   1       2.449  -2.614   3.811  0.00  0.00    -0.076 A 
ATOM      2  C3  UNL d   1       2.036  -1.391   3.255  0.00  0.00     0.004 A 
ATOM      3  C4  UNL d   1       1.500  -0.383   4.056  0.00  0.00    -0.003 A 
ATOM      4  C5  UNL d   1       1.369  -0.583   5.426  0.00  0.00     0.000 A 
ATOM      5  C6  UNL d   1       1.790  -1.783   5.997  0.00  0.00     0.000 A 
ATOM      6  C7  UNL d   1       2.347  -2.803   5.206  0.00  0.00    -0.073 A 
ATOM      7  C8  UNL d   1       2.778  -4.080   5.874  0.00  0.00     0.078 C 
ENDROOT
BRANCH   1   8
ATOM      8  C1  UNL d   1       2.997  -3.680   2.890  0.00  0.00     0.053 C 
ATOM      9  C   UNL d   1       2.778  -3.350   1.421  0.00  0.00     0.018 C 
ENDBRANCH   1   8
TORSDOF 1
ENDMDL
