MODEL 1
REMARK minimizedAffinity 2.26185822
REMARK minimizedRMSD -1
REMARK  1 active torsions:
REMARK  status: ('A' for Active; 'I' for Inactive)
REMARK    1  A    between atoms: C1_2  and  C2_3 
ROOT
ATOM      1  C2  UNL d   1      -3.562   2.962  -3.124  0.00  0.00    -0.076 A 
ATOM      2  C3  UNL d   1      -3.324   3.202  -4.488  0.00  0.00     0.004 A 
ATOM      3  C4  UNL d   1      -3.778   4.368  -5.102  0.00  0.00    -0.003 A 
ATOM      4  C5  UNL d   1      -4.477   5.314  -4.360  0.00  0.00     0.000 A 
ATOM      5  C6  UNL d   1      -4.707   5.101  -3.001  0.00  0.00     0.000 A 
ATOM      6  C7  UNL d   1      -4.242   3.938  -2.364  0.00  0.00    -0.073 A 
ATOM      7  C8  UNL d   1      -4.523   3.757  -0.897  0.00  0.00     0.078 C 
ENDROOT
BRANCH   1   8
ATOM      8  C1  UNL d   1      -3.069   1.667  -2.519  0.00  0.00     0.053 C 
ATOM      9  C   UNL d   1      -3.397   0.459  -3.383  0.00  0.00     0.018 C 
ENDBRANCH   1   8
TORSDOF 1
ENDMDL
