MODEL 1
REMARK minimizedAffinity 12.9005232
REMARK minimizedRMSD -1
REMARK  1 active torsions:
REMARK  status: ('A' for Active; 'I' for Inactive)
REMARK    1  A    between atoms: C1_2  and  C2_3 
ROOT
ATOM      1  C2  UNL d   1      -1.446  -0.864   0.240  0.00  0.00    -0.076 A 
ATOM      2  C3  UNL d   1      -2.370  -0.639  -0.795  0.00  0.00     0.004 A 
ATOM      3  C4  UNL d   1      -2.246   0.463  -1.640  0.00  0.00    -0.003 A 
ATOM      4  C5  UNL d   1      -1.197   1.358  -1.463  0.00  0.00     0.000 A 
ATOM      5  C6  UNL d   1      -0.261   1.141  -0.452  0.00  0.00     0.000 A 
ATOM      6  C7  UNL d   1      -0.362   0.026   0.398  0.00  0.00    -0.073 A 
ATOM      7  C8  UNL d   1       0.672  -0.156   1.475  0.00  0.00     0.078 C 
ENDROOT
BRANCH   1   8
ATOM      8  C1  UNL d   1      -1.646  -2.061   1.142  0.00  0.00     0.053 C 
ATOM      9  C   UNL d   1      -1.569  -3.379   0.387  0.00  0.00     0.018 C 
ENDBRANCH   1   8
TORSDOF 1
ENDMDL
