MODEL 1
REMARK minimizedAffinity 7.36947203
REMARK minimizedRMSD -1
REMARK  1 active torsions:
REMARK  status: ('A' for Active; 'I' for Inactive)
REMARK    1  A    between atoms: C1_2  and  C2_3 
ROOT
ATOM      1  C2  UNL d   1       0.297  -4.510  -0.932  0.00  0.00    -0.076 A 
ATOM      2  C3  UNL d   1      -0.776  -4.256  -1.804  0.00  0.00     0.004 A 
ATOM      3  C4  UNL d   1      -2.026  -3.880  -1.314  0.00  0.00    -0.003 A 
ATOM      4  C5  UNL d   1      -2.222  -3.749   0.056  0.00  0.00     0.000 A 
ATOM      5  C6  UNL d   1      -1.164  -3.980   0.935  0.00  0.00     0.000 A 
ATOM      6  C7  UNL d   1       0.106  -4.344   0.457  0.00  0.00    -0.073 A 
ATOM      7  C8  UNL d   1       1.210  -4.586   1.450  0.00  0.00     0.078 C 
ENDROOT
BRANCH   1   8
ATOM      8  C1  UNL d   1       1.621  -4.942  -1.520  0.00  0.00     0.053 C 
ATOM      9  C   UNL d   1       2.101  -4.010  -2.622  0.00  0.00     0.018 C 
ENDBRANCH   1   8
TORSDOF 1
ENDMDL
