MODEL 1
REMARK minimizedAffinity 12.0821838
REMARK minimizedRMSD -1
REMARK  1 active torsions:
REMARK  status: ('A' for Active; 'I' for Inactive)
REMARK    1  A    between atoms: C1_2  and  C2_3 
ROOT
ATOM      1  C2  UNL d   1      -3.999   3.349  -2.379  0.00  0.00    -0.076 A 
ATOM      2  C3  UNL d   1      -3.266   3.858  -3.466  0.00  0.00     0.004 A 
ATOM      3  C4  UNL d   1      -3.696   4.991  -4.153  0.00  0.00    -0.003 A 
ATOM      4  C5  UNL d   1      -4.867   5.635  -3.766  0.00  0.00     0.000 A 
ATOM      5  C6  UNL d   1      -5.597   5.154  -2.679  0.00  0.00     0.000 A 
ATOM      6  C7  UNL d   1      -5.168   4.022  -1.965  0.00  0.00    -0.073 A 
ATOM      7  C8  UNL d   1      -5.998   3.544  -0.805  0.00  0.00     0.078 C 
ENDROOT
BRANCH   1   8
ATOM      8  C1  UNL d   1      -3.498   2.101  -1.689  0.00  0.00     0.053 C 
ATOM      9  C   UNL d   1      -2.274   1.509  -2.370  0.00  0.00     0.018 C 
ENDBRANCH   1   8
TORSDOF 1
ENDMDL
