MODEL 1
REMARK minimizedAffinity 8.48409081
REMARK minimizedRMSD -1
REMARK  1 active torsions:
REMARK  status: ('A' for Active; 'I' for Inactive)
REMARK    1  A    between atoms: C1_2  and  C2_3 
ROOT
ATOM      1  C2  UNL d   1       4.662  -2.172  -1.270  0.00  0.00    -0.076 A 
ATOM      2  C3  UNL d   1       4.524  -3.539  -1.567  0.00  0.00     0.004 A 
ATOM      3  C4  UNL d   1       3.995  -3.959  -2.786  0.00  0.00    -0.003 A 
ATOM      4  C5  UNL d   1       3.597  -3.019  -3.729  0.00  0.00     0.000 A 
ATOM      5  C6  UNL d   1       3.743  -1.658  -3.459  0.00  0.00     0.000 A 
ATOM      6  C7  UNL d   1       4.289  -1.218  -2.242  0.00  0.00    -0.073 A 
ATOM      7  C8  UNL d   1       4.418   0.261  -2.001  0.00  0.00     0.078 C 
ENDROOT
BRANCH   1   8
ATOM      8  C1  UNL d   1       5.217  -1.776   0.079  0.00  0.00     0.053 C 
ATOM      9  C   UNL d   1       6.000  -2.900   0.740  0.00  0.00     0.018 C 
ENDBRANCH   1   8
TORSDOF 1
ENDMDL
