MODEL 1
REMARK minimizedAffinity 18.2493935
REMARK minimizedRMSD -1
REMARK  1 active torsions:
REMARK  status: ('A' for Active; 'I' for Inactive)
REMARK    1  A    between atoms: C1_2  and  C2_3 
ROOT
ATOM      1  C2  UNL d   1       3.566  -2.021   1.508  0.00  0.00    -0.076 A 
ATOM      2  C3  UNL d   1       3.369  -0.827   0.793  0.00  0.00     0.004 A 
ATOM      3  C4  UNL d   1       2.128  -0.193   0.783  0.00  0.00    -0.003 A 
ATOM      4  C5  UNL d   1       1.063  -0.742   1.488  0.00  0.00     0.000 A 
ATOM      5  C6  UNL d   1       1.245  -1.917   2.217  0.00  0.00     0.000 A 
ATOM      6  C7  UNL d   1       2.494  -2.560   2.251  0.00  0.00    -0.073 A 
ATOM      7  C8  UNL d   1       2.631  -3.828   3.049  0.00  0.00     0.078 C 
ENDROOT
BRANCH   1   8
ATOM      8  C1  UNL d   1       4.926  -2.678   1.460  0.00  0.00     0.053 C 
ATOM      9  C   UNL d   1       5.996  -1.856   2.163  0.00  0.00     0.018 C 
ENDBRANCH   1   8
TORSDOF 1
ENDMDL
