MODEL 1
REMARK minimizedAffinity 11.1939592
REMARK minimizedRMSD -1
REMARK  1 active torsions:
REMARK  status: ('A' for Active; 'I' for Inactive)
REMARK    1  A    between atoms: C1_2  and  C2_3 
ROOT
ATOM      1  C2  UNL d   1       3.783  -2.049   1.704  0.00  0.00    -0.076 A 
ATOM      2  C3  UNL d   1       3.520  -0.686   1.483  0.00  0.00     0.004 A 
ATOM      3  C4  UNL d   1       2.217  -0.193   1.517  0.00  0.00    -0.003 A 
ATOM      4  C5  UNL d   1       1.156  -1.054   1.774  0.00  0.00     0.000 A 
ATOM      5  C6  UNL d   1       1.400  -2.405   2.013  0.00  0.00     0.000 A 
ATOM      6  C7  UNL d   1       2.709  -2.917   1.998  0.00  0.00    -0.073 A 
ATOM      7  C8  UNL d   1       2.914  -4.384   2.257  0.00  0.00     0.078 C 
ENDROOT
BRANCH   1   8
ATOM      8  C1  UNL d   1       5.213  -2.533   1.628  0.00  0.00     0.053 C 
ATOM      9  C   UNL d   1       5.998  -2.233   2.896  0.00  0.00     0.018 C 
ENDBRANCH   1   8
TORSDOF 1
ENDMDL
