MODEL 1
REMARK minimizedAffinity 14.9636984
REMARK minimizedRMSD -1
REMARK  1 active torsions:
REMARK  status: ('A' for Active; 'I' for Inactive)
REMARK    1  A    between atoms: C1_2  and  C2_3 
ROOT
ATOM      1  C2  UNL d   1       0.982  -5.660  -0.964  0.00  0.00    -0.076 A 
ATOM      2  C3  UNL d   1      -0.140  -5.660  -1.810  0.00  0.00     0.004 A 
ATOM      3  C4  UNL d   1      -1.426  -5.829  -1.298  0.00  0.00    -0.003 A 
ATOM      4  C5  UNL d   1      -1.609  -6.000   0.070  0.00  0.00     0.000 A 
ATOM      5  C6  UNL d   1      -0.509  -5.985   0.926  0.00  0.00     0.000 A 
ATOM      6  C7  UNL d   1       0.792  -5.799   0.428  0.00  0.00    -0.073 A 
ATOM      7  C8  UNL d   1       1.943  -5.798   1.396  0.00  0.00     0.078 C 
ENDROOT
BRANCH   1   8
ATOM      8  C1  UNL d   1       2.353  -5.500  -1.580  0.00  0.00     0.053 C 
ATOM      9  C   UNL d   1       2.295  -4.954  -2.998  0.00  0.00     0.018 C 
ENDBRANCH   1   8
TORSDOF 1
ENDMDL
