MODEL 1
REMARK minimizedAffinity 17.2173386
REMARK minimizedRMSD -1
REMARK  1 active torsions:
REMARK  status: ('A' for Active; 'I' for Inactive)
REMARK    1  A    between atoms: C1_2  and  C2_3 
ROOT
ATOM      1  C2  UNL d   1       1.246  -0.592   2.143  0.00  0.00    -0.076 A 
ATOM      2  C3  UNL d   1       0.768  -1.131   3.349  0.00  0.00     0.004 A 
ATOM      3  C4  UNL d   1       1.258  -2.341   3.838  0.00  0.00    -0.003 A 
ATOM      4  C5  UNL d   1       2.234  -3.031   3.128  0.00  0.00     0.000 A 
ATOM      5  C6  UNL d   1       2.733  -2.502   1.938  0.00  0.00     0.000 A 
ATOM      6  C7  UNL d   1       2.262  -1.275   1.440  0.00  0.00    -0.073 A 
ATOM      7  C8  UNL d   1       2.830  -0.754   0.148  0.00  0.00     0.078 C 
ENDROOT
BRANCH   1   8
ATOM      8  C1  UNL d   1       0.658   0.711   1.648  0.00  0.00     0.053 C 
ATOM      9  C   UNL d   1       1.368   1.926   2.225  0.00  0.00     0.018 C 
ENDBRANCH   1   8
TORSDOF 1
ENDMDL
