MODEL 1
REMARK minimizedAffinity 8.67307663
REMARK minimizedRMSD -1
REMARK  1 active torsions:
REMARK  status: ('A' for Active; 'I' for Inactive)
REMARK    1  A    between atoms: C1_2  and  C2_3 
ROOT
ATOM      1  C2  UNL d   1      -4.517   4.010   0.753  0.00  0.00    -0.076 A 
ATOM      2  C3  UNL d   1      -3.505   3.424  -0.028  0.00  0.00     0.004 A 
ATOM      3  C4  UNL d   1      -2.281   3.068   0.534  0.00  0.00    -0.003 A 
ATOM      4  C5  UNL d   1      -2.047   3.292   1.887  0.00  0.00     0.000 A 
ATOM      5  C6  UNL d   1      -3.046   3.856   2.680  0.00  0.00     0.000 A 
ATOM      6  C7  UNL d   1      -4.292   4.205   2.133  0.00  0.00    -0.073 A 
ATOM      7  C8  UNL d   1      -5.331   4.816   3.034  0.00  0.00     0.078 C 
ENDROOT
BRANCH   1   8
ATOM      8  C1  UNL d   1      -5.815   4.400   0.083  0.00  0.00     0.053 C 
ATOM      9  C   UNL d   1      -5.767   5.800  -0.509  0.00  0.00     0.018 C 
ENDBRANCH   1   8
TORSDOF 1
ENDMDL
