MODEL 1
REMARK minimizedAffinity 15.5767479
REMARK minimizedRMSD -1
REMARK  1 active torsions:
REMARK  status: ('A' for Active; 'I' for Inactive)
REMARK    1  A    between atoms: C1_2  and  C2_3 
ROOT
ATOM      1  C2  UNL d   1      -4.540  -3.555  -3.964  0.00  0.00    -0.076 A 
ATOM      2  C3  UNL d   1      -3.976  -4.700  -3.375  0.00  0.00     0.004 A 
ATOM      3  C4  UNL d   1      -3.895  -5.902  -4.077  0.00  0.00    -0.003 A 
ATOM      4  C5  UNL d   1      -4.375  -5.977  -5.379  0.00  0.00     0.000 A 
ATOM      5  C6  UNL d   1      -4.921  -4.846  -5.986  0.00  0.00     0.000 A 
ATOM      6  C7  UNL d   1      -4.995  -3.623  -5.298  0.00  0.00    -0.073 A 
ATOM      7  C8  UNL d   1      -5.599  -2.437  -5.998  0.00  0.00     0.078 C 
ENDROOT
BRANCH   1   8
ATOM      8  C1  UNL d   1      -4.626  -2.287  -3.145  0.00  0.00     0.053 C 
ATOM      9  C   UNL d   1      -3.728  -1.183  -3.683  0.00  0.00     0.018 C 
ENDBRANCH   1   8
TORSDOF 1
ENDMDL
