MODEL 1
REMARK minimizedAffinity 16.1834068
REMARK minimizedRMSD -1
REMARK  1 active torsions:
REMARK  status: ('A' for Active; 'I' for Inactive)
REMARK    1  A    between atoms: C1_2  and  C2_3 
ROOT
ATOM      1  C2  UNL d   1      -2.911   0.526  -2.268  0.00  0.00    -0.076 A 
ATOM      2  C3  UNL d   1      -2.270   0.119  -1.085  0.00  0.00     0.004 A 
ATOM      3  C4  UNL d   1      -1.971   1.036  -0.079  0.00  0.00    -0.003 A 
ATOM      4  C5  UNL d   1      -2.309   2.376  -0.239  0.00  0.00     0.000 A 
ATOM      5  C6  UNL d   1      -2.962   2.794  -1.398  0.00  0.00     0.000 A 
ATOM      6  C7  UNL d   1      -3.285   1.879  -2.415  0.00  0.00    -0.073 A 
ATOM      7  C8  UNL d   1      -3.983   2.386  -3.647  0.00  0.00     0.078 C 
ENDROOT
BRANCH   1   8
ATOM      8  C1  UNL d   1      -3.185  -0.509  -3.336  0.00  0.00     0.053 C 
ATOM      9  C   UNL d   1      -4.556  -1.150  -3.188  0.00  0.00     0.018 C 
ENDBRANCH   1   8
TORSDOF 1
ENDMDL
