MODEL 1
REMARK minimizedAffinity 12.5556297
REMARK minimizedRMSD -1
REMARK  1 active torsions:
REMARK  status: ('A' for Active; 'I' for Inactive)
REMARK    1  A    between atoms: C1_2  and  C2_3 
ROOT
ATOM      1  C2  UNL d   1      -3.958   2.943  -0.869  0.00  0.00    -0.076 A 
ATOM      2  C3  UNL d   1      -4.262   2.640  -2.208  0.00  0.00     0.004 A 
ATOM      3  C4  UNL d   1      -3.484   1.740  -2.934  0.00  0.00    -0.003 A 
ATOM      4  C5  UNL d   1      -2.390   1.127  -2.333  0.00  0.00     0.000 A 
ATOM      5  C6  UNL d   1      -2.085   1.402  -1.000  0.00  0.00     0.000 A 
ATOM      6  C7  UNL d   1      -2.868   2.295  -0.249  0.00  0.00    -0.073 A 
ATOM      7  C8  UNL d   1      -2.490   2.559   1.183  0.00  0.00     0.078 C 
ENDROOT
BRANCH   1   8
ATOM      8  C1  UNL d   1      -4.821   3.948  -0.140  0.00  0.00     0.053 C 
ATOM      9  C   UNL d   1      -5.997   4.423  -0.979  0.00  0.00     0.018 C 
ENDBRANCH   1   8
TORSDOF 1
ENDMDL
