MODEL 1
REMARK minimizedAffinity 8.57804489
REMARK minimizedRMSD -1
REMARK  1 active torsions:
REMARK  status: ('A' for Active; 'I' for Inactive)
REMARK    1  A    between atoms: C1_2  and  C2_3 
ROOT
ATOM      1  C2  UNL d   1       2.097  -2.001   2.305  0.00  0.00    -0.076 A 
ATOM      2  C3  UNL d   1       0.785  -1.694   2.705  0.00  0.00     0.004 A 
ATOM      3  C4  UNL d   1       0.273  -0.406   2.561  0.00  0.00    -0.003 A 
ATOM      4  C5  UNL d   1       1.065   0.597   2.012  0.00  0.00     0.000 A 
ATOM      5  C6  UNL d   1       2.363   0.307   1.593  0.00  0.00     0.000 A 
ATOM      6  C7  UNL d   1       2.889  -0.991   1.717  0.00  0.00    -0.073 A 
ATOM      7  C8  UNL d   1       4.297  -1.246   1.254  0.00  0.00     0.078 C 
ENDROOT
BRANCH   1   8
ATOM      8  C1  UNL d   1       2.607  -3.409   2.511  0.00  0.00     0.053 C 
ATOM      9  C   UNL d   1       1.696  -4.456   1.889  0.00  0.00     0.018 C 
ENDBRANCH   1   8
TORSDOF 1
ENDMDL
