MODEL 1
REMARK minimizedAffinity 7.57345629
REMARK minimizedRMSD -1
REMARK  1 active torsions:
REMARK  status: ('A' for Active; 'I' for Inactive)
REMARK    1  A    between atoms: C1_2  and  C2_3 
ROOT
ATOM      1  C2  UNL d   1       0.975  -2.073   3.485  0.00  0.00    -0.076 A 
ATOM      2  C3  UNL d   1       1.420  -2.796   2.365  0.00  0.00     0.004 A 
ATOM      3  C4  UNL d   1       2.077  -2.158   1.314  0.00  0.00    -0.003 A 
ATOM      4  C5  UNL d   1       2.301  -0.786   1.367  0.00  0.00     0.000 A 
ATOM      5  C6  UNL d   1       1.882  -0.056   2.479  0.00  0.00     0.000 A 
ATOM      6  C7  UNL d   1       1.233  -0.687   3.554  0.00  0.00    -0.073 A 
ATOM      7  C8  UNL d   1       0.797   0.150   4.726  0.00  0.00     0.078 C 
ENDROOT
BRANCH   1   8
ATOM      8  C1  UNL d   1       0.244  -2.814   4.581  0.00  0.00     0.053 C 
ATOM      9  C   UNL d   1       1.094  -3.903   5.216  0.00  0.00     0.018 C 
ENDBRANCH   1   8
TORSDOF 1
ENDMDL
