MODEL 1
REMARK minimizedAffinity 0.0587982759
REMARK minimizedRMSD -1
REMARK  0 active torsions:
REMARK  status: ('A' for Active; 'I' for Inactive)
ROOT
ATOM      1  N1  IND d   1       0.625  -0.102  -1.554  0.00  0.00    -0.196 N 
ATOM      2  C2  IND d   1       0.729  -1.464  -1.520  0.00  0.00     0.054 A 
ATOM      3  C3  IND d   1       0.651  -1.911  -0.247  0.00  0.00    -0.031 A 
ATOM      4  C4  IND d   1       0.252  -0.591   1.927  0.00  0.00     0.051 A 
ATOM      5  C5  IND d   1       0.132   0.683   2.408  0.00  0.00    -0.031 A 
ATOM      6  C6  IND d   1       0.169   1.783   1.575  0.00  0.00     0.015 A 
ATOM      7  C7  IND d   1       0.316   1.648   0.223  0.00  0.00    -0.016 A 
ATOM      8  C8  IND d   1       0.445   0.356  -0.267  0.00  0.00    -0.047 A 
ATOM      9  C9  IND d   1       0.451  -0.761   0.578  0.00  0.00    -0.096 A 
ATOM     10  HN1 IND d   1       0.667   0.387  -2.260  0.00  0.00     0.298 HD
ENDROOT
TORSDOF 0
ENDMDL
