MODEL 1
REMARK minimizedAffinity -0.776482522
REMARK minimizedRMSD -1
REMARK  0 active torsions:
REMARK  status: ('A' for Active; 'I' for Inactive)
ROOT
ATOM      1  N1  IND d   1      -0.185   2.461  -2.005  0.00  0.00    -0.196 N 
ATOM      2  C2  IND d   1      -0.271   3.777  -1.644  0.00  0.00     0.054 A 
ATOM      3  C3  IND d   1      -0.175   3.903  -0.301  0.00  0.00    -0.031 A 
ATOM      4  C4  IND d   1       0.231   2.096   1.487  0.00  0.00     0.051 A 
ATOM      5  C5  IND d   1       0.340   0.743   1.645  0.00  0.00    -0.031 A 
ATOM      6  C6  IND d   1       0.282  -0.124   0.573  0.00  0.00     0.015 A 
ATOM      7  C7  IND d   1       0.122   0.333  -0.704  0.00  0.00    -0.016 A 
ATOM      8  C8  IND d   1       0.004   1.706  -0.868  0.00  0.00    -0.047 A 
ATOM      9  C9  IND d   1       0.020   2.587   0.220  0.00  0.00    -0.096 A 
ATOM     10  HN1 IND d   1      -0.239   2.157  -2.807  0.00  0.00     0.298 HD
ENDROOT
TORSDOF 0
ENDMDL
