MODEL 1
REMARK minimizedAffinity -5.60665417
REMARK minimizedRMSD -1
REMARK  0 active torsions:
REMARK  status: ('A' for Active; 'I' for Inactive)
ROOT
ATOM      1  N1  IND d   1       0.427  -0.011  -1.130  0.00  0.00    -0.196 N 
ATOM      2  C2  IND d   1       0.682  -0.787  -0.033  0.00  0.00     0.054 A 
ATOM      3  C3  IND d   1       0.454  -0.087   1.101  0.00  0.00    -0.031 A 
ATOM      4  C4  IND d   1      -0.436   2.311   1.392  0.00  0.00     0.051 A 
ATOM      5  C5  IND d   1      -0.778   3.427   0.681  0.00  0.00    -0.031 A 
ATOM      6  C6  IND d   1      -0.737   3.453  -0.698  0.00  0.00     0.015 A 
ATOM      7  C7  IND d   1      -0.363   2.356  -1.421  0.00  0.00    -0.016 A 
ATOM      8  C8  IND d   1      -0.008   1.224  -0.702  0.00  0.00    -0.047 A 
ATOM      9  C9  IND d   1      -0.006   1.204   0.699  0.00  0.00    -0.096 A 
ATOM     10  HN1 IND d   1       0.523  -0.254  -1.949  0.00  0.00     0.298 HD
ENDROOT
TORSDOF 0
ENDMDL
