MODEL 1
REMARK minimizedAffinity -2.2999661
REMARK minimizedRMSD -1
REMARK  0 active torsions:
REMARK  status: ('A' for Active; 'I' for Inactive)
ROOT
ATOM      1  N1  IND d   1       1.151  -0.817  -0.782  0.00  0.00    -0.196 N 
ATOM      2  C2  IND d   1      -0.040  -0.146  -0.769  0.00  0.00     0.054 A 
ATOM      3  C3  IND d   1      -1.071  -1.020  -0.761  0.00  0.00    -0.031 A 
ATOM      4  C4  IND d   1      -1.035  -3.592  -0.667  0.00  0.00     0.051 A 
ATOM      5  C5  IND d   1      -0.182  -4.660  -0.701  0.00  0.00    -0.031 A 
ATOM      6  C6  IND d   1       1.187  -4.497  -0.762  0.00  0.00     0.015 A 
ATOM      7  C7  IND d   1       1.756  -3.256  -0.780  0.00  0.00    -0.016 A 
ATOM      8  C8  IND d   1       0.893  -2.170  -0.753  0.00  0.00    -0.047 A 
ATOM      9  C9  IND d   1      -0.499  -2.328  -0.734  0.00  0.00    -0.096 A 
ATOM     10  HN1 IND d   1       1.931  -0.455  -0.805  0.00  0.00     0.298 HD
ENDROOT
TORSDOF 0
ENDMDL
