MODEL 1
REMARK minimizedAffinity -2.33597183
REMARK minimizedRMSD -1
REMARK  0 active torsions:
REMARK  status: ('A' for Active; 'I' for Inactive)
ROOT
ATOM      1  N1  IND d   1       1.261  -0.697  -0.860  0.00  0.00    -0.196 N 
ATOM      2  C2  IND d   1       0.041  -0.415  -1.409  0.00  0.00     0.054 A 
ATOM      3  C3  IND d   1      -0.876  -0.212  -0.436  0.00  0.00    -0.031 A 
ATOM      4  C4  IND d   1      -0.573  -0.193   2.120  0.00  0.00     0.051 A 
ATOM      5  C5  IND d   1       0.352  -0.434   3.097  0.00  0.00    -0.031 A 
ATOM      6  C6  IND d   1       1.655  -0.778   2.799  0.00  0.00     0.015 A 
ATOM      7  C7  IND d   1       2.085  -0.885   1.506  0.00  0.00    -0.016 A 
ATOM      8  C8  IND d   1       1.147  -0.648   0.512  0.00  0.00    -0.047 A 
ATOM      9  C9  IND d   1      -0.187  -0.340   0.809  0.00  0.00    -0.096 A 
ATOM     10  HN1 IND d   1       1.979  -0.874  -1.298  0.00  0.00     0.298 HD
ENDROOT
TORSDOF 0
ENDMDL
