MODEL 1
REMARK minimizedAffinity -4.3963871
REMARK minimizedRMSD -1
REMARK  0 active torsions:
REMARK  status: ('A' for Active; 'I' for Inactive)
ROOT
ATOM      1  N1  IND d   1       0.287   1.813  -1.369  0.00  0.00    -0.196 N 
ATOM      2  C2  IND d   1       0.303   3.125  -0.986  0.00  0.00     0.054 A 
ATOM      3  C3  IND d   1       0.243   3.222   0.361  0.00  0.00    -0.031 A 
ATOM      4  C4  IND d   1       0.213   1.357   2.136  0.00  0.00     0.051 A 
ATOM      5  C5  IND d   1       0.150  -0.001   2.270  0.00  0.00    -0.031 A 
ATOM      6  C6  IND d   1       0.131  -0.842   1.176  0.00  0.00     0.015 A 
ATOM      7  C7  IND d   1       0.187  -0.353  -0.099  0.00  0.00    -0.016 A 
ATOM      8  C8  IND d   1       0.244   1.026  -0.239  0.00  0.00    -0.047 A 
ATOM      9  C9  IND d   1       0.221   1.886   0.867  0.00  0.00    -0.096 A 
ATOM     10  HN1 IND d   1       0.301   1.527  -2.180  0.00  0.00     0.298 HD
ENDROOT
TORSDOF 0
ENDMDL
