MODEL 1
REMARK minimizedAffinity -0.348460764
REMARK minimizedRMSD -1
REMARK  0 active torsions:
REMARK  status: ('A' for Active; 'I' for Inactive)
ROOT
ATOM      1  N1  IND d   1       0.505  -0.165  -0.920  0.00  0.00    -0.196 N 
ATOM      2  C2  IND d   1       0.869  -1.243  -0.162  0.00  0.00     0.054 A 
ATOM      3  C3  IND d   1       0.734  -0.961   1.153  0.00  0.00    -0.031 A 
ATOM      4  C4  IND d   1      -0.164   1.170   2.284  0.00  0.00     0.051 A 
ATOM      5  C5  IND d   1      -0.586   2.441   2.008  0.00  0.00    -0.031 A 
ATOM      6  C6  IND d   1      -0.670   2.916   0.715  0.00  0.00     0.015 A 
ATOM      7  C7  IND d   1      -0.345   2.131  -0.355  0.00  0.00    -0.016 A 
ATOM      8  C8  IND d   1       0.090   0.843  -0.078  0.00  0.00    -0.047 A 
ATOM      9  C9  IND d   1       0.219   0.369   1.234  0.00  0.00    -0.096 A 
ATOM     10  HN1 IND d   1       0.530  -0.124  -1.779  0.00  0.00     0.298 HD
ENDROOT
TORSDOF 0
ENDMDL
