MODEL 1
REMARK minimizedAffinity 0.844754577
REMARK minimizedRMSD -1
REMARK  0 active torsions:
REMARK  status: ('A' for Active; 'I' for Inactive)
ROOT
ATOM      1  N1  IND d   1       0.144   0.774  -1.080  0.00  0.00    -0.196 N 
ATOM      2  C2  IND d   1       0.484  -0.460  -1.560  0.00  0.00     0.054 A 
ATOM      3  C3  IND d   1       0.656  -1.330  -0.539  0.00  0.00    -0.031 A 
ATOM      4  C4  IND d   1       0.333  -0.969   1.989  0.00  0.00     0.051 A 
ATOM      5  C5  IND d   1       0.062   0.001   2.913  0.00  0.00    -0.031 A 
ATOM      6  C6  IND d   1      -0.204   1.304   2.545  0.00  0.00     0.015 A 
ATOM      7  C7  IND d   1      -0.220   1.685   1.233  0.00  0.00    -0.016 A 
ATOM      8  C8  IND d   1       0.062   0.704   0.293  0.00  0.00    -0.047 A 
ATOM      9  C9  IND d   1       0.375  -0.610   0.663  0.00  0.00    -0.096 A 
ATOM     10  HN1 IND d   1       0.004   1.477  -1.557  0.00  0.00     0.298 HD
ENDROOT
TORSDOF 0
ENDMDL
