MODEL 1
REMARK minimizedAffinity -3.26276231
REMARK minimizedRMSD -1
REMARK  0 active torsions:
REMARK  status: ('A' for Active; 'I' for Inactive)
ROOT
ATOM      1  N1  IND d   1      -0.120   2.334  -1.453  0.00  0.00    -0.196 N 
ATOM      2  C2  IND d   1      -0.404   3.599  -1.020  0.00  0.00     0.054 A 
ATOM      3  C3  IND d   1      -0.577   3.609   0.321  0.00  0.00    -0.031 A 
ATOM      4  C4  IND d   1      -0.340   1.686   2.015  0.00  0.00     0.051 A 
ATOM      5  C5  IND d   1      -0.129   0.338   2.091  0.00  0.00    -0.031 A 
ATOM      6  C6  IND d   1       0.104  -0.429   0.968  0.00  0.00     0.015 A 
ATOM      7  C7  IND d   1       0.145   0.129  -0.279  0.00  0.00    -0.016 A 
ATOM      8  C8  IND d   1      -0.076   1.496  -0.361  0.00  0.00    -0.047 A 
ATOM      9  C9  IND d   1      -0.355   2.272   0.771  0.00  0.00    -0.096 A 
ATOM     10  HN1 IND d   1       0.010   2.101  -2.271  0.00  0.00     0.298 HD
ENDROOT
TORSDOF 0
ENDMDL
