MODEL 1
REMARK minimizedAffinity -5.49627399
REMARK minimizedRMSD -1
REMARK  0 active torsions:
REMARK  status: ('A' for Active; 'I' for Inactive)
ROOT
ATOM      1  C   UNL d   1       0.582  -0.766  -0.756  0.00  0.00     0.078 C 
ATOM      2  C1  UNL d   1      -0.249   0.120   0.123  0.00  0.00    -0.077 A 
ATOM      3  C2  UNL d   1      -0.270  -0.057   1.512  0.00  0.00    -0.001 A 
ATOM      4  C3  UNL d   1      -1.056   0.769   2.317  0.00  0.00     0.003 A 
ATOM      5  C4  UNL d   1      -1.829   1.776   1.742  0.00  0.00    -0.005 A 
ATOM      6  C5  UNL d   1      -1.816   1.958   0.361  0.00  0.00     0.003 A 
ATOM      7  C6  UNL d   1      -1.031   1.133  -0.446  0.00  0.00    -0.001 A 
ENDROOT
TORSDOF 0
ENDMDL
