MODEL 1
REMARK minimizedAffinity -5.24108267
REMARK minimizedRMSD -1
REMARK  0 active torsions:
REMARK  status: ('A' for Active; 'I' for Inactive)
ROOT
ATOM      1  C   UNL d   1       1.266   0.010  -0.362  0.00  0.00     0.078 C 
ATOM      2  C1  UNL d   1       0.235   0.936   0.211  0.00  0.00    -0.077 A 
ATOM      3  C2  UNL d   1      -0.147   2.099  -0.469  0.00  0.00    -0.001 A 
ATOM      4  C3  UNL d   1      -1.101   2.957   0.080  0.00  0.00     0.003 A 
ATOM      5  C4  UNL d   1      -1.680   2.662   1.313  0.00  0.00    -0.005 A 
ATOM      6  C5  UNL d   1      -1.305   1.508   1.998  0.00  0.00     0.003 A 
ATOM      7  C6  UNL d   1      -0.351   0.649   1.450  0.00  0.00    -0.001 A 
ENDROOT
TORSDOF 0
ENDMDL
