MODEL 1
REMARK minimizedAffinity -4.9887352
REMARK minimizedRMSD -1
REMARK  0 active torsions:
REMARK  status: ('A' for Active; 'I' for Inactive)
ROOT
ATOM      1  C   UNL d   1      -2.249   2.414   1.319  0.00  0.00     0.078 C 
ATOM      2  C1  UNL d   1      -1.143   1.504   0.876  0.00  0.00    -0.077 A 
ATOM      3  C2  UNL d   1      -0.317   1.844  -0.203  0.00  0.00    -0.001 A 
ATOM      4  C3  UNL d   1       0.702   0.982  -0.611  0.00  0.00     0.003 A 
ATOM      5  C4  UNL d   1       0.905  -0.225   0.054  0.00  0.00    -0.005 A 
ATOM      6  C5  UNL d   1       0.088  -0.573   1.127  0.00  0.00     0.003 A 
ATOM      7  C6  UNL d   1      -0.932   0.287   1.536  0.00  0.00    -0.001 A 
ENDROOT
TORSDOF 0
ENDMDL
