MODEL 1
REMARK minimizedAffinity -5.75052071
REMARK minimizedRMSD -1
REMARK  0 active torsions:
REMARK  status: ('A' for Active; 'I' for Inactive)
ROOT
ATOM      1  C   UNL d   1      -0.221   0.042  -0.241  0.00  0.00     0.078 C 
ATOM      2  C1  UNL d   1      -0.441   1.497   0.045  0.00  0.00    -0.077 A 
ATOM      3  C2  UNL d   1       0.183   2.486  -0.725  0.00  0.00    -0.001 A 
ATOM      4  C3  UNL d   1      -0.024   3.837  -0.441  0.00  0.00     0.003 A 
ATOM      5  C4  UNL d   1      -0.853   4.211   0.614  0.00  0.00    -0.005 A 
ATOM      6  C5  UNL d   1      -1.476   3.234   1.388  0.00  0.00     0.003 A 
ATOM      7  C6  UNL d   1      -1.271   1.883   1.105  0.00  0.00    -0.001 A 
ENDROOT
TORSDOF 0
ENDMDL
