MODEL 1
REMARK minimizedAffinity -3.47936678
REMARK minimizedRMSD -1
REMARK  0 active torsions:
REMARK  status: ('A' for Active; 'I' for Inactive)
ROOT
ATOM      1  C   UNL d   1       1.248  -0.868  -0.747  0.00  0.00     0.078 C 
ATOM      2  C1  UNL d   1       0.385  -0.151   0.248  0.00  0.00    -0.077 A 
ATOM      3  C2  UNL d   1       0.096   1.212   0.102  0.00  0.00    -0.001 A 
ATOM      4  C3  UNL d   1      -0.700   1.869   1.041  0.00  0.00     0.003 A 
ATOM      5  C4  UNL d   1      -1.213   1.173   2.134  0.00  0.00    -0.005 A 
ATOM      6  C5  UNL d   1      -0.928  -0.182   2.289  0.00  0.00     0.003 A 
ATOM      7  C6  UNL d   1      -0.132  -0.842   1.351  0.00  0.00    -0.001 A 
ENDROOT
TORSDOF 0
ENDMDL
