MODEL 1
REMARK minimizedAffinity -5.31081152
REMARK minimizedRMSD -1
REMARK  0 active torsions:
REMARK  status: ('A' for Active; 'I' for Inactive)
ROOT
ATOM      1  C   UNL d   1       1.121  -0.851  -0.519  0.00  0.00     0.078 C 
ATOM      2  C1  UNL d   1       0.030  -0.044   0.120  0.00  0.00    -0.077 A 
ATOM      3  C2  UNL d   1      -0.099   0.021   1.512  0.00  0.00    -0.001 A 
ATOM      4  C3  UNL d   1      -1.125   0.768   2.093  0.00  0.00     0.003 A 
ATOM      5  C4  UNL d   1      -2.031   1.456   1.288  0.00  0.00    -0.005 A 
ATOM      6  C5  UNL d   1      -1.912   1.396  -0.099  0.00  0.00     0.003 A 
ATOM      7  C6  UNL d   1      -0.887   0.649  -0.681  0.00  0.00    -0.001 A 
ENDROOT
TORSDOF 0
ENDMDL
