MODEL 1
REMARK minimizedAffinity -2.9261508
REMARK minimizedRMSD -1
REMARK  0 active torsions:
REMARK  status: ('A' for Active; 'I' for Inactive)
ROOT
ATOM      1  C   UNL d   1      -1.131   1.919   2.311  0.00  0.00     0.078 C 
ATOM      2  C1  UNL d   1      -0.510   0.963   1.337  0.00  0.00    -0.077 A 
ATOM      3  C2  UNL d   1      -0.502  -0.415   1.585  0.00  0.00    -0.001 A 
ATOM      4  C3  UNL d   1       0.088  -1.293   0.674  0.00  0.00     0.003 A 
ATOM      5  C4  UNL d   1       0.677  -0.803  -0.489  0.00  0.00    -0.005 A 
ATOM      6  C5  UNL d   1       0.676   0.567  -0.744  0.00  0.00     0.003 A 
ATOM      7  C6  UNL d   1       0.086   1.447   0.166  0.00  0.00    -0.001 A 
ENDROOT
TORSDOF 0
ENDMDL
