MODEL 1
REMARK minimizedAffinity -2.99745393
REMARK minimizedRMSD -1
REMARK  0 active torsions:
REMARK  status: ('A' for Active; 'I' for Inactive)
ROOT
ATOM      1  C   UNL d   1       0.043   3.494  -0.182  0.00  0.00     0.078 C 
ATOM      2  C1  UNL d   1      -0.192   2.120   0.372  0.00  0.00    -0.077 A 
ATOM      3  C2  UNL d   1      -1.108   1.908   1.410  0.00  0.00    -0.001 A 
ATOM      4  C3  UNL d   1      -1.309   0.626   1.923  0.00  0.00     0.003 A 
ATOM      5  C4  UNL d   1      -0.598  -0.455   1.405  0.00  0.00    -0.005 A 
ATOM      6  C5  UNL d   1       0.317  -0.253   0.373  0.00  0.00     0.003 A 
ATOM      7  C6  UNL d   1       0.520   1.029  -0.140  0.00  0.00    -0.001 A 
ENDROOT
TORSDOF 0
ENDMDL
