MODEL 1
REMARK minimizedAffinity -5.36838245
REMARK minimizedRMSD -1
REMARK  0 active torsions:
REMARK  status: ('A' for Active; 'I' for Inactive)
ROOT
ATOM      1  C   UNL d   1       0.610  -0.362  -0.079  0.00  0.00     0.078 C 
ATOM      2  C1  UNL d   1      -0.229   0.829   0.277  0.00  0.00    -0.077 A 
ATOM      3  C2  UNL d   1      -1.325   0.708   1.140  0.00  0.00    -0.001 A 
ATOM      4  C3  UNL d   1      -2.103   1.823   1.455  0.00  0.00     0.003 A 
ATOM      5  C4  UNL d   1      -1.794   3.068   0.909  0.00  0.00    -0.005 A 
ATOM      6  C5  UNL d   1      -0.707   3.198   0.047  0.00  0.00     0.003 A 
ATOM      7  C6  UNL d   1       0.072   2.083  -0.268  0.00  0.00    -0.001 A 
ENDROOT
TORSDOF 0
ENDMDL
