MODEL 1
REMARK minimizedAffinity -5.40967703
REMARK minimizedRMSD -1
REMARK  0 active torsions:
REMARK  status: ('A' for Active; 'I' for Inactive)
ROOT
ATOM      1  C   UNL d   1      -0.108  -0.495   1.936  0.00  0.00     0.078 C 
ATOM      2  C1  UNL d   1      -0.458   0.749   1.176  0.00  0.00    -0.077 A 
ATOM      3  C2  UNL d   1       0.142   1.034  -0.057  0.00  0.00    -0.001 A 
ATOM      4  C3  UNL d   1      -0.186   2.201  -0.749  0.00  0.00     0.003 A 
ATOM      5  C4  UNL d   1      -1.114   3.093  -0.215  0.00  0.00    -0.005 A 
ATOM      6  C5  UNL d   1      -1.714   2.819   1.012  0.00  0.00     0.003 A 
ATOM      7  C6  UNL d   1      -1.387   1.653   1.705  0.00  0.00    -0.001 A 
ENDROOT
TORSDOF 0
ENDMDL
