MODEL 1
REMARK minimizedAffinity -4.54516506
REMARK minimizedRMSD -1
REMARK  0 active torsions:
REMARK  status: ('A' for Active; 'I' for Inactive)
ROOT
ATOM      1  C   UNL d   1       0.375  -0.304  -0.387  0.00  0.00     0.078 C 
ATOM      2  C1  UNL d   1      -0.330   0.958   0.010  0.00  0.00    -0.077 A 
ATOM      3  C2  UNL d   1      -0.164   2.139  -0.724  0.00  0.00    -0.001 A 
ATOM      4  C3  UNL d   1      -0.819   3.309  -0.338  0.00  0.00     0.003 A 
ATOM      5  C4  UNL d   1      -1.644   3.310   0.785  0.00  0.00    -0.005 A 
ATOM      6  C5  UNL d   1      -1.814   2.141   1.523  0.00  0.00     0.003 A 
ATOM      7  C6  UNL d   1      -1.160   0.970   1.138  0.00  0.00    -0.001 A 
ENDROOT
TORSDOF 0
ENDMDL
