MODEL 1
REMARK minimizedAffinity -3.79722285
REMARK minimizedRMSD -1
REMARK  0 active torsions:
REMARK  status: ('A' for Active; 'I' for Inactive)
ROOT
ATOM      1  C   UNL d   1       0.686  -0.170  -0.652  0.00  0.00     0.078 C 
ATOM      2  C1  UNL d   1       0.641  -1.491  -1.360  0.00  0.00    -0.077 A 
ATOM      3  C2  UNL d   1      -0.318  -1.747  -2.347  0.00  0.00    -0.001 A 
ATOM      4  C3  UNL d   1      -0.355  -2.985  -2.992  0.00  0.00     0.003 A 
ATOM      5  C4  UNL d   1       0.565  -3.976  -2.656  0.00  0.00    -0.005 A 
ATOM      6  C5  UNL d   1       1.522  -3.731  -1.673  0.00  0.00     0.003 A 
ATOM      7  C6  UNL d   1       1.560  -2.494  -1.028  0.00  0.00    -0.001 A 
ENDROOT
TORSDOF 0
ENDMDL
