MODEL 1
REMARK minimizedAffinity 7.55344486
REMARK minimizedRMSD -1
REMARK  2 active torsions:
REMARK  status: ('A' for Active; 'I' for Inactive)
REMARK    1  A    between atoms: C2'_3  and  C1'_4 
REMARK    2  A    between atoms: C1'_4  and  C1_5 
ROOT
ATOM      1  C1  I4B d   1       3.904   3.079  -1.152  0.00  0.00    -0.075 A 
ATOM      2  C2  I4B d   1       4.221   2.960   0.178  0.00  0.00     0.003 A 
ATOM      3  C3  I4B d   1       3.993   1.739   0.858  0.00  0.00     0.002 A 
ATOM      4  C4  I4B d   1       3.404   0.687   0.187  0.00  0.00    -0.004 A 
ATOM      5  C5  I4B d   1       3.105   0.802  -1.168  0.00  0.00     0.002 A 
ATOM      6  C6  I4B d   1       3.367   2.002  -1.845  0.00  0.00     0.003 A 
ENDROOT
BRANCH   1   7
ATOM      7  C1' I4B d   1       4.127   4.394  -1.831  0.00  0.00     0.060 C 
BRANCH   7   8
ATOM      8  C2' I4B d   1       5.503   4.894  -1.439  0.00  0.00    -0.013 C 
ATOM      9  C4' I4B d   1       5.997   5.940  -2.403  0.00  0.00     0.013 C 
ATOM     10  C3' I4B d   1       5.418   5.439  -0.045  0.00  0.00     0.013 C 
ENDBRANCH   7   8
ENDBRANCH   1   7
TORSDOF 2
ENDMDL
