MODEL 1
REMARK minimizedAffinity 9.07865715
REMARK minimizedRMSD -1
REMARK  2 active torsions:
REMARK  status: ('A' for Active; 'I' for Inactive)
REMARK    1  A    between atoms: C2'_3  and  C1'_4 
REMARK    2  A    between atoms: C1'_4  and  C1_5 
ROOT
ATOM      1  C1  I4B d   1       4.342   2.777   1.960  0.00  0.00    -0.075 A 
ATOM      2  C2  I4B d   1       3.082   2.727   2.502  0.00  0.00     0.003 A 
ATOM      3  C3  I4B d   1       2.771   3.489   3.655  0.00  0.00     0.002 A 
ATOM      4  C4  I4B d   1       3.758   4.241   4.258  0.00  0.00    -0.004 A 
ATOM      5  C5  I4B d   1       5.029   4.308   3.694  0.00  0.00     0.002 A 
ATOM      6  C6  I4B d   1       5.320   3.581   2.530  0.00  0.00     0.003 A 
ENDROOT
BRANCH   1   7
ATOM      7  C1' I4B d   1       4.644   1.934   0.761  0.00  0.00     0.060 C 
BRANCH   7   8
ATOM      8  C2' I4B d   1       3.402   1.893  -0.106  0.00  0.00    -0.013 C 
ATOM      9  C4' I4B d   1       3.714   2.289  -1.525  0.00  0.00     0.013 C 
ATOM     10  C3' I4B d   1       2.839   0.505  -0.042  0.00  0.00     0.013 C 
ENDBRANCH   7   8
ENDBRANCH   1   7
TORSDOF 2
ENDMDL
