MODEL 1
REMARK minimizedAffinity 16.9016743
REMARK minimizedRMSD -1
REMARK  2 active torsions:
REMARK  status: ('A' for Active; 'I' for Inactive)
REMARK    1  A    between atoms: C2'_3  and  C1'_4 
REMARK    2  A    between atoms: C1'_4  and  C1_5 
ROOT
ATOM      1  C1  I4B d   1       0.993  -3.088  -0.210  0.00  0.00    -0.075 A 
ATOM      2  C2  I4B d   1       1.195  -2.562   1.042  0.00  0.00     0.003 A 
ATOM      3  C3  I4B d   1       1.569  -1.205   1.193  0.00  0.00     0.002 A 
ATOM      4  C4  I4B d   1       1.777  -0.428   0.071  0.00  0.00    -0.004 A 
ATOM      5  C5  I4B d   1       1.550  -0.957  -1.196  0.00  0.00     0.002 A 
ATOM      6  C6  I4B d   1       1.143  -2.291  -1.338  0.00  0.00     0.003 A 
ENDROOT
BRANCH   1   7
ATOM      7  C1' I4B d   1       0.631  -4.534  -0.335  0.00  0.00     0.060 C 
BRANCH   7   8
ATOM      8  C2' I4B d   1      -0.866  -4.659  -0.134  0.00  0.00    -0.013 C 
ATOM      9  C4' I4B d   1      -1.606  -4.497  -1.436  0.00  0.00     0.013 C 
ATOM     10  C3' I4B d   1      -1.140  -5.999   0.481  0.00  0.00     0.013 C 
ENDBRANCH   7   8
ENDBRANCH   1   7
TORSDOF 2
ENDMDL
