MODEL 1
REMARK minimizedAffinity 20.9696732
REMARK minimizedRMSD -1
REMARK  2 active torsions:
REMARK  status: ('A' for Active; 'I' for Inactive)
REMARK    1  A    between atoms: C2'_3  and  C1'_4 
REMARK    2  A    between atoms: C1'_4  and  C1_5 
ROOT
ATOM      1  C1  I4B d   1      -4.384   2.721  -0.406  0.00  0.00    -0.075 A 
ATOM      2  C2  I4B d   1      -3.533   1.686  -0.111  0.00  0.00     0.003 A 
ATOM      3  C3  I4B d   1      -3.725   0.414  -0.703  0.00  0.00     0.002 A 
ATOM      4  C4  I4B d   1      -4.804   0.210  -1.540  0.00  0.00    -0.004 A 
ATOM      5  C5  I4B d   1      -5.652   1.267  -1.856  0.00  0.00     0.002 A 
ATOM      6  C6  I4B d   1      -5.434   2.534  -1.295  0.00  0.00     0.003 A 
ENDROOT
BRANCH   1   7
ATOM      7  C1' I4B d   1      -4.171   4.042   0.263  0.00  0.00     0.060 C 
BRANCH   7   8
ATOM      8  C2' I4B d   1      -4.751   5.118  -0.633  0.00  0.00    -0.013 C 
ATOM      9  C4' I4B d   1      -5.809   5.914   0.086  0.00  0.00     0.013 C 
ATOM     10  C3' I4B d   1      -3.626   5.999  -1.087  0.00  0.00     0.013 C 
ENDBRANCH   7   8
ENDBRANCH   1   7
TORSDOF 2
ENDMDL
