MODEL 1
REMARK minimizedAffinity 4.19079065
REMARK minimizedRMSD -1
REMARK  2 active torsions:
REMARK  status: ('A' for Active; 'I' for Inactive)
REMARK    1  A    between atoms: C2'_3  and  C1'_4 
REMARK    2  A    between atoms: C1'_4  and  C1_5 
ROOT
ATOM      1  C1  I4B d   1      -5.989   1.528  -3.127  0.00  0.00    -0.075 A 
ATOM      2  C2  I4B d   1      -5.994   2.830  -3.561  0.00  0.00     0.003 A 
ATOM      3  C3  I4B d   1      -6.000   3.119  -4.947  0.00  0.00     0.002 A 
ATOM      4  C4  I4B d   1      -5.950   2.083  -5.858  0.00  0.00    -0.004 A 
ATOM      5  C5  I4B d   1      -5.968   0.764  -5.416  0.00  0.00     0.002 A 
ATOM      6  C6  I4B d   1      -6.000   0.484  -4.042  0.00  0.00     0.003 A 
ENDROOT
BRANCH   1   7
ATOM      7  C1' I4B d   1      -5.949   1.259  -1.656  0.00  0.00     0.060 C 
BRANCH   7   8
ATOM      8  C2' I4B d   1      -4.589   1.685  -1.140  0.00  0.00    -0.013 C 
ATOM      9  C4' I4B d   1      -4.679   2.971  -0.361  0.00  0.00     0.013 C 
ATOM     10  C3' I4B d   1      -4.048   0.574  -0.290  0.00  0.00     0.013 C 
ENDBRANCH   7   8
ENDBRANCH   1   7
TORSDOF 2
ENDMDL
