MODEL 1
REMARK minimizedAffinity 12.6077881
REMARK minimizedRMSD -1
REMARK  2 active torsions:
REMARK  status: ('A' for Active; 'I' for Inactive)
REMARK    1  A    between atoms: C2'_3  and  C1'_4 
REMARK    2  A    between atoms: C1'_4  and  C1_5 
ROOT
ATOM      1  C1  I4B d   1       2.268  -0.574  -0.217  0.00  0.00    -0.075 A 
ATOM      2  C2  I4B d   1       2.047  -1.533   0.740  0.00  0.00     0.003 A 
ATOM      3  C3  I4B d   1       1.584  -2.818   0.368  0.00  0.00     0.002 A 
ATOM      4  C4  I4B d   1       1.307  -3.083  -0.958  0.00  0.00    -0.004 A 
ATOM      5  C5  I4B d   1       1.553  -2.117  -1.929  0.00  0.00     0.002 A 
ATOM      6  C6  I4B d   1       2.048  -0.858  -1.559  0.00  0.00     0.003 A 
ENDROOT
BRANCH   1   7
ATOM      7  C1' I4B d   1       2.726   0.783   0.214  0.00  0.00     0.060 C 
BRANCH   7   8
ATOM      8  C2' I4B d   1       3.926   1.161  -0.630  0.00  0.00    -0.013 C 
ATOM      9  C4' I4B d   1       3.852   2.599  -1.071  0.00  0.00     0.013 C 
ATOM     10  C3' I4B d   1       5.161   0.907   0.182  0.00  0.00     0.013 C 
ENDBRANCH   7   8
ENDBRANCH   1   7
TORSDOF 2
ENDMDL
