MODEL 1
REMARK minimizedAffinity -4.47129202
REMARK minimizedRMSD -1
REMARK  0 active torsions:
REMARK  status: ('A' for Active; 'I' for Inactive)
ROOT
ATOM      1  C   UNL d   1       1.804  -0.595   0.384  0.00  0.00     0.078 C 
ATOM      2  C1  UNL d   1       0.448  -0.171   0.864  0.00  0.00    -0.077 A 
ATOM      3  C2  UNL d   1       0.175  -0.038   2.231  0.00  0.00    -0.001 A 
ATOM      4  C3  UNL d   1      -1.094   0.348   2.664  0.00  0.00     0.003 A 
ATOM      5  C4  UNL d   1      -2.102   0.604   1.736  0.00  0.00    -0.005 A 
ATOM      6  C5  UNL d   1      -1.841   0.473   0.373  0.00  0.00     0.003 A 
ATOM      7  C6  UNL d   1      -0.572   0.087  -0.061  0.00  0.00    -0.001 A 
ENDROOT
TORSDOF 0
ENDMDL
