MODEL 1
REMARK minimizedAffinity -4.71062279
REMARK minimizedRMSD -1
REMARK  0 active torsions:
REMARK  status: ('A' for Active; 'I' for Inactive)
ROOT
ATOM      1  C   UNL d   1       2.202  -0.404   0.744  0.00  0.00     0.078 C 
ATOM      2  C1  UNL d   1       0.994  -0.173   1.603  0.00  0.00    -0.077 A 
ATOM      3  C2  UNL d   1      -0.171   0.394   1.072  0.00  0.00    -0.001 A 
ATOM      4  C3  UNL d   1      -1.284   0.613   1.885  0.00  0.00     0.003 A 
ATOM      5  C4  UNL d   1      -1.242   0.268   3.235  0.00  0.00    -0.005 A 
ATOM      6  C5  UNL d   1      -0.087  -0.295   3.773  0.00  0.00     0.003 A 
ATOM      7  C6  UNL d   1       1.027  -0.514   2.961  0.00  0.00    -0.001 A 
ENDROOT
TORSDOF 0
ENDMDL
