MODEL 1
REMARK minimizedAffinity 1.61295164
REMARK minimizedRMSD -1
REMARK  0 active torsions:
REMARK  status: ('A' for Active; 'I' for Inactive)
ROOT
ATOM      1  C   UNL d   1       0.437  -0.852   4.188  0.00  0.00     0.078 C 
ATOM      2  C1  UNL d   1      -0.286  -0.531   2.914  0.00  0.00    -0.077 A 
ATOM      3  C2  UNL d   1      -1.576   0.014   2.935  0.00  0.00    -0.001 A 
ATOM      4  C3  UNL d   1      -2.241   0.299   1.741  0.00  0.00     0.003 A 
ATOM      5  C4  UNL d   1      -1.625   0.041   0.518  0.00  0.00    -0.005 A 
ATOM      6  C5  UNL d   1      -0.342  -0.503   0.488  0.00  0.00     0.003 A 
ATOM      7  C6  UNL d   1       0.324  -0.789   1.680  0.00  0.00    -0.001 A 
ENDROOT
TORSDOF 0
ENDMDL
