MODEL 1
REMARK minimizedAffinity -1.75408435
REMARK minimizedRMSD -1
REMARK  0 active torsions:
REMARK  status: ('A' for Active; 'I' for Inactive)
ROOT
ATOM      1  C   UNL d   1       0.287  -1.901  -2.300  0.00  0.00     0.078 C 
ATOM      2  C1  UNL d   1      -0.089  -1.211  -1.023  0.00  0.00    -0.077 A 
ATOM      3  C2  UNL d   1       0.854  -1.008  -0.008  0.00  0.00    -0.001 A 
ATOM      4  C3  UNL d   1       0.487  -0.372   1.179  0.00  0.00     0.003 A 
ATOM      5  C4  UNL d   1      -0.823   0.064   1.363  0.00  0.00    -0.005 A 
ATOM      6  C5  UNL d   1      -1.769  -0.135   0.360  0.00  0.00     0.003 A 
ATOM      7  C6  UNL d   1      -1.404  -0.771  -0.828  0.00  0.00    -0.001 A 
ENDROOT
TORSDOF 0
ENDMDL
