MODEL 1
REMARK minimizedAffinity -1.79571044
REMARK minimizedRMSD -1
REMARK  0 active torsions:
REMARK  status: ('A' for Active; 'I' for Inactive)
ROOT
ATOM      1  C   UNL d   1       0.701  -1.732   5.252  0.00  0.00     0.078 C 
ATOM      2  C1  UNL d   1      -0.582  -1.606   4.486  0.00  0.00    -0.077 A 
ATOM      3  C2  UNL d   1      -0.676  -0.766   3.370  0.00  0.00    -0.001 A 
ATOM      4  C3  UNL d   1      -1.880  -0.651   2.672  0.00  0.00     0.003 A 
ATOM      5  C4  UNL d   1      -2.999  -1.372   3.084  0.00  0.00    -0.005 A 
ATOM      6  C5  UNL d   1      -2.915  -2.209   4.195  0.00  0.00     0.003 A 
ATOM      7  C6  UNL d   1      -1.713  -2.325   4.894  0.00  0.00    -0.001 A 
ENDROOT
TORSDOF 0
ENDMDL
