MODEL 1
REMARK minimizedAffinity -2.78997564
REMARK minimizedRMSD -1
REMARK  0 active torsions:
REMARK  status: ('A' for Active; 'I' for Inactive)
ROOT
ATOM      1  C   UNL d   1       3.048   1.925   1.285  0.00  0.00     0.078 C 
ATOM      2  C1  UNL d   1       3.536   1.645  -0.105  0.00  0.00    -0.077 A 
ATOM      3  C2  UNL d   1       3.856   2.689  -0.981  0.00  0.00    -0.001 A 
ATOM      4  C3  UNL d   1       4.299   2.414  -2.275  0.00  0.00     0.003 A 
ATOM      5  C4  UNL d   1       4.425   1.094  -2.706  0.00  0.00    -0.005 A 
ATOM      6  C5  UNL d   1       4.107   0.049  -1.842  0.00  0.00     0.003 A 
ATOM      7  C6  UNL d   1       3.663   0.322  -0.547  0.00  0.00    -0.001 A 
ENDROOT
TORSDOF 0
ENDMDL
