MODEL 1
REMARK minimizedAffinity -2.49993253
REMARK minimizedRMSD -1
REMARK  0 active torsions:
REMARK  status: ('A' for Active; 'I' for Inactive)
ROOT
ATOM      1  C   UNL d   1      -0.067  -0.723   3.777  0.00  0.00     0.078 C 
ATOM      2  C1  UNL d   1      -0.756  -0.338   2.502  0.00  0.00    -0.077 A 
ATOM      3  C2  UNL d   1      -2.060   0.174   2.513  0.00  0.00    -0.001 A 
ATOM      4  C3  UNL d   1      -2.692   0.518   1.317  0.00  0.00     0.003 A 
ATOM      5  C4  UNL d   1      -2.030   0.354   0.102  0.00  0.00    -0.005 A 
ATOM      6  C5  UNL d   1      -0.733  -0.156   0.082  0.00  0.00     0.003 A 
ATOM      7  C6  UNL d   1      -0.099  -0.501   1.276  0.00  0.00    -0.001 A 
ENDROOT
TORSDOF 0
ENDMDL
