MODEL 1
REMARK minimizedAffinity 6.81352282
REMARK minimizedRMSD -1
REMARK  0 active torsions:
REMARK  status: ('A' for Active; 'I' for Inactive)
ROOT
ATOM      1  C   UNL d   1       2.795   3.763   1.897  0.00  0.00     0.078 C 
ATOM      2  C1  UNL d   1       3.780   3.487   2.993  0.00  0.00    -0.077 A 
ATOM      3  C2  UNL d   1       5.054   4.069   2.981  0.00  0.00    -0.001 A 
ATOM      4  C3  UNL d   1       5.965   3.795   4.003  0.00  0.00     0.003 A 
ATOM      5  C4  UNL d   1       5.612   2.938   5.043  0.00  0.00    -0.005 A 
ATOM      6  C5  UNL d   1       4.348   2.352   5.062  0.00  0.00     0.003 A 
ATOM      7  C6  UNL d   1       3.436   2.625   4.042  0.00  0.00    -0.001 A 
ENDROOT
TORSDOF 0
ENDMDL
