MODEL 1
REMARK minimizedAffinity -2.99669671
REMARK minimizedRMSD -1
REMARK  0 active torsions:
REMARK  status: ('A' for Active; 'I' for Inactive)
ROOT
ATOM      1  C   UNL d   1      -5.167   5.993  -3.540  0.00  0.00     0.172 C 
ATOM      2  N   UNL d   1      -3.732   5.947  -3.693  0.00  0.00    -0.070 N 
ATOM      3  C1  UNL d   1      -2.819   5.997  -2.675  0.00  0.00    -0.004 A 
ATOM      4  C2  UNL d   1      -1.560   5.927  -3.232  0.00  0.00    -0.047 A 
ATOM      5  C3  UNL d   1      -1.723   5.832  -4.635  0.00  0.00    -0.047 A 
ATOM      6  C4  UNL d   1      -3.078   5.847  -4.893  0.00  0.00    -0.004 A 
ENDROOT
TORSDOF 0
ENDMDL
