MODEL 1
REMARK minimizedAffinity 3.9537375
REMARK minimizedRMSD -1
REMARK  0 active torsions:
REMARK  status: ('A' for Active; 'I' for Inactive)
ROOT
ATOM      1  C   UNL d   1       5.995   5.877  -4.484  0.00  0.00     0.172 C 
ATOM      2  N   UNL d   1       4.923   5.328  -3.688  0.00  0.00    -0.070 N 
ATOM      3  C1  UNL d   1       4.311   5.951  -2.634  0.00  0.00    -0.004 A 
ATOM      4  C2  UNL d   1       3.344   5.101  -2.144  0.00  0.00    -0.047 A 
ATOM      5  C3  UNL d   1       3.377   3.924  -2.930  0.00  0.00    -0.047 A 
ATOM      6  C4  UNL d   1       4.364   4.092  -3.879  0.00  0.00    -0.004 A 
ENDROOT
TORSDOF 0
ENDMDL
