MODEL 1
REMARK minimizedAffinity 1.73419821
REMARK minimizedRMSD -1
REMARK  0 active torsions:
REMARK  status: ('A' for Active; 'I' for Inactive)
ROOT
ATOM      1  C   UNL d   1       0.661  -2.677   1.553  0.00  0.00     0.172 C 
ATOM      2  N   UNL d   1      -0.507  -1.893   1.879  0.00  0.00    -0.070 N 
ATOM      3  C1  UNL d   1      -1.797  -2.206   1.545  0.00  0.00    -0.004 A 
ATOM      4  C2  UNL d   1      -2.614  -1.211   2.036  0.00  0.00    -0.047 A 
ATOM      5  C3  UNL d   1      -1.786  -0.266   2.688  0.00  0.00    -0.047 A 
ATOM      6  C4  UNL d   1      -0.486  -0.713   2.575  0.00  0.00    -0.004 A 
ENDROOT
TORSDOF 0
ENDMDL
