MODEL 1
REMARK minimizedAffinity 6.16119051
REMARK minimizedRMSD -1
REMARK  0 active torsions:
REMARK  status: ('A' for Active; 'I' for Inactive)
ROOT
ATOM      1  C   UNL d   1      -4.191   0.525   0.412  0.00  0.00     0.172 C 
ATOM      2  N   UNL d   1      -3.050  -0.052   1.082  0.00  0.00    -0.070 N 
ATOM      3  C1  UNL d   1      -2.600  -1.337   0.931  0.00  0.00    -0.004 A 
ATOM      4  C2  UNL d   1      -1.494  -1.495   1.738  0.00  0.00    -0.047 A 
ATOM      5  C3  UNL d   1      -1.272  -0.263   2.398  0.00  0.00    -0.047 A 
ATOM      6  C4  UNL d   1      -2.249   0.612   1.974  0.00  0.00    -0.004 A 
ENDROOT
TORSDOF 0
ENDMDL
