MODEL 1
REMARK minimizedAffinity 4.64833736
REMARK minimizedRMSD -1
REMARK  0 active torsions:
REMARK  status: ('A' for Active; 'I' for Inactive)
ROOT
ATOM      1  C   UNL d   1       3.190   1.263   1.142  0.00  0.00     0.172 C 
ATOM      2  N   UNL d   1       4.249   2.245   1.149  0.00  0.00    -0.070 N 
ATOM      3  C1  UNL d   1       5.115   2.492   0.117  0.00  0.00    -0.004 A 
ATOM      4  C2  UNL d   1       5.969   3.498   0.516  0.00  0.00    -0.047 A 
ATOM      5  C3  UNL d   1       5.605   3.867   1.832  0.00  0.00    -0.047 A 
ATOM      6  C4  UNL d   1       4.536   3.076   2.199  0.00  0.00    -0.004 A 
ENDROOT
TORSDOF 0
ENDMDL
