MODEL 1
REMARK minimizedAffinity -1.04176843
REMARK minimizedRMSD -1
REMARK  0 active torsions:
REMARK  status: ('A' for Active; 'I' for Inactive)
ROOT
ATOM      1  C   UNL d   1      -5.984  -4.422   5.991  0.00  0.00     0.172 C 
ATOM      2  N   UNL d   1      -5.899  -4.738   4.585  0.00  0.00    -0.070 N 
ATOM      3  C1  UNL d   1      -5.710  -3.834   3.573  0.00  0.00    -0.004 A 
ATOM      4  C2  UNL d   1      -5.687  -4.531   2.384  0.00  0.00    -0.047 A 
ATOM      5  C3  UNL d   1      -5.870  -5.900   2.691  0.00  0.00    -0.047 A 
ATOM      6  C4  UNL d   1      -5.999  -6.000   4.061  0.00  0.00    -0.004 A 
ENDROOT
TORSDOF 0
ENDMDL
