MODEL 1
REMARK minimizedAffinity 3.27408886
REMARK minimizedRMSD -1
REMARK  0 active torsions:
REMARK  status: ('A' for Active; 'I' for Inactive)
ROOT
ATOM      1  C   UNL d   1      -5.633  -4.882   2.431  0.00  0.00     0.172 C 
ATOM      2  N   UNL d   1      -5.735  -4.807   3.869  0.00  0.00    -0.070 N 
ATOM      3  C1  UNL d   1      -5.804  -3.654   4.606  0.00  0.00    -0.004 A 
ATOM      4  C2  UNL d   1      -5.893  -4.007   5.935  0.00  0.00    -0.047 A 
ATOM      5  C3  UNL d   1      -5.877  -5.421   6.000  0.00  0.00    -0.047 A 
ATOM      6  C4  UNL d   1      -5.778  -5.890   4.707  0.00  0.00    -0.004 A 
ENDROOT
TORSDOF 0
ENDMDL
