MODEL 1
REMARK minimizedAffinity 8.44865799
REMARK minimizedRMSD -1
REMARK  0 active torsions:
REMARK  status: ('A' for Active; 'I' for Inactive)
ROOT
ATOM      1  C   UNL d   1       5.326   5.412  -2.198  0.00  0.00     0.172 C 
ATOM      2  N   UNL d   1       4.666   4.543  -3.143  0.00  0.00    -0.070 N 
ATOM      3  C1  UNL d   1       5.234   4.009  -4.269  0.00  0.00    -0.004 A 
ATOM      4  C2  UNL d   1       4.281   3.239  -4.899  0.00  0.00    -0.047 A 
ATOM      5  C3  UNL d   1       3.098   3.313  -4.125  0.00  0.00    -0.047 A 
ATOM      6  C4  UNL d   1       3.364   4.126  -3.045  0.00  0.00    -0.004 A 
ENDROOT
TORSDOF 0
ENDMDL
