MODEL 1
REMARK minimizedAffinity 6.56330967
REMARK minimizedRMSD -1
REMARK  0 active torsions:
REMARK  status: ('A' for Active; 'I' for Inactive)
ROOT
ATOM      1  C   UNL d   1       2.998   2.604  -3.276  0.00  0.00     0.172 C 
ATOM      2  N   UNL d   1       3.008   3.985  -2.852  0.00  0.00    -0.070 N 
ATOM      3  C1  UNL d   1       4.127   4.738  -2.613  0.00  0.00    -0.004 A 
ATOM      4  C2  UNL d   1       3.714   5.996  -2.230  0.00  0.00    -0.047 A 
ATOM      5  C3  UNL d   1       2.299   5.999  -2.238  0.00  0.00    -0.047 A 
ATOM      6  C4  UNL d   1       1.888   4.741  -2.626  0.00  0.00    -0.004 A 
ENDROOT
TORSDOF 0
ENDMDL
