MODEL 1
REMARK minimizedAffinity 0.48199141
REMARK minimizedRMSD -1
REMARK  0 active torsions:
REMARK  status: ('A' for Active; 'I' for Inactive)
ROOT
ATOM      1  C   UNL d   1      -2.543   0.044  -0.549  0.00  0.00     0.172 C 
ATOM      2  N   UNL d   1      -2.396  -0.221   0.863  0.00  0.00    -0.070 N 
ATOM      3  C1  UNL d   1      -2.942   0.522   1.876  0.00  0.00    -0.004 A 
ATOM      4  C2  UNL d   1      -2.571  -0.057   3.070  0.00  0.00    -0.047 A 
ATOM      5  C3  UNL d   1      -1.775  -1.186   2.765  0.00  0.00    -0.047 A 
ATOM      6  C4  UNL d   1      -1.683  -1.264   1.391  0.00  0.00    -0.004 A 
ENDROOT
TORSDOF 0
ENDMDL
