MODEL 1
REMARK minimizedAffinity 4.81208038
REMARK minimizedRMSD -1
REMARK  0 active torsions:
REMARK  status: ('A' for Active; 'I' for Inactive)
ROOT
ATOM      1  C   UNL d   1      -5.041   1.498   0.329  0.00  0.00     0.172 C 
ATOM      2  N   UNL d   1      -3.978   0.918   1.115  0.00  0.00    -0.070 N 
ATOM      3  C1  UNL d   1      -3.306   1.541   2.133  0.00  0.00    -0.004 A 
ATOM      4  C2  UNL d   1      -2.373   0.655   2.626  0.00  0.00    -0.047 A 
ATOM      5  C3  UNL d   1      -2.487  -0.541   1.879  0.00  0.00    -0.047 A 
ATOM      6  C4  UNL d   1      -3.489  -0.351   0.951  0.00  0.00    -0.004 A 
ENDROOT
TORSDOF 0
ENDMDL
