MODEL 1
REMARK minimizedAffinity 3.45027184
REMARK minimizedRMSD -1
REMARK  0 active torsions:
REMARK  status: ('A' for Active; 'I' for Inactive)
ROOT
ATOM      1  C   UNL d   1      -4.390   0.448   0.658  0.00  0.00     0.172 C 
ATOM      2  N   UNL d   1      -3.147  -0.012   1.232  0.00  0.00    -0.070 N 
ATOM      3  C1  UNL d   1      -2.402  -1.068   0.782  0.00  0.00    -0.004 A 
ATOM      4  C2  UNL d   1      -1.294  -1.181   1.594  0.00  0.00    -0.047 A 
ATOM      5  C3  UNL d   1      -1.377  -0.157   2.567  0.00  0.00    -0.047 A 
ATOM      6  C4  UNL d   1      -2.534   0.552   2.320  0.00  0.00    -0.004 A 
ENDROOT
TORSDOF 0
ENDMDL
