MODEL 1
REMARK minimizedAffinity 5.8125701
REMARK minimizedRMSD -1
REMARK  0 active torsions:
REMARK  status: ('A' for Active; 'I' for Inactive)
ROOT
ATOM      1  C   UNL d   1       2.355   3.102  -3.414  0.00  0.00     0.172 C 
ATOM      2  N   UNL d   1       3.541   3.668  -4.012  0.00  0.00    -0.070 N 
ATOM      3  C1  UNL d   1       3.941   3.496  -5.310  0.00  0.00    -0.004 A 
ATOM      4  C2  UNL d   1       5.116   4.195  -5.485  0.00  0.00    -0.047 A 
ATOM      5  C3  UNL d   1       5.433   4.807  -4.250  0.00  0.00    -0.047 A 
ATOM      6  C4  UNL d   1       4.442   4.464  -3.355  0.00  0.00    -0.004 A 
ENDROOT
TORSDOF 0
ENDMDL
