MODEL 1
REMARK minimizedAffinity 1.02951872
REMARK minimizedRMSD -1
REMARK  0 active torsions:
REMARK  status: ('A' for Active; 'I' for Inactive)
ROOT
ATOM      1  C   UNL d   1       2.626   2.243   0.781  0.00  0.00     0.172 C 
ATOM      2  N   UNL d   1       3.967   2.771   0.694  0.00  0.00    -0.070 N 
ATOM      3  C1  UNL d   1       4.826   2.600  -0.358  0.00  0.00    -0.004 A 
ATOM      4  C2  UNL d   1       6.000   3.256  -0.056  0.00  0.00    -0.047 A 
ATOM      5  C3  UNL d   1       5.841   3.841   1.222  0.00  0.00    -0.047 A 
ATOM      6  C4  UNL d   1       4.573   3.526   1.664  0.00  0.00    -0.004 A 
ENDROOT
TORSDOF 0
ENDMDL
