MODEL 1
REMARK minimizedAffinity 4.55843496
REMARK minimizedRMSD -1
REMARK  0 active torsions:
REMARK  status: ('A' for Active; 'I' for Inactive)
ROOT
ATOM      1  C   UNL d   1      -2.581   0.837   3.336  0.00  0.00     0.172 C 
ATOM      2  N   UNL d   1      -2.144  -0.342   2.626  0.00  0.00    -0.070 N 
ATOM      3  C1  UNL d   1      -2.940  -1.158   1.868  0.00  0.00    -0.004 A 
ATOM      4  C2  UNL d   1      -2.149  -2.167   1.361  0.00  0.00    -0.047 A 
ATOM      5  C3  UNL d   1      -0.832  -1.949   1.832  0.00  0.00    -0.047 A 
ATOM      6  C4  UNL d   1      -0.857  -0.813   2.613  0.00  0.00    -0.004 A 
ENDROOT
TORSDOF 0
ENDMDL
