MODEL 1
REMARK minimizedAffinity -2.79256058
REMARK minimizedRMSD -1
REMARK  0 active torsions:
REMARK  status: ('A' for Active; 'I' for Inactive)
ROOT
ATOM      1  C   UNL d   1      -0.334   4.536  -1.320  0.00  0.00     0.172 C 
ATOM      2  N   UNL d   1       0.846   3.733  -1.102  0.00  0.00    -0.070 N 
ATOM      3  C1  UNL d   1       1.499   3.581   0.092  0.00  0.00    -0.004 A 
ATOM      4  C2  UNL d   1       2.571   2.740  -0.116  0.00  0.00    -0.047 A 
ATOM      5  C3  UNL d   1       2.562   2.374  -1.483  0.00  0.00    -0.047 A 
ATOM      6  C4  UNL d   1       1.484   3.002  -2.070  0.00  0.00    -0.004 A 
ENDROOT
TORSDOF 0
ENDMDL
