MODEL 1
REMARK minimizedAffinity 10.1625214
REMARK minimizedRMSD -1
REMARK  0 active torsions:
REMARK  status: ('A' for Active; 'I' for Inactive)
ROOT
ATOM      1  C   UNL d   1       0.802  -1.887   2.099  0.00  0.00     0.023 A 
ATOM      2  C1  UNL d   1       1.534  -3.063   1.934  0.00  0.00     0.003 A 
ATOM      3  C2  UNL d   1       1.908  -3.817   3.049  0.00  0.00     0.048 A 
ATOM      4  C3  UNL d   1       1.545  -3.389   4.326  0.00  0.00     0.023 A 
ATOM      5  C4  UNL d   1       0.812  -2.214   4.496  0.00  0.00     0.048 A 
ATOM      6  C5  UNL d   1       0.442  -1.463   3.379  0.00  0.00     0.003 A 
ATOM      7  I   UNL d   1       2.100  -4.510   5.986  0.00  0.00    -0.146 I 
ENDROOT
TORSDOF 0
ENDMDL
