MODEL 1
REMARK minimizedAffinity 9.01713467
REMARK minimizedRMSD -1
REMARK  0 active torsions:
REMARK  status: ('A' for Active; 'I' for Inactive)
ROOT
ATOM      1  C   UNL d   1      -2.469   5.952   0.737  0.00  0.00     0.023 A 
ATOM      2  C1  UNL d   1      -2.999   4.780   1.277  0.00  0.00     0.003 A 
ATOM      3  C2  UNL d   1      -2.190   3.653   1.432  0.00  0.00     0.048 A 
ATOM      4  C3  UNL d   1      -0.851   3.704   1.044  0.00  0.00     0.023 A 
ATOM      5  C4  UNL d   1      -0.316   4.874   0.504  0.00  0.00     0.048 A 
ATOM      6  C5  UNL d   1      -1.129   5.999   0.351  0.00  0.00     0.003 A 
ATOM      7  I   UNL d   1       0.355   2.027   1.274  0.00  0.00    -0.146 I 
ENDROOT
TORSDOF 0
ENDMDL
