MODEL 1
REMARK minimizedAffinity 9.15489864
REMARK minimizedRMSD -1
REMARK  0 active torsions:
REMARK  status: ('A' for Active; 'I' for Inactive)
ROOT
ATOM      1  C   UNL d   1       4.143  -2.805   0.308  0.00  0.00     0.023 A 
ATOM      2  C1  UNL d   1       3.354  -3.262  -0.747  0.00  0.00     0.003 A 
ATOM      3  C2  UNL d   1       3.885  -4.150  -1.685  0.00  0.00     0.048 A 
ATOM      4  C3  UNL d   1       5.206  -4.578  -1.561  0.00  0.00     0.023 A 
ATOM      5  C4  UNL d   1       6.000  -4.124  -0.507  0.00  0.00     0.048 A 
ATOM      6  C5  UNL d   1       5.465  -3.235   0.428  0.00  0.00     0.003 A 
ATOM      7  I   UNL d   1       5.999  -5.899  -2.956  0.00  0.00    -0.146 I 
ENDROOT
TORSDOF 0
ENDMDL
