MODEL 1
REMARK minimizedAffinity 12.736989
REMARK minimizedRMSD -1
REMARK  0 active torsions:
REMARK  status: ('A' for Active; 'I' for Inactive)
ROOT
ATOM      1  C   UNL d   1      -4.264   4.986  -4.734  0.00  0.00     0.023 A 
ATOM      2  C1  UNL d   1      -4.471   4.957  -3.355  0.00  0.00     0.003 A 
ATOM      3  C2  UNL d   1      -4.210   3.790  -2.632  0.00  0.00     0.048 A 
ATOM      4  C3  UNL d   1      -3.742   2.657  -3.296  0.00  0.00     0.023 A 
ATOM      5  C4  UNL d   1      -3.532   2.681  -4.675  0.00  0.00     0.048 A 
ATOM      6  C5  UNL d   1      -3.795   3.849  -5.393  0.00  0.00     0.003 A 
ATOM      7  I   UNL d   1      -3.353   0.919  -2.223  0.00  0.00    -0.146 I 
ENDROOT
TORSDOF 0
ENDMDL
