MODEL 1
REMARK minimizedAffinity 8.38990593
REMARK minimizedRMSD -1
REMARK  0 active torsions:
REMARK  status: ('A' for Active; 'I' for Inactive)
ROOT
ATOM      1  C   UNL d   1      -4.110   4.767  -4.127  0.00  0.00     0.023 A 
ATOM      2  C1  UNL d   1      -4.396   4.614  -2.771  0.00  0.00     0.003 A 
ATOM      3  C2  UNL d   1      -4.055   3.431  -2.113  0.00  0.00     0.048 A 
ATOM      4  C3  UNL d   1      -3.425   2.405  -2.817  0.00  0.00     0.023 A 
ATOM      5  C4  UNL d   1      -3.135   2.554  -4.175  0.00  0.00     0.048 A 
ATOM      6  C5  UNL d   1      -3.480   3.739  -4.828  0.00  0.00     0.003 A 
ATOM      7  I   UNL d   1      -2.915   0.643  -1.840  0.00  0.00    -0.146 I 
ENDROOT
TORSDOF 0
ENDMDL
