MODEL 1
REMARK minimizedAffinity 10.5051918
REMARK minimizedRMSD -1
REMARK  0 active torsions:
REMARK  status: ('A' for Active; 'I' for Inactive)
ROOT
ATOM      1  C   UNL d   1      -2.146  -4.749   0.071  0.00  0.00     0.023 A 
ATOM      2  C1  UNL d   1      -2.488  -3.509   0.611  0.00  0.00     0.003 A 
ATOM      3  C2  UNL d   1      -1.542  -2.772   1.326  0.00  0.00     0.048 A 
ATOM      4  C3  UNL d   1      -0.255  -3.281   1.497  0.00  0.00     0.023 A 
ATOM      5  C4  UNL d   1       0.093  -4.521   0.958  0.00  0.00     0.048 A 
ATOM      6  C5  UNL d   1      -0.857  -5.254   0.244  0.00  0.00     0.003 A 
ATOM      7  I   UNL d   1       1.155  -2.187   2.562  0.00  0.00    -0.146 I 
ENDROOT
TORSDOF 0
ENDMDL
