MODEL 1
REMARK minimizedAffinity 7.26858711
REMARK minimizedRMSD -1
REMARK  0 active torsions:
REMARK  status: ('A' for Active; 'I' for Inactive)
ROOT
ATOM      1  C   UNL d   1       1.679  -1.902   1.281  0.00  0.00     0.023 A 
ATOM      2  C1  UNL d   1       1.948  -3.209   1.687  0.00  0.00     0.003 A 
ATOM      3  C2  UNL d   1       1.880  -3.549   3.040  0.00  0.00     0.048 A 
ATOM      4  C3  UNL d   1       1.542  -2.577   3.981  0.00  0.00     0.023 A 
ATOM      5  C4  UNL d   1       1.271  -1.268   3.579  0.00  0.00     0.048 A 
ATOM      6  C5  UNL d   1       1.341  -0.933   2.226  0.00  0.00     0.003 A 
ATOM      7  I   UNL d   1       1.439  -3.081   5.995  0.00  0.00    -0.146 I 
ENDROOT
TORSDOF 0
ENDMDL
