MODEL 1
REMARK minimizedAffinity 9.1150322
REMARK minimizedRMSD -1
REMARK  0 active torsions:
REMARK  status: ('A' for Active; 'I' for Inactive)
ROOT
ATOM      1  C   UNL d   1      -1.006  -5.158   0.345  0.00  0.00     0.023 A 
ATOM      2  C1  UNL d   1      -1.231  -4.999  -1.023  0.00  0.00     0.003 A 
ATOM      3  C2  UNL d   1      -0.153  -4.941  -1.907  0.00  0.00     0.048 A 
ATOM      4  C3  UNL d   1       1.149  -5.044  -1.418  0.00  0.00     0.023 A 
ATOM      5  C4  UNL d   1       1.380  -5.205  -0.051  0.00  0.00     0.048 A 
ATOM      6  C5  UNL d   1       0.298  -5.262   0.830  0.00  0.00     0.003 A 
ATOM      7  I   UNL d   1       2.756  -4.959  -2.734  0.00  0.00    -0.146 I 
ENDROOT
TORSDOF 0
ENDMDL
