MODEL 1
REMARK minimizedAffinity 8.45708656
REMARK minimizedRMSD -1
REMARK  0 active torsions:
REMARK  status: ('A' for Active; 'I' for Inactive)
ROOT
ATOM      1  C   UNL d   1       1.859  -1.913   1.247  0.00  0.00     0.023 A 
ATOM      2  C1  UNL d   1       1.127  -1.061   2.074  0.00  0.00     0.003 A 
ATOM      3  C2  UNL d   1       1.012  -1.338   3.438  0.00  0.00     0.048 A 
ATOM      4  C3  UNL d   1       1.634  -2.467   3.968  0.00  0.00     0.023 A 
ATOM      5  C4  UNL d   1       2.368  -3.323   3.145  0.00  0.00     0.048 A 
ATOM      6  C5  UNL d   1       2.479  -3.043   1.782  0.00  0.00     0.003 A 
ATOM      7  I   UNL d   1       1.465  -2.881   5.998  0.00  0.00    -0.146 I 
ENDROOT
TORSDOF 0
ENDMDL
