MODEL 1
REMARK minimizedAffinity 0.96665597
REMARK minimizedRMSD -1
REMARK  1 active torsions:
REMARK  status: ('A' for Active; 'I' for Inactive)
REMARK    1  A    between atoms: C1_2  and  C2_3 
ROOT
ATOM      1  C2  UNL d   1       1.308  -3.477   3.868  0.00  0.00    -0.073 A 
ATOM      2  C3  UNL d   1       2.043  -4.302   3.009  0.00  0.00    -0.002 A 
ATOM      3  C4  UNL d   1       2.819  -3.745   1.991  0.00  0.00     0.004 A 
ATOM      4  C5  UNL d   1       2.873  -2.361   1.827  0.00  0.00    -0.004 A 
ATOM      5  C6  UNL d   1       2.156  -1.520   2.683  0.00  0.00    -0.075 A 
ATOM      6  C7  UNL d   1       2.202  -0.030   2.518  0.00  0.00     0.076 C 
ATOM      7  C8  UNL d   1       1.377  -2.087   3.701  0.00  0.00     0.001 A 
ENDROOT
BRANCH   1   8
ATOM      8  C1  UNL d   1       0.474  -4.073   4.973  0.00  0.00     0.053 C 
ATOM      9  C   UNL d   1       1.237  -5.129   5.757  0.00  0.00     0.018 C 
ENDBRANCH   1   8
TORSDOF 1
ENDMDL
