MODEL 1
REMARK minimizedAffinity 7.49891806
REMARK minimizedRMSD -1
REMARK  1 active torsions:
REMARK  status: ('A' for Active; 'I' for Inactive)
REMARK    1  A    between atoms: C1_2  and  C2_3 
ROOT
ATOM      1  C2  UNL d   1       2.305  -3.222   2.537  0.00  0.00    -0.073 A 
ATOM      2  C3  UNL d   1       1.509  -3.326   3.683  0.00  0.00    -0.002 A 
ATOM      3  C4  UNL d   1       0.847  -2.205   4.186  0.00  0.00     0.004 A 
ATOM      4  C5  UNL d   1       0.968  -0.972   3.545  0.00  0.00    -0.004 A 
ATOM      5  C6  UNL d   1       1.749  -0.850   2.391  0.00  0.00    -0.075 A 
ATOM      6  C7  UNL d   1       1.891   0.469   1.691  0.00  0.00     0.076 C 
ATOM      7  C8  UNL d   1       2.413  -1.980   1.894  0.00  0.00     0.001 A 
ENDROOT
BRANCH   1   8
ATOM      8  C1  UNL d   1       3.017  -4.431   1.987  0.00  0.00     0.053 C 
ATOM      9  C   UNL d   1       2.451  -4.862   0.643  0.00  0.00     0.018 C 
ENDBRANCH   1   8
TORSDOF 1
ENDMDL
