MODEL 1
REMARK minimizedAffinity 5.8467927
REMARK minimizedRMSD -1
REMARK  1 active torsions:
REMARK  status: ('A' for Active; 'I' for Inactive)
REMARK    1  A    between atoms: C1_2  and  C2_3 
ROOT
ATOM      1  C2  UNL d   1      -4.808   2.896  -1.531  0.00  0.00    -0.073 A 
ATOM      2  C3  UNL d   1      -4.601   2.542  -2.869  0.00  0.00    -0.002 A 
ATOM      3  C4  UNL d   1      -3.514   1.744  -3.227  0.00  0.00     0.004 A 
ATOM      4  C5  UNL d   1      -2.628   1.286  -2.253  0.00  0.00    -0.004 A 
ATOM      5  C6  UNL d   1      -2.825   1.619  -0.908  0.00  0.00    -0.075 A 
ATOM      6  C7  UNL d   1      -1.880   1.136   0.152  0.00  0.00     0.076 C 
ATOM      7  C8  UNL d   1      -3.917   2.423  -0.557  0.00  0.00     0.001 A 
ENDROOT
BRANCH   1   8
ATOM      8  C1  UNL d   1      -5.984   3.753  -1.139  0.00  0.00     0.053 C 
ATOM      9  C   UNL d   1      -6.000   5.076  -1.887  0.00  0.00     0.018 C 
ENDBRANCH   1   8
TORSDOF 1
ENDMDL
