MODEL 1
REMARK minimizedAffinity 6.99132776
REMARK minimizedRMSD -1
REMARK  0 active torsions:
REMARK  status: ('A' for Active; 'I' for Inactive)
ROOT
ATOM      1  C   UNL d   1      -1.830   3.840  -1.737  0.00  0.00     0.124 A 
ATOM      2  C1  UNL d   1      -0.624   3.946  -1.057  0.00  0.00     0.062 A 
ATOM      3  C2  UNL d   1       0.075   2.800  -0.690  0.00  0.00     0.162 A 
ATOM      4  C3  UNL d   1      -0.429   1.537  -1.002  0.00  0.00    -0.034 A 
ATOM      5  C4  UNL d   1      -1.643   1.439  -1.685  0.00  0.00     0.162 A 
ATOM      6  C5  UNL d   1      -2.338   2.587  -2.051  0.00  0.00     0.062 A 
ATOM      7  F   UNL d   1      -3.502   2.483  -2.708  0.00  0.00    -0.097 F 
ATOM      8  F1  UNL d   1      -2.156   0.241  -2.001  0.00  0.00    -0.096 F 
ATOM      9  I   UNL d   1       0.613  -0.179  -0.454  0.00  0.00    -0.060 I 
ATOM     10  F2  UNL d   1       1.237   2.932  -0.033  0.00  0.00    -0.096 F 
ATOM     11  F3  UNL d   1      -0.132   5.155  -0.753  0.00  0.00    -0.097 F 
ATOM     12  F4  UNL d   1      -2.500   4.944  -2.089  0.00  0.00    -0.092 F 
ENDROOT
TORSDOF 0
ENDMDL
