MODEL 1
REMARK minimizedAffinity 28.8132019
REMARK minimizedRMSD -1
REMARK  0 active torsions:
REMARK  status: ('A' for Active; 'I' for Inactive)
ROOT
ATOM      1  C   UNL d   1       0.590   4.900  -0.085  0.00  0.00     0.124 A 
ATOM      2  C1  UNL d   1       0.929   3.761   0.633  0.00  0.00     0.062 A 
ATOM      3  C2  UNL d   1       0.135   2.621   0.552  0.00  0.00     0.162 A 
ATOM      4  C3  UNL d   1      -1.006   2.614  -0.250  0.00  0.00    -0.034 A 
ATOM      5  C4  UNL d   1      -1.341   3.763  -0.967  0.00  0.00     0.162 A 
ATOM      6  C5  UNL d   1      -0.544   4.900  -0.884  0.00  0.00     0.062 A 
ATOM      7  F   UNL d   1      -0.874   6.000  -1.577  0.00  0.00    -0.097 F 
ATOM      8  F1  UNL d   1      -2.432   3.790  -1.748  0.00  0.00    -0.096 F 
ATOM      9  I   UNL d   1      -2.196   0.911  -0.373  0.00  0.00    -0.060 I 
ATOM     10  F2  UNL d   1       0.487   1.535   1.256  0.00  0.00    -0.096 F 
ATOM     11  F3  UNL d   1       2.025   3.759   1.406  0.00  0.00    -0.097 F 
ATOM     12  F4  UNL d   1       1.356   5.996  -0.004  0.00  0.00    -0.092 F 
ENDROOT
TORSDOF 0
ENDMDL
