MODEL 1
REMARK minimizedAffinity 6.57627296
REMARK minimizedRMSD -1
REMARK  0 active torsions:
REMARK  status: ('A' for Active; 'I' for Inactive)
ROOT
ATOM      1  C   UNL d   1       4.420  -4.293  -1.383  0.00  0.00     0.124 A 
ATOM      2  C1  UNL d   1       3.619  -3.962  -0.299  0.00  0.00     0.062 A 
ATOM      3  C2  UNL d   1       2.234  -4.071  -0.392  0.00  0.00     0.162 A 
ATOM      4  C3  UNL d   1       1.641  -4.514  -1.574  0.00  0.00    -0.034 A 
ATOM      5  C4  UNL d   1       2.453  -4.843  -2.661  0.00  0.00     0.162 A 
ATOM      6  C5  UNL d   1       3.836  -4.733  -2.563  0.00  0.00     0.062 A 
ATOM      7  F   UNL d   1       4.608  -5.053  -3.612  0.00  0.00    -0.097 F 
ATOM      8  F1  UNL d   1       1.915  -5.272  -3.812  0.00  0.00    -0.096 F 
ATOM      9  I   UNL d   1      -0.429  -4.678  -1.717  0.00  0.00    -0.060 I 
ATOM     10  F2  UNL d   1       1.485  -3.745   0.672  0.00  0.00    -0.096 F 
ATOM     11  F3  UNL d   1       4.180  -3.536   0.842  0.00  0.00    -0.097 F 
ATOM     12  F4  UNL d   1       5.751  -4.186  -1.291  0.00  0.00    -0.092 F 
ENDROOT
TORSDOF 0
ENDMDL
