MODEL 1
REMARK minimizedAffinity 17.9238625
REMARK minimizedRMSD -1
REMARK  0 active torsions:
REMARK  status: ('A' for Active; 'I' for Inactive)
ROOT
ATOM      1  C   UNL d   1       5.115  -2.401  -1.145  0.00  0.00     0.124 A 
ATOM      2  C1  UNL d   1       5.009  -3.718  -0.719  0.00  0.00     0.062 A 
ATOM      3  C2  UNL d   1       4.784  -4.736  -1.642  0.00  0.00     0.162 A 
ATOM      4  C3  UNL d   1       4.663  -4.440  -3.000  0.00  0.00    -0.034 A 
ATOM      5  C4  UNL d   1       4.770  -3.113  -3.420  0.00  0.00     0.162 A 
ATOM      6  C5  UNL d   1       4.995  -2.100  -2.494  0.00  0.00     0.062 A 
ATOM      7  F   UNL d   1       5.097  -0.828  -2.907  0.00  0.00    -0.097 F 
ATOM      8  F1  UNL d   1       4.659  -2.794  -4.718  0.00  0.00    -0.096 F 
ATOM      9  I   UNL d   1       4.326  -5.959  -4.383  0.00  0.00    -0.060 I 
ATOM     10  F2  UNL d   1       4.686  -5.999  -1.203  0.00  0.00    -0.096 F 
ATOM     11  F3  UNL d   1       5.124  -4.012   0.584  0.00  0.00    -0.097 F 
ATOM     12  F4  UNL d   1       5.331  -1.424  -0.255  0.00  0.00    -0.092 F 
ENDROOT
TORSDOF 0
ENDMDL
