MODEL 1
REMARK minimizedAffinity 20.5570793
REMARK minimizedRMSD -1
REMARK  0 active torsions:
REMARK  status: ('A' for Active; 'I' for Inactive)
ROOT
ATOM      1  C   UNL d   1       0.756   3.822   1.062  0.00  0.00     0.124 A 
ATOM      2  C1  UNL d   1       0.771   3.227   2.316  0.00  0.00     0.062 A 
ATOM      3  C2  UNL d   1      -0.259   2.372   2.697  0.00  0.00     0.162 A 
ATOM      4  C3  UNL d   1      -1.313   2.106   1.822  0.00  0.00    -0.034 A 
ATOM      5  C4  UNL d   1      -1.321   2.709   0.563  0.00  0.00     0.162 A 
ATOM      6  C5  UNL d   1      -0.289   3.563   0.188  0.00  0.00     0.062 A 
ATOM      7  F   UNL d   1      -0.305   4.137  -1.024  0.00  0.00    -0.097 F 
ATOM      8  F1  UNL d   1      -2.319   2.475  -0.302  0.00  0.00    -0.096 F 
ATOM      9  I   UNL d   1      -2.855   0.828   2.388  0.00  0.00    -0.060 I 
ATOM     10  F2  UNL d   1      -0.219   1.810   3.915  0.00  0.00    -0.096 F 
ATOM     11  F3  UNL d   1       1.779   3.477   3.164  0.00  0.00    -0.097 F 
ATOM     12  F4  UNL d   1       1.748   4.646   0.699  0.00  0.00    -0.092 F 
ENDROOT
TORSDOF 0
ENDMDL
