MODEL 1
REMARK minimizedAffinity 18.3146458
REMARK minimizedRMSD -1
REMARK  0 active torsions:
REMARK  status: ('A' for Active; 'I' for Inactive)
ROOT
ATOM      1  C   UNL d   1       3.447  -3.036   0.287  0.00  0.00     0.124 A 
ATOM      2  C1  UNL d   1       2.789  -4.083  -0.343  0.00  0.00     0.062 A 
ATOM      3  C2  UNL d   1       3.210  -4.523  -1.594  0.00  0.00     0.162 A 
ATOM      4  C3  UNL d   1       4.296  -3.916  -2.225  0.00  0.00    -0.034 A 
ATOM      5  C4  UNL d   1       4.952  -2.863  -1.586  0.00  0.00     0.162 A 
ATOM      6  C5  UNL d   1       4.528  -2.427  -0.335  0.00  0.00     0.062 A 
ATOM      7  F   UNL d   1       5.165  -1.415   0.271  0.00  0.00    -0.097 F 
ATOM      8  F1  UNL d   1       6.000  -2.257  -2.164  0.00  0.00    -0.096 F 
ATOM      9  I   UNL d   1       4.928  -4.571  -4.097  0.00  0.00    -0.060 I 
ATOM     10  F2  UNL d   1       2.555  -5.538  -2.179  0.00  0.00    -0.096 F 
ATOM     11  F3  UNL d   1       1.744  -4.673   0.256  0.00  0.00    -0.097 F 
ATOM     12  F4  UNL d   1       3.039  -2.614   1.491  0.00  0.00    -0.092 F 
ENDROOT
TORSDOF 0
ENDMDL
