MODEL 1
REMARK minimizedAffinity 13.8110723
REMARK minimizedRMSD -1
REMARK  0 active torsions:
REMARK  status: ('A' for Active; 'I' for Inactive)
ROOT
ATOM      1  C   UNL d   1       3.427  -4.823  -2.702  0.00  0.00     0.124 A 
ATOM      2  C1  UNL d   1       2.669  -4.774  -1.541  0.00  0.00     0.062 A 
ATOM      3  C2  UNL d   1       2.949  -3.826  -0.561  0.00  0.00     0.162 A 
ATOM      4  C3  UNL d   1       3.993  -2.918  -0.739  0.00  0.00    -0.034 A 
ATOM      5  C4  UNL d   1       4.752  -2.975  -1.909  0.00  0.00     0.162 A 
ATOM      6  C5  UNL d   1       4.468  -3.924  -2.886  0.00  0.00     0.062 A 
ATOM      7  F   UNL d   1       5.201  -3.970  -4.007  0.00  0.00    -0.097 F 
ATOM      8  F1  UNL d   1       5.763  -2.117  -2.113  0.00  0.00    -0.096 F 
ATOM      9  I   UNL d   1       4.416  -1.500   0.724  0.00  0.00    -0.060 I 
ATOM     10  F2  UNL d   1       2.200  -3.802   0.551  0.00  0.00    -0.096 F 
ATOM     11  F3  UNL d   1       1.663  -5.643  -1.361  0.00  0.00    -0.097 F 
ATOM     12  F4  UNL d   1       3.155  -5.737  -3.643  0.00  0.00    -0.092 F 
ENDROOT
TORSDOF 0
ENDMDL
