MODEL 1
REMARK minimizedAffinity 15.0845642
REMARK minimizedRMSD -1
REMARK  0 active torsions:
REMARK  status: ('A' for Active; 'I' for Inactive)
ROOT
ATOM      1  C   UNL d   1       0.363   5.003  -0.722  0.00  0.00     0.124 A 
ATOM      2  C1  UNL d   1      -0.825   5.001  -1.439  0.00  0.00     0.062 A 
ATOM      3  C2  UNL d   1      -1.740   3.965  -1.275  0.00  0.00     0.162 A 
ATOM      4  C3  UNL d   1      -1.471   2.922  -0.389  0.00  0.00    -0.034 A 
ATOM      5  C4  UNL d   1      -0.273   2.930   0.328  0.00  0.00     0.162 A 
ATOM      6  C5  UNL d   1       0.638   3.967   0.161  0.00  0.00     0.062 A 
ATOM      7  F   UNL d   1       1.786   3.967   0.854  0.00  0.00    -0.097 F 
ATOM      8  F1  UNL d   1       0.017   1.942   1.188  0.00  0.00    -0.096 F 
ATOM      9  I   UNL d   1      -2.837   1.371  -0.141  0.00  0.00    -0.060 I 
ATOM     10  F2  UNL d   1      -2.881   3.990  -1.981  0.00  0.00    -0.096 F 
ATOM     11  F3  UNL d   1      -1.093   6.000  -2.293  0.00  0.00    -0.097 F 
ATOM     12  F4  UNL d   1       1.242   6.000  -0.882  0.00  0.00    -0.092 F 
ENDROOT
TORSDOF 0
ENDMDL
