MODEL 1
REMARK minimizedAffinity 9.88951588
REMARK minimizedRMSD -1
REMARK  1 active torsions:
REMARK  status: ('A' for Active; 'I' for Inactive)
REMARK    1  A    between atoms: C1_2  and  C2_3 
ROOT
ATOM      1  C2  UNL d   1      -4.838   3.559   2.264  0.00  0.00    -0.081 A 
ATOM      2  C3  UNL d   1      -5.673   2.917   3.186  0.00  0.00     0.006 A 
ATOM      3  C4  UNL d   1      -5.998   3.534   4.396  0.00  0.00     0.002 A 
ATOM      4  C5  UNL d   1      -5.499   4.804   4.702  0.00  0.00    -0.080 A 
ATOM      5  C6  UNL d   1      -5.865   5.490   5.984  0.00  0.00     0.076 C 
ATOM      6  C7  UNL d   1      -4.650   5.438   3.788  0.00  0.00     0.002 A 
ATOM      7  C8  UNL d   1      -4.325   4.822   2.578  0.00  0.00     0.006 A 
ENDROOT
BRANCH   1   8
ATOM      8  C1  UNL d   1      -4.538   2.924   0.930  0.00  0.00     0.054 C 
ATOM      9  C   UNL d   1      -4.654   1.408   1.000  0.00  0.00     0.018 C 
ENDBRANCH   1   8
TORSDOF 1
ENDMDL
