MODEL 1
REMARK minimizedAffinity 12.545578
REMARK minimizedRMSD -1
REMARK  1 active torsions:
REMARK  status: ('A' for Active; 'I' for Inactive)
REMARK    1  A    between atoms: C1_2  and  C2_3 
ROOT
ATOM      1  C2  UNL d   1      -5.746   3.962   2.289  0.00  0.00    -0.081 A 
ATOM      2  C3  UNL d   1      -5.972   5.339   2.406  0.00  0.00     0.006 A 
ATOM      3  C4  UNL d   1      -5.712   6.000   3.609  0.00  0.00     0.002 A 
ATOM      4  C5  UNL d   1      -5.215   5.297   4.712  0.00  0.00    -0.080 A 
ATOM      5  C6  UNL d   1      -4.903   6.000   6.000  0.00  0.00     0.076 C 
ATOM      6  C7  UNL d   1      -5.005   3.918   4.601  0.00  0.00     0.002 A 
ATOM      7  C8  UNL d   1      -5.266   3.257   3.398  0.00  0.00     0.006 A 
ENDROOT
BRANCH   1   8
ATOM      8  C1  UNL d   1      -5.964   3.259   0.974  0.00  0.00     0.054 C 
ATOM      9  C   UNL d   1      -4.891   2.209   0.724  0.00  0.00     0.018 C 
ENDBRANCH   1   8
TORSDOF 1
ENDMDL
