MODEL 1
REMARK minimizedAffinity 17.9661942
REMARK minimizedRMSD -1
REMARK  1 active torsions:
REMARK  status: ('A' for Active; 'I' for Inactive)
REMARK    1  A    between atoms: C1_2  and  C2_3 
ROOT
ATOM      1  C2  UNL d   1       2.379   0.283  -0.367  0.00  0.00    -0.081 A 
ATOM      2  C3  UNL d   1       3.473   1.137  -0.555  0.00  0.00     0.006 A 
ATOM      3  C4  UNL d   1       4.641   0.967   0.191  0.00  0.00     0.002 A 
ATOM      4  C5  UNL d   1       4.738  -0.065   1.132  0.00  0.00    -0.080 A 
ATOM      5  C6  UNL d   1       5.998  -0.277   1.918  0.00  0.00     0.076 C 
ATOM      6  C7  UNL d   1       3.639  -0.907   1.332  0.00  0.00     0.002 A 
ATOM      7  C8  UNL d   1       2.471  -0.737   0.587  0.00  0.00     0.006 A 
ENDROOT
BRANCH   1   8
ATOM      8  C1  UNL d   1       1.142   0.424  -1.216  0.00  0.00     0.054 C 
ATOM      9  C   UNL d   1       0.609   1.849  -1.185  0.00  0.00     0.018 C 
ENDBRANCH   1   8
TORSDOF 1
ENDMDL
