MODEL 1
REMARK minimizedAffinity 26.4064693
REMARK minimizedRMSD -1
REMARK  1 active torsions:
REMARK  status: ('A' for Active; 'I' for Inactive)
REMARK    1  A    between atoms: C1_2  and  C2_3 
ROOT
ATOM      1  C2  UNL d   1       3.949   3.311   3.460  0.00  0.00    -0.081 A 
ATOM      2  C3  UNL d   1       3.874   4.710   3.455  0.00  0.00     0.006 A 
ATOM      3  C4  UNL d   1       2.657   5.352   3.214  0.00  0.00     0.002 A 
ATOM      4  C5  UNL d   1       1.495   4.609   2.982  0.00  0.00    -0.080 A 
ATOM      5  C6  UNL d   1       0.177   5.286   2.753  0.00  0.00     0.076 C 
ATOM      6  C7  UNL d   1       1.574   3.212   2.970  0.00  0.00     0.002 A 
ATOM      7  C8  UNL d   1       2.790   2.569   3.210  0.00  0.00     0.006 A 
ENDROOT
BRANCH   1   8
ATOM      8  C1  UNL d   1       5.246   2.615   3.783  0.00  0.00     0.054 C 
ATOM      9  C   UNL d   1       5.212   1.999   5.174  0.00  0.00     0.018 C 
ENDBRANCH   1   8
TORSDOF 1
ENDMDL
