MODEL 1
REMARK minimizedAffinity 11.865242
REMARK minimizedRMSD -1
REMARK  1 active torsions:
REMARK  status: ('A' for Active; 'I' for Inactive)
REMARK    1  A    between atoms: C1_2  and  C2_3 
ROOT
ATOM      1  C2  UNL d   1      -5.490   3.813   2.755  0.00  0.00    -0.081 A 
ATOM      2  C3  UNL d   1      -5.999   4.070   1.476  0.00  0.00     0.006 A 
ATOM      3  C4  UNL d   1      -5.580   3.310   0.381  0.00  0.00     0.002 A 
ATOM      4  C5  UNL d   1      -4.652   2.277   0.548  0.00  0.00    -0.080 A 
ATOM      5  C6  UNL d   1      -4.216   1.434  -0.614  0.00  0.00     0.076 C 
ATOM      6  C7  UNL d   1      -4.130   2.032   1.822  0.00  0.00     0.002 A 
ATOM      7  C8  UNL d   1      -4.548   2.792   2.917  0.00  0.00     0.006 A 
ENDROOT
BRANCH   1   8
ATOM      8  C1  UNL d   1      -5.988   4.588   3.948  0.00  0.00     0.054 C 
ATOM      9  C   UNL d   1      -4.833   5.131   4.777  0.00  0.00     0.018 C 
ENDBRANCH   1   8
TORSDOF 1
ENDMDL
