MODEL 1
REMARK minimizedAffinity 13.1831207
REMARK minimizedRMSD -1
REMARK  1 active torsions:
REMARK  status: ('A' for Active; 'I' for Inactive)
REMARK    1  A    between atoms: C1_2  and  C2_3 
ROOT
ATOM      1  C2  UNL d   1       3.584   1.270   0.242  0.00  0.00    -0.081 A 
ATOM      2  C3  UNL d   1       3.026   2.133  -0.709  0.00  0.00     0.006 A 
ATOM      3  C4  UNL d   1       1.762   1.876  -1.244  0.00  0.00     0.002 A 
ATOM      4  C5  UNL d   1       1.031   0.756  -0.832  0.00  0.00    -0.080 A 
ATOM      5  C6  UNL d   1      -0.340   0.485  -1.376  0.00  0.00     0.076 C 
ATOM      6  C7  UNL d   1       1.595  -0.115   0.106  0.00  0.00     0.002 A 
ATOM      7  C8  UNL d   1       2.859   0.141   0.641  0.00  0.00     0.006 A 
ENDROOT
BRANCH   1   8
ATOM      8  C1  UNL d   1       4.919   1.580   0.869  0.00  0.00     0.054 C 
ATOM      9  C   UNL d   1       4.973   3.013   1.377  0.00  0.00     0.018 C 
ENDBRANCH   1   8
TORSDOF 1
ENDMDL
