MODEL 1
REMARK minimizedAffinity -2.42019081
REMARK minimizedRMSD -1
REMARK  0 active torsions:
REMARK  status: ('A' for Active; 'I' for Inactive)
ROOT
ATOM      1  C2' OXE d   1       5.993   4.710   1.863  0.00  0.00     0.078 C 
ATOM      2  C1' OXE d   1       5.974   5.301   4.607  0.00  0.00     0.078 C 
ATOM      3  C1  OXE d   1       5.979   3.849   4.200  0.00  0.00    -0.078 A 
ATOM      4  C2  OXE d   1       5.941   3.569   2.855  0.00  0.00    -0.078 A 
ATOM      5  C3  OXE d   1       5.999   2.246   2.425  0.00  0.00     0.003 A 
ATOM      6  C4  OXE d   1       5.940   1.196   3.350  0.00  0.00    -0.002 A 
ATOM      7  C5  OXE d   1       5.938   1.460   4.724  0.00  0.00    -0.002 A 
ATOM      8  C6  OXE d   1       6.000   2.777   5.165  0.00  0.00     0.003 A 
ENDROOT
TORSDOF 0
ENDMDL
