MODEL 1
REMARK minimizedAffinity 1.11859977
REMARK minimizedRMSD -1
REMARK  0 active torsions:
REMARK  status: ('A' for Active; 'I' for Inactive)
ROOT
ATOM      1  C2' OXE d   1       5.192   5.744   2.349  0.00  0.00     0.078 C 
ATOM      2  C1' OXE d   1       5.999   5.988   5.026  0.00  0.00     0.078 C 
ATOM      3  C1  OXE d   1       5.782   4.599   4.481  0.00  0.00    -0.078 A 
ATOM      4  C2  OXE d   1       5.342   4.490   3.184  0.00  0.00    -0.078 A 
ATOM      5  C3  OXE d   1       5.179   3.231   2.615  0.00  0.00     0.003 A 
ATOM      6  C4  OXE d   1       5.310   2.077   3.397  0.00  0.00    -0.002 A 
ATOM      7  C5  OXE d   1       5.719   2.166   4.731  0.00  0.00    -0.002 A 
ATOM      8  C6  OXE d   1       6.000   3.415   5.276  0.00  0.00     0.003 A 
ENDROOT
TORSDOF 0
ENDMDL
