MODEL 1
REMARK minimizedAffinity -0.18911995
REMARK minimizedRMSD -1
REMARK  0 active torsions:
REMARK  status: ('A' for Active; 'I' for Inactive)
ROOT
ATOM      1  C2' OXE d   1      -2.656  -0.602   3.673  0.00  0.00     0.078 C 
ATOM      2  C1' OXE d   1      -0.500   0.079   2.008  0.00  0.00     0.078 C 
ATOM      3  C1  OXE d   1      -1.041   1.144   2.929  0.00  0.00    -0.078 A 
ATOM      4  C2  OXE d   1      -2.126   0.816   3.706  0.00  0.00    -0.078 A 
ATOM      5  C3  OXE d   1      -2.630   1.744   4.613  0.00  0.00     0.003 A 
ATOM      6  C4  OXE d   1      -2.141   3.056   4.631  0.00  0.00    -0.002 A 
ATOM      7  C5  OXE d   1      -1.062   3.422   3.818  0.00  0.00    -0.002 A 
ATOM      8  C6  OXE d   1      -0.475   2.468   2.995  0.00  0.00     0.003 A 
ENDROOT
TORSDOF 0
ENDMDL
