MODEL 1
REMARK minimizedAffinity 0.379864603
REMARK minimizedRMSD -1
REMARK  0 active torsions:
REMARK  status: ('A' for Active; 'I' for Inactive)
ROOT
ATOM      1  C2' OXE d   1       5.916   1.768   5.745  0.00  0.00     0.078 C 
ATOM      2  C1' OXE d   1       5.955   1.463   2.955  0.00  0.00     0.078 C 
ATOM      3  C1  OXE d   1       5.950   0.213   3.800  0.00  0.00    -0.078 A 
ATOM      4  C2  OXE d   1       5.978   0.372   5.164  0.00  0.00    -0.078 A 
ATOM      5  C3  OXE d   1       5.920  -0.747   5.990  0.00  0.00     0.003 A 
ATOM      6  C4  OXE d   1       5.987  -2.035   5.444  0.00  0.00    -0.002 A 
ATOM      7  C5  OXE d   1       6.000  -2.219   4.058  0.00  0.00    -0.002 A 
ATOM      8  C6  OXE d   1       5.938  -1.109   3.223  0.00  0.00     0.003 A 
ENDROOT
TORSDOF 0
ENDMDL
