MODEL 1
REMARK minimizedAffinity -0.459942341
REMARK minimizedRMSD -1
REMARK  0 active torsions:
REMARK  status: ('A' for Active; 'I' for Inactive)
ROOT
ATOM      1  C2' OXE d   1       5.801   1.108   5.245  0.00  0.00     0.078 C 
ATOM      2  C1' OXE d   1       5.823   1.200   2.440  0.00  0.00     0.078 C 
ATOM      3  C1  OXE d   1       5.895   2.508   3.187  0.00  0.00    -0.078 A 
ATOM      4  C2  OXE d   1       5.836   2.456   4.559  0.00  0.00    -0.078 A 
ATOM      5  C3  OXE d   1       5.953   3.630   5.298  0.00  0.00     0.003 A 
ATOM      6  C4  OXE d   1       5.975   4.874   4.656  0.00  0.00    -0.002 A 
ATOM      7  C5  OXE d   1       5.996   4.951   3.259  0.00  0.00    -0.002 A 
ATOM      8  C6  OXE d   1       5.999   3.778   2.512  0.00  0.00     0.003 A 
ENDROOT
TORSDOF 0
ENDMDL
