MODEL 1
REMARK minimizedAffinity 6.21095228
REMARK minimizedRMSD -1
REMARK  0 active torsions:
REMARK  status: ('A' for Active; 'I' for Inactive)
ROOT
ATOM      1  C2' OXE d   1       6.000  -1.979   3.433  0.00  0.00     0.078 C 
ATOM      2  C1' OXE d   1       5.790  -0.785   5.965  0.00  0.00     0.078 C 
ATOM      3  C1  OXE d   1       5.844   0.122   4.761  0.00  0.00    -0.078 A 
ATOM      4  C2  OXE d   1       5.993  -0.469   3.530  0.00  0.00    -0.078 A 
ATOM      5  C3  OXE d   1       5.994   0.319   2.382  0.00  0.00     0.003 A 
ATOM      6  C4  OXE d   1       5.998   1.716   2.482  0.00  0.00    -0.002 A 
ATOM      7  C5  OXE d   1       5.886   2.339   3.729  0.00  0.00    -0.002 A 
ATOM      8  C6  OXE d   1       5.765   1.558   4.873  0.00  0.00     0.003 A 
ENDROOT
TORSDOF 0
ENDMDL
