MODEL 1
REMARK minimizedAffinity -1.50048685
REMARK minimizedRMSD -1
REMARK  0 active torsions:
REMARK  status: ('A' for Active; 'I' for Inactive)
ROOT
ATOM      1  C2' OXE d   1       5.350  -0.284   5.070  0.00  0.00     0.078 C 
ATOM      2  C1' OXE d   1       6.000   0.356   2.415  0.00  0.00     0.078 C 
ATOM      3  C1  OXE d   1       5.822   1.493   3.390  0.00  0.00    -0.078 A 
ATOM      4  C2  OXE d   1       5.458   1.173   4.675  0.00  0.00    -0.078 A 
ATOM      5  C3  OXE d   1       5.334   2.181   5.628  0.00  0.00     0.003 A 
ATOM      6  C4  OXE d   1       5.426   3.526   5.252  0.00  0.00    -0.002 A 
ATOM      7  C5  OXE d   1       5.757   3.876   3.939  0.00  0.00    -0.002 A 
ATOM      8  C6  OXE d   1       5.999   2.872   3.007  0.00  0.00     0.003 A 
ENDROOT
TORSDOF 0
ENDMDL
