MODEL 1
REMARK minimizedAffinity -1.83792138
REMARK minimizedRMSD -1
REMARK  0 active torsions:
REMARK  status: ('A' for Active; 'I' for Inactive)
ROOT
ATOM      1  C2' OXE d   1       5.995   4.470   1.882  0.00  0.00     0.078 C 
ATOM      2  C1' OXE d   1       5.997   5.586   4.458  0.00  0.00     0.078 C 
ATOM      3  C1  OXE d   1       5.984   4.082   4.343  0.00  0.00    -0.078 A 
ATOM      4  C2  OXE d   1       5.936   3.545   3.079  0.00  0.00    -0.078 A 
ATOM      5  C3  OXE d   1       5.978   2.164   2.915  0.00  0.00     0.003 A 
ATOM      6  C4  OXE d   1       5.913   1.316   4.027  0.00  0.00    -0.002 A 
ATOM      7  C5  OXE d   1       5.921   1.842   5.323  0.00  0.00    -0.002 A 
ATOM      8  C6  OXE d   1       5.999   3.220   5.499  0.00  0.00     0.003 A 
ENDROOT
TORSDOF 0
ENDMDL
