MODEL 1
REMARK minimizedAffinity 0.687809825
REMARK minimizedRMSD -1
REMARK  0 active torsions:
REMARK  status: ('A' for Active; 'I' for Inactive)
ROOT
ATOM      1  C2' OXE d   1       5.976   5.163   1.463  0.00  0.00     0.078 C 
ATOM      2  C1' OXE d   1       5.998   5.994   4.144  0.00  0.00     0.078 C 
ATOM      3  C1  OXE d   1       5.980   4.511   3.867  0.00  0.00    -0.078 A 
ATOM      4  C2  OXE d   1       5.922   4.115   2.553  0.00  0.00    -0.078 A 
ATOM      5  C3  OXE d   1       5.958   2.759   2.240  0.00  0.00     0.003 A 
ATOM      6  C4  OXE d   1       5.898   1.795   3.254  0.00  0.00    -0.002 A 
ATOM      7  C5  OXE d   1       5.916   2.179   4.599  0.00  0.00    -0.002 A 
ATOM      8  C6  OXE d   1       6.000   3.528   4.922  0.00  0.00     0.003 A 
ENDROOT
TORSDOF 0
ENDMDL
