MODEL 1
REMARK minimizedAffinity -2.32214665
REMARK minimizedRMSD -1
REMARK  0 active torsions:
REMARK  status: ('A' for Active; 'I' for Inactive)
ROOT
ATOM      1  C2' OXE d   1       5.997   1.187   3.231  0.00  0.00     0.078 C 
ATOM      2  C1' OXE d   1       5.535   1.168   6.000  0.00  0.00     0.078 C 
ATOM      3  C1  OXE d   1       5.649  -0.162   5.297  0.00  0.00    -0.078 A 
ATOM      4  C2  OXE d   1       5.829  -0.143   3.935  0.00  0.00    -0.078 A 
ATOM      5  C3  OXE d   1       5.996  -1.340   3.245  0.00  0.00     0.003 A 
ATOM      6  C4  OXE d   1       5.828  -2.566   3.901  0.00  0.00    -0.002 A 
ATOM      7  C5  OXE d   1       5.605  -2.607   5.282  0.00  0.00    -0.002 A 
ATOM      8  C6  OXE d   1       5.556  -1.417   6.000  0.00  0.00     0.003 A 
ENDROOT
TORSDOF 0
ENDMDL
