MODEL 1
REMARK minimizedAffinity 0.289617389
REMARK minimizedRMSD -1
REMARK  0 active torsions:
REMARK  status: ('A' for Active; 'I' for Inactive)
ROOT
ATOM      1  C2' OXE d   1       5.288   0.629   1.677  0.00  0.00     0.078 C 
ATOM      2  C1' OXE d   1       5.670   2.974   3.173  0.00  0.00     0.078 C 
ATOM      3  C1  OXE d   1       5.728   1.655   3.904  0.00  0.00    -0.078 A 
ATOM      4  C2  OXE d   1       5.494   0.516   3.173  0.00  0.00    -0.078 A 
ATOM      5  C3  OXE d   1       5.590  -0.729   3.787  0.00  0.00     0.003 A 
ATOM      6  C4  OXE d   1       5.770  -0.825   5.172  0.00  0.00    -0.002 A 
ATOM      7  C5  OXE d   1       5.972   0.325   5.942  0.00  0.00    -0.002 A 
ATOM      8  C6  OXE d   1       5.996   1.568   5.319  0.00  0.00     0.003 A 
ENDROOT
TORSDOF 0
ENDMDL
