MODEL 1
REMARK minimizedAffinity 4.24311543
REMARK minimizedRMSD -1
REMARK  0 active torsions:
REMARK  status: ('A' for Active; 'I' for Inactive)
ROOT
ATOM      1  C2' OXE d   1       5.996   2.237   5.552  0.00  0.00     0.078 C 
ATOM      2  C1' OXE d   1       5.977   2.015   2.754  0.00  0.00     0.078 C 
ATOM      3  C1  OXE d   1       5.980   3.401   3.350  0.00  0.00    -0.078 A 
ATOM      4  C2  OXE d   1       5.942   3.500   4.720  0.00  0.00    -0.078 A 
ATOM      5  C3  OXE d   1       5.999   4.754   5.322  0.00  0.00     0.003 A 
ATOM      6  C4  OXE d   1       5.939   5.917   4.545  0.00  0.00    -0.002 A 
ATOM      7  C5  OXE d   1       5.937   5.838   3.148  0.00  0.00    -0.002 A 
ATOM      8  C6  OXE d   1       6.000   4.591   2.536  0.00  0.00     0.003 A 
ENDROOT
TORSDOF 0
ENDMDL
