MODEL 1
REMARK minimizedAffinity -2.42830753
REMARK minimizedRMSD -1
REMARK  0 active torsions:
REMARK  status: ('A' for Active; 'I' for Inactive)
ROOT
ATOM      1  C2' OXE d   1       5.876   1.490   5.632  0.00  0.00     0.078 C 
ATOM      2  C1' OXE d   1       5.853   1.096   2.853  0.00  0.00     0.078 C 
ATOM      3  C1  OXE d   1       5.921   2.515   3.362  0.00  0.00    -0.078 A 
ATOM      4  C2  OXE d   1       5.885   2.700   4.723  0.00  0.00    -0.078 A 
ATOM      5  C3  OXE d   1       6.000   3.985   5.247  0.00  0.00     0.003 A 
ATOM      6  C4  OXE d   1       5.997   5.099   4.399  0.00  0.00    -0.002 A 
ATOM      7  C5  OXE d   1       5.995   4.934   3.010  0.00  0.00    -0.002 A 
ATOM      8  C6  OXE d   1       6.000   3.650   2.476  0.00  0.00     0.003 A 
ENDROOT
TORSDOF 0
ENDMDL
