MODEL 1
REMARK minimizedAffinity -0.101515897
REMARK minimizedRMSD -1
REMARK  0 active torsions:
REMARK  status: ('A' for Active; 'I' for Inactive)
ROOT
ATOM      1  C2' OXE d   1       6.000   2.261   1.894  0.00  0.00     0.078 C 
ATOM      2  C1' OXE d   1       5.625   4.161   3.926  0.00  0.00     0.078 C 
ATOM      3  C1  OXE d   1       5.717   2.710   4.328  0.00  0.00    -0.078 A 
ATOM      4  C2  OXE d   1       5.854   1.783   3.323  0.00  0.00    -0.078 A 
ATOM      5  C3  OXE d   1       5.998   0.436   3.642  0.00  0.00     0.003 A 
ATOM      6  C4  OXE d   1       5.852   0.001   4.965  0.00  0.00    -0.002 A 
ATOM      7  C5  OXE d   1       5.672   0.925   6.000  0.00  0.00    -0.002 A 
ATOM      8  C6  OXE d   1       5.645   2.284   5.704  0.00  0.00     0.003 A 
ENDROOT
TORSDOF 0
ENDMDL
