MODEL 1
REMARK minimizedAffinity 0.870735765
REMARK minimizedRMSD -1
REMARK  0 active torsions:
REMARK  status: ('A' for Active; 'I' for Inactive)
ROOT
ATOM      1  C2' OXE d   1       5.994  -2.525   4.553  0.00  0.00     0.078 C 
ATOM      2  C1' OXE d   1       5.978  -0.996   2.198  0.00  0.00     0.078 C 
ATOM      3  C1  OXE d   1       5.979  -0.260   3.514  0.00  0.00    -0.078 A 
ATOM      4  C2  OXE d   1       5.939  -1.016   4.661  0.00  0.00    -0.078 A 
ATOM      5  C3  OXE d   1       5.994  -0.388   5.903  0.00  0.00     0.003 A 
ATOM      6  C4  OXE d   1       5.933   1.007   5.995  0.00  0.00    -0.002 A 
ATOM      7  C5  OXE d   1       5.932   1.796   4.839  0.00  0.00    -0.002 A 
ATOM      8  C6  OXE d   1       5.998   1.180   3.594  0.00  0.00     0.003 A 
ENDROOT
TORSDOF 0
ENDMDL
