MODEL 1
REMARK minimizedAffinity 1.04685044
REMARK minimizedRMSD -1
REMARK  0 active torsions:
REMARK  status: ('A' for Active; 'I' for Inactive)
ROOT
ATOM      1  C2' OXE d   1       0.006  -1.370   0.201  0.00  0.00     0.078 C 
ATOM      2  C1' OXE d   1       0.659   0.937  -1.258  0.00  0.00     0.078 C 
ATOM      3  C1  OXE d   1       0.967  -0.401  -1.882  0.00  0.00    -0.078 A 
ATOM      4  C2  OXE d   1       0.687  -1.524  -1.141  0.00  0.00    -0.078 A 
ATOM      5  C3  OXE d   1       0.901  -2.784  -1.692  0.00  0.00     0.003 A 
ATOM      6  C4  OXE d   1       1.541  -2.918  -2.930  0.00  0.00    -0.002 A 
ATOM      7  C5  OXE d   1       1.871  -1.786  -3.684  0.00  0.00    -0.002 A 
ATOM      8  C6  OXE d   1       1.553  -0.524  -3.194  0.00  0.00     0.003 A 
ENDROOT
TORSDOF 0
ENDMDL
