MODEL 1
REMARK minimizedAffinity -0.398229718
REMARK minimizedRMSD -1
REMARK  0 active torsions:
REMARK  status: ('A' for Active; 'I' for Inactive)
ROOT
ATOM      1  C   UNL d   1      -4.014   1.364   1.127  0.00  0.00     0.077 C 
ATOM      2  C1  UNL d   1      -2.657   0.913   0.676  0.00  0.00    -0.074 A 
ATOM      3  C2  UNL d   1      -2.283   0.995  -0.669  0.00  0.00    -0.005 A 
ATOM      4  C3  UNL d   1      -1.013   0.580  -1.072  0.00  0.00     0.006 A 
ATOM      5  C4  UNL d   1      -0.108   0.080  -0.136  0.00  0.00    -0.005 A 
ATOM      6  C5  UNL d   1      -0.464  -0.010   1.213  0.00  0.00    -0.074 A 
ATOM      7  C6  UNL d   1       0.501  -0.536   2.233  0.00  0.00     0.077 C 
ATOM      8  C7  UNL d   1      -1.739   0.416   1.611  0.00  0.00    -0.001 A 
ENDROOT
TORSDOF 0
ENDMDL
