MODEL 1
REMARK minimizedAffinity -2.58617735
REMARK minimizedRMSD -1
REMARK  0 active torsions:
REMARK  status: ('A' for Active; 'I' for Inactive)
ROOT
ATOM      1  C   UNL d   1      -1.675   0.480  -1.247  0.00  0.00     0.077 C 
ATOM      2  C1  UNL d   1      -0.442   0.660  -0.412  0.00  0.00    -0.074 A 
ATOM      3  C2  UNL d   1       0.050   1.937  -0.124  0.00  0.00    -0.005 A 
ATOM      4  C3  UNL d   1       1.192   2.090   0.662  0.00  0.00     0.006 A 
ATOM      5  C4  UNL d   1       1.853   0.969   1.166  0.00  0.00    -0.005 A 
ATOM      6  C5  UNL d   1       1.375  -0.316   0.889  0.00  0.00    -0.074 A 
ATOM      7  C6  UNL d   1       2.068  -1.531   1.431  0.00  0.00     0.077 C 
ATOM      8  C7  UNL d   1       0.223  -0.461   0.104  0.00  0.00    -0.001 A 
ENDROOT
TORSDOF 0
ENDMDL
