MODEL 1
REMARK minimizedAffinity -3.1783011
REMARK minimizedRMSD -1
REMARK  0 active torsions:
REMARK  status: ('A' for Active; 'I' for Inactive)
ROOT
ATOM      1  C   UNL d   1      -1.791   0.518  -0.755  0.00  0.00     0.077 C 
ATOM      2  C1  UNL d   1      -0.450   0.830  -0.161  0.00  0.00    -0.074 A 
ATOM      3  C2  UNL d   1       0.064   2.130  -0.189  0.00  0.00    -0.005 A 
ATOM      4  C3  UNL d   1       1.309   2.407   0.376  0.00  0.00     0.006 A 
ATOM      5  C4  UNL d   1       2.051   1.387   0.973  0.00  0.00    -0.005 A 
ATOM      6  C5  UNL d   1       1.553   0.081   1.011  0.00  0.00    -0.074 A 
ATOM      7  C6  UNL d   1       2.334  -1.024   1.657  0.00  0.00     0.077 C 
ATOM      8  C7  UNL d   1       0.299  -0.188   0.447  0.00  0.00    -0.001 A 
ENDROOT
TORSDOF 0
ENDMDL
