MODEL 1
REMARK minimizedAffinity -3.72978091
REMARK minimizedRMSD -1
REMARK  0 active torsions:
REMARK  status: ('A' for Active; 'I' for Inactive)
ROOT
ATOM      1  C   UNL d   1       2.428   1.402   1.687  0.00  0.00     0.077 C 
ATOM      2  C1  UNL d   1       1.643   0.378   0.923  0.00  0.00    -0.074 A 
ATOM      3  C2  UNL d   1       2.201  -0.864   0.603  0.00  0.00    -0.005 A 
ATOM      4  C3  UNL d   1       1.455  -1.810  -0.099  0.00  0.00     0.006 A 
ATOM      5  C4  UNL d   1       0.146  -1.525  -0.489  0.00  0.00    -0.005 A 
ATOM      6  C5  UNL d   1      -0.430  -0.289  -0.177  0.00  0.00    -0.074 A 
ATOM      7  C6  UNL d   1      -1.839   0.030  -0.579  0.00  0.00     0.077 C 
ATOM      8  C7  UNL d   1       0.324   0.654   0.535  0.00  0.00    -0.001 A 
ENDROOT
TORSDOF 0
ENDMDL
