MODEL 1
REMARK minimizedAffinity -4.82213402
REMARK minimizedRMSD -1
REMARK  0 active torsions:
REMARK  status: ('A' for Active; 'I' for Inactive)
ROOT
ATOM      1  C   UNL d   1       2.560  -2.079   1.092  0.00  0.00     0.077 C 
ATOM      2  C1  UNL d   1       2.041  -0.736   0.671  0.00  0.00    -0.074 A 
ATOM      3  C2  UNL d   1       2.845   0.405   0.757  0.00  0.00    -0.005 A 
ATOM      4  C3  UNL d   1       2.352   1.645   0.353  0.00  0.00     0.006 A 
ATOM      5  C4  UNL d   1       1.051   1.758  -0.140  0.00  0.00    -0.005 A 
ATOM      6  C5  UNL d   1       0.232   0.628  -0.234  0.00  0.00    -0.074 A 
ATOM      7  C6  UNL d   1      -1.164   0.729  -0.771  0.00  0.00     0.077 C 
ATOM      8  C7  UNL d   1       0.738  -0.616   0.167  0.00  0.00    -0.001 A 
ENDROOT
TORSDOF 0
ENDMDL
