MODEL 1
REMARK minimizedAffinity -3.6152575
REMARK minimizedRMSD -1
REMARK  0 active torsions:
REMARK  status: ('A' for Active; 'I' for Inactive)
ROOT
ATOM      1  C   UNL d   1      -3.536   0.445   2.599  0.00  0.00     0.077 C 
ATOM      2  C1  UNL d   1      -2.682   0.506   1.368  0.00  0.00    -0.074 A 
ATOM      3  C2  UNL d   1      -3.207   0.953   0.151  0.00  0.00    -0.005 A 
ATOM      4  C3  UNL d   1      -2.398   1.013  -0.984  0.00  0.00     0.006 A 
ATOM      5  C4  UNL d   1      -1.058   0.628  -0.913  0.00  0.00    -0.005 A 
ATOM      6  C5  UNL d   1      -0.516   0.179   0.296  0.00  0.00    -0.074 A 
ATOM      7  C6  UNL d   1       0.924  -0.229   0.391  0.00  0.00     0.077 C 
ATOM      8  C7  UNL d   1      -1.334   0.128   1.433  0.00  0.00    -0.001 A 
ENDROOT
TORSDOF 0
ENDMDL
