MODEL 1
REMARK minimizedAffinity -3.68785715
REMARK minimizedRMSD -1
REMARK  0 active torsions:
REMARK  status: ('A' for Active; 'I' for Inactive)
ROOT
ATOM      1  C   UNL d   1      -2.455   0.709  -0.162  0.00  0.00     0.077 C 
ATOM      2  C1  UNL d   1      -1.001   1.001   0.061  0.00  0.00    -0.074 A 
ATOM      3  C2  UNL d   1      -0.487   2.286  -0.138  0.00  0.00    -0.005 A 
ATOM      4  C3  UNL d   1       0.866   2.544   0.082  0.00  0.00     0.006 A 
ATOM      5  C4  UNL d   1       1.717   1.522   0.503  0.00  0.00    -0.005 A 
ATOM      6  C5  UNL d   1       1.221   0.230   0.708  0.00  0.00    -0.074 A 
ATOM      7  C6  UNL d   1       2.120  -0.878   1.169  0.00  0.00     0.077 C 
ATOM      8  C7  UNL d   1      -0.141  -0.020   0.491  0.00  0.00    -0.001 A 
ENDROOT
TORSDOF 0
ENDMDL
