MODEL 1
REMARK minimizedAffinity -0.966770828
REMARK minimizedRMSD -1
REMARK  0 active torsions:
REMARK  status: ('A' for Active; 'I' for Inactive)
ROOT
ATOM      1  C   UNL d   1      -3.063   0.094   1.632  0.00  0.00     0.077 C 
ATOM      2  C1  UNL d   1      -1.787   0.421   0.915  0.00  0.00    -0.074 A 
ATOM      3  C2  UNL d   1      -1.719   1.492   0.019  0.00  0.00    -0.005 A 
ATOM      4  C3  UNL d   1      -0.522   1.790  -0.632  0.00  0.00     0.006 A 
ATOM      5  C4  UNL d   1       0.617   1.020  -0.395  0.00  0.00    -0.005 A 
ATOM      6  C5  UNL d   1       0.569  -0.055   0.498  0.00  0.00    -0.074 A 
ATOM      7  C6  UNL d   1       1.787  -0.886   0.772  0.00  0.00     0.077 C 
ATOM      8  C7  UNL d   1      -0.635  -0.343   1.154  0.00  0.00    -0.001 A 
ENDROOT
TORSDOF 0
ENDMDL
