MODEL 1
REMARK minimizedAffinity -3.13033056
REMARK minimizedRMSD -1
REMARK  1 active torsions:
REMARK  status: ('A' for Active; 'I' for Inactive)
REMARK    1  A    between atoms: N_2  and  C1_3 
ROOT
ATOM      1  C1  UNL d   1       0.304  -0.214  -0.153  0.00  0.00     0.143 A 
ATOM      2  C2  UNL d   1       1.402   0.629   0.049  0.00  0.00    -0.057 A 
ATOM      3  C3  UNL d   1       2.662   0.321  -0.480  0.00  0.00     0.033 A 
ATOM      4  C4  UNL d   1       2.852  -0.855  -1.198  0.00  0.00    -0.042 A 
ATOM      5  C5  UNL d   1       1.781  -1.720  -1.390  0.00  0.00     0.033 A 
ATOM      6  C6  UNL d   1       0.524  -1.403  -0.866  0.00  0.00    -0.057 A 
ENDROOT
BRANCH   1   7
ATOM      7  N   UNL d   1      -0.949  -0.012   0.430  0.00  0.00    -0.732 N 
ATOM      8  C   UNL d   1      -1.076   0.174   1.859  0.00  0.00     0.284 C 
ATOM      9  H3  UNL d   1      -1.540   0.604  -0.124  0.00  0.00     0.395 HD
ENDBRANCH   1   7
TORSDOF 1
ENDMDL
