MODEL 1
REMARK minimizedAffinity -3.99700642
REMARK minimizedRMSD -1
REMARK  1 active torsions:
REMARK  status: ('A' for Active; 'I' for Inactive)
REMARK    1  A    between atoms: N_2  and  C1_3 
ROOT
ATOM      1  C1  UNL d   1       0.837   0.797  -1.109  0.00  0.00     0.143 A 
ATOM      2  C2  UNL d   1       0.310  -0.302  -0.421  0.00  0.00    -0.057 A 
ATOM      3  C3  UNL d   1       0.822  -1.591  -0.613  0.00  0.00     0.033 A 
ATOM      4  C4  UNL d   1       1.853  -1.809  -1.520  0.00  0.00    -0.042 A 
ATOM      5  C5  UNL d   1       2.375  -0.735  -2.233  0.00  0.00     0.033 A 
ATOM      6  C6  UNL d   1       1.864   0.551  -2.032  0.00  0.00    -0.057 A 
ENDROOT
BRANCH   1   7
ATOM      7  N   UNL d   1       0.306   2.087  -1.035  0.00  0.00    -0.732 N 
ATOM      8  C   UNL d   1      -1.065   2.344  -1.421  0.00  0.00     0.284 C 
ATOM      9  H3  UNL d   1       0.601   2.581  -0.196  0.00  0.00     0.395 HD
ENDBRANCH   1   7
TORSDOF 1
ENDMDL
