MODEL 1
REMARK minimizedAffinity -3.87348723
REMARK minimizedRMSD -1
REMARK  1 active torsions:
REMARK  status: ('A' for Active; 'I' for Inactive)
REMARK    1  A    between atoms: N_2  and  C1_3 
ROOT
ATOM      1  C1  UNL d   1      -0.317  -0.156   0.463  0.00  0.00     0.143 A 
ATOM      2  C2  UNL d   1      -0.019  -1.437  -0.013  0.00  0.00    -0.057 A 
ATOM      3  C3  UNL d   1       1.140  -1.683  -0.759  0.00  0.00     0.033 A 
ATOM      4  C4  UNL d   1       2.010  -0.643  -1.067  0.00  0.00    -0.042 A 
ATOM      5  C5  UNL d   1       1.721   0.644  -0.626  0.00  0.00     0.033 A 
ATOM      6  C6  UNL d   1       0.565   0.882   0.124  0.00  0.00    -0.057 A 
ENDROOT
BRANCH   1   7
ATOM      7  N   UNL d   1      -1.503   0.172   1.125  0.00  0.00    -0.732 N 
ATOM      8  C   UNL d   1      -1.471   0.868   2.393  0.00  0.00     0.284 C 
ATOM      9  H3  UNL d   1      -2.225   0.501   0.488  0.00  0.00     0.395 HD
ENDBRANCH   1   7
TORSDOF 1
ENDMDL
