MODEL 1
REMARK minimizedAffinity -3.58533406
REMARK minimizedRMSD -1
REMARK  1 active torsions:
REMARK  status: ('A' for Active; 'I' for Inactive)
REMARK    1  A    between atoms: N_2  and  C1_3 
ROOT
ATOM      1  C1  UNL d   1       0.089  -0.186  -0.136  0.00  0.00     0.143 A 
ATOM      2  C2  UNL d   1       0.290  -1.384  -0.829  0.00  0.00    -0.057 A 
ATOM      3  C3  UNL d   1       1.566  -1.768  -1.261  0.00  0.00     0.033 A 
ATOM      4  C4  UNL d   1       2.662  -0.943  -1.032  0.00  0.00    -0.042 A 
ATOM      5  C5  UNL d   1       2.481   0.265  -0.367  0.00  0.00     0.033 A 
ATOM      6  C6  UNL d   1       1.206   0.640   0.067  0.00  0.00    -0.057 A 
ENDROOT
BRANCH   1   7
ATOM      7  N   UNL d   1      -1.169   0.298   0.232  0.00  0.00    -0.732 N 
ATOM      8  C   UNL d   1      -1.473   0.580   1.618  0.00  0.00     0.284 C 
ATOM      9  H3  UNL d   1      -1.525   0.992  -0.422  0.00  0.00     0.395 HD
ENDBRANCH   1   7
TORSDOF 1
ENDMDL
