MODEL 1
REMARK minimizedAffinity -4.75099516
REMARK minimizedRMSD -1
REMARK  1 active torsions:
REMARK  status: ('A' for Active; 'I' for Inactive)
REMARK    1  A    between atoms: N_2  and  C1_3 
ROOT
ATOM      1  C1  UNL d   1       0.140   0.323   0.363  0.00  0.00     0.143 A 
ATOM      2  C2  UNL d   1       0.088  -1.009  -0.061  0.00  0.00    -0.057 A 
ATOM      3  C3  UNL d   1       1.062  -1.538  -0.917  0.00  0.00     0.033 A 
ATOM      4  C4  UNL d   1       2.094  -0.732  -1.388  0.00  0.00    -0.042 A 
ATOM      5  C5  UNL d   1       2.152   0.601  -0.999  0.00  0.00     0.033 A 
ATOM      6  C6  UNL d   1       1.180   1.121  -0.139  0.00  0.00    -0.057 A 
ENDROOT
BRANCH   1   7
ATOM      7  N   UNL d   1      -0.852   0.934   1.133  0.00  0.00    -0.732 N 
ATOM      8  C   UNL d   1      -1.835   0.137   1.836  0.00  0.00     0.284 C 
ATOM      9  H3  UNL d   1      -0.498   1.723   1.669  0.00  0.00     0.395 HD
ENDBRANCH   1   7
TORSDOF 1
ENDMDL
