MODEL 1
REMARK minimizedAffinity -3.71623015
REMARK minimizedRMSD -1
REMARK  1 active torsions:
REMARK  status: ('A' for Active; 'I' for Inactive)
REMARK    1  A    between atoms: N_2  and  C1_3 
ROOT
ATOM      1  C1  UNL d   1      -0.402   0.031  -0.145  0.00  0.00     0.143 A 
ATOM      2  C2  UNL d   1       0.379   1.076  -0.650  0.00  0.00    -0.057 A 
ATOM      3  C3  UNL d   1       1.631   0.833  -1.228  0.00  0.00     0.033 A 
ATOM      4  C4  UNL d   1       2.138  -0.461  -1.285  0.00  0.00    -0.042 A 
ATOM      5  C5  UNL d   1       1.390  -1.512  -0.767  0.00  0.00     0.033 A 
ATOM      6  C6  UNL d   1       0.138  -1.263  -0.197  0.00  0.00    -0.057 A 
ENDROOT
BRANCH   1   7
ATOM      7  N   UNL d   1      -1.611   0.220   0.530  0.00  0.00    -0.732 N 
ATOM      8  C   UNL d   1      -1.631   0.783   1.863  0.00  0.00     0.284 C 
ATOM      9  H3  UNL d   1      -2.346   0.570  -0.080  0.00  0.00     0.395 HD
ENDBRANCH   1   7
TORSDOF 1
ENDMDL
