MODEL 1
REMARK minimizedAffinity -3.24727416
REMARK minimizedRMSD -1
REMARK  1 active torsions:
REMARK  status: ('A' for Active; 'I' for Inactive)
REMARK    1  A    between atoms: N_2  and  C1_3 
ROOT
ATOM      1  C1  UNL d   1       0.864   0.244  -0.760  0.00  0.00     0.143 A 
ATOM      2  C2  UNL d   1      -0.221  -0.472  -0.246  0.00  0.00    -0.057 A 
ATOM      3  C3  UNL d   1      -1.537  -0.032  -0.434  0.00  0.00     0.033 A 
ATOM      4  C4  UNL d   1      -1.789   1.153  -1.117  0.00  0.00    -0.042 A 
ATOM      5  C5  UNL d   1      -0.724   1.895  -1.616  0.00  0.00     0.033 A 
ATOM      6  C6  UNL d   1       0.587   1.446  -1.431  0.00  0.00    -0.057 A 
ENDROOT
BRANCH   1   7
ATOM      7  N   UNL d   1       2.200  -0.089  -0.522  0.00  0.00    -0.732 N 
ATOM      8  C   UNL d   1       2.976  -0.785  -1.526  0.00  0.00     0.284 C 
ATOM      9  H3  UNL d   1       2.707   0.653  -0.045  0.00  0.00     0.395 HD
ENDBRANCH   1   7
TORSDOF 1
ENDMDL
