MODEL 1
REMARK minimizedAffinity -4.19687891
REMARK minimizedRMSD -1
REMARK  1 active torsions:
REMARK  status: ('A' for Active; 'I' for Inactive)
REMARK    1  A    between atoms: N_2  and  C1_3 
ROOT
ATOM      1  C1  UNL d   1       0.080   0.171  -0.195  0.00  0.00     0.143 A 
ATOM      2  C2  UNL d   1       1.238   0.937  -0.375  0.00  0.00    -0.057 A 
ATOM      3  C3  UNL d   1       2.420   0.363  -0.857  0.00  0.00     0.033 A 
ATOM      4  C4  UNL d   1       2.475  -0.997  -1.142  0.00  0.00    -0.042 A 
ATOM      5  C5  UNL d   1       1.344  -1.782  -0.948  0.00  0.00     0.033 A 
ATOM      6  C6  UNL d   1       0.164  -1.202  -0.472  0.00  0.00    -0.057 A 
ENDROOT
BRANCH   1   7
ATOM      7  N   UNL d   1      -1.097   0.663   0.373  0.00  0.00    -0.732 N 
ATOM      8  C   UNL d   1      -1.512   0.236   1.692  0.00  0.00     0.284 C 
ATOM      9  H3  UNL d   1      -1.228   1.656   0.197  0.00  0.00     0.395 HD
ENDBRANCH   1   7
TORSDOF 1
ENDMDL
