MODEL 1
REMARK minimizedAffinity -4.62168837
REMARK minimizedRMSD -1
REMARK  1 active torsions:
REMARK  status: ('A' for Active; 'I' for Inactive)
REMARK    1  A    between atoms: N_2  and  C1_3 
ROOT
ATOM      1  C1  UNL d   1      -0.288  -0.364  -0.115  0.00  0.00     0.143 A 
ATOM      2  C2  UNL d   1      -0.049  -1.691  -0.488  0.00  0.00    -0.057 A 
ATOM      3  C3  UNL d   1       1.144  -2.063  -1.120  0.00  0.00     0.033 A 
ATOM      4  C4  UNL d   1       2.110  -1.107  -1.416  0.00  0.00    -0.042 A 
ATOM      5  C5  UNL d   1       1.883   0.222  -1.076  0.00  0.00     0.033 A 
ATOM      6  C6  UNL d   1       0.692   0.587  -0.440  0.00  0.00    -0.057 A 
ENDROOT
BRANCH   1   7
ATOM      7  N   UNL d   1      -1.494   0.086   0.427  0.00  0.00    -0.732 N 
ATOM      8  C   UNL d   1      -1.562   0.544   1.798  0.00  0.00     0.284 C 
ATOM      9  H3  UNL d   1      -2.026   0.655  -0.228  0.00  0.00     0.395 HD
ENDBRANCH   1   7
TORSDOF 1
ENDMDL
