MODEL 1
REMARK minimizedAffinity -2.03457785
REMARK minimizedRMSD -1
REMARK  1 active torsions:
REMARK  status: ('A' for Active; 'I' for Inactive)
REMARK    1  A    between atoms: N_2  and  C1_3 
ROOT
ATOM      1  C1  UNL d   1      -1.640   0.436   1.494  0.00  0.00     0.143 A 
ATOM      2  C2  UNL d   1      -2.111  -0.512   2.408  0.00  0.00    -0.057 A 
ATOM      3  C3  UNL d   1      -2.291  -0.191   3.759  0.00  0.00     0.033 A 
ATOM      4  C4  UNL d   1      -1.974   1.080   4.226  0.00  0.00    -0.042 A 
ATOM      5  C5  UNL d   1      -1.480   2.031   3.341  0.00  0.00     0.033 A 
ATOM      6  C6  UNL d   1      -1.309   1.707   1.991  0.00  0.00    -0.057 A 
ENDROOT
BRANCH   1   7
ATOM      7  N   UNL d   1      -1.346   0.150   0.158  0.00  0.00    -0.732 N 
ATOM      8  C   UNL d   1       0.021  -0.057  -0.268  0.00  0.00     0.284 C 
ATOM      9  H3  UNL d   1      -2.013  -0.497  -0.256  0.00  0.00     0.395 HD
ENDBRANCH   1   7
TORSDOF 1
ENDMDL
