MODEL 1
REMARK minimizedAffinity -4.4687376
REMARK minimizedRMSD -1
REMARK  1 active torsions:
REMARK  status: ('A' for Active; 'I' for Inactive)
REMARK    1  A    between atoms: N_2  and  C1_3 
ROOT
ATOM      1  C1  UNL d   1      -0.057   0.036  -0.202  0.00  0.00     0.143 A 
ATOM      2  C2  UNL d   1       0.186  -1.339  -0.107  0.00  0.00    -0.057 A 
ATOM      3  C3  UNL d   1       1.413  -1.888  -0.496  0.00  0.00     0.033 A 
ATOM      4  C4  UNL d   1       2.413  -1.073  -1.016  0.00  0.00    -0.042 A 
ATOM      5  C5  UNL d   1       2.185   0.293  -1.143  0.00  0.00     0.033 A 
ATOM      6  C6  UNL d   1       0.959   0.836  -0.747  0.00  0.00    -0.057 A 
ENDROOT
BRANCH   1   7
ATOM      7  N   UNL d   1      -1.291   0.629   0.076  0.00  0.00    -0.732 N 
ATOM      8  C   UNL d   1      -1.680   0.916   1.440  0.00  0.00     0.284 C 
ATOM      9  H3  UNL d   1      -1.527   1.363  -0.587  0.00  0.00     0.395 HD
ENDBRANCH   1   7
TORSDOF 1
ENDMDL
