MODEL 1
REMARK minimizedAffinity -2.75512528
REMARK minimizedRMSD -1
REMARK  1 active torsions:
REMARK  status: ('A' for Active; 'I' for Inactive)
REMARK    1  A    between atoms: N_2  and  C1_3 
ROOT
ATOM      1  C1  UNL d   1      -1.558   0.456   0.666  0.00  0.00     0.143 A 
ATOM      2  C2  UNL d   1      -1.270   1.532  -0.179  0.00  0.00    -0.057 A 
ATOM      3  C3  UNL d   1      -0.143   1.523  -1.009  0.00  0.00     0.033 A 
ATOM      4  C4  UNL d   1       0.736   0.444  -0.987  0.00  0.00    -0.042 A 
ATOM      5  C5  UNL d   1       0.483  -0.626  -0.136  0.00  0.00     0.033 A 
ATOM      6  C6  UNL d   1      -0.648  -0.613   0.686  0.00  0.00    -0.057 A 
ENDROOT
BRANCH   1   7
ATOM      7  N   UNL d   1      -2.609   0.449   1.587  0.00  0.00    -0.732 N 
ATOM      8  C   UNL d   1      -2.424   0.976   2.921  0.00  0.00     0.284 C 
ATOM      9  H3  UNL d   1      -3.499   0.698   1.161  0.00  0.00     0.395 HD
ENDBRANCH   1   7
TORSDOF 1
ENDMDL
