MODEL 1
REMARK minimizedAffinity -0.926683724
REMARK minimizedRMSD -1
REMARK  1 active torsions:
REMARK  status: ('A' for Active; 'I' for Inactive)
REMARK    1  A    between atoms: N_2  and  C1_3 
ROOT
ATOM      1  C1  UNL d   1      -0.537  -0.049   0.109  0.00  0.00     0.143 A 
ATOM      2  C2  UNL d   1      -0.452  -1.183  -0.706  0.00  0.00    -0.057 A 
ATOM      3  C3  UNL d   1       0.761  -1.570  -1.288  0.00  0.00     0.033 A 
ATOM      4  C4  UNL d   1       1.909  -0.811  -1.088  0.00  0.00    -0.042 A 
ATOM      5  C5  UNL d   1       1.843   0.334  -0.302  0.00  0.00     0.033 A 
ATOM      6  C6  UNL d   1       0.630   0.712   0.282  0.00  0.00    -0.057 A 
ENDROOT
BRANCH   1   7
ATOM      7  N   UNL d   1      -1.734   0.442   0.635  0.00  0.00    -0.732 N 
ATOM      8  C   UNL d   1      -1.747   1.157   1.894  0.00  0.00     0.284 C 
ATOM      9  H3  UNL d   1      -2.335   0.847  -0.079  0.00  0.00     0.395 HD
ENDBRANCH   1   7
TORSDOF 1
ENDMDL
