MODEL 1
REMARK minimizedAffinity 5.17128992
REMARK minimizedRMSD -1
REMARK  0 active torsions:
REMARK  status: ('A' for Active; 'I' for Inactive)
ROOT
ATOM      1  C   UNL d   1       0.715   1.255   2.100  0.00  0.00    -0.002 A 
ATOM      2  C1  UNL d   1       0.271   2.569   2.052  0.00  0.00     0.010 A 
ATOM      3  C2  UNL d   1      -0.163   3.129   0.848  0.00  0.00     0.041 A 
ATOM      4  C3  UNL d   1      -0.144   2.337  -0.317  0.00  0.00    -0.075 A 
ATOM      5  S   UNL d   1      -0.629   2.809  -1.903  0.00  0.00     0.015 SA
ATOM      6  C4  UNL d   1      -0.258   1.278  -2.553  0.00  0.00     0.022 A 
ATOM      7  C5  UNL d   1       0.225   0.415  -1.598  0.00  0.00     0.026 A 
ATOM      8  C6  UNL d   1       0.298   1.011  -0.293  0.00  0.00    -0.082 A 
ATOM      9  C7  UNL d   1       0.732   0.473   0.942  0.00  0.00     0.045 A 
ENDROOT
TORSDOF 0
ENDMDL
