MODEL 1
REMARK minimizedAffinity 11.5240211
REMARK minimizedRMSD -1
REMARK  0 active torsions:
REMARK  status: ('A' for Active; 'I' for Inactive)
ROOT
ATOM      1  C   UNL d   1      -1.045   1.232  -2.657  0.00  0.00    -0.002 A 
ATOM      2  C1  UNL d   1      -0.017   0.299  -2.672  0.00  0.00     0.010 A 
ATOM      3  C2  UNL d   1       0.753   0.073  -1.530  0.00  0.00     0.041 A 
ATOM      4  C3  UNL d   1       0.469   0.805  -0.360  0.00  0.00    -0.075 A 
ATOM      5  S   UNL d   1       1.279   0.695   1.158  0.00  0.00     0.015 SA
ATOM      6  C4  UNL d   1       0.280   1.883   1.862  0.00  0.00     0.022 A 
ATOM      7  C5  UNL d   1      -0.654   2.363   0.974  0.00  0.00     0.026 A 
ATOM      8  C6  UNL d   1      -0.561   1.749  -0.321  0.00  0.00    -0.082 A 
ATOM      9  C7  UNL d   1      -1.323   1.956  -1.495  0.00  0.00     0.045 A 
ENDROOT
TORSDOF 0
ENDMDL
