MODEL 1
REMARK minimizedAffinity 8.45244122
REMARK minimizedRMSD -1
REMARK  0 active torsions:
REMARK  status: ('A' for Active; 'I' for Inactive)
ROOT
ATOM      1  C   UNL d   1      -1.768   3.044   2.231  0.00  0.00    -0.002 A 
ATOM      2  C1  UNL d   1      -1.207   1.794   2.446  0.00  0.00     0.010 A 
ATOM      3  C2  UNL d   1      -0.786   1.009   1.370  0.00  0.00     0.041 A 
ATOM      4  C3  UNL d   1      -0.937   1.509   0.062  0.00  0.00    -0.075 A 
ATOM      5  S   UNL d   1      -0.493   0.726  -1.408  0.00  0.00     0.015 SA
ATOM      6  C4  UNL d   1      -1.036   2.034  -2.357  0.00  0.00     0.022 A 
ATOM      7  C5  UNL d   1      -1.547   3.051  -1.587  0.00  0.00     0.026 A 
ATOM      8  C6  UNL d   1      -1.499   2.766  -0.180  0.00  0.00    -0.082 A 
ATOM      9  C7  UNL d   1      -1.917   3.537   0.931  0.00  0.00     0.045 A 
ENDROOT
TORSDOF 0
ENDMDL
