MODEL 1
REMARK minimizedAffinity 7.13630295
REMARK minimizedRMSD -1
REMARK  0 active torsions:
REMARK  status: ('A' for Active; 'I' for Inactive)
ROOT
ATOM      1  C   UNL d   1       4.503  -5.696  -2.865  0.00  0.00    -0.002 A 
ATOM      2  C1  UNL d   1       5.613  -5.680  -2.032  0.00  0.00     0.010 A 
ATOM      3  C2  UNL d   1       5.858  -4.588  -1.197  0.00  0.00     0.041 A 
ATOM      4  C3  UNL d   1       4.960  -3.502  -1.213  0.00  0.00    -0.075 A 
ATOM      5  S   UNL d   1       5.058  -2.058  -0.277  0.00  0.00     0.015 SA
ATOM      6  C4  UNL d   1       3.629  -1.429  -0.960  0.00  0.00     0.022 A 
ATOM      7  C5  UNL d   1       3.078  -2.287  -1.883  0.00  0.00     0.026 A 
ATOM      8  C6  UNL d   1       3.836  -3.496  -2.043  0.00  0.00    -0.082 A 
ATOM      9  C7  UNL d   1       3.615  -4.618  -2.879  0.00  0.00     0.045 A 
ENDROOT
TORSDOF 0
ENDMDL
