MODEL 1
REMARK minimizedAffinity 9.31160545
REMARK minimizedRMSD -1
REMARK  0 active torsions:
REMARK  status: ('A' for Active; 'I' for Inactive)
ROOT
ATOM      1  C   UNL d   1       1.421   3.782   2.144  0.00  0.00    -0.002 A 
ATOM      2  C1  UNL d   1       1.108   4.027   0.814  0.00  0.00     0.010 A 
ATOM      3  C2  UNL d   1       0.681   2.990  -0.018  0.00  0.00     0.041 A 
ATOM      4  C3  UNL d   1       0.571   1.691   0.515  0.00  0.00    -0.075 A 
ATOM      5  S   UNL d   1       0.067   0.266  -0.315  0.00  0.00     0.015 SA
ATOM      6  C4  UNL d   1       0.254  -0.701   1.076  0.00  0.00     0.022 A 
ATOM      7  C5  UNL d   1       0.690   0.029   2.157  0.00  0.00     0.026 A 
ATOM      8  C6  UNL d   1       0.879   1.420   1.852  0.00  0.00    -0.082 A 
ATOM      9  C7  UNL d   1       1.310   2.492   2.669  0.00  0.00     0.045 A 
ENDROOT
TORSDOF 0
ENDMDL
