MODEL 1
REMARK minimizedAffinity 12.1037378
REMARK minimizedRMSD -1
REMARK  0 active torsions:
REMARK  status: ('A' for Active; 'I' for Inactive)
ROOT
ATOM      1  C   UNL d   1       1.478  -0.108  -0.730  0.00  0.00    -0.002 A 
ATOM      2  C1  UNL d   1       0.320   0.621  -0.961  0.00  0.00     0.010 A 
ATOM      3  C2  UNL d   1      -0.436   1.111   0.106  0.00  0.00     0.041 A 
ATOM      4  C3  UNL d   1      -0.003   0.855   1.422  0.00  0.00    -0.075 A 
ATOM      5  S   UNL d   1      -0.768   1.357   2.883  0.00  0.00     0.015 SA
ATOM      6  C4  UNL d   1       0.425   0.616   3.849  0.00  0.00     0.022 A 
ATOM      7  C5  UNL d   1       1.390  -0.004   3.092  0.00  0.00     0.026 A 
ATOM      8  C6  UNL d   1       1.160   0.124   1.680  0.00  0.00    -0.082 A 
ATOM      9  C7  UNL d   1       1.903  -0.360   0.577  0.00  0.00     0.045 A 
ENDROOT
TORSDOF 0
ENDMDL
