MODEL 1
REMARK minimizedAffinity 0.20229122
REMARK minimizedRMSD -1
REMARK  0 active torsions:
REMARK  status: ('A' for Active; 'I' for Inactive)
ROOT
ATOM      1  C   UNL d   1       0.598   3.114   2.035  0.00  0.00    -0.002 A 
ATOM      2  C1  UNL d   1       0.596   3.656   0.758  0.00  0.00     0.010 A 
ATOM      3  C2  UNL d   1       0.676   2.830  -0.365  0.00  0.00     0.041 A 
ATOM      4  C3  UNL d   1       0.757   1.436  -0.180  0.00  0.00    -0.075 A 
ATOM      5  S   UNL d   1       0.862   0.229  -1.407  0.00  0.00     0.015 SA
ATOM      6  C4  UNL d   1       0.910  -1.035  -0.265  0.00  0.00     0.022 A 
ATOM      7  C5  UNL d   1       0.850  -0.566   1.026  0.00  0.00     0.026 A 
ATOM      8  C6  UNL d   1       0.759   0.866   1.096  0.00  0.00    -0.082 A 
ATOM      9  C7  UNL d   1       0.678   1.730   2.214  0.00  0.00     0.045 A 
ENDROOT
TORSDOF 0
ENDMDL
