MODEL 1
REMARK minimizedAffinity 10.3569202
REMARK minimizedRMSD -1
REMARK  3 active torsions:
REMARK  status: ('A' for Active; 'I' for Inactive)
REMARK    1  A    between atoms: C3'_2  and  C2'_3 
REMARK    2  A    between atoms: C2'_3  and  C1'_4 
REMARK    3  A    between atoms: C1'_4  and  C1_5 
ROOT
ATOM      1  C1  N4B d   1       2.856  -2.112   3.281  0.00  0.00    -0.075 A 
ATOM      2  C2  N4B d   1       3.141  -2.911   2.152  0.00  0.00     0.002 A 
ATOM      3  C3  N4B d   1       2.272  -2.932   1.089  0.00  0.00     0.002 A 
ATOM      4  C4  N4B d   1       1.108  -2.181   1.140  0.00  0.00    -0.004 A 
ATOM      5  C5  N4B d   1       0.852  -1.392   2.223  0.00  0.00     0.002 A 
ATOM      6  C6  N4B d   1       1.718  -1.358   3.297  0.00  0.00     0.002 A 
ENDROOT
BRANCH   1   7
ATOM      7  C1' N4B d   1       3.733  -2.122   4.503  0.00  0.00     0.057 C 
BRANCH   7   8
ATOM      8  C2' N4B d   1       4.501  -3.439   4.558  0.00  0.00     0.009 C 
BRANCH   8   9
ATOM      9  C3' N4B d   1       4.486  -4.048   5.950  0.00  0.00     0.004 C 
ATOM     10  C4' N4B d   1       5.118  -5.407   5.996  0.00  0.00     0.003 C 
ENDBRANCH   8   9
ENDBRANCH   7   8
ENDBRANCH   1   7
TORSDOF 3
ENDMDL
