MODEL 1
REMARK minimizedAffinity 3.33666348
REMARK minimizedRMSD -1
REMARK  3 active torsions:
REMARK  status: ('A' for Active; 'I' for Inactive)
REMARK    1  A    between atoms: C3'_2  and  C2'_3 
REMARK    2  A    between atoms: C2'_3  and  C1'_4 
REMARK    3  A    between atoms: C1'_4  and  C1_5 
ROOT
ATOM      1  C1  N4B d   1      -3.592   1.438  -3.804  0.00  0.00    -0.075 A 
ATOM      2  C2  N4B d   1      -3.958   0.614  -2.718  0.00  0.00     0.002 A 
ATOM      3  C3  N4B d   1      -3.373   0.797  -1.489  0.00  0.00     0.002 A 
ATOM      4  C4  N4B d   1      -2.409   1.781  -1.329  0.00  0.00    -0.004 A 
ATOM      5  C5  N4B d   1      -2.079   2.590  -2.377  0.00  0.00     0.002 A 
ATOM      6  C6  N4B d   1      -2.662   2.420  -3.616  0.00  0.00     0.002 A 
ENDROOT
BRANCH   1   7
ATOM      7  C1' N4B d   1      -4.142   1.220  -5.188  0.00  0.00     0.057 C 
BRANCH   7   8
ATOM      8  C2' N4B d   1      -5.648   0.997  -5.098  0.00  0.00     0.009 C 
BRANCH   8   9
ATOM      9  C3' N4B d   1      -6.000  -0.477  -4.995  0.00  0.00     0.004 C 
ATOM     10  C4' N4B d   1      -5.272  -1.319  -6.000  0.00  0.00     0.003 C 
ENDBRANCH   8   9
ENDBRANCH   7   8
ENDBRANCH   1   7
TORSDOF 3
ENDMDL
