MODEL 1
REMARK minimizedAffinity 12.8817205
REMARK minimizedRMSD -1
REMARK  3 active torsions:
REMARK  status: ('A' for Active; 'I' for Inactive)
REMARK    1  A    between atoms: C3'_2  and  C2'_3 
REMARK    2  A    between atoms: C2'_3  and  C1'_4 
REMARK    3  A    between atoms: C1'_4  and  C1_5 
ROOT
ATOM      1  C1  N4B d   1       3.084  -2.237   3.065  0.00  0.00    -0.075 A 
ATOM      2  C2  N4B d   1       1.951  -1.395   3.119  0.00  0.00     0.002 A 
ATOM      3  C3  N4B d   1       1.088  -1.335   2.053  0.00  0.00     0.002 A 
ATOM      4  C4  N4B d   1       1.346  -2.091   0.919  0.00  0.00    -0.004 A 
ATOM      5  C5  N4B d   1       2.428  -2.921   0.884  0.00  0.00     0.002 A 
ATOM      6  C6  N4B d   1       3.302  -2.994   1.950  0.00  0.00     0.002 A 
ENDROOT
BRANCH   1   7
ATOM      7  C1' N4B d   1       4.102  -2.271   4.171  0.00  0.00     0.057 C 
BRANCH   7   8
ATOM      8  C2' N4B d   1       3.517  -3.015   5.368  0.00  0.00     0.009 C 
BRANCH   8   9
ATOM      9  C3' N4B d   1       4.500  -4.016   5.951  0.00  0.00     0.004 C 
ATOM     10  C4' N4B d   1       3.959  -5.414   5.976  0.00  0.00     0.003 C 
ENDBRANCH   8   9
ENDBRANCH   7   8
ENDBRANCH   1   7
TORSDOF 3
ENDMDL
