MODEL 1
REMARK minimizedAffinity 12.4422626
REMARK minimizedRMSD -1
REMARK  3 active torsions:
REMARK  status: ('A' for Active; 'I' for Inactive)
REMARK    1  A    between atoms: C3'_2  and  C2'_3 
REMARK    2  A    between atoms: C2'_3  and  C1'_4 
REMARK    3  A    between atoms: C1'_4  and  C1_5 
ROOT
ATOM      1  C1  N4B d   1       2.060  -1.414   2.214  0.00  0.00    -0.075 A 
ATOM      2  C2  N4B d   1       3.192  -1.805   1.465  0.00  0.00     0.002 A 
ATOM      3  C3  N4B d   1       3.036  -2.295   0.192  0.00  0.00     0.002 A 
ATOM      4  C4  N4B d   1       1.763  -2.420  -0.344  0.00  0.00    -0.004 A 
ATOM      5  C5  N4B d   1       0.678  -2.017   0.376  0.00  0.00     0.002 A 
ATOM      6  C6  N4B d   1       0.819  -1.518   1.656  0.00  0.00     0.002 A 
ENDROOT
BRANCH   1   7
ATOM      7  C1' N4B d   1       2.173  -0.953   3.642  0.00  0.00     0.057 C 
BRANCH   7   8
ATOM      8  C2' N4B d   1       3.456  -1.513   4.249  0.00  0.00     0.009 C 
BRANCH   8   9
ATOM      9  C3' N4B d   1       3.199  -2.219   5.569  0.00  0.00     0.004 C 
ATOM     10  C4' N4B d   1       3.510  -3.685   5.514  0.00  0.00     0.003 C 
ENDBRANCH   8   9
ENDBRANCH   7   8
ENDBRANCH   1   7
TORSDOF 3
ENDMDL
