MODEL 1
REMARK minimizedAffinity 12.7297192
REMARK minimizedRMSD -1
REMARK  3 active torsions:
REMARK  status: ('A' for Active; 'I' for Inactive)
REMARK    1  A    between atoms: C3'_2  and  C2'_3 
REMARK    2  A    between atoms: C2'_3  and  C1'_4 
REMARK    3  A    between atoms: C1'_4  and  C1_5 
ROOT
ATOM      1  C1  N4B d   1       1.781  -1.082   2.887  0.00  0.00    -0.075 A 
ATOM      2  C2  N4B d   1       1.188  -1.517   1.681  0.00  0.00     0.002 A 
ATOM      3  C3  N4B d   1       1.769  -2.529   0.956  0.00  0.00     0.002 A 
ATOM      4  C4  N4B d   1       2.948  -3.105   1.405  0.00  0.00    -0.004 A 
ATOM      5  C5  N4B d   1       3.500  -2.697   2.584  0.00  0.00     0.002 A 
ATOM      6  C6  N4B d   1       2.925  -1.684   3.325  0.00  0.00     0.002 A 
ENDROOT
BRANCH   1   7
ATOM      7  C1' N4B d   1       1.230   0.078   3.669  0.00  0.00     0.057 C 
BRANCH   7   8
ATOM      8  C2' N4B d   1       1.123   1.294   2.754  0.00  0.00     0.009 C 
BRANCH   8   9
ATOM      9  C3' N4B d   1       1.521   2.576   3.464  0.00  0.00     0.004 C 
ATOM     10  C4' N4B d   1       0.748   3.769   2.984  0.00  0.00     0.003 C 
ENDBRANCH   8   9
ENDBRANCH   7   8
ENDBRANCH   1   7
TORSDOF 3
ENDMDL
