MODEL 1
REMARK minimizedAffinity 12.0364819
REMARK minimizedRMSD -1
REMARK  3 active torsions:
REMARK  status: ('A' for Active; 'I' for Inactive)
REMARK    1  A    between atoms: C3'_2  and  C2'_3 
REMARK    2  A    between atoms: C2'_3  and  C1'_4 
REMARK    3  A    between atoms: C1'_4  and  C1_5 
ROOT
ATOM      1  C1  N4B d   1      -1.777   1.070  -1.917  0.00  0.00    -0.075 A 
ATOM      2  C2  N4B d   1      -1.227  -0.200  -1.637  0.00  0.00     0.002 A 
ATOM      3  C3  N4B d   1      -2.045  -1.231  -1.244  0.00  0.00     0.002 A 
ATOM      4  C4  N4B d   1      -3.408  -1.011  -1.107  0.00  0.00    -0.004 A 
ATOM      5  C5  N4B d   1      -3.934   0.212  -1.404  0.00  0.00     0.002 A 
ATOM      6  C6  N4B d   1      -3.124   1.256  -1.803  0.00  0.00     0.002 A 
ENDROOT
BRANCH   1   7
ATOM      7  C1' N4B d   1      -0.912   2.251  -2.266  0.00  0.00     0.057 C 
BRANCH   7   8
ATOM      8  C2' N4B d   1      -1.160   2.641  -3.720  0.00  0.00     0.009 C 
BRANCH   8   9
ATOM      9  C3' N4B d   1       0.033   2.325  -4.605  0.00  0.00     0.004 C 
ATOM     10  C4' N4B d   1       0.911   3.517  -4.844  0.00  0.00     0.003 C 
ENDBRANCH   8   9
ENDBRANCH   7   8
ENDBRANCH   1   7
TORSDOF 3
ENDMDL
