MODEL 1
REMARK minimizedAffinity 7.99399233
REMARK minimizedRMSD -1
REMARK  3 active torsions:
REMARK  status: ('A' for Active; 'I' for Inactive)
REMARK    1  A    between atoms: C3'_2  and  C2'_3 
REMARK    2  A    between atoms: C2'_3  and  C1'_4 
REMARK    3  A    between atoms: C1'_4  and  C1_5 
ROOT
ATOM      1  C1  N4B d   1       1.873   4.526  -5.587  0.00  0.00    -0.075 A 
ATOM      2  C2  N4B d   1       2.383   5.810  -5.879  0.00  0.00     0.002 A 
ATOM      3  C3  N4B d   1       3.738   5.999  -6.000  0.00  0.00     0.002 A 
ATOM      4  C4  N4B d   1       4.599   4.928  -5.815  0.00  0.00    -0.004 A 
ATOM      5  C5  N4B d   1       4.097   3.686  -5.559  0.00  0.00     0.002 A 
ATOM      6  C6  N4B d   1       2.737   3.481  -5.439  0.00  0.00     0.002 A 
ENDROOT
BRANCH   1   7
ATOM      7  C1' N4B d   1       0.405   4.288  -5.361  0.00  0.00     0.057 C 
BRANCH   7   8
ATOM      8  C2' N4B d   1       0.230   3.108  -4.409  0.00  0.00     0.009 C 
BRANCH   8   9
ATOM      9  C3' N4B d   1      -1.189   3.013  -3.876  0.00  0.00     0.004 C 
ATOM     10  C4' N4B d   1      -1.283   2.208  -2.615  0.00  0.00     0.003 C 
ENDBRANCH   8   9
ENDBRANCH   7   8
ENDBRANCH   1   7
TORSDOF 3
ENDMDL
