MODEL 1
REMARK minimizedAffinity -2.86381269
REMARK minimizedRMSD -1
REMARK  0 active torsions:
REMARK  status: ('A' for Active; 'I' for Inactive)
ROOT
ATOM      1  C   UNL d   1      -1.273   0.137   2.362  0.00  0.00     0.172 C 
ATOM      2  N   UNL d   1      -0.791  -0.067   1.016  0.00  0.00    -0.070 N 
ATOM      3  C1  UNL d   1      -1.046  -1.163   0.235  0.00  0.00    -0.004 A 
ATOM      4  C2  UNL d   1      -0.412  -0.976  -0.974  0.00  0.00    -0.047 A 
ATOM      5  C3  UNL d   1       0.247   0.274  -0.918  0.00  0.00    -0.047 A 
ATOM      6  C4  UNL d   1      -0.004   0.816   0.325  0.00  0.00    -0.004 A 
ENDROOT
TORSDOF 0
ENDMDL
