MODEL 1
REMARK minimizedAffinity -2.35089922
REMARK minimizedRMSD -1
REMARK  0 active torsions:
REMARK  status: ('A' for Active; 'I' for Inactive)
ROOT
ATOM      1  C   UNL d   1       0.251  -0.473  -0.735  0.00  0.00     0.172 C 
ATOM      2  N   UNL d   1      -0.390  -0.067   0.494  0.00  0.00    -0.070 N 
ATOM      3  C1  UNL d   1      -1.704   0.295   0.628  0.00  0.00    -0.004 A 
ATOM      4  C2  UNL d   1      -1.922   0.611   1.951  0.00  0.00    -0.047 A 
ATOM      5  C3  UNL d   1      -0.697   0.433   2.637  0.00  0.00    -0.047 A 
ATOM      6  C4  UNL d   1       0.235   0.013   1.711  0.00  0.00    -0.004 A 
ENDROOT
TORSDOF 0
ENDMDL
