MODEL 1
REMARK minimizedAffinity -2.8643055
REMARK minimizedRMSD -1
REMARK  0 active torsions:
REMARK  status: ('A' for Active; 'I' for Inactive)
ROOT
ATOM      1  C   UNL d   1       0.619  -0.719  -0.635  0.00  0.00     0.172 C 
ATOM      2  N   UNL d   1       0.599  -0.278  -2.010  0.00  0.00    -0.070 N 
ATOM      3  C1  UNL d   1       1.578   0.452  -2.629  0.00  0.00    -0.004 A 
ATOM      4  C2  UNL d   1       1.184   0.669  -3.931  0.00  0.00    -0.047 A 
ATOM      5  C3  UNL d   1      -0.076   0.048  -4.101  0.00  0.00    -0.047 A 
ATOM      6  C4  UNL d   1      -0.415  -0.530  -2.896  0.00  0.00    -0.004 A 
ENDROOT
TORSDOF 0
ENDMDL
