MODEL 1
REMARK minimizedAffinity -0.816596031
REMARK minimizedRMSD -1
REMARK  0 active torsions:
REMARK  status: ('A' for Active; 'I' for Inactive)
ROOT
ATOM      1  C   UNL d   1      -0.647   0.453   0.672  0.00  0.00     0.172 C 
ATOM      2  N   UNL d   1       0.018   0.058   1.892  0.00  0.00    -0.070 N 
ATOM      3  C1  UNL d   1      -0.560  -0.003   3.132  0.00  0.00    -0.004 A 
ATOM      4  C2  UNL d   1       0.401  -0.421   4.026  0.00  0.00    -0.047 A 
ATOM      5  C3  UNL d   1       1.599  -0.617   3.299  0.00  0.00    -0.047 A 
ATOM      6  C4  UNL d   1       1.333  -0.313   1.980  0.00  0.00    -0.004 A 
ENDROOT
TORSDOF 0
ENDMDL
