MODEL 1
REMARK minimizedAffinity -1.77441156
REMARK minimizedRMSD -1
REMARK  0 active torsions:
REMARK  status: ('A' for Active; 'I' for Inactive)
ROOT
ATOM      1  C   UNL d   1       0.427  -0.323  -0.251  0.00  0.00     0.172 C 
ATOM      2  N   UNL d   1       0.740  -0.162  -1.651  0.00  0.00    -0.070 N 
ATOM      3  C1  UNL d   1       1.915   0.329  -2.155  0.00  0.00    -0.004 A 
ATOM      4  C2  UNL d   1       1.821   0.323  -3.529  0.00  0.00    -0.047 A 
ATOM      5  C3  UNL d   1       0.544  -0.189  -3.864  0.00  0.00    -0.047 A 
ATOM      6  C4  UNL d   1      -0.104  -0.481  -2.682  0.00  0.00    -0.004 A 
ENDROOT
TORSDOF 0
ENDMDL
