MODEL 1
REMARK minimizedAffinity -1.75539815
REMARK minimizedRMSD -1
REMARK  0 active torsions:
REMARK  status: ('A' for Active; 'I' for Inactive)
ROOT
ATOM      1  C   UNL d   1      -1.557   0.716   2.458  0.00  0.00     0.172 C 
ATOM      2  N   UNL d   1      -0.841   0.341   1.261  0.00  0.00    -0.070 N 
ATOM      3  C1  UNL d   1       0.507   0.121   1.173  0.00  0.00    -0.004 A 
ATOM      4  C2  UNL d   1       0.796  -0.215  -0.132  0.00  0.00    -0.047 A 
ATOM      5  C3  UNL d   1      -0.421  -0.195  -0.854  0.00  0.00    -0.047 A 
ATOM      6  C4  UNL d   1      -1.418   0.152   0.033  0.00  0.00    -0.004 A 
ENDROOT
TORSDOF 0
ENDMDL
