MODEL 1
REMARK minimizedAffinity -3.18082833
REMARK minimizedRMSD -1
REMARK  0 active torsions:
REMARK  status: ('A' for Active; 'I' for Inactive)
ROOT
ATOM      1  C   UNL d   1       0.289   0.126  -1.361  0.00  0.00     0.172 C 
ATOM      2  N   UNL d   1      -0.498   0.384  -0.178  0.00  0.00    -0.070 N 
ATOM      3  C1  UNL d   1      -1.624   1.161  -0.122  0.00  0.00    -0.004 A 
ATOM      4  C2  UNL d   1      -2.077   1.155   1.179  0.00  0.00    -0.047 A 
ATOM      5  C3  UNL d   1      -1.192   0.347   1.932  0.00  0.00    -0.047 A 
ATOM      6  C4  UNL d   1      -0.223  -0.117   1.067  0.00  0.00    -0.004 A 
ENDROOT
TORSDOF 0
ENDMDL
