MODEL 1
REMARK minimizedAffinity -0.238274053
REMARK minimizedRMSD -1
REMARK  0 active torsions:
REMARK  status: ('A' for Active; 'I' for Inactive)
ROOT
ATOM      1  C   UNL d   1       4.414  -0.565   2.659  0.00  0.00     0.172 C 
ATOM      2  N   UNL d   1       4.746   0.596   3.451  0.00  0.00    -0.070 N 
ATOM      3  C1  UNL d   1       4.571   1.899   3.069  0.00  0.00    -0.004 A 
ATOM      4  C2  UNL d   1       5.008   2.703   4.100  0.00  0.00    -0.047 A 
ATOM      5  C3  UNL d   1       5.463   1.854   5.136  0.00  0.00    -0.047 A 
ATOM      6  C4  UNL d   1       5.290   0.554   4.708  0.00  0.00    -0.004 A 
ENDROOT
TORSDOF 0
ENDMDL
