MODEL 1
REMARK minimizedAffinity -1.06336367
REMARK minimizedRMSD -1
REMARK  1 active torsions:
REMARK  status: ('A' for Active; 'I' for Inactive)
REMARK    1  A    between atoms: C3_4  and  O_7 
ROOT
ATOM      1  C   UNL d   1      -0.174   0.183  -1.983  0.00  0.00    -0.033 A 
ATOM      2  C1  UNL d   1       0.399  -1.063  -1.719  0.00  0.00     0.039 A 
ATOM      3  C2  UNL d   1       0.788  -1.393  -0.419  0.00  0.00    -0.080 A 
ATOM      4  C3  UNL d   1       0.597  -0.470   0.606  0.00  0.00     0.150 A 
ATOM      5  C4  UNL d   1       0.023   0.771   0.351  0.00  0.00    -0.007 A 
ATOM      6  C5  UNL d   1      -0.363   1.099  -0.948  0.00  0.00     0.039 A 
ENDROOT
BRANCH   4   7
ATOM      7  O   UNL d   1       0.965  -0.746   1.890  0.00  0.00    -0.526 OA
ATOM      8  H5  UNL d   1       1.374  -1.627   1.911  0.00  0.00     0.418 HD
ENDBRANCH   4   7
TORSDOF 1
ENDMDL
