MODEL 1
REMARK minimizedAffinity -5.63724279
REMARK minimizedRMSD -1
REMARK  1 active torsions:
REMARK  status: ('A' for Active; 'I' for Inactive)
REMARK    1  A    between atoms: C3_4  and  O_7 
ROOT
ATOM      1  C   UNL d   1      -1.330   3.225   1.378  0.00  0.00    -0.033 A 
ATOM      2  C1  UNL d   1      -0.984   2.031   2.015  0.00  0.00     0.039 A 
ATOM      3  C2  UNL d   1      -0.657   0.904   1.259  0.00  0.00    -0.080 A 
ATOM      4  C3  UNL d   1      -0.680   0.983  -0.131  0.00  0.00     0.150 A 
ATOM      5  C4  UNL d   1      -1.020   2.170  -0.772  0.00  0.00    -0.007 A 
ATOM      6  C5  UNL d   1      -1.347   3.295  -0.015  0.00  0.00     0.039 A 
ENDROOT
BRANCH   4   7
ATOM      7  O   UNL d   1      -0.373  -0.092  -0.911  0.00  0.00    -0.526 OA
ATOM      8  H5  UNL d   1      -0.186  -0.849  -0.332  0.00  0.00     0.418 HD
ENDBRANCH   4   7
TORSDOF 1
ENDMDL
