MODEL 1
REMARK minimizedAffinity -2.92645288
REMARK minimizedRMSD -1
REMARK  1 active torsions:
REMARK  status: ('A' for Active; 'I' for Inactive)
REMARK    1  A    between atoms: C3_4  and  O_7 
ROOT
ATOM      1  C   UNL d   1      -0.755   1.237   2.136  0.00  0.00    -0.033 A 
ATOM      2  C1  UNL d   1      -1.481   1.307   0.945  0.00  0.00     0.039 A 
ATOM      3  C2  UNL d   1      -1.111   2.216  -0.048  0.00  0.00    -0.080 A 
ATOM      4  C3  UNL d   1      -0.013   3.047   0.161  0.00  0.00     0.150 A 
ATOM      5  C4  UNL d   1       0.717   2.979   1.342  0.00  0.00    -0.007 A 
ATOM      6  C5  UNL d   1       0.345   2.072   2.333  0.00  0.00     0.039 A 
ENDROOT
BRANCH   4   7
ATOM      7  O   UNL d   1       0.383   3.953  -0.778  0.00  0.00    -0.526 OA
ATOM      8  H5  UNL d   1      -0.232   3.907  -1.529  0.00  0.00     0.418 HD
ENDBRANCH   4   7
TORSDOF 1
ENDMDL
