MODEL 1
REMARK minimizedAffinity 4.12216377
REMARK minimizedRMSD -1
REMARK  1 active torsions:
REMARK  status: ('A' for Active; 'I' for Inactive)
REMARK    1  A    between atoms: C3_4  and  O_7 
ROOT
ATOM      1  C   UNL d   1       1.121  -0.389   2.523  0.00  0.00    -0.033 A 
ATOM      2  C1  UNL d   1       1.691  -1.093   1.460  0.00  0.00     0.039 A 
ATOM      3  C2  UNL d   1       1.415  -0.717   0.144  0.00  0.00    -0.080 A 
ATOM      4  C3  UNL d   1       0.570   0.363  -0.095  0.00  0.00     0.150 A 
ATOM      5  C4  UNL d   1       0.002   1.071   0.959  0.00  0.00    -0.007 A 
ATOM      6  C5  UNL d   1       0.278   0.694   2.273  0.00  0.00     0.039 A 
ENDROOT
BRANCH   4   7
ATOM      7  O   UNL d   1       0.268   0.764  -1.362  0.00  0.00    -0.526 OA
ATOM      8  H5  UNL d   1       0.708   0.165  -1.988  0.00  0.00     0.418 HD
ENDBRANCH   4   7
TORSDOF 1
ENDMDL
