MODEL 1
REMARK minimizedAffinity 1.54913032
REMARK minimizedRMSD -1
REMARK  1 active torsions:
REMARK  status: ('A' for Active; 'I' for Inactive)
REMARK    1  A    between atoms: C3_4  and  O_7 
ROOT
ATOM      1  C   UNL d   1       0.106   2.032   2.908  0.00  0.00    -0.033 A 
ATOM      2  C1  UNL d   1      -0.242   1.137   1.895  0.00  0.00     0.039 A 
ATOM      3  C2  UNL d   1      -0.127   1.516   0.556  0.00  0.00    -0.080 A 
ATOM      4  C3  UNL d   1       0.339   2.791   0.244  0.00  0.00     0.150 A 
ATOM      5  C4  UNL d   1       0.692   3.686   1.249  0.00  0.00    -0.007 A 
ATOM      6  C5  UNL d   1       0.575   3.306   2.585  0.00  0.00     0.039 A 
ENDROOT
BRANCH   4   7
ATOM      7  O   UNL d   1       0.465   3.207  -1.048  0.00  0.00    -0.526 OA
ATOM      8  H5  UNL d   1       0.157   2.494  -1.632  0.00  0.00     0.418 HD
ENDBRANCH   4   7
TORSDOF 1
ENDMDL
