MODEL 1
REMARK minimizedAffinity -2.81956887
REMARK minimizedRMSD -1
REMARK  1 active torsions:
REMARK  status: ('A' for Active; 'I' for Inactive)
REMARK    1  A    between atoms: C3_4  and  O_7 
ROOT
ATOM      1  C   UNL d   1      -1.157   0.790   1.912  0.00  0.00    -0.033 A 
ATOM      2  C1  UNL d   1      -0.836   1.710   0.911  0.00  0.00     0.039 A 
ATOM      3  C2  UNL d   1       0.072   1.365  -0.092  0.00  0.00    -0.080 A 
ATOM      4  C3  UNL d   1       0.649   0.098  -0.084  0.00  0.00     0.150 A 
ATOM      5  C4  UNL d   1       0.331  -0.825   0.907  0.00  0.00    -0.007 A 
ATOM      6  C5  UNL d   1      -0.575  -0.477   1.909  0.00  0.00     0.039 A 
ENDROOT
BRANCH   4   7
ATOM      7  O   UNL d   1       1.544  -0.283  -1.039  0.00  0.00    -0.526 OA
ATOM      8  H5  UNL d   1       1.689   0.466  -1.641  0.00  0.00     0.418 HD
ENDBRANCH   4   7
TORSDOF 1
ENDMDL
