MODEL 1
REMARK minimizedAffinity -2.65547085
REMARK minimizedRMSD -1
REMARK  1 active torsions:
REMARK  status: ('A' for Active; 'I' for Inactive)
REMARK    1  A    between atoms: C3_4  and  O_7 
ROOT
ATOM      1  C   UNL d   1       0.634  -0.775  -0.147  0.00  0.00    -0.033 A 
ATOM      2  C1  UNL d   1       0.313   0.438  -0.760  0.00  0.00     0.039 A 
ATOM      3  C2  UNL d   1      -0.499   1.362  -0.101  0.00  0.00    -0.080 A 
ATOM      4  C3  UNL d   1      -0.983   1.063   1.170  0.00  0.00     0.150 A 
ATOM      5  C4  UNL d   1      -0.664  -0.142   1.788  0.00  0.00    -0.007 A 
ATOM      6  C5  UNL d   1       0.146  -1.064   1.128  0.00  0.00     0.039 A 
ENDROOT
BRANCH   4   7
ATOM      7  O   UNL d   1      -1.783   1.932   1.851  0.00  0.00    -0.526 OA
ATOM      8  H5  UNL d   1      -1.942   2.708   1.289  0.00  0.00     0.418 HD
ENDBRANCH   4   7
TORSDOF 1
ENDMDL
