MODEL 1
REMARK minimizedAffinity -4.23646498
REMARK minimizedRMSD -1
REMARK  1 active torsions:
REMARK  status: ('A' for Active; 'I' for Inactive)
REMARK    1  A    between atoms: C3_4  and  O_7 
ROOT
ATOM      1  C   UNL d   1      -2.263   3.237   1.685  0.00  0.00    -0.033 A 
ATOM      2  C1  UNL d   1      -2.636   1.892   1.663  0.00  0.00     0.039 A 
ATOM      3  C2  UNL d   1      -1.893   0.972   0.921  0.00  0.00    -0.080 A 
ATOM      4  C3  UNL d   1      -0.780   1.409   0.208  0.00  0.00     0.150 A 
ATOM      5  C4  UNL d   1      -0.400   2.747   0.229  0.00  0.00    -0.007 A 
ATOM      6  C5  UNL d   1      -1.144   3.664   0.969  0.00  0.00     0.039 A 
ENDROOT
BRANCH   4   7
ATOM      7  O   UNL d   1      -0.027   0.549  -0.535  0.00  0.00    -0.526 OA
ATOM      8  H5  UNL d   1      -0.425  -0.336  -0.479  0.00  0.00     0.418 HD
ENDBRANCH   4   7
TORSDOF 1
ENDMDL
