MODEL 1
REMARK minimizedAffinity -3.64852333
REMARK minimizedRMSD -1
REMARK  1 active torsions:
REMARK  status: ('A' for Active; 'I' for Inactive)
REMARK    1  A    between atoms: C3_4  and  O_7 
ROOT
ATOM      1  C   UNL d   1       0.476  -3.059  -2.259  0.00  0.00    -0.033 A 
ATOM      2  C1  UNL d   1       1.527  -2.476  -1.548  0.00  0.00     0.039 A 
ATOM      3  C2  UNL d   1       1.309  -1.315  -0.804  0.00  0.00    -0.080 A 
ATOM      4  C3  UNL d   1       0.037  -0.749  -0.778  0.00  0.00     0.150 A 
ATOM      5  C4  UNL d   1      -1.015  -1.326  -1.481  0.00  0.00    -0.007 A 
ATOM      6  C5  UNL d   1      -0.795  -2.485  -2.224  0.00  0.00     0.039 A 
ENDROOT
BRANCH   4   7
ATOM      7  O   UNL d   1      -0.223   0.387  -0.069  0.00  0.00    -0.526 OA
ATOM      8  H5  UNL d   1       0.604   0.689   0.342  0.00  0.00     0.418 HD
ENDBRANCH   4   7
TORSDOF 1
ENDMDL
