MODEL 1
REMARK minimizedAffinity -3.86286736
REMARK minimizedRMSD -1
REMARK  1 active torsions:
REMARK  status: ('A' for Active; 'I' for Inactive)
REMARK    1  A    between atoms: C3_4  and  O_7 
ROOT
ATOM      1  C   UNL d   1      -0.818   2.059   1.208  0.00  0.00    -0.033 A 
ATOM      2  C1  UNL d   1      -0.928   0.759   1.705  0.00  0.00     0.039 A 
ATOM      3  C2  UNL d   1      -0.328  -0.304   1.026  0.00  0.00    -0.080 A 
ATOM      4  C3  UNL d   1       0.378  -0.053  -0.147  0.00  0.00     0.150 A 
ATOM      5  C4  UNL d   1       0.496   1.240  -0.646  0.00  0.00    -0.007 A 
ATOM      6  C5  UNL d   1      -0.105   2.299   0.033  0.00  0.00     0.039 A 
ENDROOT
BRANCH   4   7
ATOM      7  O   UNL d   1       0.977  -1.059  -0.846  0.00  0.00    -0.526 OA
ATOM      8  H5  UNL d   1       0.788  -1.900  -0.398  0.00  0.00     0.418 HD
ENDBRANCH   4   7
TORSDOF 1
ENDMDL
