MODEL 1
REMARK minimizedAffinity -1.43412828
REMARK minimizedRMSD -1
REMARK  1 active torsions:
REMARK  status: ('A' for Active; 'I' for Inactive)
REMARK    1  A    between atoms: C3_4  and  O_7 
ROOT
ATOM      1  C   UNL d   1       0.669  -0.334  -0.698  0.00  0.00    -0.033 A 
ATOM      2  C1  UNL d   1       0.415  -1.048   0.474  0.00  0.00     0.039 A 
ATOM      3  C2  UNL d   1      -0.316  -0.459   1.508  0.00  0.00    -0.080 A 
ATOM      4  C3  UNL d   1      -0.788   0.842   1.356  0.00  0.00     0.150 A 
ATOM      5  C4  UNL d   1      -0.542   1.558   0.189  0.00  0.00    -0.007 A 
ATOM      6  C5  UNL d   1       0.189   0.968  -0.842  0.00  0.00     0.039 A 
ENDROOT
BRANCH   4   7
ATOM      7  O   UNL d   1      -1.501   1.461   2.339  0.00  0.00    -0.526 OA
ATOM      8  H5  UNL d   1      -1.569   0.857   3.097  0.00  0.00     0.418 HD
ENDBRANCH   4   7
TORSDOF 1
ENDMDL
