MODEL 1
REMARK minimizedAffinity -2.99707508
REMARK minimizedRMSD -1
REMARK  1 active torsions:
REMARK  status: ('A' for Active; 'I' for Inactive)
REMARK    1  A    between atoms: C3_4  and  O_7 
ROOT
ATOM      1  C   UNL d   1       0.114   1.439  -1.528  0.00  0.00    -0.033 A 
ATOM      2  C1  UNL d   1       0.876   0.298  -1.269  0.00  0.00     0.039 A 
ATOM      3  C2  UNL d   1       0.652  -0.444  -0.108  0.00  0.00    -0.080 A 
ATOM      4  C3  UNL d   1      -0.337  -0.038   0.784  0.00  0.00     0.150 A 
ATOM      5  C4  UNL d   1      -1.103   1.095   0.530  0.00  0.00    -0.007 A 
ATOM      6  C5  UNL d   1      -0.877   1.836  -0.629  0.00  0.00     0.039 A 
ENDROOT
BRANCH   4   7
ATOM      7  O   UNL d   1      -0.588  -0.728   1.932  0.00  0.00    -0.526 OA
ATOM      8  H5  UNL d   1       0.037  -1.470   1.988  0.00  0.00     0.418 HD
ENDBRANCH   4   7
TORSDOF 1
ENDMDL
