MODEL 1
REMARK minimizedAffinity 0.561655581
REMARK minimizedRMSD -1
REMARK  1 active torsions:
REMARK  status: ('A' for Active; 'I' for Inactive)
REMARK    1  A    between atoms: C3_4  and  O_7 
ROOT
ATOM      1  C   UNL d   1      -1.496   1.296   2.462  0.00  0.00    -0.033 A 
ATOM      2  C1  UNL d   1      -1.257   2.193   1.419  0.00  0.00     0.039 A 
ATOM      3  C2  UNL d   1      -0.531   1.785   0.298  0.00  0.00    -0.080 A 
ATOM      4  C3  UNL d   1      -0.053   0.479   0.232  0.00  0.00     0.150 A 
ATOM      5  C4  UNL d   1      -0.291  -0.421   1.266  0.00  0.00    -0.007 A 
ATOM      6  C5  UNL d   1      -1.015  -0.011   2.385  0.00  0.00     0.039 A 
ENDROOT
BRANCH   4   7
ATOM      7  O   UNL d   1       0.664   0.036  -0.840  0.00  0.00    -0.526 OA
ATOM      8  H5  UNL d   1       0.775   0.774  -1.462  0.00  0.00     0.418 HD
ENDBRANCH   4   7
TORSDOF 1
ENDMDL
