MODEL 1
REMARK minimizedAffinity -5.09806108
REMARK minimizedRMSD -1
REMARK  1 active torsions:
REMARK  status: ('A' for Active; 'I' for Inactive)
REMARK    1  A    between atoms: C3_4  and  O_7 
ROOT
ATOM      1  C   UNL d   1       0.330  -0.310  -0.487  0.00  0.00    -0.033 A 
ATOM      2  C1  UNL d   1      -0.062  -0.685   0.799  0.00  0.00     0.039 A 
ATOM      3  C2  UNL d   1      -1.006   0.074   1.492  0.00  0.00    -0.080 A 
ATOM      4  C3  UNL d   1      -1.551   1.204   0.889  0.00  0.00     0.150 A 
ATOM      5  C4  UNL d   1      -1.168   1.582  -0.394  0.00  0.00    -0.007 A 
ATOM      6  C5  UNL d   1      -0.224   0.823  -1.084  0.00  0.00     0.039 A 
ENDROOT
BRANCH   4   7
ATOM      7  O   UNL d   1      -2.473   1.979   1.528  0.00  0.00    -0.526 OA
ATOM      8  H5  UNL d   1      -2.619   1.614   2.416  0.00  0.00     0.418 HD
ENDBRANCH   4   7
TORSDOF 1
ENDMDL
