MODEL 1
REMARK minimizedAffinity -4.51294661
REMARK minimizedRMSD -1
REMARK  1 active torsions:
REMARK  status: ('A' for Active; 'I' for Inactive)
REMARK    1  A    between atoms: C3_4  and  O_7 
ROOT
ATOM      1  C   UNL d   1       0.514  -2.206  -1.832  0.00  0.00    -0.033 A 
ATOM      2  C1  UNL d   1       1.170  -1.540  -0.795  0.00  0.00     0.039 A 
ATOM      3  C2  UNL d   1       1.285  -0.149  -0.819  0.00  0.00    -0.080 A 
ATOM      4  C3  UNL d   1       0.740   0.563  -1.885  0.00  0.00     0.150 A 
ATOM      5  C4  UNL d   1       0.082  -0.094  -2.919  0.00  0.00    -0.007 A 
ATOM      6  C5  UNL d   1      -0.031  -1.483  -2.893  0.00  0.00     0.039 A 
ENDROOT
BRANCH   4   7
ATOM      7  O   UNL d   1       0.832   1.922  -1.955  0.00  0.00    -0.526 OA
ATOM      8  H5  UNL d   1       1.337   2.236  -1.187  0.00  0.00     0.418 HD
ENDBRANCH   4   7
TORSDOF 1
ENDMDL
