MODEL 1
REMARK minimizedAffinity -2.84767985
REMARK minimizedRMSD -1
REMARK  1 active torsions:
REMARK  status: ('A' for Active; 'I' for Inactive)
REMARK    1  A    between atoms: C3_4  and  O_7 
ROOT
ATOM      1  C   UNL d   1      -0.976  -0.834   1.709  0.00  0.00    -0.033 A 
ATOM      2  C1  UNL d   1      -1.537   0.046   2.636  0.00  0.00     0.039 A 
ATOM      3  C2  UNL d   1      -1.432   1.425   2.444  0.00  0.00    -0.080 A 
ATOM      4  C3  UNL d   1      -0.765   1.910   1.322  0.00  0.00     0.150 A 
ATOM      5  C4  UNL d   1      -0.207   1.039   0.393  0.00  0.00    -0.007 A 
ATOM      6  C5  UNL d   1      -0.313  -0.338   0.586  0.00  0.00     0.039 A 
ENDROOT
BRANCH   4   7
ATOM      7  O   UNL d   1      -0.633   3.248   1.095  0.00  0.00    -0.526 OA
ATOM      8  H5  UNL d   1      -1.042   3.728   1.835  0.00  0.00     0.418 HD
ENDBRANCH   4   7
TORSDOF 1
ENDMDL
