MODEL 1
REMARK minimizedAffinity -4.76359844
REMARK minimizedRMSD -1
REMARK  1 active torsions:
REMARK  status: ('A' for Active; 'I' for Inactive)
REMARK    1  A    between atoms: C3_4  and  O_7 
ROOT
ATOM      1  C   UNL d   1       0.483  -0.439   0.377  0.00  0.00    -0.033 A 
ATOM      2  C1  UNL d   1      -0.341   0.010   1.411  0.00  0.00     0.039 A 
ATOM      3  C2  UNL d   1      -0.640   1.369   1.527  0.00  0.00    -0.080 A 
ATOM      4  C3  UNL d   1      -0.109   2.267   0.605  0.00  0.00     0.150 A 
ATOM      5  C4  UNL d   1       0.710   1.825  -0.429  0.00  0.00    -0.007 A 
ATOM      6  C5  UNL d   1       1.007   0.468  -0.544  0.00  0.00     0.039 A 
ENDROOT
BRANCH   4   7
ATOM      7  O   UNL d   1      -0.369   3.603   0.681  0.00  0.00    -0.526 OA
ATOM      8  H5  UNL d   1      -0.924   3.765   1.461  0.00  0.00     0.418 HD
ENDBRANCH   4   7
TORSDOF 1
ENDMDL
