MODEL 1
REMARK minimizedAffinity -3.76504302
REMARK minimizedRMSD -1
REMARK  1 active torsions:
REMARK  status: ('A' for Active; 'I' for Inactive)
REMARK    1  A    between atoms: C3_4  and  O_7 
ROOT
ATOM      1  C   UNL d   1       0.461  -1.996  -1.511  0.00  0.00    -0.033 A 
ATOM      2  C1  UNL d   1      -0.925  -1.893  -1.371  0.00  0.00     0.039 A 
ATOM      3  C2  UNL d   1      -1.470  -1.100  -0.359  0.00  0.00    -0.080 A 
ATOM      4  C3  UNL d   1      -0.619  -0.415   0.504  0.00  0.00     0.150 A 
ATOM      5  C4  UNL d   1       0.762  -0.509   0.368  0.00  0.00    -0.007 A 
ATOM      6  C5  UNL d   1       1.304  -1.302  -0.642  0.00  0.00     0.039 A 
ENDROOT
BRANCH   4   7
ATOM      7  O   UNL d   1      -1.105   0.367   1.510  0.00  0.00    -0.526 OA
ATOM      8  H5  UNL d   1      -2.075   0.314   1.500  0.00  0.00     0.418 HD
ENDBRANCH   4   7
TORSDOF 1
ENDMDL
