MODEL 1
REMARK minimizedAffinity -5.54394484
REMARK minimizedRMSD -1
REMARK  1 active torsions:
REMARK  status: ('A' for Active; 'I' for Inactive)
REMARK    1  A    between atoms: C3_4  and  O_7 
ROOT
ATOM      1  C   UNL d   1      -1.610   2.327   1.587  0.00  0.00    -0.033 A 
ATOM      2  C1  UNL d   1      -1.015   3.531   1.205  0.00  0.00     0.039 A 
ATOM      3  C2  UNL d   1      -0.107   3.558   0.145  0.00  0.00    -0.080 A 
ATOM      4  C3  UNL d   1       0.195   2.376  -0.526  0.00  0.00     0.150 A 
ATOM      5  C4  UNL d   1      -0.397   1.174  -0.153  0.00  0.00    -0.007 A 
ATOM      6  C5  UNL d   1      -1.302   1.149   0.907  0.00  0.00     0.039 A 
ENDROOT
BRANCH   4   7
ATOM      7  O   UNL d   1       1.078   2.351  -1.564  0.00  0.00    -0.526 OA
ATOM      8  H5  UNL d   1       1.429   3.248  -1.690  0.00  0.00     0.418 HD
ENDBRANCH   4   7
TORSDOF 1
ENDMDL
