MODEL 1
REMARK minimizedAffinity -4.88999271
REMARK minimizedRMSD -1
REMARK  1 active torsions:
REMARK  status: ('A' for Active; 'I' for Inactive)
REMARK    1  A    between atoms: C3_4  and  O_7 
ROOT
ATOM      1  C   UNL d   1       0.163   2.650  -0.920  0.00  0.00    -0.033 A 
ATOM      2  C1  UNL d   1      -0.452   3.466   0.031  0.00  0.00     0.039 A 
ATOM      3  C2  UNL d   1      -0.973   2.908   1.200  0.00  0.00    -0.080 A 
ATOM      4  C3  UNL d   1      -0.871   1.535   1.407  0.00  0.00     0.150 A 
ATOM      5  C4  UNL d   1      -0.256   0.717   0.465  0.00  0.00    -0.007 A 
ATOM      6  C5  UNL d   1       0.262   1.275  -0.702  0.00  0.00     0.039 A 
ENDROOT
BRANCH   4   7
ATOM      7  O   UNL d   1      -1.369   0.945   2.530  0.00  0.00    -0.526 OA
ATOM      8  H5  UNL d   1      -1.790   1.629   3.076  0.00  0.00     0.418 HD
ENDBRANCH   4   7
TORSDOF 1
ENDMDL
