MODEL 1
REMARK minimizedAffinity -3.92458153
REMARK minimizedRMSD -1
REMARK  1 active torsions:
REMARK  status: ('A' for Active; 'I' for Inactive)
REMARK    1  A    between atoms: C3_4  and  O_7 
ROOT
ATOM      1  C   UNL d   1      -0.797   1.874   1.444  0.00  0.00    -0.033 A 
ATOM      2  C1  UNL d   1      -1.029   0.539   1.781  0.00  0.00     0.039 A 
ATOM      3  C2  UNL d   1      -0.517  -0.484   0.982  0.00  0.00    -0.080 A 
ATOM      4  C3  UNL d   1       0.225  -0.160  -0.151  0.00  0.00     0.150 A 
ATOM      5  C4  UNL d   1       0.463   1.167  -0.491  0.00  0.00    -0.007 A 
ATOM      6  C5  UNL d   1      -0.050   2.188   0.308  0.00  0.00     0.039 A 
ENDROOT
BRANCH   4   7
ATOM      7  O   UNL d   1       0.741  -1.124  -0.964  0.00  0.00    -0.526 OA
ATOM      8  H5  UNL d   1       0.472  -1.993  -0.621  0.00  0.00     0.418 HD
ENDBRANCH   4   7
TORSDOF 1
ENDMDL
