MODEL 1
REMARK minimizedAffinity -2.88932824
REMARK minimizedRMSD -1
REMARK  1 active torsions:
REMARK  status: ('A' for Active; 'I' for Inactive)
REMARK    1  A    between atoms: C3_4  and  O_7 
ROOT
ATOM      1  C   UNL d   1       0.517  -3.692  -2.096  0.00  0.00    -0.033 A 
ATOM      2  C1  UNL d   1       1.310  -3.391  -0.987  0.00  0.00     0.039 A 
ATOM      3  C2  UNL d   1       1.303  -2.101  -0.452  0.00  0.00    -0.080 A 
ATOM      4  C3  UNL d   1       0.500  -1.124  -1.033  0.00  0.00     0.150 A 
ATOM      5  C4  UNL d   1      -0.296  -1.419  -2.136  0.00  0.00    -0.007 A 
ATOM      6  C5  UNL d   1      -0.287  -2.707  -2.669  0.00  0.00     0.039 A 
ENDROOT
BRANCH   4   7
ATOM      7  O   UNL d   1       0.464   0.150  -0.549  0.00  0.00    -0.526 OA
ATOM      8  H5  UNL d   1       1.085   0.214   0.195  0.00  0.00     0.418 HD
ENDBRANCH   4   7
TORSDOF 1
ENDMDL
