MODEL 1
REMARK minimizedAffinity -5.79270411
REMARK minimizedRMSD -1
REMARK  0 active torsions:
REMARK  status: ('A' for Active; 'I' for Inactive)
ROOT
ATOM      1  O1  BZF d   1       0.490  -0.035  -0.734  0.00  0.00    -0.204 OA
ATOM      2  C2  BZF d   1      -0.657   0.403  -0.100  0.00  0.00     0.174 A 
ATOM      3  C3  BZF d   1      -0.625   0.096   1.213  0.00  0.00    -0.012 A 
ATOM      4  C3A BZF d   1       0.660  -0.494   1.430  0.00  0.00    -0.107 A 
ATOM      5  C4  BZF d   1       1.290  -0.991   2.535  0.00  0.00     0.055 A 
ATOM      6  C5  BZF d   1       2.515  -1.564   2.396  0.00  0.00    -0.016 A 
ATOM      7  C6  BZF d   1       3.135  -1.661   1.168  0.00  0.00     0.022 A 
ATOM      8  C7  BZF d   1       2.552  -1.178   0.044  0.00  0.00     0.029 A 
ATOM      9  C7A BZF d   1       1.329  -0.570   0.186  0.00  0.00     0.058 A 
ENDROOT
TORSDOF 0
ENDMDL
