MODEL 1
REMARK minimizedAffinity -4.28093195
REMARK minimizedRMSD -1
REMARK  0 active torsions:
REMARK  status: ('A' for Active; 'I' for Inactive)
ROOT
ATOM      1  O1  BZF d   1       0.690  -0.758  -2.089  0.00  0.00    -0.204 OA
ATOM      2  C2  BZF d   1      -0.527  -0.118  -2.223  0.00  0.00     0.174 A 
ATOM      3  C3  BZF d   1      -0.939   0.379  -1.039  0.00  0.00    -0.012 A 
ATOM      4  C3A BZF d   1       0.128   0.108  -0.125  0.00  0.00    -0.107 A 
ATOM      5  C4  BZF d   1       0.319   0.373   1.201  0.00  0.00     0.055 A 
ATOM      6  C5  BZF d   1       1.440  -0.092   1.813  0.00  0.00    -0.016 A 
ATOM      7  C6  BZF d   1       2.387  -0.828   1.131  0.00  0.00     0.022 A 
ATOM      8  C7  BZF d   1       2.244  -1.112  -0.186  0.00  0.00     0.029 A 
ATOM      9  C7A BZF d   1       1.128  -0.616  -0.815  0.00  0.00     0.058 A 
ENDROOT
TORSDOF 0
ENDMDL
