MODEL 1
REMARK minimizedAffinity -1.85279453
REMARK minimizedRMSD -1
REMARK  0 active torsions:
REMARK  status: ('A' for Active; 'I' for Inactive)
ROOT
ATOM      1  O1  BZF d   1      -1.845   0.716  -1.216  0.00  0.00    -0.204 OA
ATOM      2  C2  BZF d   1      -1.061   1.324  -2.178  0.00  0.00     0.174 A 
ATOM      3  C3  BZF d   1       0.212   1.448  -1.749  0.00  0.00    -0.012 A 
ATOM      4  C3A BZF d   1       0.245   0.798  -0.475  0.00  0.00    -0.107 A 
ATOM      5  C4  BZF d   1       1.234   0.576   0.440  0.00  0.00     0.055 A 
ATOM      6  C5  BZF d   1       0.921  -0.024   1.618  0.00  0.00    -0.016 A 
ATOM      7  C6  BZF d   1      -0.369  -0.411   1.916  0.00  0.00     0.022 A 
ATOM      8  C7  BZF d   1      -1.383  -0.217   1.038  0.00  0.00     0.029 A 
ATOM      9  C7A BZF d   1      -1.064   0.360  -0.167  0.00  0.00     0.058 A 
ENDROOT
TORSDOF 0
ENDMDL
