MODEL 1
REMARK minimizedAffinity -3.7444725
REMARK minimizedRMSD -1
REMARK  0 active torsions:
REMARK  status: ('A' for Active; 'I' for Inactive)
ROOT
ATOM      1  O1  BZF d   1       0.035  -0.853   2.824  0.00  0.00    -0.204 OA
ATOM      2  C2  BZF d   1       1.406  -0.786   2.979  0.00  0.00     0.174 A 
ATOM      3  C3  BZF d   1       2.002  -0.448   1.817  0.00  0.00    -0.012 A 
ATOM      4  C3A BZF d   1       0.930  -0.204   0.901  0.00  0.00    -0.107 A 
ATOM      5  C4  BZF d   1       0.883   0.182  -0.408  0.00  0.00     0.055 A 
ATOM      6  C5  BZF d   1      -0.322   0.258  -1.031  0.00  0.00    -0.016 A 
ATOM      7  C6  BZF d   1      -1.498  -0.049  -0.379  0.00  0.00     0.022 A 
ATOM      8  C7  BZF d   1      -1.502  -0.432   0.922  0.00  0.00     0.029 A 
ATOM      9  C7A BZF d   1      -0.289  -0.478   1.564  0.00  0.00     0.058 A 
ENDROOT
TORSDOF 0
ENDMDL
