MODEL 1
REMARK minimizedAffinity -2.51553965
REMARK minimizedRMSD -1
REMARK  0 active torsions:
REMARK  status: ('A' for Active; 'I' for Inactive)
ROOT
ATOM      1  O1  BZF d   1       2.469  -0.173   0.053  0.00  0.00    -0.204 OA
ATOM      2  C2  BZF d   1       2.609  -0.174   1.428  0.00  0.00     0.174 A 
ATOM      3  C3  BZF d   1       1.403  -0.186   2.032  0.00  0.00    -0.012 A 
ATOM      4  C3A BZF d   1       0.451  -0.287   0.968  0.00  0.00    -0.107 A 
ATOM      5  C4  BZF d   1      -0.912  -0.358   0.933  0.00  0.00     0.055 A 
ATOM      6  C5  BZF d   1      -1.541  -0.375  -0.272  0.00  0.00    -0.016 A 
ATOM      7  C6  BZF d   1      -0.840  -0.316  -1.458  0.00  0.00     0.022 A 
ATOM      8  C7  BZF d   1       0.514  -0.249  -1.473  0.00  0.00     0.029 A 
ATOM      9  C7A BZF d   1       1.154  -0.266  -0.258  0.00  0.00     0.058 A 
ENDROOT
TORSDOF 0
ENDMDL
