MODEL 1
REMARK minimizedAffinity -2.98598838
REMARK minimizedRMSD -1
REMARK  0 active torsions:
REMARK  status: ('A' for Active; 'I' for Inactive)
ROOT
ATOM      1  O1  BZF d   1       0.495   1.621  -0.461  0.00  0.00    -0.204 OA
ATOM      2  C2  BZF d   1      -0.109   1.050  -1.565  0.00  0.00     0.174 A 
ATOM      3  C3  BZF d   1      -0.512  -0.208  -1.292  0.00  0.00    -0.012 A 
ATOM      4  C3A BZF d   1      -0.220  -0.405   0.095  0.00  0.00    -0.107 A 
ATOM      5  C4  BZF d   1      -0.405  -1.450   0.954  0.00  0.00     0.055 A 
ATOM      6  C5  BZF d   1       0.058  -1.347   2.228  0.00  0.00    -0.016 A 
ATOM      7  C6  BZF d   1       0.713  -0.218   2.674  0.00  0.00     0.022 A 
ATOM      8  C7  BZF d   1       0.915   0.846   1.859  0.00  0.00     0.029 A 
ATOM      9  C7A BZF d   1       0.420   0.759   0.581  0.00  0.00     0.058 A 
ENDROOT
TORSDOF 0
ENDMDL
