MODEL 1
REMARK minimizedAffinity -3.54117036
REMARK minimizedRMSD -1
REMARK  0 active torsions:
REMARK  status: ('A' for Active; 'I' for Inactive)
ROOT
ATOM      1  O1  BZF d   1       0.240   1.425  -0.492  0.00  0.00    -0.204 OA
ATOM      2  C2  BZF d   1      -0.425   0.692  -1.456  0.00  0.00     0.174 A 
ATOM      3  C3  BZF d   1      -0.577  -0.589  -1.063  0.00  0.00    -0.012 A 
ATOM      4  C3A BZF d   1      -0.050  -0.640   0.267  0.00  0.00    -0.107 A 
ATOM      5  C4  BZF d   1       0.068  -1.636   1.193  0.00  0.00     0.055 A 
ATOM      6  C5  BZF d   1       0.696  -1.375   2.368  0.00  0.00    -0.016 A 
ATOM      7  C6  BZF d   1       1.223  -0.131   2.649  0.00  0.00     0.022 A 
ATOM      8  C7  BZF d   1       1.127   0.891   1.764  0.00  0.00     0.029 A 
ATOM      9  C7A BZF d   1       0.463   0.638   0.588  0.00  0.00     0.058 A 
ENDROOT
TORSDOF 0
ENDMDL
