MODEL 1
REMARK minimizedAffinity -2.99755692
REMARK minimizedRMSD -1
REMARK  0 active torsions:
REMARK  status: ('A' for Active; 'I' for Inactive)
ROOT
ATOM      1  O1  BZF d   1      -1.401  -0.481   0.332  0.00  0.00    -0.204 OA
ATOM      2  C2  BZF d   1      -0.863  -0.024  -0.856  0.00  0.00     0.174 A 
ATOM      3  C3  BZF d   1       0.447   0.259  -0.710  0.00  0.00    -0.012 A 
ATOM      4  C3A BZF d   1       0.769  -0.127   0.629  0.00  0.00    -0.107 A 
ATOM      5  C4  BZF d   1       1.921  -0.105   1.362  0.00  0.00     0.055 A 
ATOM      6  C5  BZF d   1       1.882  -0.484   2.666  0.00  0.00    -0.016 A 
ATOM      7  C6  BZF d   1       0.709  -0.885   3.271  0.00  0.00     0.022 A 
ATOM      8  C7  BZF d   1      -0.459  -0.928   2.584  0.00  0.00     0.029 A 
ATOM      9  C7A BZF d   1      -0.416  -0.577   1.257  0.00  0.00     0.058 A 
ENDROOT
TORSDOF 0
ENDMDL
