MODEL 1
REMARK minimizedAffinity -3.54849458
REMARK minimizedRMSD -1
REMARK  0 active torsions:
REMARK  status: ('A' for Active; 'I' for Inactive)
ROOT
ATOM      1  O1  BZF d   1       1.932  -1.806  -0.732  0.00  0.00    -0.204 OA
ATOM      2  C2  BZF d   1       1.348  -1.553  -1.958  0.00  0.00     0.174 A 
ATOM      3  C3  BZF d   1       0.153  -0.948  -1.803  0.00  0.00    -0.012 A 
ATOM      4  C3A BZF d   1       0.020  -0.732  -0.395  0.00  0.00    -0.107 A 
ATOM      5  C4  BZF d   1      -0.946  -0.156   0.379  0.00  0.00     0.055 A 
ATOM      6  C5  BZF d   1      -0.805  -0.170   1.730  0.00  0.00    -0.016 A 
ATOM      7  C6  BZF d   1       0.286  -0.754   2.340  0.00  0.00     0.022 A 
ATOM      8  C7  BZF d   1       1.273  -1.332   1.614  0.00  0.00     0.029 A 
ATOM      9  C7A BZF d   1       1.149  -1.291   0.247  0.00  0.00     0.058 A 
ENDROOT
TORSDOF 0
ENDMDL
