MODEL 1
REMARK minimizedAffinity -4.73507118
REMARK minimizedRMSD -1
REMARK  0 active torsions:
REMARK  status: ('A' for Active; 'I' for Inactive)
ROOT
ATOM      1  O1  BZF d   1       1.172  -1.141  -1.775  0.00  0.00    -0.204 OA
ATOM      2  C2  BZF d   1       0.083  -0.562  -2.396  0.00  0.00     0.174 A 
ATOM      3  C3  BZF d   1      -0.666   0.123  -1.508  0.00  0.00    -0.012 A 
ATOM      4  C3A BZF d   1       0.047   0.038  -0.270  0.00  0.00    -0.107 A 
ATOM      5  C4  BZF d   1      -0.184   0.532   0.982  0.00  0.00     0.055 A 
ATOM      6  C5  BZF d   1       0.669   0.206   1.988  0.00  0.00    -0.016 A 
ATOM      7  C6  BZF d   1       1.758  -0.615   1.779  0.00  0.00     0.022 A 
ATOM      8  C7  BZF d   1       2.030  -1.125   0.554  0.00  0.00     0.029 A 
ATOM      9  C7A BZF d   1       1.189  -0.771  -0.472  0.00  0.00     0.058 A 
ENDROOT
TORSDOF 0
ENDMDL
