MODEL 1
REMARK minimizedAffinity -2.09750724
REMARK minimizedRMSD -1
REMARK  1 active torsions:
REMARK  status: ('A' for Active; 'I' for Inactive)
REMARK    1  A    between atoms: C3_4  and  O_7 
ROOT
ATOM      1  C   UNL d   1      -0.825   1.225  -0.014  0.00  0.00    -0.033 A 
ATOM      2  C1  UNL d   1      -1.744   2.218  -0.361  0.00  0.00     0.039 A 
ATOM      3  C2  UNL d   1      -2.315   2.227  -1.635  0.00  0.00    -0.080 A 
ATOM      4  C3  UNL d   1      -1.961   1.240  -2.550  0.00  0.00     0.150 A 
ATOM      5  C4  UNL d   1      -1.049   0.246  -2.209  0.00  0.00    -0.007 A 
ATOM      6  C5  UNL d   1      -0.479   0.239  -0.937  0.00  0.00     0.039 A 
ENDROOT
BRANCH   4   7
ATOM      7  O   UNL d   1      -2.488   1.211  -3.807  0.00  0.00    -0.526 OA
ATOM      8  H5  UNL d   1      -3.080   1.975  -3.910  0.00  0.00     0.418 HD
ENDBRANCH   4   7
TORSDOF 1
ENDMDL
