MODEL 1
REMARK minimizedAffinity -1.18363178
REMARK minimizedRMSD -1
REMARK  1 active torsions:
REMARK  status: ('A' for Active; 'I' for Inactive)
REMARK    1  A    between atoms: C3_4  and  O_7 
ROOT
ATOM      1  C   UNL d   1       1.814  -0.430  -0.996  0.00  0.00    -0.033 A 
ATOM      2  C1  UNL d   1       2.186   0.771  -0.389  0.00  0.00     0.039 A 
ATOM      3  C2  UNL d   1       1.210   1.635   0.111  0.00  0.00    -0.080 A 
ATOM      4  C3  UNL d   1      -0.133   1.287  -0.002  0.00  0.00     0.150 A 
ATOM      5  C4  UNL d   1      -0.511   0.091  -0.602  0.00  0.00    -0.007 A 
ATOM      6  C5  UNL d   1       0.465  -0.771  -1.101  0.00  0.00     0.039 A 
ENDROOT
BRANCH   4   7
ATOM      7  O   UNL d   1      -1.122   2.100   0.466  0.00  0.00    -0.526 OA
ATOM      8  H5  UNL d   1      -0.713   2.904   0.829  0.00  0.00     0.418 HD
ENDBRANCH   4   7
TORSDOF 1
ENDMDL
