MODEL 1
REMARK minimizedAffinity -4.41271019
REMARK minimizedRMSD -1
REMARK  1 active torsions:
REMARK  status: ('A' for Active; 'I' for Inactive)
REMARK    1  A    between atoms: C3_4  and  O_7 
ROOT
ATOM      1  C   UNL d   1       1.840  -2.085   0.453  0.00  0.00    -0.033 A 
ATOM      2  C1  UNL d   1       2.356  -1.097  -0.389  0.00  0.00     0.039 A 
ATOM      3  C2  UNL d   1       1.616   0.059  -0.644  0.00  0.00    -0.080 A 
ATOM      4  C3  UNL d   1       0.366   0.216  -0.053  0.00  0.00     0.150 A 
ATOM      5  C4  UNL d   1      -0.152  -0.763   0.789  0.00  0.00    -0.007 A 
ATOM      6  C5  UNL d   1       0.587  -1.918   1.043  0.00  0.00     0.039 A 
ENDROOT
BRANCH   4   7
ATOM      7  O   UNL d   1      -0.395   1.325  -0.277  0.00  0.00    -0.526 OA
ATOM      8  H5  UNL d   1       0.078   1.901  -0.901  0.00  0.00     0.418 HD
ENDBRANCH   4   7
TORSDOF 1
ENDMDL
