MODEL 1
REMARK minimizedAffinity -5.12545061
REMARK minimizedRMSD -1
REMARK  1 active torsions:
REMARK  status: ('A' for Active; 'I' for Inactive)
REMARK    1  A    between atoms: C3_4  and  O_7 
ROOT
ATOM      1  C   UNL d   1      -0.387  -1.840   1.604  0.00  0.00    -0.033 A 
ATOM      2  C1  UNL d   1      -1.062  -0.710   2.070  0.00  0.00     0.039 A 
ATOM      3  C2  UNL d   1      -1.070   0.463   1.312  0.00  0.00    -0.080 A 
ATOM      4  C3  UNL d   1      -0.402   0.492   0.091  0.00  0.00     0.150 A 
ATOM      5  C4  UNL d   1       0.270  -0.631  -0.381  0.00  0.00    -0.007 A 
ATOM      6  C5  UNL d   1       0.278  -1.801   0.378  0.00  0.00     0.039 A 
ENDROOT
BRANCH   4   7
ATOM      7  O   UNL d   1      -0.378   1.614  -0.682  0.00  0.00    -0.526 OA
ATOM      8  H5  UNL d   1      -0.859   2.319  -0.216  0.00  0.00     0.418 HD
ENDBRANCH   4   7
TORSDOF 1
ENDMDL
