MODEL 1
REMARK minimizedAffinity -4.4566617
REMARK minimizedRMSD -1
REMARK  1 active torsions:
REMARK  status: ('A' for Active; 'I' for Inactive)
REMARK    1  A    between atoms: C3_4  and  O_7 
ROOT
ATOM      1  C   UNL d   1       1.487  -2.032   1.420  0.00  0.00    -0.033 A 
ATOM      2  C1  UNL d   1       0.092  -1.963   1.396  0.00  0.00     0.039 A 
ATOM      3  C2  UNL d   1      -0.547  -0.984   0.632  0.00  0.00    -0.080 A 
ATOM      4  C3  UNL d   1       0.219  -0.083  -0.103  0.00  0.00     0.150 A 
ATOM      5  C4  UNL d   1       1.608  -0.149  -0.087  0.00  0.00    -0.007 A 
ATOM      6  C5  UNL d   1       2.244  -1.126   0.678  0.00  0.00     0.039 A 
ENDROOT
BRANCH   4   7
ATOM      7  O   UNL d   1      -0.360   0.892  -0.859  0.00  0.00    -0.526 OA
ATOM      8  H5  UNL d   1      -1.324   0.834  -0.751  0.00  0.00     0.418 HD
ENDBRANCH   4   7
TORSDOF 1
ENDMDL
