MODEL 1
REMARK minimizedAffinity -4.95124006
REMARK minimizedRMSD -1
REMARK  1 active torsions:
REMARK  status: ('A' for Active; 'I' for Inactive)
REMARK    1  A    between atoms: C3_4  and  O_7 
ROOT
ATOM      1  C   UNL d   1       1.234  -1.777   1.051  0.00  0.00    -0.033 A 
ATOM      2  C1  UNL d   1       2.060  -1.101   0.151  0.00  0.00     0.039 A 
ATOM      3  C2  UNL d   1       1.581   0.015  -0.537  0.00  0.00    -0.080 A 
ATOM      4  C3  UNL d   1       0.276   0.446  -0.315  0.00  0.00     0.150 A 
ATOM      5  C4  UNL d   1      -0.552  -0.220   0.583  0.00  0.00    -0.007 A 
ATOM      6  C5  UNL d   1      -0.072  -1.335   1.268  0.00  0.00     0.039 A 
ENDROOT
BRANCH   4   7
ATOM      7  O   UNL d   1      -0.238   1.528  -0.966  0.00  0.00    -0.526 OA
ATOM      8  H5  UNL d   1       0.438   1.869  -1.576  0.00  0.00     0.418 HD
ENDBRANCH   4   7
TORSDOF 1
ENDMDL
