MODEL 1
REMARK minimizedAffinity -2.51324415
REMARK minimizedRMSD -1
REMARK  1 active torsions:
REMARK  status: ('A' for Active; 'I' for Inactive)
REMARK    1  A    between atoms: C3_4  and  O_7 
ROOT
ATOM      1  C   UNL d   1      -0.234   0.102   0.329  0.00  0.00    -0.033 A 
ATOM      2  C1  UNL d   1       1.145   0.307   0.258  0.00  0.00     0.039 A 
ATOM      3  C2  UNL d   1       2.025  -0.704   0.649  0.00  0.00    -0.080 A 
ATOM      4  C3  UNL d   1       1.513  -1.914   1.109  0.00  0.00     0.150 A 
ATOM      5  C4  UNL d   1       0.141  -2.127   1.178  0.00  0.00    -0.007 A 
ATOM      6  C5  UNL d   1      -0.736  -1.116   0.787  0.00  0.00     0.039 A 
ENDROOT
BRANCH   4   7
ATOM      7  O   UNL d   1       2.332  -2.929   1.506  0.00  0.00    -0.526 OA
ATOM      8  H5  UNL d   1       3.253  -2.629   1.431  0.00  0.00     0.418 HD
ENDBRANCH   4   7
TORSDOF 1
ENDMDL
