MODEL 1
REMARK minimizedAffinity -3.89835525
REMARK minimizedRMSD -1
REMARK  1 active torsions:
REMARK  status: ('A' for Active; 'I' for Inactive)
REMARK    1  A    between atoms: C3_4  and  O_7 
ROOT
ATOM      1  C   UNL d   1      -0.670  -0.221   0.460  0.00  0.00    -0.033 A 
ATOM      2  C1  UNL d   1      -0.833   1.102   0.045  0.00  0.00     0.039 A 
ATOM      3  C2  UNL d   1       0.268   1.839  -0.395  0.00  0.00    -0.080 A 
ATOM      4  C3  UNL d   1       1.525   1.241  -0.416  0.00  0.00     0.150 A 
ATOM      5  C4  UNL d   1       1.695  -0.078  -0.008  0.00  0.00    -0.007 A 
ATOM      6  C5  UNL d   1       0.594  -0.811   0.432  0.00  0.00     0.039 A 
ENDROOT
BRANCH   4   7
ATOM      7  O   UNL d   1       2.631   1.922  -0.833  0.00  0.00    -0.526 OA
ATOM      8  H5  UNL d   1       2.367   2.830  -1.057  0.00  0.00     0.418 HD
ENDBRANCH   4   7
TORSDOF 1
ENDMDL
