MODEL 1
REMARK minimizedAffinity -2.72288561
REMARK minimizedRMSD -1
REMARK  1 active torsions:
REMARK  status: ('A' for Active; 'I' for Inactive)
REMARK    1  A    between atoms: C3_4  and  O_7 
ROOT
ATOM      1  C   UNL d   1       0.235   0.521  -0.098  0.00  0.00    -0.033 A 
ATOM      2  C1  UNL d   1      -0.647  -0.421   0.435  0.00  0.00     0.039 A 
ATOM      3  C2  UNL d   1      -0.183  -1.686   0.802  0.00  0.00    -0.080 A 
ATOM      4  C3  UNL d   1       1.164  -1.995   0.632  0.00  0.00     0.150 A 
ATOM      5  C4  UNL d   1       2.049  -1.060   0.104  0.00  0.00    -0.007 A 
ATOM      6  C5  UNL d   1       1.583   0.202  -0.262  0.00  0.00     0.039 A 
ENDROOT
BRANCH   4   7
ATOM      7  O   UNL d   1       1.663  -3.217   0.971  0.00  0.00    -0.526 OA
ATOM      8  H5  UNL d   1       0.931  -3.769   1.294  0.00  0.00     0.418 HD
ENDBRANCH   4   7
TORSDOF 1
ENDMDL
