MODEL 1
REMARK minimizedAffinity -3.71940422
REMARK minimizedRMSD -1
REMARK  1 active torsions:
REMARK  status: ('A' for Active; 'I' for Inactive)
REMARK    1  A    between atoms: C3_4  and  O_7 
ROOT
ATOM      1  C   UNL d   1      -0.460   1.021   0.021  0.00  0.00    -0.033 A 
ATOM      2  C1  UNL d   1       0.790   0.462  -0.253  0.00  0.00     0.039 A 
ATOM      3  C2  UNL d   1       1.082  -0.837   0.165  0.00  0.00    -0.080 A 
ATOM      4  C3  UNL d   1       0.116  -1.567   0.854  0.00  0.00     0.150 A 
ATOM      5  C4  UNL d   1      -1.132  -1.018   1.126  0.00  0.00    -0.007 A 
ATOM      6  C5  UNL d   1      -1.422   0.281   0.709  0.00  0.00     0.039 A 
ENDROOT
BRANCH   4   7
ATOM      7  O   UNL d   1       0.357  -2.837   1.286  0.00  0.00    -0.526 OA
ATOM      8  H5  UNL d   1       1.270  -3.074   1.052  0.00  0.00     0.418 HD
ENDBRANCH   4   7
TORSDOF 1
ENDMDL
