MODEL 1
REMARK minimizedAffinity -3.46126938
REMARK minimizedRMSD -1
REMARK  1 active torsions:
REMARK  status: ('A' for Active; 'I' for Inactive)
REMARK    1  A    between atoms: C3_4  and  O_7 
ROOT
ATOM      1  C   UNL d   1      -1.569   0.621   0.637  0.00  0.00    -0.033 A 
ATOM      2  C1  UNL d   1      -0.502   0.517  -0.258  0.00  0.00     0.039 A 
ATOM      3  C2  UNL d   1       0.386  -0.556  -0.167  0.00  0.00    -0.080 A 
ATOM      4  C3  UNL d   1       0.197  -1.518   0.822  0.00  0.00     0.150 A 
ATOM      5  C4  UNL d   1      -0.866  -1.422   1.714  0.00  0.00    -0.007 A 
ATOM      6  C5  UNL d   1      -1.751  -0.349   1.622  0.00  0.00     0.039 A 
ENDROOT
BRANCH   4   7
ATOM      7  O   UNL d   1       1.040  -2.580   0.953  0.00  0.00    -0.526 OA
ATOM      8  H5  UNL d   1       1.743  -2.499   0.287  0.00  0.00     0.418 HD
ENDBRANCH   4   7
TORSDOF 1
ENDMDL
