MODEL 1
REMARK minimizedAffinity -3.4279592
REMARK minimizedRMSD -1
REMARK  1 active torsions:
REMARK  status: ('A' for Active; 'I' for Inactive)
REMARK    1  A    between atoms: C3_4  and  O_7 
ROOT
ATOM      1  C   UNL d   1       1.314  -2.502   0.884  0.00  0.00    -0.033 A 
ATOM      2  C1  UNL d   1      -0.014  -2.731   0.520  0.00  0.00     0.039 A 
ATOM      3  C2  UNL d   1      -0.760  -1.716  -0.082  0.00  0.00    -0.080 A 
ATOM      4  C3  UNL d   1      -0.167  -0.479  -0.316  0.00  0.00     0.150 A 
ATOM      5  C4  UNL d   1       1.158  -0.245   0.040  0.00  0.00    -0.007 A 
ATOM      6  C5  UNL d   1       1.901  -1.260   0.642  0.00  0.00     0.039 A 
ENDROOT
BRANCH   4   7
ATOM      7  O   UNL d   1      -0.856   0.544  -0.896  0.00  0.00    -0.526 OA
ATOM      8  H5  UNL d   1      -1.766   0.246  -1.061  0.00  0.00     0.418 HD
ENDBRANCH   4   7
TORSDOF 1
ENDMDL
