MODEL 1
REMARK minimizedAffinity -2.42336154
REMARK minimizedRMSD -1
REMARK  1 active torsions:
REMARK  status: ('A' for Active; 'I' for Inactive)
REMARK    1  A    between atoms: C3_4  and  O_7 
ROOT
ATOM      1  C   UNL d   1      -0.447   1.390   0.192  0.00  0.00    -0.033 A 
ATOM      2  C1  UNL d   1       0.641   0.649  -0.273  0.00  0.00     0.039 A 
ATOM      3  C2  UNL d   1       0.791  -0.687   0.105  0.00  0.00    -0.080 A 
ATOM      4  C3  UNL d   1      -0.154  -1.270   0.945  0.00  0.00     0.150 A 
ATOM      5  C4  UNL d   1      -1.243  -0.539   1.409  0.00  0.00    -0.007 A 
ATOM      6  C5  UNL d   1      -1.390   0.795   1.032  0.00  0.00     0.039 A 
ENDROOT
BRANCH   4   7
ATOM      7  O   UNL d   1      -0.048  -2.569   1.345  0.00  0.00    -0.526 OA
ATOM      8  H5  UNL d   1       0.768  -2.940   0.970  0.00  0.00     0.418 HD
ENDBRANCH   4   7
TORSDOF 1
ENDMDL
