MODEL 1
REMARK minimizedAffinity -4.85072327
REMARK minimizedRMSD -1
REMARK  1 active torsions:
REMARK  status: ('A' for Active; 'I' for Inactive)
REMARK    1  A    between atoms: C3_4  and  O_7 
ROOT
ATOM      1  C   UNL d   1       0.354   0.487  -0.260  0.00  0.00    -0.033 A 
ATOM      2  C1  UNL d   1       1.674   0.123  -0.534  0.00  0.00     0.039 A 
ATOM      3  C2  UNL d   1       2.153  -1.126  -0.135  0.00  0.00    -0.080 A 
ATOM      4  C3  UNL d   1       1.303  -2.002   0.535  0.00  0.00     0.150 A 
ATOM      5  C4  UNL d   1      -0.014  -1.647   0.808  0.00  0.00    -0.007 A 
ATOM      6  C5  UNL d   1      -0.491  -0.399   0.410  0.00  0.00     0.039 A 
ENDROOT
BRANCH   4   7
ATOM      7  O   UNL d   1       1.727  -3.230   0.948  0.00  0.00    -0.526 OA
ATOM      8  H5  UNL d   1       2.665  -3.325   0.716  0.00  0.00     0.418 HD
ENDBRANCH   4   7
TORSDOF 1
ENDMDL
