MODEL 1
REMARK minimizedAffinity 15.3308878
REMARK minimizedRMSD -1
REMARK  0 active torsions:
REMARK  status: ('A' for Active; 'I' for Inactive)
ROOT
ATOM      1  C4' PXY d   1       1.641   3.763  -0.388  0.00  0.00     0.077 C 
ATOM      2  C1' PXY d   1      -1.525  -0.729   1.405  0.00  0.00     0.077 C 
ATOM      3  C1  PXY d   1      -0.689   0.442   0.926  0.00  0.00    -0.082 A 
ATOM      4  C2  PXY d   1      -0.504   1.482   1.722  0.00  0.00     0.003 A 
ATOM      5  C3  PXY d   1       0.223   2.563   1.293  0.00  0.00     0.003 A 
ATOM      6  C4  PXY d   1       0.811   2.555   0.057  0.00  0.00    -0.082 A 
ATOM      7  C5  PXY d   1       0.636   1.493  -0.757  0.00  0.00     0.003 A 
ATOM      8  C6  PXY d   1      -0.140   0.424  -0.319  0.00  0.00     0.003 A 
ENDROOT
TORSDOF 0
ENDMDL
