MODEL 1
REMARK minimizedAffinity 0.589097917
REMARK minimizedRMSD -1
REMARK  0 active torsions:
REMARK  status: ('A' for Active; 'I' for Inactive)
ROOT
ATOM      1  C4' PXY d   1      -1.235   0.149  -0.465  0.00  0.00     0.077 C 
ATOM      2  C1' PXY d   1       2.847   4.161   0.350  0.00  0.00     0.077 C 
ATOM      3  C1  PXY d   1       1.779   3.104   0.148  0.00  0.00    -0.082 A 
ATOM      4  C2  PXY d   1       1.428   2.754  -1.079  0.00  0.00     0.003 A 
ATOM      5  C3  PXY d   1       0.442   1.823  -1.280  0.00  0.00     0.003 A 
ATOM      6  C4  PXY d   1      -0.155   1.205  -0.214  0.00  0.00    -0.082 A 
ATOM      7  C5  PXY d   1       0.205   1.548   1.041  0.00  0.00     0.003 A 
ATOM      8  C6  PXY d   1       1.179   2.525   1.224  0.00  0.00     0.003 A 
ENDROOT
TORSDOF 0
ENDMDL
