MODEL 1
REMARK minimizedAffinity 0.938088834
REMARK minimizedRMSD -1
REMARK  0 active torsions:
REMARK  status: ('A' for Active; 'I' for Inactive)
ROOT
ATOM      1  C4' PXY d   1       2.472   1.685  -3.561  0.00  0.00     0.077 C 
ATOM      2  C1' PXY d   1      -0.807   0.661   1.087  0.00  0.00     0.077 C 
ATOM      3  C1  PXY d   1       0.047   0.941  -0.133  0.00  0.00    -0.082 A 
ATOM      4  C2  PXY d   1       0.547  -0.068  -0.827  0.00  0.00     0.003 A 
ATOM      5  C3  PXY d   1       1.348   0.167  -1.915  0.00  0.00     0.003 A 
ATOM      6  C4  PXY d   1       1.596   1.449  -2.328  0.00  0.00    -0.082 A 
ATOM      7  C5  PXY d   1       1.080   2.484  -1.631  0.00  0.00     0.003 A 
ATOM      8  C6  PXY d   1       0.304   2.224  -0.506  0.00  0.00     0.003 A 
ENDROOT
TORSDOF 0
ENDMDL
