MODEL 1
REMARK minimizedAffinity -1.10417616
REMARK minimizedRMSD -1
REMARK  0 active torsions:
REMARK  status: ('A' for Active; 'I' for Inactive)
ROOT
ATOM      1  C4' PXY d   1       1.092   2.260  -5.972  0.00  0.00     0.077 C 
ATOM      2  C1' PXY d   1      -3.316   6.000  -6.000  0.00  0.00     0.077 C 
ATOM      3  C1  PXY d   1      -2.168   5.010  -5.987  0.00  0.00    -0.082 A 
ATOM      4  C2  PXY d   1      -0.922   5.454  -5.974  0.00  0.00     0.003 A 
ATOM      5  C3  PXY d   1       0.129   4.573  -5.995  0.00  0.00     0.003 A 
ATOM      6  C4  PXY d   1      -0.099   3.223  -5.976  0.00  0.00    -0.082 A 
ATOM      7  C5  PXY d   1      -1.367   2.762  -5.979  0.00  0.00     0.003 A 
ATOM      8  C6  PXY d   1      -2.420   3.673  -5.999  0.00  0.00     0.003 A 
ENDROOT
TORSDOF 0
ENDMDL
