MODEL 1
REMARK minimizedAffinity -3.23690009
REMARK minimizedRMSD -1
REMARK  0 active torsions:
REMARK  status: ('A' for Active; 'I' for Inactive)
ROOT
ATOM      1  C4' PXY d   1       1.727   3.434  -5.994  0.00  0.00     0.077 C 
ATOM      2  C1' PXY d   1      -3.766   5.233  -5.960  0.00  0.00     0.077 C 
ATOM      3  C1  PXY d   1      -2.322   4.773  -5.974  0.00  0.00    -0.082 A 
ATOM      4  C2  PXY d   1      -2.048   3.479  -5.999  0.00  0.00     0.003 A 
ATOM      5  C3  PXY d   1      -0.748   3.044  -5.980  0.00  0.00     0.003 A 
ATOM      6  C4  PXY d   1       0.284   3.945  -5.989  0.00  0.00    -0.082 A 
ATOM      7  C5  PXY d   1       0.013   5.267  -5.974  0.00  0.00     0.003 A 
ATOM      8  C6  PXY d   1      -1.314   5.687  -5.952  0.00  0.00     0.003 A 
ENDROOT
TORSDOF 0
ENDMDL
