MODEL 1
REMARK minimizedAffinity 1.56731606
REMARK minimizedRMSD -1
REMARK  0 active torsions:
REMARK  status: ('A' for Active; 'I' for Inactive)
ROOT
ATOM      1  C4' PXY d   1      -3.675   5.996  -5.878  0.00  0.00     0.077 C 
ATOM      2  C1' PXY d   1       1.041   2.655  -5.997  0.00  0.00     0.077 C 
ATOM      3  C1  PXY d   1      -0.189   3.541  -5.960  0.00  0.00    -0.082 A 
ATOM      4  C2  PXY d   1      -1.392   2.990  -5.941  0.00  0.00     0.003 A 
ATOM      5  C3  PXY d   1      -2.515   3.776  -5.940  0.00  0.00     0.003 A 
ATOM      6  C4  PXY d   1      -2.406   5.140  -5.905  0.00  0.00    -0.082 A 
ATOM      7  C5  PXY d   1      -1.182   5.710  -5.915  0.00  0.00     0.003 A 
ATOM      8  C6  PXY d   1      -0.055   4.895  -5.957  0.00  0.00     0.003 A 
ENDROOT
TORSDOF 0
ENDMDL
