MODEL 1
REMARK minimizedAffinity -1.90072501
REMARK minimizedRMSD -1
REMARK  0 active torsions:
REMARK  status: ('A' for Active; 'I' for Inactive)
ROOT
ATOM      1  C4' PXY d   1      -2.921   5.997  -5.987  0.00  0.00     0.077 C 
ATOM      2  C1' PXY d   1       1.511   2.286  -5.991  0.00  0.00     0.077 C 
ATOM      3  C1  PXY d   1       0.357   3.268  -5.984  0.00  0.00    -0.082 A 
ATOM      4  C2  PXY d   1      -0.887   2.816  -5.973  0.00  0.00     0.003 A 
ATOM      5  C3  PXY d   1      -1.943   3.690  -5.999  0.00  0.00     0.003 A 
ATOM      6  C4  PXY d   1      -1.724   5.042  -5.984  0.00  0.00    -0.082 A 
ATOM      7  C5  PXY d   1      -0.458   5.511  -5.985  0.00  0.00     0.003 A 
ATOM      8  C6  PXY d   1       0.600   4.607  -6.000  0.00  0.00     0.003 A 
ENDROOT
TORSDOF 0
ENDMDL
