MODEL 1
REMARK minimizedAffinity 0.721336722
REMARK minimizedRMSD -1
REMARK  0 active torsions:
REMARK  status: ('A' for Active; 'I' for Inactive)
ROOT
ATOM      1  C4' PXY d   1       0.245   3.337  -5.881  0.00  0.00     0.077 C 
ATOM      2  C1' PXY d   1      -4.886   5.998  -5.999  0.00  0.00     0.077 C 
ATOM      3  C1  PXY d   1      -3.546   5.290  -5.962  0.00  0.00    -0.082 A 
ATOM      4  C2  PXY d   1      -2.430   6.000  -5.992  0.00  0.00     0.003 A 
ATOM      5  C3  PXY d   1      -1.210   5.374  -5.992  0.00  0.00     0.003 A 
ATOM      6  C4  PXY d   1      -1.130   4.010  -5.906  0.00  0.00    -0.082 A 
ATOM      7  C5  PXY d   1      -2.265   3.279  -5.865  0.00  0.00     0.003 A 
ATOM      8  C6  PXY d   1      -3.493   3.931  -5.908  0.00  0.00     0.003 A 
ENDROOT
TORSDOF 0
ENDMDL
