MODEL 1
REMARK minimizedAffinity -0.491163909
REMARK minimizedRMSD -1
REMARK  0 active torsions:
REMARK  status: ('A' for Active; 'I' for Inactive)
ROOT
ATOM      1  C4' PXY d   1      -4.370   6.000  -5.984  0.00  0.00     0.077 C 
ATOM      2  C1' PXY d   1       0.139   2.382  -5.994  0.00  0.00     0.077 C 
ATOM      3  C1  PXY d   1      -1.036   3.340  -5.986  0.00  0.00    -0.082 A 
ATOM      4  C2  PXY d   1      -2.270   2.862  -5.975  0.00  0.00     0.003 A 
ATOM      5  C3  PXY d   1      -3.344   3.714  -6.000  0.00  0.00     0.003 A 
ATOM      6  C4  PXY d   1      -3.154   5.070  -5.983  0.00  0.00    -0.082 A 
ATOM      7  C5  PXY d   1      -1.898   5.565  -5.984  0.00  0.00     0.003 A 
ATOM      8  C6  PXY d   1      -0.821   4.684  -6.000  0.00  0.00     0.003 A 
ENDROOT
TORSDOF 0
ENDMDL
