MODEL 1
REMARK minimizedAffinity -1.72168374
REMARK minimizedRMSD -1
REMARK  0 active torsions:
REMARK  status: ('A' for Active; 'I' for Inactive)
ROOT
ATOM      1  C4' PXY d   1       0.911   1.760  -5.996  0.00  0.00     0.077 C 
ATOM      2  C1' PXY d   1      -3.025   5.993  -5.977  0.00  0.00     0.077 C 
ATOM      3  C1  PXY d   1      -1.984   4.891  -5.987  0.00  0.00    -0.082 A 
ATOM      4  C2  PXY d   1      -2.371   3.626  -5.998  0.00  0.00     0.003 A 
ATOM      5  C3  PXY d   1      -1.443   2.616  -5.975  0.00  0.00     0.003 A 
ATOM      6  C4  PXY d   1      -0.105   2.905  -5.995  0.00  0.00    -0.082 A 
ATOM      7  C5  PXY d   1       0.298   4.194  -5.994  0.00  0.00     0.003 A 
ATOM      8  C6  PXY d   1      -0.660   5.203  -5.976  0.00  0.00     0.003 A 
ENDROOT
TORSDOF 0
ENDMDL
