MODEL 1
REMARK minimizedAffinity -2.04342675
REMARK minimizedRMSD -1
REMARK  0 active torsions:
REMARK  status: ('A' for Active; 'I' for Inactive)
ROOT
ATOM      1  C4' PXY d   1       1.140   3.086  -5.987  0.00  0.00     0.077 C 
ATOM      2  C1' PXY d   1      -4.371   4.831  -5.991  0.00  0.00     0.077 C 
ATOM      3  C1  PXY d   1      -2.929   4.362  -5.985  0.00  0.00    -0.082 A 
ATOM      4  C2  PXY d   1      -1.951   5.253  -5.973  0.00  0.00     0.003 A 
ATOM      5  C3  PXY d   1      -0.642   4.846  -6.000  0.00  0.00     0.003 A 
ATOM      6  C4  PXY d   1      -0.330   3.513  -5.984  0.00  0.00    -0.082 A 
ATOM      7  C5  PXY d   1      -1.322   2.598  -5.985  0.00  0.00     0.003 A 
ATOM      8  C6  PXY d   1      -2.645   3.031  -6.000  0.00  0.00     0.003 A 
ENDROOT
TORSDOF 0
ENDMDL
