MODEL 1
REMARK minimizedAffinity -3.30499268
REMARK minimizedRMSD -1
REMARK  0 active torsions:
REMARK  status: ('A' for Active; 'I' for Inactive)
ROOT
ATOM      1  C4' PXY d   1       1.292   5.529  -5.963  0.00  0.00     0.077 C 
ATOM      2  C1' PXY d   1      -4.192   3.700  -5.994  0.00  0.00     0.077 C 
ATOM      3  C1  PXY d   1      -2.757   4.191  -5.991  0.00  0.00    -0.082 A 
ATOM      4  C2  PXY d   1      -1.766   3.315  -5.999  0.00  0.00     0.003 A 
ATOM      5  C3  PXY d   1      -0.463   3.741  -5.964  0.00  0.00     0.003 A 
ATOM      6  C4  PXY d   1      -0.171   5.078  -5.975  0.00  0.00    -0.082 A 
ATOM      7  C5  PXY d   1      -1.177   5.979  -5.979  0.00  0.00     0.003 A 
ATOM      8  C6  PXY d   1      -2.493   5.526  -5.972  0.00  0.00     0.003 A 
ENDROOT
TORSDOF 0
ENDMDL
