MODEL 1
REMARK minimizedAffinity 1.79621732
REMARK minimizedRMSD -1
REMARK  0 active torsions:
REMARK  status: ('A' for Active; 'I' for Inactive)
ROOT
ATOM      1  C4' PXY d   1      -3.006   2.831  -5.953  0.00  0.00     0.077 C 
ATOM      2  C1' PXY d   1       2.240   5.258  -5.982  0.00  0.00     0.077 C 
ATOM      3  C1  PXY d   1       0.869   4.611  -5.979  0.00  0.00    -0.082 A 
ATOM      4  C2  PXY d   1      -0.213   5.371  -5.985  0.00  0.00     0.003 A 
ATOM      5  C3  PXY d   1      -1.461   4.803  -5.950  0.00  0.00     0.003 A 
ATOM      6  C4  PXY d   1      -1.602   3.441  -5.964  0.00  0.00    -0.082 A 
ATOM      7  C5  PXY d   1      -0.502   2.658  -5.969  0.00  0.00     0.003 A 
ATOM      8  C6  PXY d   1       0.755   3.255  -5.962  0.00  0.00     0.003 A 
ENDROOT
TORSDOF 0
ENDMDL
