MODEL 1
REMARK minimizedAffinity -2.0982058
REMARK minimizedRMSD -1
REMARK  0 active torsions:
REMARK  status: ('A' for Active; 'I' for Inactive)
ROOT
ATOM      1  C4' PXY d   1       1.497   2.249  -5.971  0.00  0.00     0.077 C 
ATOM      2  C1' PXY d   1      -3.269   5.519  -6.000  0.00  0.00     0.077 C 
ATOM      3  C1  PXY d   1      -2.026   4.652  -5.987  0.00  0.00    -0.082 A 
ATOM      4  C2  PXY d   1      -0.831   5.221  -5.975  0.00  0.00     0.003 A 
ATOM      5  C3  PXY d   1       0.304   4.451  -5.995  0.00  0.00     0.003 A 
ATOM      6  C4  PXY d   1       0.215   3.085  -5.974  0.00  0.00    -0.082 A 
ATOM      7  C5  PXY d   1      -1.000   2.497  -5.976  0.00  0.00     0.003 A 
ATOM      8  C6  PXY d   1      -2.140   3.296  -5.997  0.00  0.00     0.003 A 
ENDROOT
TORSDOF 0
ENDMDL
