MODEL 1
REMARK minimizedAffinity -1.8133111
REMARK minimizedRMSD -1
REMARK  0 active torsions:
REMARK  status: ('A' for Active; 'I' for Inactive)
ROOT
ATOM      1  C4' PXY d   1       1.373   2.195  -5.875  0.00  0.00     0.077 C 
ATOM      2  C1' PXY d   1      -3.504   5.297  -5.999  0.00  0.00     0.077 C 
ATOM      3  C1  PXY d   1      -2.231   4.473  -5.961  0.00  0.00    -0.082 A 
ATOM      4  C2  PXY d   1      -1.058   5.084  -5.915  0.00  0.00     0.003 A 
ATOM      5  C3  PXY d   1       0.103   4.355  -5.913  0.00  0.00     0.003 A 
ATOM      6  C4  PXY d   1       0.062   2.986  -5.905  0.00  0.00    -0.082 A 
ATOM      7  C5  PXY d   1      -1.131   2.356  -5.941  0.00  0.00     0.003 A 
ATOM      8  C6  PXY d   1      -2.297   3.115  -5.984  0.00  0.00     0.003 A 
ENDROOT
TORSDOF 0
ENDMDL
