MODEL 1
REMARK minimizedAffinity -1.6873126
REMARK minimizedRMSD -1
REMARK  0 active torsions:
REMARK  status: ('A' for Active; 'I' for Inactive)
ROOT
ATOM      1  C4' PXY d   1       0.788   4.022  -5.997  0.00  0.00     0.077 C 
ATOM      2  C1' PXY d   1      -4.345   3.859  -3.344  0.00  0.00     0.077 C 
ATOM      3  C1  PXY d   1      -3.003   3.892  -4.048  0.00  0.00    -0.082 A 
ATOM      4  C2  PXY d   1      -1.931   4.312  -3.394  0.00  0.00     0.003 A 
ATOM      5  C3  PXY d   1      -0.716   4.379  -4.026  0.00  0.00     0.003 A 
ATOM      6  C4  PXY d   1      -0.585   3.962  -5.323  0.00  0.00    -0.082 A 
ATOM      7  C5  PXY d   1      -1.671   3.523  -5.994  0.00  0.00     0.003 A 
ATOM      8  C6  PXY d   1      -2.904   3.502  -5.348  0.00  0.00     0.003 A 
ENDROOT
TORSDOF 0
ENDMDL
