MODEL 1
REMARK minimizedAffinity 0.697713614
REMARK minimizedRMSD -1
REMARK  0 active torsions:
REMARK  status: ('A' for Active; 'I' for Inactive)
ROOT
ATOM      1  C4' PXY d   1       1.225   1.446  -5.920  0.00  0.00     0.077 C 
ATOM      2  C1' PXY d   1      -2.335   6.000  -6.000  0.00  0.00     0.077 C 
ATOM      3  C1  PXY d   1      -1.411   4.798  -5.973  0.00  0.00    -0.082 A 
ATOM      4  C2  PXY d   1      -0.101   4.981  -5.991  0.00  0.00     0.003 A 
ATOM      5  C3  PXY d   1       0.749   3.905  -6.000  0.00  0.00     0.003 A 
ATOM      6  C4  PXY d   1       0.254   2.630  -5.936  0.00  0.00    -0.082 A 
ATOM      7  C5  PXY d   1      -1.082   2.436  -5.907  0.00  0.00     0.003 A 
ATOM      8  C6  PXY d   1      -1.928   3.540  -5.941  0.00  0.00     0.003 A 
ENDROOT
TORSDOF 0
ENDMDL
