MODEL 1
REMARK minimizedAffinity -1.79100871
REMARK minimizedRMSD -1
REMARK  0 active torsions:
REMARK  status: ('A' for Active; 'I' for Inactive)
ROOT
ATOM      1  C4' PXY d   1      -3.750   5.847  -5.985  0.00  0.00     0.077 C 
ATOM      2  C1' PXY d   1       1.536   3.506  -5.992  0.00  0.00     0.077 C 
ATOM      3  C1  PXY d   1       0.145   4.109  -5.996  0.00  0.00    -0.082 A 
ATOM      4  C2  PXY d   1       0.002   5.424  -5.999  0.00  0.00     0.003 A 
ATOM      5  C3  PXY d   1      -1.248   5.986  -5.970  0.00  0.00     0.003 A 
ATOM      6  C4  PXY d   1      -2.365   5.194  -5.991  0.00  0.00    -0.082 A 
ATOM      7  C5  PXY d   1      -2.228   3.851  -5.998  0.00  0.00     0.003 A 
ATOM      8  C6  PXY d   1      -0.949   3.300  -5.986  0.00  0.00     0.003 A 
ENDROOT
TORSDOF 0
ENDMDL
