MODEL 1
REMARK minimizedAffinity 5.82620096
REMARK minimizedRMSD -1
REMARK  0 active torsions:
REMARK  status: ('A' for Active; 'I' for Inactive)
ROOT
ATOM      1  C4' PXY d   1       3.015   2.937   2.244  0.00  0.00     0.077 C 
ATOM      2  C1' PXY d   1      -2.665   1.913   1.926  0.00  0.00     0.077 C 
ATOM      3  C1  PXY d   1      -1.174   2.174   1.999  0.00  0.00    -0.082 A 
ATOM      4  C2  PXY d   1      -0.628   2.533   3.149  0.00  0.00     0.003 A 
ATOM      5  C3  PXY d   1       0.714   2.804   3.226  0.00  0.00     0.003 A 
ATOM      6  C4  PXY d   1       1.515   2.654   2.126  0.00  0.00    -0.082 A 
ATOM      7  C5  PXY d   1       0.968   2.278   0.951  0.00  0.00     0.003 A 
ATOM      8  C6  PXY d   1      -0.404   2.048   0.884  0.00  0.00     0.003 A 
ENDROOT
TORSDOF 0
ENDMDL
