MODEL 1
REMARK minimizedAffinity 8.09586716
REMARK minimizedRMSD -1
REMARK  0 active torsions:
REMARK  status: ('A' for Active; 'I' for Inactive)
ROOT
ATOM      1  C4' PXY d   1       2.101  -0.506  -5.303  0.00  0.00     0.077 C 
ATOM      2  C1' PXY d   1       2.083   2.966  -0.681  0.00  0.00     0.077 C 
ATOM      3  C1  PXY d   1       2.094   2.046  -1.886  0.00  0.00    -0.082 A 
ATOM      4  C2  PXY d   1       2.070   2.563  -3.104  0.00  0.00     0.003 A 
ATOM      5  C3  PXY d   1       2.047   1.745  -4.204  0.00  0.00     0.003 A 
ATOM      6  C4  PXY d   1       2.102   0.384  -4.058  0.00  0.00    -0.082 A 
ATOM      7  C5  PXY d   1       2.136  -0.150  -2.819  0.00  0.00     0.003 A 
ATOM      8  C6  PXY d   1       2.118   0.696  -1.714  0.00  0.00     0.003 A 
ENDROOT
TORSDOF 0
ENDMDL
