MODEL 1
REMARK minimizedAffinity -2.11890626
REMARK minimizedRMSD -1
REMARK  0 active torsions:
REMARK  status: ('A' for Active; 'I' for Inactive)
ROOT
ATOM      1  C   UNL d   1       0.491   5.382   2.491  0.00  0.00     0.172 C 
ATOM      2  N   UNL d   1       1.142   4.544   1.511  0.00  0.00    -0.070 N 
ATOM      3  C1  UNL d   1       2.474   4.225   1.491  0.00  0.00    -0.004 A 
ATOM      4  C2  UNL d   1       2.696   3.409   0.403  0.00  0.00    -0.047 A 
ATOM      5  C3  UNL d   1       1.456   3.232  -0.254  0.00  0.00    -0.047 A 
ATOM      6  C4  UNL d   1       0.511   3.945   0.452  0.00  0.00    -0.004 A 
ENDROOT
TORSDOF 0
ENDMDL
