MODEL 1
REMARK minimizedAffinity -2.67260146
REMARK minimizedRMSD -1
REMARK  0 active torsions:
REMARK  status: ('A' for Active; 'I' for Inactive)
ROOT
ATOM      1  C   UNL d   1      -3.177   1.444   0.569  0.00  0.00     0.172 C 
ATOM      2  N   UNL d   1      -2.106   0.504   0.340  0.00  0.00    -0.070 N 
ATOM      3  C1  UNL d   1      -1.146   0.608  -0.631  0.00  0.00    -0.004 A 
ATOM      4  C2  UNL d   1      -0.311  -0.482  -0.518  0.00  0.00    -0.047 A 
ATOM      5  C3  UNL d   1      -0.786  -1.270   0.558  0.00  0.00    -0.047 A 
ATOM      6  C4  UNL d   1      -1.898  -0.636   1.071  0.00  0.00    -0.004 A 
ENDROOT
TORSDOF 0
ENDMDL
