MODEL 1
REMARK minimizedAffinity -2.46998096
REMARK minimizedRMSD -1
REMARK  0 active torsions:
REMARK  status: ('A' for Active; 'I' for Inactive)
ROOT
ATOM      1  C   UNL d   1      -0.665   0.912  -0.324  0.00  0.00     0.172 C 
ATOM      2  N   UNL d   1      -1.797   1.617   0.230  0.00  0.00    -0.070 N 
ATOM      3  C1  UNL d   1      -1.901   2.975   0.371  0.00  0.00    -0.004 A 
ATOM      4  C2  UNL d   1      -3.127   3.248   0.937  0.00  0.00    -0.047 A 
ATOM      5  C3  UNL d   1      -3.783   2.011   1.145  0.00  0.00    -0.047 A 
ATOM      6  C4  UNL d   1      -2.937   1.018   0.698  0.00  0.00    -0.004 A 
ENDROOT
TORSDOF 0
ENDMDL
