MODEL 1
REMARK minimizedAffinity -3.76288033
REMARK minimizedRMSD -1
REMARK  0 active torsions:
REMARK  status: ('A' for Active; 'I' for Inactive)
ROOT
ATOM      1  C   UNL d   1      -0.012   0.232  -1.042  0.00  0.00     0.172 C 
ATOM      2  N   UNL d   1      -0.002  -1.063  -0.403  0.00  0.00    -0.070 N 
ATOM      3  C1  UNL d   1      -1.008  -1.581   0.368  0.00  0.00    -0.004 A 
ATOM      4  C2  UNL d   1      -0.615  -2.833   0.789  0.00  0.00    -0.047 A 
ATOM      5  C3  UNL d   1       0.673  -3.075   0.255  0.00  0.00    -0.047 A 
ATOM      6  C4  UNL d   1       1.028  -1.963  -0.479  0.00  0.00    -0.004 A 
ENDROOT
TORSDOF 0
ENDMDL
