MODEL 1
REMARK minimizedAffinity -2.22907853
REMARK minimizedRMSD -1
REMARK  0 active torsions:
REMARK  status: ('A' for Active; 'I' for Inactive)
ROOT
ATOM      1  C   UNL d   1       0.276  -1.035  -1.656  0.00  0.00     0.172 C 
ATOM      2  N   UNL d   1      -0.251  -1.157  -0.317  0.00  0.00    -0.070 N 
ATOM      3  C1  UNL d   1      -0.519  -2.332   0.332  0.00  0.00    -0.004 A 
ATOM      4  C2  UNL d   1      -1.007  -2.022   1.583  0.00  0.00    -0.047 A 
ATOM      5  C3  UNL d   1      -1.034  -0.611   1.689  0.00  0.00    -0.047 A 
ATOM      6  C4  UNL d   1      -0.561  -0.101   0.499  0.00  0.00    -0.004 A 
ENDROOT
TORSDOF 0
ENDMDL
