MODEL 1
REMARK minimizedAffinity -1.79509854
REMARK minimizedRMSD -1
REMARK  0 active torsions:
REMARK  status: ('A' for Active; 'I' for Inactive)
ROOT
ATOM      1  C   UNL d   1       0.001   0.451  -0.715  0.00  0.00     0.172 C 
ATOM      2  N   UNL d   1      -0.369  -0.856  -0.226  0.00  0.00    -0.070 N 
ATOM      3  C1  UNL d   1      -0.447  -1.997  -0.979  0.00  0.00    -0.004 A 
ATOM      4  C2  UNL d   1      -0.830  -3.027  -0.147  0.00  0.00    -0.047 A 
ATOM      5  C3  UNL d   1      -0.988  -2.486   1.151  0.00  0.00    -0.047 A 
ATOM      6  C4  UNL d   1      -0.696  -1.140   1.074  0.00  0.00    -0.004 A 
ENDROOT
TORSDOF 0
ENDMDL
