MODEL 1
REMARK minimizedAffinity -2.88044238
REMARK minimizedRMSD -1
REMARK  0 active torsions:
REMARK  status: ('A' for Active; 'I' for Inactive)
ROOT
ATOM      1  C   UNL d   1      -1.066  -0.231   1.419  0.00  0.00     0.172 C 
ATOM      2  N   UNL d   1      -0.461  -1.384   0.795  0.00  0.00    -0.070 N 
ATOM      3  C1  UNL d   1       0.606  -1.360  -0.063  0.00  0.00    -0.004 A 
ATOM      4  C2  UNL d   1       0.879  -2.659  -0.434  0.00  0.00    -0.047 A 
ATOM      5  C3  UNL d   1      -0.058  -3.493   0.223  0.00  0.00    -0.047 A 
ATOM      6  C4  UNL d   1      -0.875  -2.678   0.977  0.00  0.00    -0.004 A 
ENDROOT
TORSDOF 0
ENDMDL
