MODEL 1
REMARK minimizedAffinity -1.83741474
REMARK minimizedRMSD -1
REMARK  0 active torsions:
REMARK  status: ('A' for Active; 'I' for Inactive)
ROOT
ATOM      1  C   UNL d   1       0.356   0.827  -0.237  0.00  0.00     0.172 C 
ATOM      2  N   UNL d   1       0.960   2.061   0.210  0.00  0.00    -0.070 N 
ATOM      3  C1  UNL d   1       0.284   3.167   0.650  0.00  0.00    -0.004 A 
ATOM      4  C2  UNL d   1       1.216   4.126   0.983  0.00  0.00    -0.047 A 
ATOM      5  C3  UNL d   1       2.497   3.577   0.734  0.00  0.00    -0.047 A 
ATOM      6  C4  UNL d   1       2.309   2.298   0.256  0.00  0.00    -0.004 A 
ENDROOT
TORSDOF 0
ENDMDL
