MODEL 1
REMARK minimizedAffinity -0.700020134
REMARK minimizedRMSD -1
REMARK  0 active torsions:
REMARK  status: ('A' for Active; 'I' for Inactive)
ROOT
ATOM      1  C   UNL d   1      -1.520  -4.485  -2.408  0.00  0.00     0.172 C 
ATOM      2  N   UNL d   1      -1.394  -4.766  -3.819  0.00  0.00    -0.070 N 
ATOM      3  C1  UNL d   1      -1.511  -6.000  -4.401  0.00  0.00    -0.004 A 
ATOM      4  C2  UNL d   1      -1.326  -5.846  -5.758  0.00  0.00    -0.047 A 
ATOM      5  C3  UNL d   1      -1.089  -4.472  -6.000  0.00  0.00    -0.047 A 
ATOM      6  C4  UNL d   1      -1.137  -3.826  -4.782  0.00  0.00    -0.004 A 
ENDROOT
TORSDOF 0
ENDMDL
