MODEL 1
REMARK minimizedAffinity 2.79165888
REMARK minimizedRMSD -1
REMARK  0 active torsions:
REMARK  status: ('A' for Active; 'I' for Inactive)
ROOT
ATOM      1  C   UNL d   1       0.801   3.294   2.825  0.00  0.00     0.172 C 
ATOM      2  N   UNL d   1      -0.006   2.670   1.802  0.00  0.00    -0.070 N 
ATOM      3  C1  UNL d   1      -0.382   3.247   0.619  0.00  0.00    -0.004 A 
ATOM      4  C2  UNL d   1      -1.141   2.330  -0.075  0.00  0.00    -0.047 A 
ATOM      5  C3  UNL d   1      -1.225   1.162   0.718  0.00  0.00    -0.047 A 
ATOM      6  C4  UNL d   1      -0.513   1.400   1.875  0.00  0.00    -0.004 A 
ENDROOT
TORSDOF 0
ENDMDL
