MODEL 1
REMARK minimizedAffinity 1.64665425
REMARK minimizedRMSD -1
REMARK  0 active torsions:
REMARK  status: ('A' for Active; 'I' for Inactive)
ROOT
ATOM      1  C   UNL d   1      -2.165   2.348   0.864  0.00  0.00     0.172 C 
ATOM      2  N   UNL d   1      -1.074   2.826   1.681  0.00  0.00    -0.070 N 
ATOM      3  C1  UNL d   1      -1.126   3.895   2.535  0.00  0.00    -0.004 A 
ATOM      4  C2  UNL d   1       0.113   4.024   3.125  0.00  0.00    -0.047 A 
ATOM      5  C3  UNL d   1       0.938   2.998   2.607  0.00  0.00    -0.047 A 
ATOM      6  C4  UNL d   1       0.178   2.271   1.715  0.00  0.00    -0.004 A 
ENDROOT
TORSDOF 0
ENDMDL
