MODEL 1
REMARK minimizedAffinity 1.83349657
REMARK minimizedRMSD -1
REMARK  0 active torsions:
REMARK  status: ('A' for Active; 'I' for Inactive)
ROOT
ATOM      1  C   UNL d   1       1.433   4.481   1.985  0.00  0.00     0.172 C 
ATOM      2  N   UNL d   1       2.447   3.983   1.086  0.00  0.00    -0.070 N 
ATOM      3  C1  UNL d   1       3.617   4.621   0.771  0.00  0.00    -0.004 A 
ATOM      4  C2  UNL d   1       4.308   3.822  -0.114  0.00  0.00    -0.047 A 
ATOM      5  C3  UNL d   1       3.526   2.664  -0.340  0.00  0.00    -0.047 A 
ATOM      6  C4  UNL d   1       2.379   2.790   0.416  0.00  0.00    -0.004 A 
ENDROOT
TORSDOF 0
ENDMDL
