MODEL 1
REMARK minimizedAffinity 2.44180679
REMARK minimizedRMSD -1
REMARK  0 active torsions:
REMARK  status: ('A' for Active; 'I' for Inactive)
ROOT
ATOM      1  C   UNL d   1      -4.247  -3.704  -0.875  0.00  0.00     0.172 C 
ATOM      2  N   UNL d   1      -2.938  -3.804  -1.475  0.00  0.00    -0.070 N 
ATOM      3  C1  UNL d   1      -2.429  -4.911  -2.100  0.00  0.00    -0.004 A 
ATOM      4  C2  UNL d   1      -1.158  -4.603  -2.535  0.00  0.00    -0.047 A 
ATOM      5  C3  UNL d   1      -0.894  -3.265  -2.158  0.00  0.00    -0.047 A 
ATOM      6  C4  UNL d   1      -2.013  -2.795  -1.503  0.00  0.00    -0.004 A 
ENDROOT
TORSDOF 0
ENDMDL
