MODEL 1
REMARK minimizedAffinity 2.86709118
REMARK minimizedRMSD -1
REMARK  0 active torsions:
REMARK  status: ('A' for Active; 'I' for Inactive)
ROOT
ATOM      1  C   UNL d   1      -2.940  -5.999  -3.712  0.00  0.00     0.172 C 
ATOM      2  N   UNL d   1      -2.573  -4.799  -2.998  0.00  0.00    -0.070 N 
ATOM      3  C1  UNL d   1      -1.373  -4.146  -3.097  0.00  0.00    -0.004 A 
ATOM      4  C2  UNL d   1      -1.419  -3.051  -2.262  0.00  0.00    -0.047 A 
ATOM      5  C3  UNL d   1      -2.690  -3.045  -1.640  0.00  0.00    -0.047 A 
ATOM      6  C4  UNL d   1      -3.384  -4.138  -2.114  0.00  0.00    -0.004 A 
ENDROOT
TORSDOF 0
ENDMDL
