MODEL 1
REMARK minimizedAffinity -2.25326085
REMARK minimizedRMSD -1
REMARK  0 active torsions:
REMARK  status: ('A' for Active; 'I' for Inactive)
ROOT
ATOM      1  C   UNL d   1       5.999  -1.694   5.029  0.00  0.00     0.172 C 
ATOM      2  N   UNL d   1       5.153  -2.836   5.286  0.00  0.00    -0.070 N 
ATOM      3  C1  UNL d   1       5.521  -3.964   5.971  0.00  0.00    -0.004 A 
ATOM      4  C2  UNL d   1       4.436  -4.813   6.000  0.00  0.00    -0.047 A 
ATOM      5  C3  UNL d   1       3.380  -4.174   5.308  0.00  0.00    -0.047 A 
ATOM      6  C4  UNL d   1       3.851  -2.952   4.877  0.00  0.00    -0.004 A 
ENDROOT
TORSDOF 0
ENDMDL
