MODEL 1
REMARK minimizedAffinity 11.0368176
REMARK minimizedRMSD -1
REMARK  0 active torsions:
REMARK  status: ('A' for Active; 'I' for Inactive)
ROOT
ATOM      1  C   UNL d   1      -0.278   4.094  -0.697  0.00  0.00    -0.002 A 
ATOM      2  C1  UNL d   1      -0.869   2.839  -0.730  0.00  0.00     0.010 A 
ATOM      3  C2  UNL d   1      -0.738   1.964   0.350  0.00  0.00     0.041 A 
ATOM      4  C3  UNL d   1       0.002   2.376   1.476  0.00  0.00    -0.075 A 
ATOM      5  S   UNL d   1       0.294   1.473   2.915  0.00  0.00     0.015 SA
ATOM      6  C4  UNL d   1       1.210   2.732   3.608  0.00  0.00     0.022 A 
ATOM      7  C5  UNL d   1       1.301   3.822   2.775  0.00  0.00     0.026 A 
ATOM      8  C6  UNL d   1       0.605   3.635   1.533  0.00  0.00    -0.082 A 
ATOM      9  C7  UNL d   1       0.456   4.499   0.421  0.00  0.00     0.045 A 
ENDROOT
TORSDOF 0
ENDMDL
