MODEL 1
REMARK minimizedAffinity 0.916880965
REMARK minimizedRMSD -1
REMARK  0 active torsions:
REMARK  status: ('A' for Active; 'I' for Inactive)
ROOT
ATOM      1  C   UNL d   1      -0.051  -1.686  -1.189  0.00  0.00    -0.002 A 
ATOM      2  C1  UNL d   1       0.464  -0.415  -1.403  0.00  0.00     0.010 A 
ATOM      3  C2  UNL d   1      -0.379   0.697  -1.436  0.00  0.00     0.041 A 
ATOM      4  C3  UNL d   1      -1.763   0.509  -1.246  0.00  0.00    -0.075 A 
ATOM      5  S   UNL d   1      -2.986   1.724  -1.245  0.00  0.00     0.015 SA
ATOM      6  C4  UNL d   1      -4.221   0.585  -0.959  0.00  0.00     0.022 A 
ATOM      7  C5  UNL d   1      -3.730  -0.696  -0.865  0.00  0.00     0.026 A 
ATOM      8  C6  UNL d   1      -2.305  -0.761  -1.028  0.00  0.00    -0.082 A 
ATOM      9  C7  UNL d   1      -1.424  -1.868  -1.002  0.00  0.00     0.045 A 
ENDROOT
TORSDOF 0
ENDMDL
