MODEL 1
REMARK minimizedAffinity 15.382081
REMARK minimizedRMSD -1
REMARK  0 active torsions:
REMARK  status: ('A' for Active; 'I' for Inactive)
ROOT
ATOM      1  C   UNL d   1      -3.740  -0.440  -1.136  0.00  0.00    -0.002 A 
ATOM      2  C1  UNL d   1      -2.915  -1.512  -1.447  0.00  0.00     0.010 A 
ATOM      3  C2  UNL d   1      -1.528  -1.355  -1.477  0.00  0.00     0.041 A 
ATOM      4  C3  UNL d   1      -0.979  -0.091  -1.184  0.00  0.00    -0.075 A 
ATOM      5  S   UNL d   1       0.692   0.336  -1.159  0.00  0.00     0.015 SA
ATOM      6  C4  UNL d   1       0.349   1.951  -0.733  0.00  0.00     0.022 A 
ATOM      7  C5  UNL d   1      -1.001   2.176  -0.610  0.00  0.00     0.026 A 
ATOM      8  C6  UNL d   1      -1.789   1.003  -0.867  0.00  0.00    -0.082 A 
ATOM      9  C7  UNL d   1      -3.191   0.812  -0.846  0.00  0.00     0.045 A 
ENDROOT
TORSDOF 0
ENDMDL
