MODEL 1
REMARK minimizedAffinity 5.85408115
REMARK minimizedRMSD -1
REMARK  0 active torsions:
REMARK  status: ('A' for Active; 'I' for Inactive)
ROOT
ATOM      1  C   UNL d   1       0.952   2.544   1.327  0.00  0.00     0.077 C 
ATOM      2  C1  UNL d   1       0.601   1.735   2.540  0.00  0.00    -0.074 A 
ATOM      3  C2  UNL d   1      -0.583   1.973   3.245  0.00  0.00    -0.005 A 
ATOM      4  C3  UNL d   1      -0.901   1.207   4.366  0.00  0.00     0.006 A 
ATOM      5  C4  UNL d   1      -0.039   0.196   4.793  0.00  0.00    -0.005 A 
ATOM      6  C5  UNL d   1       1.149  -0.058   4.101  0.00  0.00    -0.074 A 
ATOM      7  C6  UNL d   1       2.081  -1.147   4.540  0.00  0.00     0.077 C 
ATOM      8  C7  UNL d   1       1.458   0.712   2.971  0.00  0.00    -0.001 A 
ENDROOT
TORSDOF 0
ENDMDL
