MODEL 1
REMARK minimizedAffinity 11.122858
REMARK minimizedRMSD -1
REMARK  0 active torsions:
REMARK  status: ('A' for Active; 'I' for Inactive)
ROOT
ATOM      1  C   UNL d   1      -2.168  -0.755  -4.207  0.00  0.00     0.077 C 
ATOM      2  C1  UNL d   1      -3.462  -0.331  -4.838  0.00  0.00    -0.074 A 
ATOM      3  C2  UNL d   1      -4.457  -1.267  -5.135  0.00  0.00    -0.005 A 
ATOM      4  C3  UNL d   1      -5.659  -0.857  -5.712  0.00  0.00     0.006 A 
ATOM      5  C4  UNL d   1      -5.877   0.491  -5.998  0.00  0.00    -0.005 A 
ATOM      6  C5  UNL d   1      -4.893   1.442  -5.708  0.00  0.00    -0.074 A 
ATOM      7  C6  UNL d   1      -5.115   2.896  -6.000  0.00  0.00     0.077 C 
ATOM      8  C7  UNL d   1      -3.691   1.023  -5.121  0.00  0.00    -0.001 A 
ENDROOT
TORSDOF 0
ENDMDL
