MODEL 1
REMARK minimizedAffinity 3.61569142
REMARK minimizedRMSD -1
REMARK  0 active torsions:
REMARK  status: ('A' for Active; 'I' for Inactive)
ROOT
ATOM      1  C   UNL d   1      -1.220  -2.947   0.350  0.00  0.00     0.077 C 
ATOM      2  C1  UNL d   1      -1.864  -1.596   0.251  0.00  0.00    -0.074 A 
ATOM      3  C2  UNL d   1      -1.155  -0.495  -0.240  0.00  0.00    -0.005 A 
ATOM      4  C3  UNL d   1      -1.770   0.753  -0.335  0.00  0.00     0.006 A 
ATOM      5  C4  UNL d   1      -3.099   0.912   0.058  0.00  0.00    -0.005 A 
ATOM      6  C5  UNL d   1      -3.825  -0.177   0.550  0.00  0.00    -0.074 A 
ATOM      7  C6  UNL d   1      -5.258  -0.025   0.968  0.00  0.00     0.077 C 
ATOM      8  C7  UNL d   1      -3.202  -1.429   0.637  0.00  0.00    -0.001 A 
ENDROOT
TORSDOF 0
ENDMDL
