MODEL 1
REMARK minimizedAffinity 6.37496138
REMARK minimizedRMSD -1
REMARK  0 active torsions:
REMARK  status: ('A' for Active; 'I' for Inactive)
ROOT
ATOM      1  C   UNL d   1      -0.414   0.337  -1.137  0.00  0.00     0.077 C 
ATOM      2  C1  UNL d   1       0.204   0.139   0.215  0.00  0.00    -0.074 A 
ATOM      3  C2  UNL d   1       0.918  -1.025   0.516  0.00  0.00    -0.005 A 
ATOM      4  C3  UNL d   1       1.495  -1.191   1.774  0.00  0.00     0.006 A 
ATOM      5  C4  UNL d   1       1.366  -0.195   2.743  0.00  0.00    -0.005 A 
ATOM      6  C5  UNL d   1       0.657   0.977   2.460  0.00  0.00    -0.074 A 
ATOM      7  C6  UNL d   1       0.517   2.061   3.487  0.00  0.00     0.077 C 
ATOM      8  C7  UNL d   1       0.085   1.139   1.191  0.00  0.00    -0.001 A 
ENDROOT
TORSDOF 0
ENDMDL
