MODEL 1
REMARK minimizedAffinity 0.68165338
REMARK minimizedRMSD -1
REMARK  0 active torsions:
REMARK  status: ('A' for Active; 'I' for Inactive)
ROOT
ATOM      1  C   UNL d   1      -1.313  -2.091   0.418  0.00  0.00     0.077 C 
ATOM      2  C1  UNL d   1      -0.101  -1.326   0.858  0.00  0.00    -0.074 A 
ATOM      3  C2  UNL d   1       1.130  -1.498   0.217  0.00  0.00    -0.005 A 
ATOM      4  C3  UNL d   1       2.247  -0.773   0.632  0.00  0.00     0.006 A 
ATOM      5  C4  UNL d   1       2.144   0.132   1.690  0.00  0.00    -0.005 A 
ATOM      6  C5  UNL d   1       0.921   0.318   2.342  0.00  0.00    -0.074 A 
ATOM      7  C6  UNL d   1       0.792   1.293   3.475  0.00  0.00     0.077 C 
ATOM      8  C7  UNL d   1      -0.198  -0.410   1.915  0.00  0.00    -0.001 A 
ENDROOT
TORSDOF 0
ENDMDL
