MODEL 1
REMARK minimizedAffinity 3.23746991
REMARK minimizedRMSD -1
REMARK  0 active torsions:
REMARK  status: ('A' for Active; 'I' for Inactive)
ROOT
ATOM      1  C   UNL d   1      -2.350   0.387   0.009  0.00  0.00     0.077 C 
ATOM      2  C1  UNL d   1      -0.881   0.085   0.008  0.00  0.00    -0.074 A 
ATOM      3  C2  UNL d   1      -0.108   0.281  -1.141  0.00  0.00    -0.005 A 
ATOM      4  C3  UNL d   1       1.259   0.004  -1.125  0.00  0.00     0.006 A 
ATOM      5  C4  UNL d   1       1.866  -0.470   0.039  0.00  0.00    -0.005 A 
ATOM      6  C5  UNL d   1       1.109  -0.671   1.197  0.00  0.00    -0.074 A 
ATOM      7  C6  UNL d   1       1.748  -1.171   2.459  0.00  0.00     0.077 C 
ATOM      8  C7  UNL d   1      -0.262  -0.384   1.175  0.00  0.00    -0.001 A 
ENDROOT
TORSDOF 0
ENDMDL
