MODEL 1
REMARK minimizedAffinity 7.38360357
REMARK minimizedRMSD -1
REMARK  0 active torsions:
REMARK  status: ('A' for Active; 'I' for Inactive)
ROOT
ATOM      1  C   UNL d   1      -2.269   1.660   0.050  0.00  0.00     0.077 C 
ATOM      2  C1  UNL d   1      -1.020   1.114   0.676  0.00  0.00    -0.074 A 
ATOM      3  C2  UNL d   1      -0.640   1.490   1.968  0.00  0.00    -0.005 A 
ATOM      4  C3  UNL d   1       0.519   0.966   2.541  0.00  0.00     0.006 A 
ATOM      5  C4  UNL d   1       1.308   0.063   1.828  0.00  0.00    -0.005 A 
ATOM      6  C5  UNL d   1       0.944  -0.325   0.535  0.00  0.00    -0.074 A 
ATOM      7  C6  UNL d   1       1.775  -1.303  -0.241  0.00  0.00     0.077 C 
ATOM      8  C7  UNL d   1      -0.226   0.200  -0.031  0.00  0.00    -0.001 A 
ENDROOT
TORSDOF 0
ENDMDL
