MODEL 1
REMARK minimizedAffinity 4.62980413
REMARK minimizedRMSD -1
REMARK  0 active torsions:
REMARK  status: ('A' for Active; 'I' for Inactive)
ROOT
ATOM      1  C   UNL d   1      -3.174   1.291  -0.148  0.00  0.00     0.077 C 
ATOM      2  C1  UNL d   1      -1.737   0.873  -0.052  0.00  0.00    -0.074 A 
ATOM      3  C2  UNL d   1      -1.079   0.304  -1.147  0.00  0.00    -0.005 A 
ATOM      4  C3  UNL d   1       0.261  -0.070  -1.045  0.00  0.00     0.006 A 
ATOM      5  C4  UNL d   1       0.955   0.119   0.150  0.00  0.00    -0.005 A 
ATOM      6  C5  UNL d   1       0.313   0.687   1.256  0.00  0.00    -0.074 A 
ATOM      7  C6  UNL d   1       1.047   0.908   2.545  0.00  0.00     0.077 C 
ATOM      8  C7  UNL d   1      -1.031   1.068   1.143  0.00  0.00    -0.001 A 
ENDROOT
TORSDOF 0
ENDMDL
