MODEL 1
REMARK minimizedAffinity -3.09814882
REMARK minimizedRMSD -1
REMARK  0 active torsions:
REMARK  status: ('A' for Active; 'I' for Inactive)
ROOT
ATOM      1  C   UNL d   1      -0.108  -0.487  -1.064  0.00  0.00     0.172 C 
ATOM      2  N   UNL d   1      -0.249   0.298   0.139  0.00  0.00    -0.070 N 
ATOM      3  C1  UNL d   1       0.355   0.034   1.340  0.00  0.00    -0.004 A 
ATOM      4  C2  UNL d   1      -0.031   1.012   2.231  0.00  0.00    -0.047 A 
ATOM      5  C3  UNL d   1      -0.897   1.894   1.542  0.00  0.00    -0.047 A 
ATOM      6  C4  UNL d   1      -1.015   1.428   0.249  0.00  0.00    -0.004 A 
ENDROOT
TORSDOF 0
ENDMDL
