MODEL 1
REMARK minimizedAffinity -2.13264036
REMARK minimizedRMSD -1
REMARK  0 active torsions:
REMARK  status: ('A' for Active; 'I' for Inactive)
ROOT
ATOM      1  C   UNL d   1       1.405  -0.553  -0.611  0.00  0.00     0.172 C 
ATOM      2  N   UNL d   1       0.944  -0.094   0.679  0.00  0.00    -0.070 N 
ATOM      3  C1  UNL d   1       1.177  -0.714   1.877  0.00  0.00    -0.004 A 
ATOM      4  C2  UNL d   1       0.573   0.034   2.864  0.00  0.00    -0.047 A 
ATOM      5  C3  UNL d   1      -0.045   1.142   2.237  0.00  0.00    -0.047 A 
ATOM      6  C4  UNL d   1       0.200   1.038   0.884  0.00  0.00    -0.004 A 
ENDROOT
TORSDOF 0
ENDMDL
