MODEL 1
REMARK minimizedAffinity -0.506586015
REMARK minimizedRMSD -1
REMARK  0 active torsions:
REMARK  status: ('A' for Active; 'I' for Inactive)
ROOT
ATOM      1  C   UNL d   1      -0.770  -0.126   3.124  0.00  0.00     0.172 C 
ATOM      2  N   UNL d   1       0.216  -0.044   2.071  0.00  0.00    -0.070 N 
ATOM      3  C1  UNL d   1       0.028   0.534   0.844  0.00  0.00    -0.004 A 
ATOM      4  C2  UNL d   1       1.201   0.406   0.133  0.00  0.00    -0.047 A 
ATOM      5  C3  UNL d   1       2.127  -0.272   0.961  0.00  0.00    -0.047 A 
ATOM      6  C4  UNL d   1       1.491  -0.539   2.155  0.00  0.00    -0.004 A 
ENDROOT
TORSDOF 0
ENDMDL
