MODEL 1
REMARK minimizedAffinity -3.61826777
REMARK minimizedRMSD -1
REMARK  0 active torsions:
REMARK  status: ('A' for Active; 'I' for Inactive)
ROOT
ATOM      1  C   UNL d   1       0.461  -1.056  -0.934  0.00  0.00     0.172 C 
ATOM      2  N   UNL d   1       0.070  -0.120   0.094  0.00  0.00    -0.070 N 
ATOM      3  C1  UNL d   1       0.711   0.066   1.290  0.00  0.00    -0.004 A 
ATOM      4  C2  UNL d   1       0.032   1.042   1.986  0.00  0.00    -0.047 A 
ATOM      5  C3  UNL d   1      -1.056   1.457   1.181  0.00  0.00    -0.047 A 
ATOM      6  C4  UNL d   1      -1.008   0.721   0.016  0.00  0.00    -0.004 A 
ENDROOT
TORSDOF 0
ENDMDL
