MODEL 1
REMARK minimizedAffinity 0.413166285
REMARK minimizedRMSD -1
REMARK  0 active torsions:
REMARK  status: ('A' for Active; 'I' for Inactive)
ROOT
ATOM      1  C   UNL d   1       0.050   2.237   1.711  0.00  0.00     0.172 C 
ATOM      2  N   UNL d   1       0.401   0.843   1.843  0.00  0.00    -0.070 N 
ATOM      3  C1  UNL d   1       0.931   0.056   0.856  0.00  0.00    -0.004 A 
ATOM      4  C2  UNL d   1       1.123  -1.205   1.378  0.00  0.00    -0.047 A 
ATOM      5  C3  UNL d   1       0.693  -1.175   2.726  0.00  0.00    -0.047 A 
ATOM      6  C4  UNL d   1       0.250   0.104   2.987  0.00  0.00    -0.004 A 
ENDROOT
TORSDOF 0
ENDMDL
