MODEL 1
REMARK minimizedAffinity -3.61055899
REMARK minimizedRMSD -1
REMARK  0 active torsions:
REMARK  status: ('A' for Active; 'I' for Inactive)
ROOT
ATOM      1  C   UNL d   1      -0.139  -0.888  -0.336  0.00  0.00     0.172 C 
ATOM      2  N   UNL d   1      -0.532   0.298   0.388  0.00  0.00    -0.070 N 
ATOM      3  C1  UNL d   1       0.216   0.936   1.342  0.00  0.00    -0.004 A 
ATOM      4  C2  UNL d   1      -0.507   2.021   1.789  0.00  0.00    -0.047 A 
ATOM      5  C3  UNL d   1      -1.732   2.035   1.081  0.00  0.00    -0.047 A 
ATOM      6  C4  UNL d   1      -1.721   0.958   0.220  0.00  0.00    -0.004 A 
ENDROOT
TORSDOF 0
ENDMDL
