MODEL 1
REMARK minimizedAffinity -1.24499881
REMARK minimizedRMSD -1
REMARK  0 active torsions:
REMARK  status: ('A' for Active; 'I' for Inactive)
ROOT
ATOM      1  C   UNL d   1      -1.494   1.508   0.964  0.00  0.00     0.172 C 
ATOM      2  N   UNL d   1      -0.804   0.869  -0.132  0.00  0.00    -0.070 N 
ATOM      3  C1  UNL d   1      -0.101  -0.304  -0.057  0.00  0.00    -0.004 A 
ATOM      4  C2  UNL d   1       0.404  -0.574  -1.311  0.00  0.00    -0.047 A 
ATOM      5  C3  UNL d   1      -0.009   0.473  -2.168  0.00  0.00    -0.047 A 
ATOM      6  C4  UNL d   1      -0.755   1.353  -1.413  0.00  0.00    -0.004 A 
ENDROOT
TORSDOF 0
ENDMDL
