MODEL 1
REMARK minimizedAffinity -3.4835012
REMARK minimizedRMSD -1
REMARK  0 active torsions:
REMARK  status: ('A' for Active; 'I' for Inactive)
ROOT
ATOM      1  C4' PXY d   1       0.979  -1.048  -1.107  0.00  0.00     0.077 C 
ATOM      2  C1' PXY d   1      -1.088   4.133  -2.624  0.00  0.00     0.077 C 
ATOM      3  C1  PXY d   1      -0.559   2.770  -2.224  0.00  0.00    -0.082 A 
ATOM      4  C2  PXY d   1       0.675   2.659  -1.758  0.00  0.00     0.003 A 
ATOM      5  C3  PXY d   1       1.181   1.429  -1.422  0.00  0.00     0.003 A 
ATOM      6  C4  PXY d   1       0.399   0.309  -1.514  0.00  0.00    -0.082 A 
ATOM      7  C5  PXY d   1      -0.864   0.416  -1.978  0.00  0.00     0.003 A 
ATOM      8  C6  PXY d   1      -1.345   1.667  -2.353  0.00  0.00     0.003 A 
ENDROOT
TORSDOF 0
ENDMDL
