MODEL 1
REMARK minimizedAffinity -4.77960443
REMARK minimizedRMSD -1
REMARK  0 active torsions:
REMARK  status: ('A' for Active; 'I' for Inactive)
ROOT
ATOM      1  C4' PXY d   1      -0.064   0.697  -1.501  0.00  0.00     0.077 C 
ATOM      2  C1' PXY d   1       2.491  -1.919   2.975  0.00  0.00     0.077 C 
ATOM      3  C1  PXY d   1       1.832  -1.235   1.794  0.00  0.00    -0.082 A 
ATOM      4  C2  PXY d   1       0.846  -0.376   2.002  0.00  0.00     0.003 A 
ATOM      5  C3  PXY d   1       0.217   0.227   0.944  0.00  0.00     0.003 A 
ATOM      6  C4  PXY d   1       0.637  -0.010  -0.338  0.00  0.00    -0.082 A 
ATOM      7  C5  PXY d   1       1.649  -0.876  -0.558  0.00  0.00     0.003 A 
ATOM      8  C6  PXY d   1       2.246  -1.510   0.528  0.00  0.00     0.003 A 
ENDROOT
TORSDOF 0
ENDMDL
