MODEL 1
REMARK minimizedAffinity -2.29270887
REMARK minimizedRMSD -1
REMARK  0 active torsions:
REMARK  status: ('A' for Active; 'I' for Inactive)
ROOT
ATOM      1  C4' PXY d   1      -4.561   2.936  -2.635  0.00  0.00     0.077 C 
ATOM      2  C1' PXY d   1       1.191   3.295  -2.193  0.00  0.00     0.077 C 
ATOM      3  C1  PXY d   1      -0.318   3.213  -2.312  0.00  0.00    -0.082 A 
ATOM      4  C2  PXY d   1      -0.972   2.245  -1.690  0.00  0.00     0.003 A 
ATOM      5  C3  PXY d   1      -2.333   2.138  -1.813  0.00  0.00     0.003 A 
ATOM      6  C4  PXY d   1      -3.039   3.062  -2.536  0.00  0.00    -0.082 A 
ATOM      7  C5  PXY d   1      -2.380   4.059  -3.164  0.00  0.00     0.003 A 
ATOM      8  C6  PXY d   1      -0.994   4.127  -3.060  0.00  0.00     0.003 A 
ENDROOT
TORSDOF 0
ENDMDL
