MODEL 1
REMARK minimizedAffinity -5.5669508
REMARK minimizedRMSD -1
REMARK  0 active torsions:
REMARK  status: ('A' for Active; 'I' for Inactive)
ROOT
ATOM      1  C4' PXY d   1      -0.653   0.227  -1.576  0.00  0.00     0.077 C 
ATOM      2  C1' PXY d   1       2.042  -1.256   3.318  0.00  0.00     0.077 C 
ATOM      3  C1  PXY d   1       1.324  -0.871   2.040  0.00  0.00    -0.082 A 
ATOM      4  C2  PXY d   1       2.000  -0.805   0.904  0.00  0.00     0.003 A 
ATOM      5  C3  PXY d   1       1.373  -0.427  -0.255  0.00  0.00     0.003 A 
ATOM      6  C4  PXY d   1       0.029  -0.166  -0.263  0.00  0.00    -0.082 A 
ATOM      7  C5  PXY d   1      -0.670  -0.242   0.890  0.00  0.00     0.003 A 
ATOM      8  C6  PXY d   1      -0.006  -0.587   2.064  0.00  0.00     0.003 A 
ENDROOT
TORSDOF 0
ENDMDL
