MODEL 1
REMARK minimizedAffinity -1.34593868
REMARK minimizedRMSD -1
REMARK  0 active torsions:
REMARK  status: ('A' for Active; 'I' for Inactive)
ROOT
ATOM      1  C4' PXY d   1       1.016  -0.991  -0.963  0.00  0.00     0.077 C 
ATOM      2  C1' PXY d   1      -1.331   4.101  -2.368  0.00  0.00     0.077 C 
ATOM      3  C1  PXY d   1      -0.726   2.763  -1.993  0.00  0.00    -0.082 A 
ATOM      4  C2  PXY d   1       0.586   2.602  -2.041  0.00  0.00     0.003 A 
ATOM      5  C3  PXY d   1       1.148   1.389  -1.735  0.00  0.00     0.003 A 
ATOM      6  C4  PXY d   1       0.362   0.346  -1.325  0.00  0.00    -0.082 A 
ATOM      7  C5  PXY d   1      -0.977   0.505  -1.263  0.00  0.00     0.003 A 
ATOM      8  C6  PXY d   1      -1.531   1.732  -1.617  0.00  0.00     0.003 A 
ENDROOT
TORSDOF 0
ENDMDL
