MODEL 1
REMARK minimizedAffinity -1.79884267
REMARK minimizedRMSD -1
REMARK  0 active torsions:
REMARK  status: ('A' for Active; 'I' for Inactive)
ROOT
ATOM      1  C4' PXY d   1       2.537  -2.079   0.060  0.00  0.00     0.077 C 
ATOM      2  C1' PXY d   1      -2.148   0.858   1.748  0.00  0.00     0.077 C 
ATOM      3  C1  PXY d   1      -0.924   0.087   1.293  0.00  0.00    -0.082 A 
ATOM      4  C2  PXY d   1      -0.200  -0.575   2.182  0.00  0.00     0.003 A 
ATOM      5  C3  PXY d   1       0.927  -1.251   1.793  0.00  0.00     0.003 A 
ATOM      6  C4  PXY d   1       1.288  -1.294   0.472  0.00  0.00    -0.082 A 
ATOM      7  C5  PXY d   1       0.549  -0.631  -0.442  0.00  0.00     0.003 A 
ATOM      8  C6  PXY d   1      -0.569   0.084  -0.020  0.00  0.00     0.003 A 
ENDROOT
TORSDOF 0
ENDMDL
