MODEL 1
REMARK minimizedAffinity -5.28975344
REMARK minimizedRMSD -1
REMARK  0 active torsions:
REMARK  status: ('A' for Active; 'I' for Inactive)
ROOT
ATOM      1  C4' PXY d   1      -0.156  -0.639  -1.966  0.00  0.00     0.077 C 
ATOM      2  C1' PXY d   1       2.580  -0.743   3.125  0.00  0.00     0.077 C 
ATOM      3  C1  PXY d   1       1.855  -0.706   1.794  0.00  0.00    -0.082 A 
ATOM      4  C2  PXY d   1       1.842  -1.784   1.026  0.00  0.00     0.003 A 
ATOM      5  C3  PXY d   1       1.218  -1.757  -0.195  0.00  0.00     0.003 A 
ATOM      6  C4  PXY d   1       0.556  -0.634  -0.610  0.00  0.00    -0.082 A 
ATOM      7  C5  PXY d   1       0.556   0.466   0.172  0.00  0.00     0.003 A 
ATOM      8  C6  PXY d   1       1.229   0.432   1.390  0.00  0.00     0.003 A 
ENDROOT
TORSDOF 0
ENDMDL
