MODEL 1
REMARK minimizedAffinity -2.5129149
REMARK minimizedRMSD -1
REMARK  0 active torsions:
REMARK  status: ('A' for Active; 'I' for Inactive)
ROOT
ATOM      1  C4' PXY d   1      -0.326   0.435  -1.143  0.00  0.00     0.077 C 
ATOM      2  C1' PXY d   1       2.183  -1.857   3.533  0.00  0.00     0.077 C 
ATOM      3  C1  PXY d   1       1.536  -1.255   2.301  0.00  0.00    -0.082 A 
ATOM      4  C2  PXY d   1       0.388  -0.608   2.414  0.00  0.00     0.003 A 
ATOM      5  C3  PXY d   1      -0.226  -0.086   1.305  0.00  0.00     0.003 A 
ATOM      6  C4  PXY d   1       0.367  -0.181   0.075  0.00  0.00    -0.082 A 
ATOM      7  C5  PXY d   1       1.544  -0.830  -0.047  0.00  0.00     0.003 A 
ATOM      8  C6  PXY d   1       2.131  -1.389   1.084  0.00  0.00     0.003 A 
ENDROOT
TORSDOF 0
ENDMDL
