MODEL 1
REMARK minimizedAffinity -3.67765737
REMARK minimizedRMSD -1
REMARK  0 active torsions:
REMARK  status: ('A' for Active; 'I' for Inactive)
ROOT
ATOM      1  C4' PXY d   1       2.471  -1.845   0.161  0.00  0.00     0.077 C 
ATOM      2  C1' PXY d   1      -2.516   0.456   1.963  0.00  0.00     0.077 C 
ATOM      3  C1  PXY d   1      -1.213  -0.148   1.478  0.00  0.00    -0.082 A 
ATOM      4  C2  PXY d   1      -0.436  -0.797   2.330  0.00  0.00     0.003 A 
ATOM      5  C3  PXY d   1       0.761  -1.322   1.916  0.00  0.00     0.003 A 
ATOM      6  C4  PXY d   1       1.142  -1.227   0.604  0.00  0.00    -0.082 A 
ATOM      7  C5  PXY d   1       0.350  -0.576  -0.273  0.00  0.00     0.003 A 
ATOM      8  C6  PXY d   1      -0.842  -0.015   0.176  0.00  0.00     0.003 A 
ENDROOT
TORSDOF 0
ENDMDL
