MODEL 1
REMARK minimizedAffinity -4.0862999
REMARK minimizedRMSD -1
REMARK  0 active torsions:
REMARK  status: ('A' for Active; 'I' for Inactive)
ROOT
ATOM      1  C4' PXY d   1       4.254   0.623   0.537  0.00  0.00     0.077 C 
ATOM      2  C1' PXY d   1      -0.200  -2.418   2.619  0.00  0.00     0.077 C 
ATOM      3  C1  PXY d   1       0.972  -1.618   2.085  0.00  0.00    -0.082 A 
ATOM      4  C2  PXY d   1       0.885  -1.045   0.896  0.00  0.00     0.003 A 
ATOM      5  C3  PXY d   1       1.948  -0.345   0.384  0.00  0.00     0.003 A 
ATOM      6  C4  PXY d   1       3.091  -0.186   1.120  0.00  0.00    -0.082 A 
ATOM      7  C5  PXY d   1       3.184  -0.759   2.339  0.00  0.00     0.003 A 
ATOM      8  C6  PXY d   1       2.109  -1.500   2.823  0.00  0.00     0.003 A 
ENDROOT
TORSDOF 0
ENDMDL
