MODEL 1
REMARK minimizedAffinity 7.32614851
REMARK minimizedRMSD -1
REMARK  0 active torsions:
REMARK  status: ('A' for Active; 'I' for Inactive)
ROOT
ATOM      1  C   UNL d   1       1.514   1.967   1.130  0.00  0.00     0.124 A 
ATOM      2  C1  UNL d   1       1.690   1.152   0.019  0.00  0.00     0.062 A 
ATOM      3  C2  UNL d   1       2.969   0.766  -0.370  0.00  0.00     0.162 A 
ATOM      4  C3  UNL d   1       4.083   1.193   0.352  0.00  0.00    -0.034 A 
ATOM      5  C4  UNL d   1       3.899   2.013   1.467  0.00  0.00     0.162 A 
ATOM      6  C5  UNL d   1       2.618   2.396   1.852  0.00  0.00     0.062 A 
ATOM      7  F   UNL d   1       2.450   3.183   2.925  0.00  0.00    -0.097 F 
ATOM      8  F1  UNL d   1       4.948   2.441   2.184  0.00  0.00    -0.096 F 
ATOM      9  I   UNL d   1       5.998   0.618  -0.226  0.00  0.00    -0.060 I 
ATOM     10  F2  UNL d   1       3.109  -0.021  -1.447  0.00  0.00    -0.096 F 
ATOM     11  F3  UNL d   1       0.625   0.737  -0.681  0.00  0.00    -0.097 F 
ATOM     12  F4  UNL d   1       0.282   2.338   1.501  0.00  0.00    -0.092 F 
ENDROOT
TORSDOF 0
ENDMDL
