MODEL 1
REMARK minimizedAffinity 22.7410603
REMARK minimizedRMSD -1
REMARK  0 active torsions:
REMARK  status: ('A' for Active; 'I' for Inactive)
ROOT
ATOM      1  C   UNL d   1       1.087   0.278   3.429  0.00  0.00     0.124 A 
ATOM      2  C1  UNL d   1       1.904  -0.195   4.447  0.00  0.00     0.062 A 
ATOM      3  C2  UNL d   1       1.662  -1.441   5.017  0.00  0.00     0.162 A 
ATOM      4  C3  UNL d   1       0.599  -2.225   4.570  0.00  0.00    -0.034 A 
ATOM      5  C4  UNL d   1      -0.219  -1.743   3.547  0.00  0.00     0.162 A 
ATOM      6  C5  UNL d   1       0.026  -0.497   2.980  0.00  0.00     0.062 A 
ATOM      7  F   UNL d   1      -0.764  -0.042   1.997  0.00  0.00    -0.097 F 
ATOM      8  F1  UNL d   1      -1.251  -2.471   3.093  0.00  0.00    -0.096 F 
ATOM      9  I   UNL d   1       0.234  -4.090   5.420  0.00  0.00    -0.060 I 
ATOM     10  F2  UNL d   1       2.468  -1.873   5.999  0.00  0.00    -0.096 F 
ATOM     11  F3  UNL d   1       2.929   0.552   4.883  0.00  0.00    -0.097 F 
ATOM     12  F4  UNL d   1       1.321   1.478   2.883  0.00  0.00    -0.092 F 
ENDROOT
TORSDOF 0
ENDMDL
