MODEL 1
REMARK minimizedAffinity 16.498045
REMARK minimizedRMSD -1
REMARK  0 active torsions:
REMARK  status: ('A' for Active; 'I' for Inactive)
ROOT
ATOM      1  C   UNL d   1       4.604   1.080  -0.656  0.00  0.00     0.124 A 
ATOM      2  C1  UNL d   1       3.750   0.040  -0.317  0.00  0.00     0.062 A 
ATOM      3  C2  UNL d   1       3.465  -0.961  -1.241  0.00  0.00     0.162 A 
ATOM      4  C3  UNL d   1       4.035  -0.928  -2.514  0.00  0.00    -0.034 A 
ATOM      5  C4  UNL d   1       4.892   0.122  -2.848  0.00  0.00     0.162 A 
ATOM      6  C5  UNL d   1       5.174   1.120  -1.921  0.00  0.00     0.062 A 
ATOM      7  F   UNL d   1       6.000   2.125  -2.250  0.00  0.00    -0.097 F 
ATOM      8  F1  UNL d   1       5.458   0.185  -4.062  0.00  0.00    -0.096 F 
ATOM      9  I   UNL d   1       3.611  -2.423  -3.899  0.00  0.00    -0.060 I 
ATOM     10  F2  UNL d   1       2.636  -1.955  -0.887  0.00  0.00    -0.096 F 
ATOM     11  F3  UNL d   1       3.197  -0.001   0.903  0.00  0.00    -0.097 F 
ATOM     12  F4  UNL d   1       4.876   2.042   0.235  0.00  0.00    -0.092 F 
ENDROOT
TORSDOF 0
ENDMDL
