MODEL 1
REMARK minimizedAffinity 27.221283
REMARK minimizedRMSD -1
REMARK  0 active torsions:
REMARK  status: ('A' for Active; 'I' for Inactive)
ROOT
ATOM      1  C   UNL d   1      -5.057   0.162  -1.984  0.00  0.00     0.124 A 
ATOM      2  C1  UNL d   1      -4.985   0.160  -3.371  0.00  0.00     0.062 A 
ATOM      3  C2  UNL d   1      -5.146   1.345  -4.082  0.00  0.00     0.162 A 
ATOM      4  C3  UNL d   1      -5.380   2.544  -3.408  0.00  0.00    -0.034 A 
ATOM      5  C4  UNL d   1      -5.452   2.538  -2.014  0.00  0.00     0.162 A 
ATOM      6  C5  UNL d   1      -5.291   1.350  -1.307  0.00  0.00     0.062 A 
ATOM      7  F   UNL d   1      -5.361   1.354   0.032  0.00  0.00    -0.097 F 
ATOM      8  F1  UNL d   1      -5.676   3.672  -1.334  0.00  0.00    -0.096 F 
ATOM      9  I   UNL d   1      -5.621   4.319  -4.467  0.00  0.00    -0.060 I 
ATOM     10  F2  UNL d   1      -5.071   1.314  -5.421  0.00  0.00    -0.096 F 
ATOM     11  F3  UNL d   1      -4.760  -0.988  -4.027  0.00  0.00    -0.097 F 
ATOM     12  F4  UNL d   1      -4.903  -0.981  -1.303  0.00  0.00    -0.092 F 
ENDROOT
TORSDOF 0
ENDMDL
