MODEL 1
REMARK minimizedAffinity 22.1150627
REMARK minimizedRMSD -1
REMARK  0 active torsions:
REMARK  status: ('A' for Active; 'I' for Inactive)
ROOT
ATOM      1  C   UNL d   1       2.889  -3.124  -1.890  0.00  0.00     0.124 A 
ATOM      2  C1  UNL d   1       2.715  -2.628  -0.605  0.00  0.00     0.062 A 
ATOM      3  C2  UNL d   1       3.309  -1.425  -0.233  0.00  0.00     0.162 A 
ATOM      4  C3  UNL d   1       4.081  -0.709  -1.147  0.00  0.00    -0.034 A 
ATOM      5  C4  UNL d   1       4.252  -1.215  -2.437  0.00  0.00     0.162 A 
ATOM      6  C5  UNL d   1       3.657  -2.417  -2.804  0.00  0.00     0.062 A 
ATOM      7  F   UNL d   1       3.827  -2.895  -4.046  0.00  0.00    -0.097 F 
ATOM      8  F1  UNL d   1       4.989  -0.552  -3.341  0.00  0.00    -0.096 F 
ATOM      9  I   UNL d   1       4.970   1.090  -0.595  0.00  0.00    -0.060 I 
ATOM     10  F2  UNL d   1       3.123  -0.970   1.015  0.00  0.00    -0.096 F 
ATOM     11  F3  UNL d   1       1.974  -3.309   0.281  0.00  0.00    -0.097 F 
ATOM     12  F4  UNL d   1       2.318  -4.282  -2.245  0.00  0.00    -0.092 F 
ENDROOT
TORSDOF 0
ENDMDL
