MODEL 1
REMARK minimizedAffinity 22.1931267
REMARK minimizedRMSD -1
REMARK  0 active torsions:
REMARK  status: ('A' for Active; 'I' for Inactive)
ROOT
ATOM      1  C   UNL d   1       4.870  -1.507   0.267  0.00  0.00     0.124 A 
ATOM      2  C1  UNL d   1       3.699  -1.970   0.850  0.00  0.00     0.062 A 
ATOM      3  C2  UNL d   1       2.525  -1.229   0.748  0.00  0.00     0.162 A 
ATOM      4  C3  UNL d   1       2.517  -0.016   0.060  0.00  0.00    -0.034 A 
ATOM      5  C4  UNL d   1       3.699   0.444  -0.523  0.00  0.00     0.162 A 
ATOM      6  C5  UNL d   1       4.869  -0.300  -0.419  0.00  0.00     0.062 A 
ATOM      7  F   UNL d   1       6.000   0.149  -0.983  0.00  0.00    -0.097 F 
ATOM      8  F1  UNL d   1       3.726   1.606  -1.193  0.00  0.00    -0.096 F 
ATOM      9  I   UNL d   1       0.764   1.096  -0.094  0.00  0.00    -0.060 I 
ATOM     10  F2  UNL d   1       1.408  -1.701   1.322  0.00  0.00    -0.096 F 
ATOM     11  F3  UNL d   1       3.697  -3.135   1.514  0.00  0.00    -0.097 F 
ATOM     12  F4  UNL d   1       5.998  -2.222   0.367  0.00  0.00    -0.092 F 
ENDROOT
TORSDOF 0
ENDMDL
