MODEL 1
REMARK minimizedAffinity 21.5370255
REMARK minimizedRMSD -1
REMARK  0 active torsions:
REMARK  status: ('A' for Active; 'I' for Inactive)
ROOT
ATOM      1  C   UNL d   1       4.530   0.880  -1.515  0.00  0.00     0.124 A 
ATOM      2  C1  UNL d   1       3.787   0.651  -0.365  0.00  0.00     0.062 A 
ATOM      3  C2  UNL d   1       2.997  -0.489  -0.256  0.00  0.00     0.162 A 
ATOM      4  C3  UNL d   1       2.946  -1.412  -1.302  0.00  0.00    -0.034 A 
ATOM      5  C4  UNL d   1       3.694  -1.174  -2.456  0.00  0.00     0.162 A 
ATOM      6  C5  UNL d   1       4.483  -0.033  -2.559  0.00  0.00     0.062 A 
ATOM      7  F   UNL d   1       5.199   0.186  -3.671  0.00  0.00    -0.097 F 
ATOM      8  F1  UNL d   1       3.668  -2.040  -3.480  0.00  0.00    -0.096 F 
ATOM      9  I   UNL d   1       1.766  -3.119  -1.144  0.00  0.00    -0.060 I 
ATOM     10  F2  UNL d   1       2.291  -0.685   0.867  0.00  0.00    -0.096 F 
ATOM     11  F3  UNL d   1       3.831   1.532   0.645  0.00  0.00    -0.097 F 
ATOM     12  F4  UNL d   1       5.288   1.979  -1.617  0.00  0.00    -0.092 F 
ENDROOT
TORSDOF 0
ENDMDL
