MODEL 1
REMARK minimizedAffinity 14.1082182
REMARK minimizedRMSD -1
REMARK  0 active torsions:
REMARK  status: ('A' for Active; 'I' for Inactive)
ROOT
ATOM      1  C   UNL d   1      -0.348  -0.914  -1.356  0.00  0.00     0.124 A 
ATOM      2  C1  UNL d   1       0.383  -1.743  -0.516  0.00  0.00     0.062 A 
ATOM      3  C2  UNL d   1       0.952  -1.234   0.648  0.00  0.00     0.162 A 
ATOM      4  C3  UNL d   1       0.791   0.112   0.980  0.00  0.00    -0.034 A 
ATOM      5  C4  UNL d   1       0.055   0.939   0.130  0.00  0.00     0.162 A 
ATOM      6  C5  UNL d   1      -0.511   0.426  -1.032  0.00  0.00     0.062 A 
ATOM      7  F   UNL d   1      -1.217   1.228  -1.842  0.00  0.00    -0.097 F 
ATOM      8  F1  UNL d   1      -0.119   2.237   0.419  0.00  0.00    -0.096 F 
ATOM      9  I   UNL d   1       1.640   0.876   2.719  0.00  0.00    -0.060 I 
ATOM     10  F2  UNL d   1       1.654  -2.057   1.441  0.00  0.00    -0.096 F 
ATOM     11  F3  UNL d   1       0.544  -3.037  -0.827  0.00  0.00    -0.097 F 
ATOM     12  F4  UNL d   1      -0.893  -1.406  -2.475  0.00  0.00    -0.092 F 
ENDROOT
TORSDOF 0
ENDMDL
