MODEL 1
REMARK minimizedAffinity 23.8449459
REMARK minimizedRMSD -1
REMARK  0 active torsions:
REMARK  status: ('A' for Active; 'I' for Inactive)
ROOT
ATOM      1  C   UNL d   1       3.799  -0.652  -2.906  0.00  0.00     0.124 A 
ATOM      2  C1  UNL d   1       3.124  -1.860  -2.799  0.00  0.00     0.062 A 
ATOM      3  C2  UNL d   1       2.616  -2.271  -1.570  0.00  0.00     0.162 A 
ATOM      4  C3  UNL d   1       2.780  -1.473  -0.438  0.00  0.00    -0.034 A 
ATOM      5  C4  UNL d   1       3.461  -0.259  -0.554  0.00  0.00     0.162 A 
ATOM      6  C5  UNL d   1       3.967   0.147  -1.784  0.00  0.00     0.062 A 
ATOM      7  F   UNL d   1       4.619   1.314  -1.886  0.00  0.00    -0.097 F 
ATOM      8  F1  UNL d   1       3.637   0.533   0.514  0.00  0.00    -0.096 F 
ATOM      9  I   UNL d   1       2.022  -2.083   1.402  0.00  0.00    -0.060 I 
ATOM     10  F2  UNL d   1       1.968  -3.443  -1.495  0.00  0.00    -0.096 F 
ATOM     11  F3  UNL d   1       2.962  -2.634  -3.881  0.00  0.00    -0.097 F 
ATOM     12  F4  UNL d   1       4.288  -0.260  -4.090  0.00  0.00    -0.092 F 
ENDROOT
TORSDOF 0
ENDMDL
