MODEL 1
REMARK minimizedAffinity -3.0504024
REMARK minimizedRMSD -1
REMARK  0 active torsions:
REMARK  status: ('A' for Active; 'I' for Inactive)
ROOT
ATOM      1  O1  BZF d   1       0.687  -1.614   2.214  0.00  0.00    -0.204 OA
ATOM      2  C2  BZF d   1       1.544  -2.606   1.776  0.00  0.00     0.174 A 
ATOM      3  C3  BZF d   1       1.616  -2.615   0.430  0.00  0.00    -0.012 A 
ATOM      4  C3A BZF d   1       0.822  -1.504   0.002  0.00  0.00    -0.107 A 
ATOM      5  C4  BZF d   1       0.519  -0.983  -1.223  0.00  0.00     0.055 A 
ATOM      6  C5  BZF d   1      -0.344   0.064  -1.300  0.00  0.00    -0.016 A 
ATOM      7  C6  BZF d   1      -0.924   0.611  -0.175  0.00  0.00     0.022 A 
ATOM      8  C7  BZF d   1      -0.649   0.132   1.063  0.00  0.00     0.029 A 
ATOM      9  C7A BZF d   1       0.247  -0.905   1.147  0.00  0.00     0.058 A 
ENDROOT
TORSDOF 0
ENDMDL
