MODEL 1
REMARK minimizedAffinity -4.3969388
REMARK minimizedRMSD -1
REMARK  0 active torsions:
REMARK  status: ('A' for Active; 'I' for Inactive)
ROOT
ATOM      1  O1  BZF d   1      -0.607   0.340   0.419  0.00  0.00    -0.204 OA
ATOM      2  C2  BZF d   1       0.170   0.632  -0.685  0.00  0.00     0.174 A 
ATOM      3  C3  BZF d   1       1.314  -0.082  -0.667  0.00  0.00    -0.012 A 
ATOM      4  C3A BZF d   1       1.206  -0.938   0.475  0.00  0.00    -0.107 A 
ATOM      5  C4  BZF d   1       2.021  -1.892   1.013  0.00  0.00     0.055 A 
ATOM      6  C5  BZF d   1       1.655  -2.494   2.175  0.00  0.00    -0.016 A 
ATOM      7  C6  BZF d   1       0.486  -2.163   2.827  0.00  0.00     0.022 A 
ATOM      8  C7  BZF d   1      -0.357  -1.226   2.329  0.00  0.00     0.029 A 
ATOM      9  C7A BZF d   1      -0.006  -0.639   1.138  0.00  0.00     0.058 A 
ENDROOT
TORSDOF 0
ENDMDL
