MODEL 1
REMARK minimizedAffinity -0.929618001
REMARK minimizedRMSD -1
REMARK  0 active torsions:
REMARK  status: ('A' for Active; 'I' for Inactive)
ROOT
ATOM      1  O1  BZF d   1      -1.596  -0.619  -0.813  0.00  0.00    -0.204 OA
ATOM      2  C2  BZF d   1      -0.715  -0.029   0.072  0.00  0.00     0.174 A 
ATOM      3  C3  BZF d   1      -0.332   1.185  -0.373  0.00  0.00    -0.012 A 
ATOM      4  C3A BZF d   1      -1.088   1.405  -1.567  0.00  0.00    -0.107 A 
ATOM      5  C4  BZF d   1      -1.159   2.439  -2.456  0.00  0.00     0.055 A 
ATOM      6  C5  BZF d   1      -1.943   2.309  -3.559  0.00  0.00    -0.016 A 
ATOM      7  C6  BZF d   1      -2.663   1.158  -3.807  0.00  0.00     0.022 A 
ATOM      8  C7  BZF d   1      -2.627   0.108  -2.951  0.00  0.00     0.029 A 
ATOM      9  C7A BZF d   1      -1.862   0.249  -1.819  0.00  0.00     0.058 A 
ENDROOT
TORSDOF 0
ENDMDL
