MODEL 1
REMARK minimizedAffinity -5.32988024
REMARK minimizedRMSD -1
REMARK  0 active torsions:
REMARK  status: ('A' for Active; 'I' for Inactive)
ROOT
ATOM      1  O1  BZF d   1      -0.668   0.314   0.369  0.00  0.00    -0.204 OA
ATOM      2  C2  BZF d   1       0.082   0.618  -0.750  0.00  0.00     0.174 A 
ATOM      3  C3  BZF d   1       1.162  -0.185  -0.835  0.00  0.00    -0.012 A 
ATOM      4  C3A BZF d   1       1.032  -1.106   0.252  0.00  0.00    -0.107 A 
ATOM      5  C4  BZF d   1       1.788  -2.158   0.687  0.00  0.00     0.055 A 
ATOM      6  C5  BZF d   1       1.424  -2.807   1.824  0.00  0.00    -0.016 A 
ATOM      7  C6  BZF d   1       0.316  -2.428   2.553  0.00  0.00     0.022 A 
ATOM      8  C7  BZF d   1      -0.467  -1.394   2.159  0.00  0.00     0.029 A 
ATOM      9  C7A BZF d   1      -0.121  -0.757   0.992  0.00  0.00     0.058 A 
ENDROOT
TORSDOF 0
ENDMDL
