MODEL 1
REMARK minimizedAffinity -5.28318977
REMARK minimizedRMSD -1
REMARK  0 active torsions:
REMARK  status: ('A' for Active; 'I' for Inactive)
ROOT
ATOM      1  O1  BZF d   1      -0.488   0.272   0.788  0.00  0.00    -0.204 OA
ATOM      2  C2  BZF d   1       0.094   0.647  -0.407  0.00  0.00     0.174 A 
ATOM      3  C3  BZF d   1       1.083  -0.204  -0.746  0.00  0.00    -0.012 A 
ATOM      4  C3A BZF d   1       1.061  -1.225   0.257  0.00  0.00    -0.107 A 
ATOM      5  C4  BZF d   1       1.795  -2.359   0.460  0.00  0.00     0.055 A 
ATOM      6  C5  BZF d   1       1.570  -3.101   1.576  0.00  0.00    -0.016 A 
ATOM      7  C6  BZF d   1       0.623  -2.736   2.511  0.00  0.00     0.022 A 
ATOM      8  C7  BZF d   1      -0.133  -1.623   2.351  0.00  0.00     0.029 A 
ATOM      9  C7A BZF d   1       0.070  -0.889   1.208  0.00  0.00     0.058 A 
ENDROOT
TORSDOF 0
ENDMDL
