MODEL 1
REMARK minimizedAffinity 1.02466714
REMARK minimizedRMSD -1
REMARK  0 active torsions:
REMARK  status: ('A' for Active; 'I' for Inactive)
ROOT
ATOM      1  O1  BZF d   1      -2.034   3.027  -4.491  0.00  0.00    -0.204 OA
ATOM      2  C2  BZF d   1      -0.789   3.481  -4.098  0.00  0.00     0.174 A 
ATOM      3  C3  BZF d   1      -0.261   2.672  -3.157  0.00  0.00    -0.012 A 
ATOM      4  C3A BZF d   1      -1.195   1.597  -3.016  0.00  0.00    -0.107 A 
ATOM      5  C4  BZF d   1      -1.221   0.471  -2.244  0.00  0.00     0.055 A 
ATOM      6  C5  BZF d   1      -2.313  -0.336  -2.290  0.00  0.00    -0.016 A 
ATOM      7  C6  BZF d   1      -3.397  -0.046  -3.093  0.00  0.00     0.022 A 
ATOM      8  C7  BZF d   1      -3.415   1.057  -3.880  0.00  0.00     0.029 A 
ATOM      9  C7A BZF d   1      -2.299   1.858  -3.860  0.00  0.00     0.058 A 
ENDROOT
TORSDOF 0
ENDMDL
