MODEL 1
REMARK minimizedAffinity -2.72215676
REMARK minimizedRMSD -1
REMARK  0 active torsions:
REMARK  status: ('A' for Active; 'I' for Inactive)
ROOT
ATOM      1  O1  BZF d   1      -0.385   0.186   0.839  0.00  0.00    -0.204 OA
ATOM      2  C2  BZF d   1       0.387   1.033   0.066  0.00  0.00     0.174 A 
ATOM      3  C3  BZF d   1       1.615   0.512  -0.133  0.00  0.00    -0.012 A 
ATOM      4  C3A BZF d   1       1.580  -0.780   0.481  0.00  0.00    -0.107 A 
ATOM      5  C4  BZF d   1       2.495  -1.786   0.603  0.00  0.00     0.055 A 
ATOM      6  C5  BZF d   1       2.170  -2.890   1.326  0.00  0.00    -0.016 A 
ATOM      7  C6  BZF d   1       0.944  -3.019   1.943  0.00  0.00     0.022 A 
ATOM      8  C7  BZF d   1       0.001  -2.049   1.846  0.00  0.00     0.029 A 
ATOM      9  C7A BZF d   1       0.315  -0.947   1.089  0.00  0.00     0.058 A 
ENDROOT
TORSDOF 0
ENDMDL
