MODEL 1
REMARK minimizedAffinity -4.54653025
REMARK minimizedRMSD -1
REMARK  0 active torsions:
REMARK  status: ('A' for Active; 'I' for Inactive)
ROOT
ATOM      1  O1  BZF d   1       0.297  -2.135   1.404  0.00  0.00    -0.204 OA
ATOM      2  C2  BZF d   1       1.249  -2.168   0.403  0.00  0.00     0.174 A 
ATOM      3  C3  BZF d   1       1.247  -1.016  -0.297  0.00  0.00    -0.012 A 
ATOM      4  C3A BZF d   1       0.295  -0.176   0.362  0.00  0.00    -0.107 A 
ATOM      5  C4  BZF d   1      -0.141   1.100   0.146  0.00  0.00     0.055 A 
ATOM      6  C5  BZF d   1      -1.134   1.601   0.927  0.00  0.00    -0.016 A 
ATOM      7  C6  BZF d   1      -1.716   0.853   1.929  0.00  0.00     0.022 A 
ATOM      8  C7  BZF d   1      -1.314  -0.416   2.185  0.00  0.00     0.029 A 
ATOM      9  C7A BZF d   1      -0.289  -0.914   1.418  0.00  0.00     0.058 A 
ENDROOT
TORSDOF 0
ENDMDL
