MODEL 1
REMARK minimizedAffinity -5.14624834
REMARK minimizedRMSD -1
REMARK  0 active torsions:
REMARK  status: ('A' for Active; 'I' for Inactive)
ROOT
ATOM      1  O1  BZF d   1       0.497  -1.202  -1.674  0.00  0.00    -0.204 OA
ATOM      2  C2  BZF d   1       1.160  -1.124  -0.465  0.00  0.00     0.174 A 
ATOM      3  C3  BZF d   1       0.685  -0.101   0.276  0.00  0.00    -0.012 A 
ATOM      4  C3A BZF d   1      -0.402   0.439  -0.482  0.00  0.00    -0.107 A 
ATOM      5  C4  BZF d   1      -1.281   1.461  -0.265  0.00  0.00     0.055 A 
ATOM      6  C5  BZF d   1      -2.177   1.779  -1.236  0.00  0.00    -0.016 A 
ATOM      7  C6  BZF d   1      -2.218   1.101  -2.436  0.00  0.00     0.022 A 
ATOM      8  C7  BZF d   1      -1.369   0.076  -2.696  0.00  0.00     0.029 A 
ATOM      9  C7A BZF d   1      -0.485  -0.269  -1.703  0.00  0.00     0.058 A 
ENDROOT
TORSDOF 0
ENDMDL
