MODEL 1
REMARK minimizedAffinity -5.87954092
REMARK minimizedRMSD -1
REMARK  0 active torsions:
REMARK  status: ('A' for Active; 'I' for Inactive)
ROOT
ATOM      1  O1  BZF d   1      -0.734   0.200   0.287  0.00  0.00    -0.204 OA
ATOM      2  C2  BZF d   1       0.234   0.741  -0.537  0.00  0.00     0.174 A 
ATOM      3  C3  BZF d   1       1.371   0.018  -0.478  0.00  0.00    -0.012 A 
ATOM      4  C3A BZF d   1       1.066  -1.094   0.368  0.00  0.00    -0.107 A 
ATOM      5  C4  BZF d   1       1.786  -2.173   0.797  0.00  0.00     0.055 A 
ATOM      6  C5  BZF d   1       1.218  -3.038   1.678  0.00  0.00    -0.016 A 
ATOM      7  C6  BZF d   1      -0.063  -2.853   2.154  0.00  0.00     0.022 A 
ATOM      8  C7  BZF d   1      -0.818  -1.801   1.753  0.00  0.00     0.029 A 
ATOM      9  C7A BZF d   1      -0.259  -0.943   0.838  0.00  0.00     0.058 A 
ENDROOT
TORSDOF 0
ENDMDL
