MODEL 1
REMARK minimizedAffinity -0.526485443
REMARK minimizedRMSD -1
REMARK  0 active torsions:
REMARK  status: ('A' for Active; 'I' for Inactive)
ROOT
ATOM      1  O1  BZF d   1      -0.543   2.045  -1.702  0.00  0.00    -0.204 OA
ATOM      2  C2  BZF d   1      -1.918   2.154  -1.782  0.00  0.00     0.174 A 
ATOM      3  C3  BZF d   1      -2.517   1.150  -1.109  0.00  0.00    -0.012 A 
ATOM      4  C3A BZF d   1      -1.451   0.418  -0.497  0.00  0.00    -0.107 A 
ATOM      5  C4  BZF d   1      -1.411  -0.680   0.314  0.00  0.00     0.055 A 
ATOM      6  C5  BZF d   1      -0.204  -1.189   0.677  0.00  0.00    -0.016 A 
ATOM      7  C6  BZF d   1       0.980  -0.628   0.245  0.00  0.00     0.022 A 
ATOM      8  C7  BZF d   1       0.990   0.465  -0.556  0.00  0.00     0.029 A 
ATOM      9  C7A BZF d   1      -0.227   1.001  -0.898  0.00  0.00     0.058 A 
ENDROOT
TORSDOF 0
ENDMDL
