MODEL 1
REMARK minimizedAffinity -1.99265206
REMARK minimizedRMSD -1
REMARK  0 active torsions:
REMARK  status: ('A' for Active; 'I' for Inactive)
ROOT
ATOM      1  O1  BZF d   1      -1.701   0.665  -3.763  0.00  0.00    -0.204 OA
ATOM      2  C2  BZF d   1      -2.754   1.556  -3.684  0.00  0.00     0.174 A 
ATOM      3  C3  BZF d   1      -2.839   2.087  -2.447  0.00  0.00    -0.012 A 
ATOM      4  C3A BZF d   1      -1.717   1.560  -1.733  0.00  0.00    -0.107 A 
ATOM      5  C4  BZF d   1      -1.249   1.730  -0.461  0.00  0.00     0.055 A 
ATOM      6  C5  BZF d   1      -0.168   1.014  -0.054  0.00  0.00    -0.016 A 
ATOM      7  C6  BZF d   1       0.465   0.117  -0.889  0.00  0.00     0.022 A 
ATOM      8  C7  BZF d   1       0.041  -0.082  -2.160  0.00  0.00     0.029 A 
ATOM      9  C7A BZF d   1      -1.031   0.665  -2.586  0.00  0.00     0.058 A 
ENDROOT
TORSDOF 0
ENDMDL
