MODEL 1
REMARK minimizedAffinity -3.33022594
REMARK minimizedRMSD -1
REMARK  0 active torsions:
REMARK  status: ('A' for Active; 'I' for Inactive)
ROOT
ATOM      1  O1  BZF d   1      -1.937   2.398  -2.483  0.00  0.00    -0.204 OA
ATOM      2  C2  BZF d   1      -2.502   1.717  -3.544  0.00  0.00     0.174 A 
ATOM      3  C3  BZF d   1      -2.272   0.393  -3.440  0.00  0.00    -0.012 A 
ATOM      4  C3A BZF d   1      -1.595   0.225  -2.190  0.00  0.00    -0.107 A 
ATOM      5  C4  BZF d   1      -1.117  -0.864  -1.520  0.00  0.00     0.055 A 
ATOM      6  C5  BZF d   1      -0.441  -0.679  -0.356  0.00  0.00    -0.016 A 
ATOM      7  C6  BZF d   1      -0.221   0.580   0.163  0.00  0.00     0.022 A 
ATOM      8  C7  BZF d   1      -0.681   1.690  -0.463  0.00  0.00     0.029 A 
ATOM      9  C7A BZF d   1      -1.393   1.504  -1.622  0.00  0.00     0.058 A 
ENDROOT
TORSDOF 0
ENDMDL
