MODEL 1
REMARK minimizedAffinity 4.91193247
REMARK minimizedRMSD -1
REMARK  0 active torsions:
REMARK  status: ('A' for Active; 'I' for Inactive)
ROOT
ATOM      1  C2' OXE d   1       0.272   5.249  -4.500  0.00  0.00     0.078 C 
ATOM      2  C1' OXE d   1       2.645   5.265  -6.000  0.00  0.00     0.078 C 
ATOM      3  C1  OXE d   1       2.434   4.130  -5.029  0.00  0.00    -0.078 A 
ATOM      4  C2  OXE d   1       1.292   4.155  -4.266  0.00  0.00    -0.078 A 
ATOM      5  C3  OXE d   1       1.022   3.104  -3.395  0.00  0.00     0.003 A 
ATOM      6  C4  OXE d   1       1.974   2.101  -3.177  0.00  0.00    -0.002 A 
ATOM      7  C5  OXE d   1       3.162   2.078  -3.915  0.00  0.00    -0.002 A 
ATOM      8  C6  OXE d   1       3.388   3.060  -4.874  0.00  0.00     0.003 A 
ENDROOT
TORSDOF 0
ENDMDL
