MODEL 1
REMARK minimizedAffinity 10.0179272
REMARK minimizedRMSD -1
REMARK  0 active torsions:
REMARK  status: ('A' for Active; 'I' for Inactive)
ROOT
ATOM      1  C2' OXE d   1       2.037  -3.301  -3.030  0.00  0.00     0.078 C 
ATOM      2  C1' OXE d   1       2.527  -2.032  -0.574  0.00  0.00     0.078 C 
ATOM      3  C1  OXE d   1       1.409  -3.043  -0.633  0.00  0.00    -0.078 A 
ATOM      4  C2  OXE d   1       1.146  -3.625  -1.850  0.00  0.00    -0.078 A 
ATOM      5  C3  OXE d   1       0.161  -4.604  -1.947  0.00  0.00     0.003 A 
ATOM      6  C4  OXE d   1      -0.665  -4.890  -0.854  0.00  0.00    -0.002 A 
ATOM      7  C5  OXE d   1      -0.439  -4.280   0.385  0.00  0.00    -0.002 A 
ATOM      8  C6  OXE d   1       0.618  -3.388   0.523  0.00  0.00     0.003 A 
ENDROOT
TORSDOF 0
ENDMDL
