MODEL 1
REMARK minimizedAffinity 1.09256625
REMARK minimizedRMSD -1
REMARK  0 active torsions:
REMARK  status: ('A' for Active; 'I' for Inactive)
ROOT
ATOM      1  C2' OXE d   1      -3.756  -2.548  -1.874  0.00  0.00     0.078 C 
ATOM      2  C1' OXE d   1      -1.882  -4.508  -1.146  0.00  0.00     0.078 C 
ATOM      3  C1  OXE d   1      -3.319  -4.722  -0.738  0.00  0.00    -0.078 A 
ATOM      4  C2  OXE d   1      -4.220  -3.735  -1.058  0.00  0.00    -0.078 A 
ATOM      5  C3  OXE d   1      -5.568  -3.907  -0.753  0.00  0.00     0.003 A 
ATOM      6  C4  OXE d   1      -5.987  -5.003   0.010  0.00  0.00    -0.002 A 
ATOM      7  C5  OXE d   1      -5.078  -6.000   0.381  0.00  0.00    -0.002 A 
ATOM      8  C6  OXE d   1      -3.751  -5.896  -0.021  0.00  0.00     0.003 A 
ENDROOT
TORSDOF 0
ENDMDL
