MODEL 1
REMARK minimizedAffinity -0.255045414
REMARK minimizedRMSD -1
REMARK  0 active torsions:
REMARK  status: ('A' for Active; 'I' for Inactive)
ROOT
ATOM      1  C2' OXE d   1      -0.387   1.756   1.173  0.00  0.00     0.078 C 
ATOM      2  C1' OXE d   1       0.407  -0.680   2.320  0.00  0.00     0.078 C 
ATOM      3  C1  OXE d   1       1.225  -0.143   1.172  0.00  0.00    -0.078 A 
ATOM      4  C2  OXE d   1       0.802   1.025   0.586  0.00  0.00    -0.078 A 
ATOM      5  C3  OXE d   1       1.551   1.592  -0.441  0.00  0.00     0.003 A 
ATOM      6  C4  OXE d   1       2.644   0.906  -0.984  0.00  0.00    -0.002 A 
ATOM      7  C5  OXE d   1       3.068  -0.306  -0.428  0.00  0.00    -0.002 A 
ATOM      8  C6  OXE d   1       2.397  -0.822   0.676  0.00  0.00     0.003 A 
ENDROOT
TORSDOF 0
ENDMDL
