MODEL 1
REMARK minimizedAffinity -3.09079623
REMARK minimizedRMSD -1
REMARK  0 active torsions:
REMARK  status: ('A' for Active; 'I' for Inactive)
ROOT
ATOM      1  C2' OXE d   1      -2.609   2.385   2.279  0.00  0.00     0.078 C 
ATOM      2  C1' OXE d   1      -2.512  -0.415   2.440  0.00  0.00     0.078 C 
ATOM      3  C1  OXE d   1      -1.374   0.289   1.745  0.00  0.00    -0.078 A 
ATOM      4  C2  OXE d   1      -1.453   1.656   1.630  0.00  0.00    -0.078 A 
ATOM      5  C3  OXE d   1      -0.403   2.360   1.046  0.00  0.00     0.003 A 
ATOM      6  C4  OXE d   1       0.657   1.677   0.438  0.00  0.00    -0.002 A 
ATOM      7  C5  OXE d   1       0.737   0.282   0.509  0.00  0.00    -0.002 A 
ATOM      8  C6  OXE d   1      -0.247  -0.423   1.194  0.00  0.00     0.003 A 
ENDROOT
TORSDOF 0
ENDMDL
