MODEL 1
REMARK minimizedAffinity 2.43557739
REMARK minimizedRMSD -1
REMARK  0 active torsions:
REMARK  status: ('A' for Active; 'I' for Inactive)
ROOT
ATOM      1  C2' OXE d   1      -0.923   1.763   1.188  0.00  0.00     0.078 C 
ATOM      2  C1' OXE d   1      -0.274  -0.703   2.361  0.00  0.00     0.078 C 
ATOM      3  C1  OXE d   1       0.733  -0.083   1.424  0.00  0.00    -0.078 A 
ATOM      4  C2  OXE d   1       0.387   1.101   0.819  0.00  0.00    -0.078 A 
ATOM      5  C3  OXE d   1       1.301   1.743  -0.012  0.00  0.00     0.003 A 
ATOM      6  C4  OXE d   1       2.506   1.119  -0.356  0.00  0.00    -0.002 A 
ATOM      7  C5  OXE d   1       2.861  -0.106   0.219  0.00  0.00    -0.002 A 
ATOM      8  C6  OXE d   1       2.006  -0.699   1.142  0.00  0.00     0.003 A 
ENDROOT
TORSDOF 0
ENDMDL
