MODEL 1
REMARK minimizedAffinity 11.7085848
REMARK minimizedRMSD -1
REMARK  0 active torsions:
REMARK  status: ('A' for Active; 'I' for Inactive)
ROOT
ATOM      1  C2' OXE d   1       1.893   3.445  -3.850  0.00  0.00     0.078 C 
ATOM      2  C1' OXE d   1       4.553   4.009  -3.152  0.00  0.00     0.078 C 
ATOM      3  C1  OXE d   1       4.081   2.582  -3.029  0.00  0.00    -0.078 A 
ATOM      4  C2  OXE d   1       2.765   2.323  -3.328  0.00  0.00    -0.078 A 
ATOM      5  C3  OXE d   1       2.293   1.015  -3.284  0.00  0.00     0.003 A 
ATOM      6  C4  OXE d   1       3.103  -0.015  -2.791  0.00  0.00    -0.002 A 
ATOM      7  C5  OXE d   1       4.435   0.233  -2.443  0.00  0.00    -0.002 A 
ATOM      8  C6  OXE d   1       4.951   1.515  -2.597  0.00  0.00     0.003 A 
ENDROOT
TORSDOF 0
ENDMDL
