MODEL 1
REMARK minimizedAffinity -0.300283581
REMARK minimizedRMSD -1
REMARK  0 active torsions:
REMARK  status: ('A' for Active; 'I' for Inactive)
ROOT
ATOM      1  C2' OXE d   1      -1.415   2.360   1.787  0.00  0.00     0.078 C 
ATOM      2  C1' OXE d   1      -1.091  -0.408   2.125  0.00  0.00     0.078 C 
ATOM      3  C1  OXE d   1       0.069   0.372   1.559  0.00  0.00    -0.078 A 
ATOM      4  C2  OXE d   1      -0.115   1.718   1.353  0.00  0.00    -0.078 A 
ATOM      5  C3  OXE d   1       0.941   2.494   0.883  0.00  0.00     0.003 A 
ATOM      6  C4  OXE d   1       2.137   1.891   0.475  0.00  0.00    -0.002 A 
ATOM      7  C5  OXE d   1       2.331   0.516   0.639  0.00  0.00    -0.002 A 
ATOM      8  C6  OXE d   1       1.325  -0.250   1.217  0.00  0.00     0.003 A 
ENDROOT
TORSDOF 0
ENDMDL
