MODEL 1
REMARK minimizedAffinity 4.75051022
REMARK minimizedRMSD -1
REMARK  0 active torsions:
REMARK  status: ('A' for Active; 'I' for Inactive)
ROOT
ATOM      1  C2' OXE d   1      -1.494  -1.201   1.583  0.00  0.00     0.078 C 
ATOM      2  C1' OXE d   1       0.870   0.150   0.898  0.00  0.00     0.078 C 
ATOM      3  C1  OXE d   1      -0.252   0.957   1.502  0.00  0.00    -0.078 A 
ATOM      4  C2  OXE d   1      -1.422   0.296   1.791  0.00  0.00    -0.078 A 
ATOM      5  C3  OXE d   1      -2.469   0.982   2.400  0.00  0.00     0.003 A 
ATOM      6  C4  OXE d   1      -2.398   2.369   2.580  0.00  0.00    -0.002 A 
ATOM      7  C5  OXE d   1      -1.231   3.068   2.256  0.00  0.00    -0.002 A 
ATOM      8  C6  OXE d   1      -0.136   2.371   1.757  0.00  0.00     0.003 A 
ENDROOT
TORSDOF 0
ENDMDL
