MODEL 1
REMARK minimizedAffinity -1.20581996
REMARK minimizedRMSD -1
REMARK  0 active torsions:
REMARK  status: ('A' for Active; 'I' for Inactive)
ROOT
ATOM      1  C2' OXE d   1       1.473  -0.704   0.414  0.00  0.00     0.078 C 
ATOM      2  C1' OXE d   1      -1.010  -1.667   1.300  0.00  0.00     0.078 C 
ATOM      3  C1  OXE d   1      -0.789  -0.175   1.313  0.00  0.00    -0.078 A 
ATOM      4  C2  OXE d   1       0.446   0.284   0.922  0.00  0.00    -0.078 A 
ATOM      5  C3  OXE d   1       0.685   1.654   0.864  0.00  0.00     0.003 A 
ATOM      6  C4  OXE d   1      -0.267   2.561   1.345  0.00  0.00    -0.002 A 
ATOM      7  C5  OXE d   1      -1.517   2.112   1.785  0.00  0.00    -0.002 A 
ATOM      8  C6  OXE d   1      -1.809   0.753   1.735  0.00  0.00     0.003 A 
ENDROOT
TORSDOF 0
ENDMDL
