MODEL 1
REMARK minimizedAffinity 2.24849176
REMARK minimizedRMSD -1
REMARK  0 active torsions:
REMARK  status: ('A' for Active; 'I' for Inactive)
ROOT
ATOM      1  C2' OXE d   1       0.135   1.818   1.146  0.00  0.00     0.078 C 
ATOM      2  C1' OXE d   1       1.376  -0.377   2.379  0.00  0.00     0.078 C 
ATOM      3  C1  OXE d   1       1.877   0.042   1.019  0.00  0.00    -0.078 A 
ATOM      4  C2  OXE d   1       1.233   1.088   0.403  0.00  0.00    -0.078 A 
ATOM      5  C3  OXE d   1       1.691   1.551  -0.827  0.00  0.00     0.003 A 
ATOM      6  C4  OXE d   1       2.701   0.864  -1.512  0.00  0.00    -0.002 A 
ATOM      7  C5  OXE d   1       3.343  -0.229  -0.919  0.00  0.00    -0.002 A 
ATOM      8  C6  OXE d   1       2.973  -0.625   0.361  0.00  0.00     0.003 A 
ENDROOT
TORSDOF 0
ENDMDL
