MODEL 1
REMARK minimizedAffinity 0.0110611543
REMARK minimizedRMSD -1
REMARK  0 active torsions:
REMARK  status: ('A' for Active; 'I' for Inactive)
ROOT
ATOM      1  C2' OXE d   1       0.646   1.567   0.123  0.00  0.00     0.078 C 
ATOM      2  C1' OXE d   1      -0.104  -0.728   1.555  0.00  0.00     0.078 C 
ATOM      3  C1  OXE d   1      -1.053   0.444   1.558  0.00  0.00    -0.078 A 
ATOM      4  C2  OXE d   1      -0.656   1.580   0.894  0.00  0.00    -0.078 A 
ATOM      5  C3  OXE d   1      -1.517   2.671   0.820  0.00  0.00     0.003 A 
ATOM      6  C4  OXE d   1      -2.716   2.679   1.544  0.00  0.00    -0.002 A 
ATOM      7  C5  OXE d   1      -3.120   1.547   2.260  0.00  0.00    -0.002 A 
ATOM      8  C6  OXE d   1      -2.322   0.409   2.242  0.00  0.00     0.003 A 
ENDROOT
TORSDOF 0
ENDMDL
