MODEL 1
REMARK minimizedAffinity -0.293319672
REMARK minimizedRMSD -1
REMARK  0 active torsions:
REMARK  status: ('A' for Active; 'I' for Inactive)
ROOT
ATOM      1  C2' OXE d   1      -3.374   2.248   2.998  0.00  0.00     0.078 C 
ATOM      2  C1' OXE d   1      -3.252  -0.555   2.895  0.00  0.00     0.078 C 
ATOM      3  C1  OXE d   1      -2.125   0.222   2.262  0.00  0.00    -0.078 A 
ATOM      4  C2  OXE d   1      -2.216   1.593   2.276  0.00  0.00    -0.078 A 
ATOM      5  C3  OXE d   1      -1.177   2.359   1.754  0.00  0.00     0.003 A 
ATOM      6  C4  OXE d   1      -0.115   1.746   1.079  0.00  0.00    -0.002 A 
ATOM      7  C5  OXE d   1      -0.022   0.351   1.019  0.00  0.00    -0.002 A 
ATOM      8  C6  OXE d   1      -0.995  -0.424   1.641  0.00  0.00     0.003 A 
ENDROOT
TORSDOF 0
ENDMDL
