MODEL 1
REMARK minimizedAffinity 6.76941824
REMARK minimizedRMSD -1
REMARK  0 active torsions:
REMARK  status: ('A' for Active; 'I' for Inactive)
ROOT
ATOM      1  C2' OXE d   1      -1.337   2.643   1.319  0.00  0.00     0.078 C 
ATOM      2  C1' OXE d   1       1.243   2.222   0.295  0.00  0.00     0.078 C 
ATOM      3  C1  OXE d   1       0.588   1.086   1.039  0.00  0.00    -0.078 A 
ATOM      4  C2  OXE d   1      -0.656   1.316   1.577  0.00  0.00    -0.078 A 
ATOM      5  C3  OXE d   1      -1.328   0.284   2.226  0.00  0.00     0.003 A 
ATOM      6  C4  OXE d   1      -0.687  -0.937   2.469  0.00  0.00    -0.002 A 
ATOM      7  C5  OXE d   1       0.595  -1.178   1.964  0.00  0.00    -0.002 A 
ATOM      8  C6  OXE d   1       1.228  -0.195   1.212  0.00  0.00     0.003 A 
ENDROOT
TORSDOF 0
ENDMDL
