MODEL 1
REMARK minimizedAffinity 0.63773638
REMARK minimizedRMSD -1
REMARK  0 active torsions:
REMARK  status: ('A' for Active; 'I' for Inactive)
ROOT
ATOM      1  C2' OXE d   1      -1.572   2.591   1.271  0.00  0.00     0.078 C 
ATOM      2  C1' OXE d   1       1.140   2.446   0.563  0.00  0.00     0.078 C 
ATOM      3  C1  OXE d   1       0.433   1.158   0.907  0.00  0.00    -0.078 A 
ATOM      4  C2  OXE d   1      -0.882   1.244   1.297  0.00  0.00    -0.078 A 
ATOM      5  C3  OXE d   1      -1.596   0.082   1.572  0.00  0.00     0.003 A 
ATOM      6  C4  OXE d   1      -0.947  -1.159   1.603  0.00  0.00    -0.002 A 
ATOM      7  C5  OXE d   1       0.401  -1.263   1.247  0.00  0.00    -0.002 A 
ATOM      8  C6  OXE d   1       1.094  -0.123   0.856  0.00  0.00     0.003 A 
ENDROOT
TORSDOF 0
ENDMDL
