MODEL 1
REMARK minimizedAffinity 1.35453153
REMARK minimizedRMSD -1
REMARK  0 active torsions:
REMARK  status: ('A' for Active; 'I' for Inactive)
ROOT
ATOM      1  C2' OXE d   1      -3.100   1.610   2.432  0.00  0.00     0.078 C 
ATOM      2  C1' OXE d   1      -2.776  -1.177   2.527  0.00  0.00     0.078 C 
ATOM      3  C1  OXE d   1      -1.641  -0.356   1.969  0.00  0.00    -0.078 A 
ATOM      4  C2  OXE d   1      -1.826   1.003   1.883  0.00  0.00    -0.078 A 
ATOM      5  C3  OXE d   1      -0.790   1.813   1.427  0.00  0.00     0.003 A 
ATOM      6  C4  OXE d   1       0.380   1.243   0.911  0.00  0.00    -0.002 A 
ATOM      7  C5  OXE d   1       0.574  -0.142   0.953  0.00  0.00    -0.002 A 
ATOM      8  C6  OXE d   1      -0.408  -0.950   1.516  0.00  0.00     0.003 A 
ENDROOT
TORSDOF 0
ENDMDL
