MODEL 1
REMARK minimizedAffinity 7.76211977
REMARK minimizedRMSD -1
REMARK  0 active torsions:
REMARK  status: ('A' for Active; 'I' for Inactive)
ROOT
ATOM      1  C2' OXE d   1      -5.961   5.540   5.928  0.00  0.00     0.078 C 
ATOM      2  C1' OXE d   1      -5.714   5.502   3.132  0.00  0.00     0.078 C 
ATOM      3  C1  OXE d   1      -5.391   4.235   3.884  0.00  0.00    -0.078 A 
ATOM      4  C2  OXE d   1      -5.470   4.277   5.255  0.00  0.00    -0.078 A 
ATOM      5  C3  OXE d   1      -5.235   3.121   5.994  0.00  0.00     0.003 A 
ATOM      6  C4  OXE d   1      -4.772   1.959   5.365  0.00  0.00    -0.002 A 
ATOM      7  C5  OXE d   1      -4.647   1.907   3.973  0.00  0.00    -0.002 A 
ATOM      8  C6  OXE d   1      -4.993   3.021   3.216  0.00  0.00     0.003 A 
ENDROOT
TORSDOF 0
ENDMDL
