MODEL 1
REMARK minimizedAffinity 8.86237335
REMARK minimizedRMSD -1
REMARK  0 active torsions:
REMARK  status: ('A' for Active; 'I' for Inactive)
ROOT
ATOM      1  C2' OXE d   1       1.497   0.000   3.888  0.00  0.00     0.078 C 
ATOM      2  C1' OXE d   1       3.036  -0.382   1.572  0.00  0.00     0.078 C 
ATOM      3  C1  OXE d   1       1.753   0.400   1.442  0.00  0.00    -0.078 A 
ATOM      4  C2  OXE d   1       0.983   0.542   2.571  0.00  0.00    -0.078 A 
ATOM      5  C3  OXE d   1      -0.183   1.301   2.520  0.00  0.00     0.003 A 
ATOM      6  C4  OXE d   1      -0.656   1.791   1.296  0.00  0.00    -0.002 A 
ATOM      7  C5  OXE d   1       0.093   1.623   0.127  0.00  0.00    -0.002 A 
ATOM      8  C6  OXE d   1       1.318   0.969   0.190  0.00  0.00     0.003 A 
ENDROOT
TORSDOF 0
ENDMDL
