MODEL 1
REMARK minimizedAffinity 5.7682538
REMARK minimizedRMSD -1
REMARK  0 active torsions:
REMARK  status: ('A' for Active; 'I' for Inactive)
ROOT
ATOM      1  C   UNL d   1       4.001  -1.085   1.837  0.00  0.00    -0.002 A 
ATOM      2  C1  UNL d   1       5.308  -0.918   2.274  0.00  0.00     0.010 A 
ATOM      3  C2  UNL d   1       6.000   0.265   2.008  0.00  0.00     0.041 A 
ATOM      4  C3  UNL d   1       5.350   1.289   1.291  0.00  0.00    -0.075 A 
ATOM      5  S   UNL d   1       6.000   2.824   0.850  0.00  0.00     0.015 SA
ATOM      6  C4  UNL d   1       4.558   3.295   0.073  0.00  0.00     0.022 A 
ATOM      7  C5  UNL d   1       3.594   2.317   0.138  0.00  0.00     0.026 A 
ATOM      8  C6  UNL d   1       4.034   1.145   0.841  0.00  0.00    -0.082 A 
ATOM      9  C7  UNL d   1       3.360  -0.067   1.126  0.00  0.00     0.045 A 
ENDROOT
TORSDOF 0
ENDMDL
