MODEL 1
REMARK minimizedAffinity -0.0704052821
REMARK minimizedRMSD -1
REMARK  0 active torsions:
REMARK  status: ('A' for Active; 'I' for Inactive)
ROOT
ATOM      1  C   UNL d   1      -1.860   1.125   2.242  0.00  0.00    -0.002 A 
ATOM      2  C1  UNL d   1      -1.371   2.049   3.155  0.00  0.00     0.010 A 
ATOM      3  C2  UNL d   1      -2.218   2.630   4.101  0.00  0.00     0.041 A 
ATOM      4  C3  UNL d   1      -3.577   2.261   4.116  0.00  0.00    -0.075 A 
ATOM      5  S   UNL d   1      -4.800   2.842   5.184  0.00  0.00     0.015 SA
ATOM      6  C4  UNL d   1      -6.000   1.876   4.455  0.00  0.00     0.022 A 
ATOM      7  C5  UNL d   1      -5.498   1.123   3.420  0.00  0.00     0.026 A 
ATOM      8  C6  UNL d   1      -4.093   1.332   3.208  0.00  0.00    -0.082 A 
ATOM      9  C7  UNL d   1      -3.209   0.762   2.260  0.00  0.00     0.045 A 
ENDROOT
TORSDOF 0
ENDMDL
