MODEL 1
REMARK minimizedAffinity 6.54334307
REMARK minimizedRMSD -1
REMARK  0 active torsions:
REMARK  status: ('A' for Active; 'I' for Inactive)
ROOT
ATOM      1  C   UNL d   1      -1.369  -4.952  -0.029  0.00  0.00    -0.002 A 
ATOM      2  C1  UNL d   1      -2.156  -4.951  -1.172  0.00  0.00     0.010 A 
ATOM      3  C2  UNL d   1      -1.588  -4.710  -2.425  0.00  0.00     0.041 A 
ATOM      4  C3  UNL d   1      -0.203  -4.470  -2.510  0.00  0.00    -0.075 A 
ATOM      5  S   UNL d   1       0.711  -4.151  -3.937  0.00  0.00     0.015 SA
ATOM      6  C4  UNL d   1       2.167  -4.010  -3.063  0.00  0.00     0.022 A 
ATOM      7  C5  UNL d   1       1.979  -4.198  -1.714  0.00  0.00     0.026 A 
ATOM      8  C6  UNL d   1       0.610  -4.467  -1.373  0.00  0.00    -0.082 A 
ATOM      9  C7  UNL d   1       0.005  -4.713  -0.118  0.00  0.00     0.045 A 
ENDROOT
TORSDOF 0
ENDMDL
