MODEL 1
REMARK minimizedAffinity 8.0683012
REMARK minimizedRMSD -1
REMARK  0 active torsions:
REMARK  status: ('A' for Active; 'I' for Inactive)
ROOT
ATOM      1  C   UNL d   1      -2.604  -0.041   3.001  0.00  0.00    -0.002 A 
ATOM      2  C1  UNL d   1      -1.992   1.205   2.991  0.00  0.00     0.010 A 
ATOM      3  C2  UNL d   1      -2.510   2.257   3.748  0.00  0.00     0.041 A 
ATOM      4  C3  UNL d   1      -3.664   2.035   4.524  0.00  0.00    -0.075 A 
ATOM      5  S   UNL d   1      -4.476   3.175   5.531  0.00  0.00     0.015 SA
ATOM      6  C4  UNL d   1      -5.654   2.036   5.999  0.00  0.00     0.022 A 
ATOM      7  C5  UNL d   1      -5.449   0.811   5.411  0.00  0.00     0.026 A 
ATOM      8  C6  UNL d   1      -4.298   0.789   4.552  0.00  0.00    -0.082 A 
ATOM      9  C7  UNL d   1      -3.749  -0.257   3.773  0.00  0.00     0.045 A 
ENDROOT
TORSDOF 0
ENDMDL
