MODEL 1
REMARK minimizedAffinity 8.89055347
REMARK minimizedRMSD -1
REMARK  0 active torsions:
REMARK  status: ('A' for Active; 'I' for Inactive)
ROOT
ATOM      1  C   UNL d   1      -1.480  -4.639   0.063  0.00  0.00    -0.002 A 
ATOM      2  C1  UNL d   1      -2.182  -4.827  -1.119  0.00  0.00     0.010 A 
ATOM      3  C2  UNL d   1      -1.570  -4.592  -2.352  0.00  0.00     0.041 A 
ATOM      4  C3  UNL d   1      -0.229  -4.162  -2.377  0.00  0.00    -0.075 A 
ATOM      5  S   UNL d   1       0.725  -3.813  -3.770  0.00  0.00     0.015 SA
ATOM      6  C4  UNL d   1       2.086  -3.408  -2.828  0.00  0.00     0.022 A 
ATOM      7  C5  UNL d   1       1.837  -3.530  -1.482  0.00  0.00     0.026 A 
ATOM      8  C6  UNL d   1       0.498  -3.967  -1.200  0.00  0.00    -0.082 A 
ATOM      9  C7  UNL d   1      -0.150  -4.213   0.035  0.00  0.00     0.045 A 
ENDROOT
TORSDOF 0
ENDMDL
