MODEL 1
REMARK minimizedAffinity 11.0519342
REMARK minimizedRMSD -1
REMARK  0 active torsions:
REMARK  status: ('A' for Active; 'I' for Inactive)
ROOT
ATOM      1  C   UNL d   1      -3.033   0.294   2.640  0.00  0.00    -0.002 A 
ATOM      2  C1  UNL d   1      -2.343   1.497   2.623  0.00  0.00     0.010 A 
ATOM      3  C2  UNL d   1      -2.717   2.543   3.469  0.00  0.00     0.041 A 
ATOM      4  C3  UNL d   1      -3.807   2.357   4.342  0.00  0.00    -0.075 A 
ATOM      5  S   UNL d   1      -4.443   3.497   5.468  0.00  0.00     0.015 SA
ATOM      6  C4  UNL d   1      -5.646   2.412   5.999  0.00  0.00     0.022 A 
ATOM      7  C5  UNL d   1      -5.578   1.206   5.344  0.00  0.00     0.026 A 
ATOM      8  C6  UNL d   1      -4.517   1.153   4.379  0.00  0.00    -0.082 A 
ATOM      9  C7  UNL d   1      -4.113   0.112   3.508  0.00  0.00     0.045 A 
ENDROOT
TORSDOF 0
ENDMDL
