MODEL 1
REMARK minimizedAffinity 13.5263739
REMARK minimizedRMSD -1
REMARK  0 active torsions:
REMARK  status: ('A' for Active; 'I' for Inactive)
ROOT
ATOM      1  C   UNL d   1      -3.059   0.748   2.661  0.00  0.00    -0.002 A 
ATOM      2  C1  UNL d   1      -2.035   1.378   3.355  0.00  0.00     0.010 A 
ATOM      3  C2  UNL d   1      -2.322   2.253   4.404  0.00  0.00     0.041 A 
ATOM      4  C3  UNL d   1      -3.668   2.486   4.749  0.00  0.00    -0.075 A 
ATOM      5  S   UNL d   1      -4.257   3.516   6.000  0.00  0.00     0.015 SA
ATOM      6  C4  UNL d   1      -5.881   3.144   5.643  0.00  0.00     0.022 A 
ATOM      7  C5  UNL d   1      -5.990   2.257   4.599  0.00  0.00     0.026 A 
ATOM      8  C6  UNL d   1      -4.716   1.863   4.066  0.00  0.00    -0.082 A 
ATOM      9  C7  UNL d   1      -4.393   0.981   3.007  0.00  0.00     0.045 A 
ENDROOT
TORSDOF 0
ENDMDL
