MODEL 1
REMARK minimizedAffinity 6.6479907
REMARK minimizedRMSD -1
REMARK  0 active torsions:
REMARK  status: ('A' for Active; 'I' for Inactive)
ROOT
ATOM      1  C   UNL d   1      -1.621   1.042   2.172  0.00  0.00    -0.002 A 
ATOM      2  C1  UNL d   1      -0.860   1.938   2.910  0.00  0.00     0.010 A 
ATOM      3  C2  UNL d   1      -1.417   2.616   3.996  0.00  0.00     0.041 A 
ATOM      4  C3  UNL d   1      -2.764   2.374   4.333  0.00  0.00    -0.075 A 
ATOM      5  S   UNL d   1      -3.657   3.088   5.623  0.00  0.00     0.015 SA
ATOM      6  C4  UNL d   1      -5.069   2.219   5.225  0.00  0.00     0.022 A 
ATOM      7  C5  UNL d   1      -4.881   1.400   4.137  0.00  0.00     0.026 A 
ATOM      8  C6  UNL d   1      -3.549   1.475   3.605  0.00  0.00    -0.082 A 
ATOM      9  C7  UNL d   1      -2.956   0.804   2.509  0.00  0.00     0.045 A 
ENDROOT
TORSDOF 0
ENDMDL
