MODEL 1
REMARK minimizedAffinity 8.08216858
REMARK minimizedRMSD -1
REMARK  0 active torsions:
REMARK  status: ('A' for Active; 'I' for Inactive)
ROOT
ATOM      1  C   UNL d   1      -3.042   0.314   2.918  0.00  0.00    -0.002 A 
ATOM      2  C1  UNL d   1      -2.458   1.570   2.829  0.00  0.00     0.010 A 
ATOM      3  C2  UNL d   1      -2.965   2.642   3.566  0.00  0.00     0.041 A 
ATOM      4  C3  UNL d   1      -4.078   2.429   4.402  0.00  0.00    -0.075 A 
ATOM      5  S   UNL d   1      -4.869   3.593   5.397  0.00  0.00     0.015 SA
ATOM      6  C4  UNL d   1      -6.000   2.451   5.965  0.00  0.00     0.022 A 
ATOM      7  C5  UNL d   1      -5.794   1.206   5.418  0.00  0.00     0.026 A 
ATOM      8  C6  UNL d   1      -4.683   1.173   4.509  0.00  0.00    -0.082 A 
ATOM      9  C7  UNL d   1      -4.146   0.106   3.749  0.00  0.00     0.045 A 
ENDROOT
TORSDOF 0
ENDMDL
