MODEL 1
REMARK minimizedAffinity 14.3621778
REMARK minimizedRMSD -1
REMARK  0 active torsions:
REMARK  status: ('A' for Active; 'I' for Inactive)
ROOT
ATOM      1  C   UNL d   1       3.313   1.334  -3.748  0.00  0.00    -0.002 A 
ATOM      2  C1  UNL d   1       2.254   1.932  -3.080  0.00  0.00     0.010 A 
ATOM      3  C2  UNL d   1       1.882   3.246  -3.371  0.00  0.00     0.041 A 
ATOM      4  C3  UNL d   1       2.599   3.956  -4.355  0.00  0.00    -0.075 A 
ATOM      5  S   UNL d   1       2.322   5.575  -4.878  0.00  0.00     0.015 SA
ATOM      6  C4  UNL d   1       3.603   5.511  -6.000  0.00  0.00     0.022 A 
ATOM      7  C5  UNL d   1       4.237   4.291  -5.989  0.00  0.00     0.026 A 
ATOM      8  C6  UNL d   1       3.669   3.375  -5.041  0.00  0.00    -0.082 A 
ATOM      9  C7  UNL d   1       4.022   2.041  -4.723  0.00  0.00     0.045 A 
ENDROOT
TORSDOF 0
ENDMDL
