MODEL 1
REMARK minimizedAffinity 19.6659431
REMARK minimizedRMSD -1
REMARK  0 active torsions:
REMARK  status: ('A' for Active; 'I' for Inactive)
ROOT
ATOM      1  C   UNL d   1      -4.002  -0.544  -0.995  0.00  0.00    -0.002 A 
ATOM      2  C1  UNL d   1      -3.459  -0.727  -2.259  0.00  0.00     0.010 A 
ATOM      3  C2  UNL d   1      -2.771  -1.901  -2.573  0.00  0.00     0.041 A 
ATOM      4  C3  UNL d   1      -2.638  -2.898  -1.587  0.00  0.00    -0.075 A 
ATOM      5  S   UNL d   1      -1.839  -4.417  -1.745  0.00  0.00     0.015 SA
ATOM      6  C4  UNL d   1      -2.200  -4.859  -0.140  0.00  0.00     0.022 A 
ATOM      7  C5  UNL d   1      -2.913  -3.883   0.516  0.00  0.00     0.026 A 
ATOM      8  C6  UNL d   1      -3.178  -2.737  -0.307  0.00  0.00    -0.082 A 
ATOM      9  C7  UNL d   1      -3.869  -1.536  -0.020  0.00  0.00     0.045 A 
ENDROOT
TORSDOF 0
ENDMDL
