MODEL 1
REMARK minimizedAffinity 15.4872599
REMARK minimizedRMSD -1
REMARK  0 active torsions:
REMARK  status: ('A' for Active; 'I' for Inactive)
ROOT
ATOM      1  C   UNL d   1      -2.282   1.979   2.612  0.00  0.00    -0.002 A 
ATOM      2  C1  UNL d   1      -2.685   0.662   2.789  0.00  0.00     0.010 A 
ATOM      3  C2  UNL d   1      -3.669   0.340   3.725  0.00  0.00     0.041 A 
ATOM      4  C3  UNL d   1      -4.249   1.374   4.487  0.00  0.00    -0.075 A 
ATOM      5  S   UNL d   1      -5.472   1.216   5.692  0.00  0.00     0.015 SA
ATOM      6  C4  UNL d   1      -5.490   2.892   6.000  0.00  0.00     0.022 A 
ATOM      7  C5  UNL d   1      -4.590   3.571   5.212  0.00  0.00     0.026 A 
ATOM      8  C6  UNL d   1      -3.860   2.707   4.327  0.00  0.00    -0.082 A 
ATOM      9  C7  UNL d   1      -2.859   3.001   3.370  0.00  0.00     0.045 A 
ENDROOT
TORSDOF 0
ENDMDL
