MODEL 1
REMARK minimizedAffinity -3.37665915
REMARK minimizedRMSD -1
REMARK  0 active torsions:
REMARK  status: ('A' for Active; 'I' for Inactive)
ROOT
ATOM      1  C1  BNZ d   1      -0.284  -0.391   0.327  0.00  0.00     0.000 A 
ATOM      2  C2  BNZ d   1      -1.448  -1.045   0.631  0.00  0.00     0.000 A 
ATOM      3  C3  BNZ d   1      -2.529  -0.976  -0.203  0.00  0.00     0.000 A 
ATOM      4  C4  BNZ d   1      -2.458  -0.222  -1.319  0.00  0.00     0.000 A 
ATOM      5  C5  BNZ d   1      -1.294   0.451  -1.635  0.00  0.00     0.000 A 
ATOM      6  C6  BNZ d   1      -0.196   0.348  -0.813  0.00  0.00     0.000 A 
ENDROOT
TORSDOF 0
ENDMDL
