MODEL 1
REMARK minimizedAffinity -2.78958511
REMARK minimizedRMSD -1
REMARK  0 active torsions:
REMARK  status: ('A' for Active; 'I' for Inactive)
ROOT
ATOM      1  C1  BNZ d   1      -0.495   0.100  -0.204  0.00  0.00     0.000 A 
ATOM      2  C2  BNZ d   1      -1.253  -0.495   0.769  0.00  0.00     0.000 A 
ATOM      3  C3  BNZ d   1      -2.373  -1.208   0.445  0.00  0.00     0.000 A 
ATOM      4  C4  BNZ d   1      -2.756  -1.293  -0.845  0.00  0.00     0.000 A 
ATOM      5  C5  BNZ d   1      -2.007  -0.691  -1.837  0.00  0.00     0.000 A 
ATOM      6  C6  BNZ d   1      -0.859  -0.006  -1.511  0.00  0.00     0.000 A 
ENDROOT
TORSDOF 0
ENDMDL
