MODEL 1
REMARK minimizedAffinity -4.30299997
REMARK minimizedRMSD -1
REMARK  0 active torsions:
REMARK  status: ('A' for Active; 'I' for Inactive)
ROOT
ATOM      1  C1  BNZ d   1      -0.264   0.488  -0.345  0.00  0.00     0.000 A 
ATOM      2  C2  BNZ d   1      -1.501  -0.058  -0.129  0.00  0.00     0.000 A 
ATOM      3  C3  BNZ d   1      -1.671  -1.070   0.775  0.00  0.00     0.000 A 
ATOM      4  C4  BNZ d   1      -0.600  -1.560   1.431  0.00  0.00     0.000 A 
ATOM      5  C5  BNZ d   1       0.656  -1.026   1.218  0.00  0.00     0.000 A 
ATOM      6  C6  BNZ d   1       0.817   0.018   0.336  0.00  0.00     0.000 A 
ENDROOT
TORSDOF 0
ENDMDL
