MODEL 1
REMARK minimizedAffinity -1.34044337
REMARK minimizedRMSD -1
REMARK  0 active torsions:
REMARK  status: ('A' for Active; 'I' for Inactive)
ROOT
ATOM      1  C1  BNZ d   1       0.183   0.418   0.336  0.00  0.00     0.000 A 
ATOM      2  C2  BNZ d   1      -1.099   0.892   0.254  0.00  0.00     0.000 A 
ATOM      3  C3  BNZ d   1      -1.860   0.663  -0.859  0.00  0.00     0.000 A 
ATOM      4  C4  BNZ d   1      -1.325  -0.004  -1.902  0.00  0.00     0.000 A 
ATOM      5  C5  BNZ d   1      -0.031  -0.480  -1.838  0.00  0.00     0.000 A 
ATOM      6  C6  BNZ d   1       0.719  -0.281  -0.701  0.00  0.00     0.000 A 
ENDROOT
TORSDOF 0
ENDMDL
