MODEL 1
REMARK minimizedAffinity -4.96806431
REMARK minimizedRMSD -1
REMARK  0 active torsions:
REMARK  status: ('A' for Active; 'I' for Inactive)
ROOT
ATOM      1  C1  BNZ d   1       0.163  -0.458   0.292  0.00  0.00     0.000 A 
ATOM      2  C2  BNZ d   1      -1.119  -0.848   0.576  0.00  0.00     0.000 A 
ATOM      3  C3  BNZ d   1      -2.145  -0.553  -0.277  0.00  0.00     0.000 A 
ATOM      4  C4  BNZ d   1      -1.896   0.165  -1.391  0.00  0.00     0.000 A 
ATOM      5  C5  BNZ d   1      -0.611   0.573  -1.687  0.00  0.00     0.000 A 
ATOM      6  C6  BNZ d   1       0.426   0.241  -0.845  0.00  0.00     0.000 A 
ENDROOT
TORSDOF 0
ENDMDL
