MODEL 1
REMARK minimizedAffinity -3.88015723
REMARK minimizedRMSD -1
REMARK  0 active torsions:
REMARK  status: ('A' for Active; 'I' for Inactive)
ROOT
ATOM      1  C1  BNZ d   1      -0.343  -0.181   0.790  0.00  0.00     0.000 A 
ATOM      2  C2  BNZ d   1       0.131   0.299  -0.402  0.00  0.00     0.000 A 
ATOM      3  C3  BNZ d   1      -0.675   0.352  -1.505  0.00  0.00     0.000 A 
ATOM      4  C4  BNZ d   1      -1.939  -0.111  -1.425  0.00  0.00     0.000 A 
ATOM      5  C5  BNZ d   1      -2.429  -0.606  -0.232  0.00  0.00     0.000 A 
ATOM      6  C6  BNZ d   1      -1.626  -0.622   0.886  0.00  0.00     0.000 A 
ENDROOT
TORSDOF 0
ENDMDL
