MODEL 1
REMARK minimizedAffinity -4.18602324
REMARK minimizedRMSD -1
REMARK  0 active torsions:
REMARK  status: ('A' for Active; 'I' for Inactive)
ROOT
ATOM      1  C1  BNZ d   1      -1.207  -0.344   1.061  0.00  0.00     0.000 A 
ATOM      2  C2  BNZ d   1      -2.505  -0.731   0.861  0.00  0.00     0.000 A 
ATOM      3  C3  BNZ d   1      -2.959  -1.037  -0.392  0.00  0.00     0.000 A 
ATOM      4  C4  BNZ d   1      -2.126  -0.917  -1.446  0.00  0.00     0.000 A 
ATOM      5  C5  BNZ d   1      -0.817  -0.520  -1.261  0.00  0.00     0.000 A 
ATOM      6  C6  BNZ d   1      -0.353  -0.250   0.006  0.00  0.00     0.000 A 
ENDROOT
TORSDOF 0
ENDMDL
