MODEL 1
REMARK minimizedAffinity -4.66294813
REMARK minimizedRMSD -1
REMARK  0 active torsions:
REMARK  status: ('A' for Active; 'I' for Inactive)
ROOT
ATOM      1  C1  BNZ d   1      -0.978   0.094  -1.592  0.00  0.00     0.000 A 
ATOM      2  C2  BNZ d   1      -2.135  -0.626  -1.728  0.00  0.00     0.000 A 
ATOM      3  C3  BNZ d   1      -2.789  -1.113  -0.631  0.00  0.00     0.000 A 
ATOM      4  C4  BNZ d   1      -2.265  -0.915   0.596  0.00  0.00     0.000 A 
ATOM      5  C5  BNZ d   1      -1.094  -0.200   0.748  0.00  0.00     0.000 A 
ATOM      6  C6  BNZ d   1      -0.459   0.323  -0.355  0.00  0.00     0.000 A 
ENDROOT
TORSDOF 0
ENDMDL
