MODEL 1
REMARK minimizedAffinity -4.48750544
REMARK minimizedRMSD -1
REMARK  0 active torsions:
REMARK  status: ('A' for Active; 'I' for Inactive)
ROOT
ATOM      1  C1  BNZ d   1      -2.345  -0.024  -1.368  0.00  0.00     0.000 A 
ATOM      2  C2  BNZ d   1      -1.097   0.480  -1.620  0.00  0.00     0.000 A 
ATOM      3  C3  BNZ d   1      -0.089   0.341  -0.708  0.00  0.00     0.000 A 
ATOM      4  C4  BNZ d   1      -0.339  -0.266   0.470  0.00  0.00     0.000 A 
ATOM      5  C5  BNZ d   1      -1.595  -0.772   0.743  0.00  0.00     0.000 A 
ATOM      6  C6  BNZ d   1      -2.597  -0.664  -0.194  0.00  0.00     0.000 A 
ENDROOT
TORSDOF 0
ENDMDL
