MODEL 1
REMARK minimizedAffinity -3.74879241
REMARK minimizedRMSD -1
REMARK  0 active torsions:
REMARK  status: ('A' for Active; 'I' for Inactive)
ROOT
ATOM      1  C1  BNZ d   1      -0.352  -0.114   0.340  0.00  0.00     0.000 A 
ATOM      2  C2  BNZ d   1      -1.618  -0.637   0.372  0.00  0.00     0.000 A 
ATOM      3  C3  BNZ d   1      -2.406  -0.632  -0.744  0.00  0.00     0.000 A 
ATOM      4  C4  BNZ d   1      -1.944  -0.068  -1.879  0.00  0.00     0.000 A 
ATOM      5  C5  BNZ d   1      -0.674   0.471  -1.925  0.00  0.00     0.000 A 
ATOM      6  C6  BNZ d   1       0.131   0.429  -0.810  0.00  0.00     0.000 A 
ENDROOT
TORSDOF 0
ENDMDL
