MODEL 1
REMARK minimizedAffinity -1.70236444
REMARK minimizedRMSD -1
REMARK  0 active torsions:
REMARK  status: ('A' for Active; 'I' for Inactive)
ROOT
ATOM      1  C1  BNZ d   1      -1.899  -0.499   0.824  0.00  0.00     0.000 A 
ATOM      2  C2  BNZ d   1      -1.187   0.252  -0.073  0.00  0.00     0.000 A 
ATOM      3  C3  BNZ d   1       0.178   0.196  -0.105  0.00  0.00     0.000 A 
ATOM      4  C4  BNZ d   1       0.831  -0.578   0.786  0.00  0.00     0.000 A 
ATOM      5  C5  BNZ d   1       0.127  -1.334   1.703  0.00  0.00     0.000 A 
ATOM      6  C6  BNZ d   1      -1.248  -1.305   1.706  0.00  0.00     0.000 A 
ENDROOT
TORSDOF 0
ENDMDL
