MODEL 1
REMARK minimizedAffinity -4.8117671
REMARK minimizedRMSD -1
REMARK  0 active torsions:
REMARK  status: ('A' for Active; 'I' for Inactive)
ROOT
ATOM      1  C1  BNZ d   1      -1.298  -1.536   1.137  0.00  0.00     0.000 A 
ATOM      2  C2  BNZ d   1      -0.149  -0.915   0.725  0.00  0.00     0.000 A 
ATOM      3  C3  BNZ d   1      -0.120  -0.196  -0.437  0.00  0.00     0.000 A 
ATOM      4  C4  BNZ d   1      -1.226  -0.132  -1.205  0.00  0.00     0.000 A 
ATOM      5  C5  BNZ d   1      -2.390  -0.761  -0.809  0.00  0.00     0.000 A 
ATOM      6  C6  BNZ d   1      -2.427  -1.451   0.381  0.00  0.00     0.000 A 
ENDROOT
TORSDOF 0
ENDMDL
