MODEL 1
REMARK minimizedAffinity -3.79306293
REMARK minimizedRMSD -1
REMARK  0 active torsions:
REMARK  status: ('A' for Active; 'I' for Inactive)
ROOT
ATOM      1  C1  BNZ d   1      -2.260  -0.292  -0.503  0.00  0.00     0.000 A 
ATOM      2  C2  BNZ d   1      -1.485  -0.518   0.603  0.00  0.00     0.000 A 
ATOM      3  C3  BNZ d   1      -0.135  -0.309   0.567  0.00  0.00     0.000 A 
ATOM      4  C4  BNZ d   1       0.443   0.088  -0.586  0.00  0.00     0.000 A 
ATOM      5  C5  BNZ d   1      -0.323   0.311  -1.712  0.00  0.00     0.000 A 
ATOM      6  C6  BNZ d   1      -1.687   0.137  -1.660  0.00  0.00     0.000 A 
ENDROOT
TORSDOF 0
ENDMDL
