MODEL 1
REMARK minimizedAffinity -4.66811895
REMARK minimizedRMSD -1
REMARK  0 active torsions:
REMARK  status: ('A' for Active; 'I' for Inactive)
ROOT
ATOM      1  C1  BNZ d   1       0.579   0.114   0.164  0.00  0.00     0.000 A 
ATOM      2  C2  BNZ d   1      -0.580   0.349  -0.527  0.00  0.00     0.000 A 
ATOM      3  C3  BNZ d   1      -1.754  -0.239  -0.145  0.00  0.00     0.000 A 
ATOM      4  C4  BNZ d   1      -1.759  -1.091   0.900  0.00  0.00     0.000 A 
ATOM      5  C5  BNZ d   1      -0.597  -1.345   1.601  0.00  0.00     0.000 A 
ATOM      6  C6  BNZ d   1       0.574  -0.721   1.239  0.00  0.00     0.000 A 
ENDROOT
TORSDOF 0
ENDMDL
