MODEL 1
REMARK minimizedAffinity 8.59327316
REMARK minimizedRMSD -1
REMARK  0 active torsions:
REMARK  status: ('A' for Active; 'I' for Inactive)
ROOT
ATOM      1  O1  BZF d   1       1.303   3.425   0.547  0.00  0.00    -0.204 OA
ATOM      2  C2  BZF d   1       0.259   4.191   0.066  0.00  0.00     0.174 A 
ATOM      3  C3  BZF d   1      -0.880   3.922   0.736  0.00  0.00    -0.012 A 
ATOM      4  C3A BZF d   1      -0.505   2.993   1.758  0.00  0.00    -0.107 A 
ATOM      5  C4  BZF d   1      -1.195   2.365   2.755  0.00  0.00     0.055 A 
ATOM      6  C5  BZF d   1      -0.548   1.460   3.537  0.00  0.00    -0.016 A 
ATOM      7  C6  BZF d   1       0.784   1.157   3.346  0.00  0.00     0.022 A 
ATOM      8  C7  BZF d   1       1.511   1.757   2.373  0.00  0.00     0.029 A 
ATOM      9  C7A BZF d   1       0.869   2.696   1.602  0.00  0.00     0.058 A 
ENDROOT
TORSDOF 0
ENDMDL
