MODEL 1
REMARK minimizedAffinity 10.1263485
REMARK minimizedRMSD -1
REMARK  0 active torsions:
REMARK  status: ('A' for Active; 'I' for Inactive)
ROOT
ATOM      1  O1  BZF d   1       1.715   4.691   0.485  0.00  0.00    -0.204 OA
ATOM      2  C2  BZF d   1       0.566   4.873  -0.261  0.00  0.00     0.174 A 
ATOM      3  C3  BZF d   1      -0.463   4.180   0.268  0.00  0.00    -0.012 A 
ATOM      4  C3A BZF d   1       0.054   3.598   1.469  0.00  0.00    -0.107 A 
ATOM      5  C4  BZF d   1      -0.493   2.809   2.441  0.00  0.00     0.055 A 
ATOM      6  C5  BZF d   1       0.301   2.350   3.443  0.00  0.00    -0.016 A 
ATOM      7  C6  BZF d   1       1.645   2.656   3.503  0.00  0.00     0.022 A 
ATOM      8  C7  BZF d   1       2.232   3.438   2.564  0.00  0.00     0.029 A 
ATOM      9  C7A BZF d   1       1.425   3.931   1.568  0.00  0.00     0.058 A 
ENDROOT
TORSDOF 0
ENDMDL
