MODEL 1
REMARK minimizedAffinity 10.0068693
REMARK minimizedRMSD -1
REMARK  0 active torsions:
REMARK  status: ('A' for Active; 'I' for Inactive)
ROOT
ATOM      1  O1  BZF d   1      -0.770   3.386   2.714  0.00  0.00    -0.204 OA
ATOM      2  C2  BZF d   1      -0.015   2.241   2.550  0.00  0.00     0.174 A 
ATOM      3  C3  BZF d   1       0.622   2.254   1.361  0.00  0.00    -0.012 A 
ATOM      4  C3A BZF d   1       0.314   3.526   0.783  0.00  0.00    -0.107 A 
ATOM      5  C4  BZF d   1       0.668   4.137  -0.386  0.00  0.00     0.055 A 
ATOM      6  C5  BZF d   1       0.138   5.353  -0.683  0.00  0.00    -0.016 A 
ATOM      7  C6  BZF d   1      -0.751   5.983   0.163  0.00  0.00     0.022 A 
ATOM      8  C7  BZF d   1      -1.128   5.419   1.336  0.00  0.00     0.029 A 
ATOM      9  C7A BZF d   1      -0.568   4.206   1.655  0.00  0.00     0.058 A 
ENDROOT
TORSDOF 0
ENDMDL
