MODEL 1
REMARK minimizedAffinity 12.0170269
REMARK minimizedRMSD -1
REMARK  0 active torsions:
REMARK  status: ('A' for Active; 'I' for Inactive)
ROOT
ATOM      1  O1  BZF d   1      -0.992   3.039   1.936  0.00  0.00    -0.204 OA
ATOM      2  C2  BZF d   1      -0.024   2.054   1.886  0.00  0.00     0.174 A 
ATOM      3  C3  BZF d   1       0.861   2.302   0.900  0.00  0.00    -0.012 A 
ATOM      4  C3A BZF d   1       0.473   3.566   0.355  0.00  0.00    -0.107 A 
ATOM      5  C4  BZF d   1       0.975   4.353  -0.642  0.00  0.00     0.055 A 
ATOM      6  C5  BZF d   1       0.318   5.495  -0.977  0.00  0.00    -0.016 A 
ATOM      7  C6  BZF d   1      -0.845   5.877  -0.340  0.00  0.00     0.022 A 
ATOM      8  C7  BZF d   1      -1.378   5.131   0.659  0.00  0.00     0.029 A 
ATOM      9  C7A BZF d   1      -0.699   3.994   1.021  0.00  0.00     0.058 A 
ENDROOT
TORSDOF 0
ENDMDL
