MODEL 1
REMARK minimizedAffinity 12.0772839
REMARK minimizedRMSD -1
REMARK  0 active torsions:
REMARK  status: ('A' for Active; 'I' for Inactive)
ROOT
ATOM      1  O1  BZF d   1      -0.174  -5.948  -3.348  0.00  0.00    -0.204 OA
ATOM      2  C2  BZF d   1       0.234  -5.957  -4.668  0.00  0.00     0.174 A 
ATOM      3  C3  BZF d   1       1.580  -5.923  -4.753  0.00  0.00    -0.012 A 
ATOM      4  C3A BZF d   1       2.044  -5.983  -3.401  0.00  0.00    -0.107 A 
ATOM      5  C4  BZF d   1       3.286  -6.000  -2.835  0.00  0.00     0.055 A 
ATOM      6  C5  BZF d   1       3.395  -5.988  -1.480  0.00  0.00    -0.016 A 
ATOM      7  C6  BZF d   1       2.284  -5.955  -0.663  0.00  0.00     0.022 A 
ATOM      8  C7  BZF d   1       1.031  -5.943  -1.178  0.00  0.00     0.029 A 
ATOM      9  C7A BZF d   1       0.917  -5.988  -2.546  0.00  0.00     0.058 A 
ENDROOT
TORSDOF 0
ENDMDL
