MODEL 1
REMARK minimizedAffinity 8.21226406
REMARK minimizedRMSD -1
REMARK  0 active torsions:
REMARK  status: ('A' for Active; 'I' for Inactive)
ROOT
ATOM      1  O1  BZF d   1      -0.752   3.890   2.922  0.00  0.00    -0.204 OA
ATOM      2  C2  BZF d   1      -0.231   2.610   2.955  0.00  0.00     0.174 A 
ATOM      3  C3  BZF d   1       0.383   2.314   1.791  0.00  0.00    -0.012 A 
ATOM      4  C3A BZF d   1       0.318   3.514   1.015  0.00  0.00    -0.107 A 
ATOM      5  C4  BZF d   1       0.768   3.854  -0.229  0.00  0.00     0.055 A 
ATOM      6  C5  BZF d   1       0.477   5.086  -0.723  0.00  0.00    -0.016 A 
ATOM      7  C6  BZF d   1      -0.266   6.000  -0.004  0.00  0.00     0.022 A 
ATOM      8  C7  BZF d   1      -0.730   5.710   1.236  0.00  0.00     0.029 A 
ATOM      9  C7A BZF d   1      -0.409   4.478   1.751  0.00  0.00     0.058 A 
ENDROOT
TORSDOF 0
ENDMDL
