MODEL 1
REMARK minimizedAffinity 7.68674088
REMARK minimizedRMSD -1
REMARK  0 active torsions:
REMARK  status: ('A' for Active; 'I' for Inactive)
ROOT
ATOM      1  O1  BZF d   1       1.446   3.212   0.809  0.00  0.00    -0.204 OA
ATOM      2  C2  BZF d   1       0.549   3.806  -0.058  0.00  0.00     0.174 A 
ATOM      3  C3  BZF d   1      -0.721   3.552   0.320  0.00  0.00    -0.012 A 
ATOM      4  C3A BZF d   1      -0.611   2.827   1.548  0.00  0.00    -0.107 A 
ATOM      5  C4  BZF d   1      -1.527   2.308   2.418  0.00  0.00     0.055 A 
ATOM      6  C5  BZF d   1      -1.090   1.592   3.487  0.00  0.00    -0.016 A 
ATOM      7  C6  BZF d   1       0.252   1.371   3.715  0.00  0.00     0.022 A 
ATOM      8  C7  BZF d   1       1.199   1.871   2.883  0.00  0.00     0.029 A 
ATOM      9  C7A BZF d   1       0.762   2.623   1.819  0.00  0.00     0.058 A 
ENDROOT
TORSDOF 0
ENDMDL
