MODEL 1
REMARK minimizedAffinity 9.19600296
REMARK minimizedRMSD -1
REMARK  0 active torsions:
REMARK  status: ('A' for Active; 'I' for Inactive)
ROOT
ATOM      1  O1  BZF d   1      -2.432  -0.290   0.047  0.00  0.00    -0.204 OA
ATOM      2  C2  BZF d   1      -3.325   0.764   0.056  0.00  0.00     0.174 A 
ATOM      3  C3  BZF d   1      -3.341   1.387  -1.140  0.00  0.00    -0.012 A 
ATOM      4  C3A BZF d   1      -2.468   0.621  -1.975  0.00  0.00    -0.107 A 
ATOM      5  C4  BZF d   1      -2.085   0.729  -3.281  0.00  0.00     0.055 A 
ATOM      6  C5  BZF d   1      -1.161  -0.139  -3.772  0.00  0.00    -0.016 A 
ATOM      7  C6  BZF d   1      -0.598  -1.122  -2.986  0.00  0.00     0.022 A 
ATOM      8  C7  BZF d   1      -0.951  -1.272  -1.686  0.00  0.00     0.029 A 
ATOM      9  C7A BZF d   1      -1.908  -0.417  -1.195  0.00  0.00     0.058 A 
ENDROOT
TORSDOF 0
ENDMDL
