MODEL 1
REMARK minimizedAffinity 16.5600796
REMARK minimizedRMSD -1
REMARK  0 active torsions:
REMARK  status: ('A' for Active; 'I' for Inactive)
ROOT
ATOM      1  O1  BZF d   1       0.607   2.294   0.327  0.00  0.00    -0.204 OA
ATOM      2  C2  BZF d   1      -0.249   3.232   0.872  0.00  0.00     0.174 A 
ATOM      3  C3  BZF d   1      -1.534   2.912   0.617  0.00  0.00    -0.012 A 
ATOM      4  C3A BZF d   1      -1.482   1.649  -0.053  0.00  0.00    -0.107 A 
ATOM      5  C4  BZF d   1      -2.438   0.808  -0.547  0.00  0.00     0.055 A 
ATOM      6  C5  BZF d   1      -2.052  -0.313  -1.211  0.00  0.00    -0.016 A 
ATOM      7  C6  BZF d   1      -0.721  -0.621  -1.403  0.00  0.00     0.022 A 
ATOM      8  C7  BZF d   1       0.263   0.180  -0.927  0.00  0.00     0.029 A 
ATOM      9  C7A BZF d   1      -0.124   1.296  -0.227  0.00  0.00     0.058 A 
ENDROOT
TORSDOF 0
ENDMDL
