MODEL 1
REMARK minimizedAffinity 4.77026367
REMARK minimizedRMSD -1
REMARK  0 active torsions:
REMARK  status: ('A' for Active; 'I' for Inactive)
ROOT
ATOM      1  O1  BZF d   1       0.083   0.940   3.370  0.00  0.00    -0.204 OA
ATOM      2  C2  BZF d   1       1.348   0.428   3.156  0.00  0.00     0.174 A 
ATOM      3  C3  BZF d   1       1.907   0.978   2.058  0.00  0.00    -0.012 A 
ATOM      4  C3A BZF d   1       0.967   1.958   1.609  0.00  0.00    -0.107 A 
ATOM      5  C4  BZF d   1       0.960   2.846   0.571  0.00  0.00     0.055 A 
ATOM      6  C5  BZF d   1      -0.142   3.613   0.365  0.00  0.00    -0.016 A 
ATOM      7  C6  BZF d   1      -1.256   3.516   1.173  0.00  0.00     0.022 A 
ATOM      8  C7  BZF d   1      -1.294   2.654   2.218  0.00  0.00     0.029 A 
ATOM      9  C7A BZF d   1      -0.169   1.900   2.449  0.00  0.00     0.058 A 
ENDROOT
TORSDOF 0
ENDMDL
