MODEL 1
REMARK minimizedAffinity 9.95386696
REMARK minimizedRMSD -1
REMARK  0 active torsions:
REMARK  status: ('A' for Active; 'I' for Inactive)
ROOT
ATOM      1  O1  BZF d   1       1.256   3.869   0.563  0.00  0.00    -0.204 OA
ATOM      2  C2  BZF d   1       0.162   4.226  -0.203  0.00  0.00     0.174 A 
ATOM      3  C3  BZF d   1      -0.964   3.664   0.280  0.00  0.00    -0.012 A 
ATOM      4  C3A BZF d   1      -0.563   2.983   1.473  0.00  0.00    -0.107 A 
ATOM      5  C4  BZF d   1      -1.237   2.248   2.407  0.00  0.00     0.055 A 
ATOM      6  C5  BZF d   1      -0.539   1.658   3.412  0.00  0.00    -0.016 A 
ATOM      7  C6  BZF d   1       0.832   1.777   3.512  0.00  0.00     0.022 A 
ATOM      8  C7  BZF d   1       1.543   2.499   2.612  0.00  0.00     0.029 A 
ATOM      9  C7A BZF d   1       0.837   3.124   1.614  0.00  0.00     0.058 A 
ENDROOT
TORSDOF 0
ENDMDL
