MODEL 1
REMARK minimizedAffinity 18.3143864
REMARK minimizedRMSD -1
REMARK  0 active torsions:
REMARK  status: ('A' for Active; 'I' for Inactive)
ROOT
ATOM      1  C2' OXE d   1       4.772   0.739   5.436  0.00  0.00     0.078 C 
ATOM      2  C1' OXE d   1       2.210   0.772   4.291  0.00  0.00     0.078 C 
ATOM      3  C1  OXE d   1       3.392   0.631   3.365  0.00  0.00    -0.078 A 
ATOM      4  C2  OXE d   1       4.645   0.663   3.930  0.00  0.00    -0.078 A 
ATOM      5  C3  OXE d   1       5.767   0.483   3.128  0.00  0.00     0.003 A 
ATOM      6  C4  OXE d   1       5.641   0.423   1.734  0.00  0.00    -0.002 A 
ATOM      7  C5  OXE d   1       4.377   0.430   1.135  0.00  0.00    -0.002 A 
ATOM      8  C6  OXE d   1       3.243   0.490   1.938  0.00  0.00     0.003 A 
ENDROOT
TORSDOF 0
ENDMDL
