MODEL 1
REMARK minimizedAffinity 20.3279934
REMARK minimizedRMSD -1
REMARK  0 active torsions:
REMARK  status: ('A' for Active; 'I' for Inactive)
ROOT
ATOM      1  C2' OXE d   1       0.504  -1.035  -4.155  0.00  0.00     0.078 C 
ATOM      2  C1' OXE d   1       3.019  -2.280  -4.108  0.00  0.00     0.078 C 
ATOM      3  C1  OXE d   1       1.888  -3.004  -4.796  0.00  0.00    -0.078 A 
ATOM      4  C2  OXE d   1       0.650  -2.409  -4.773  0.00  0.00    -0.078 A 
ATOM      5  C3  OXE d   1      -0.415  -3.008  -5.439  0.00  0.00     0.003 A 
ATOM      6  C4  OXE d   1      -0.274  -4.283  -6.000  0.00  0.00    -0.002 A 
ATOM      7  C5  OXE d   1       0.969  -4.925  -5.999  0.00  0.00    -0.002 A 
ATOM      8  C6  OXE d   1       2.068  -4.282  -5.440  0.00  0.00     0.003 A 
ENDROOT
TORSDOF 0
ENDMDL
