MODEL 1
REMARK minimizedAffinity 9.29114437
REMARK minimizedRMSD -1
REMARK  0 active torsions:
REMARK  status: ('A' for Active; 'I' for Inactive)
ROOT
ATOM      1  C2' OXE d   1      -0.022  -0.674   1.635  0.00  0.00     0.078 C 
ATOM      2  C1' OXE d   1       1.201  -1.500   4.023  0.00  0.00     0.078 C 
ATOM      3  C1  OXE d   1       0.614  -0.112   3.977  0.00  0.00    -0.078 A 
ATOM      4  C2  OXE d   1       0.059   0.301   2.790  0.00  0.00    -0.078 A 
ATOM      5  C3  OXE d   1      -0.546   1.552   2.710  0.00  0.00     0.003 A 
ATOM      6  C4  OXE d   1      -0.458   2.452   3.779  0.00  0.00    -0.002 A 
ATOM      7  C5  OXE d   1       0.138   2.066   4.984  0.00  0.00    -0.002 A 
ATOM      8  C6  OXE d   1       0.640   0.775   5.114  0.00  0.00     0.003 A 
ENDROOT
TORSDOF 0
ENDMDL
