MODEL 1
REMARK minimizedAffinity 9.19842529
REMARK minimizedRMSD -1
REMARK  0 active torsions:
REMARK  status: ('A' for Active; 'I' for Inactive)
ROOT
ATOM      1  C2' OXE d   1       0.100   1.316   2.584  0.00  0.00     0.078 C 
ATOM      2  C1' OXE d   1      -0.796  -1.122   1.521  0.00  0.00     0.078 C 
ATOM      3  C1  OXE d   1       0.007  -1.164   2.798  0.00  0.00    -0.078 A 
ATOM      4  C2  OXE d   1       0.481   0.030   3.285  0.00  0.00    -0.078 A 
ATOM      5  C3  OXE d   1       1.181   0.055   4.488  0.00  0.00     0.003 A 
ATOM      6  C4  OXE d   1       1.537  -1.140   5.125  0.00  0.00    -0.002 A 
ATOM      7  C5  OXE d   1       1.098  -2.370   4.624  0.00  0.00    -0.002 A 
ATOM      8  C6  OXE d   1       0.298  -2.396   3.487  0.00  0.00     0.003 A 
ENDROOT
TORSDOF 0
ENDMDL
