MODEL 1
REMARK minimizedAffinity 15.9587154
REMARK minimizedRMSD -1
REMARK  0 active torsions:
REMARK  status: ('A' for Active; 'I' for Inactive)
ROOT
ATOM      1  C2' OXE d   1       0.390   2.375   4.936  0.00  0.00     0.078 C 
ATOM      2  C1' OXE d   1      -1.082   2.551   2.552  0.00  0.00     0.078 C 
ATOM      3  C1  OXE d   1      -0.390   1.246   2.857  0.00  0.00    -0.078 A 
ATOM      4  C2  OXE d   1       0.366   1.183   4.003  0.00  0.00    -0.078 A 
ATOM      5  C3  OXE d   1       0.980  -0.014   4.359  0.00  0.00     0.003 A 
ATOM      6  C4  OXE d   1       0.961  -1.108   3.486  0.00  0.00    -0.002 A 
ATOM      7  C5  OXE d   1       0.229  -1.053   2.295  0.00  0.00    -0.002 A 
ATOM      8  C6  OXE d   1      -0.486   0.100   1.987  0.00  0.00     0.003 A 
ENDROOT
TORSDOF 0
ENDMDL
