MODEL 1
REMARK minimizedAffinity 12.4441614
REMARK minimizedRMSD -1
REMARK  0 active torsions:
REMARK  status: ('A' for Active; 'I' for Inactive)
ROOT
ATOM      1  C2' OXE d   1       3.895  -1.968  -4.907  0.00  0.00     0.078 C 
ATOM      2  C1' OXE d   1       2.618  -4.216  -6.000  0.00  0.00     0.078 C 
ATOM      3  C1  OXE d   1       1.775  -3.000  -5.711  0.00  0.00    -0.078 A 
ATOM      4  C2  OXE d   1       2.399  -1.921  -5.133  0.00  0.00    -0.078 A 
ATOM      5  C3  OXE d   1       1.679  -0.753  -4.896  0.00  0.00     0.003 A 
ATOM      6  C4  OXE d   1       0.294  -0.721  -5.098  0.00  0.00    -0.002 A 
ATOM      7  C5  OXE d   1      -0.368  -1.823  -5.649  0.00  0.00    -0.002 A 
ATOM      8  C6  OXE d   1       0.363  -2.953  -6.000  0.00  0.00     0.003 A 
ENDROOT
TORSDOF 0
ENDMDL
