MODEL 1
REMARK minimizedAffinity 12.7018671
REMARK minimizedRMSD -1
REMARK  0 active torsions:
REMARK  status: ('A' for Active; 'I' for Inactive)
ROOT
ATOM      1  C2' OXE d   1      -5.332   0.202  -2.315  0.00  0.00     0.078 C 
ATOM      2  C1' OXE d   1      -5.361   2.599  -0.854  0.00  0.00     0.078 C 
ATOM      3  C1  OXE d   1      -4.559   1.447  -0.301  0.00  0.00    -0.078 A 
ATOM      4  C2  OXE d   1      -4.589   0.263  -0.999  0.00  0.00    -0.078 A 
ATOM      5  C3  OXE d   1      -3.823  -0.814  -0.562  0.00  0.00     0.003 A 
ATOM      6  C4  OXE d   1      -3.147  -0.752   0.663  0.00  0.00    -0.002 A 
ATOM      7  C5  OXE d   1      -3.136   0.431   1.409  0.00  0.00    -0.002 A 
ATOM      8  C6  OXE d   1      -3.801   1.551   0.921  0.00  0.00     0.003 A 
ENDROOT
TORSDOF 0
ENDMDL
