MODEL 1
REMARK minimizedAffinity -3.60824442
REMARK minimizedRMSD -1
REMARK  0 active torsions:
REMARK  status: ('A' for Active; 'I' for Inactive)
ROOT
ATOM      1  C1  BNZ d   1       0.310  -2.454  -0.865  0.00  0.00     0.000 A 
ATOM      2  C2  BNZ d   1       1.096  -3.005   0.112  0.00  0.00     0.000 A 
ATOM      3  C3  BNZ d   1       1.940  -2.226   0.853  0.00  0.00     0.000 A 
ATOM      4  C4  BNZ d   1       2.028  -0.907   0.589  0.00  0.00     0.000 A 
ATOM      5  C5  BNZ d   1       1.249  -0.338  -0.399  0.00  0.00     0.000 A 
ATOM      6  C6  BNZ d   1       0.371  -1.118  -1.116  0.00  0.00     0.000 A 
ENDROOT
TORSDOF 0
ENDMDL
