MODEL 1
REMARK minimizedAffinity -3.20552826
REMARK minimizedRMSD -1
REMARK  0 active torsions:
REMARK  status: ('A' for Active; 'I' for Inactive)
ROOT
ATOM      1  C1  BNZ d   1      -0.257   0.170   0.029  0.00  0.00     0.000 A 
ATOM      2  C2  BNZ d   1       0.258  -1.032   0.436  0.00  0.00     0.000 A 
ATOM      3  C3  BNZ d   1       1.609  -1.225   0.511  0.00  0.00     0.000 A 
ATOM      4  C4  BNZ d   1       2.442  -0.232   0.141  0.00  0.00     0.000 A 
ATOM      5  C5  BNZ d   1       1.939   0.983  -0.281  0.00  0.00     0.000 A 
ATOM      6  C6  BNZ d   1       0.578   1.187  -0.318  0.00  0.00     0.000 A 
ENDROOT
TORSDOF 0
ENDMDL
