MODEL 1
REMARK minimizedAffinity -3.56954145
REMARK minimizedRMSD -1
REMARK  0 active torsions:
REMARK  status: ('A' for Active; 'I' for Inactive)
ROOT
ATOM      1  C1  BNZ d   1       1.733  -0.403  -0.069  0.00  0.00     0.000 A 
ATOM      2  C2  BNZ d   1       0.396  -0.111  -0.127  0.00  0.00     0.000 A 
ATOM      3  C3  BNZ d   1      -0.540  -1.046   0.217  0.00  0.00     0.000 A 
ATOM      4  C4  BNZ d   1      -0.140  -2.282   0.579  0.00  0.00     0.000 A 
ATOM      5  C5  BNZ d   1       1.203  -2.594   0.634  0.00  0.00     0.000 A 
ATOM      6  C6  BNZ d   1       2.144  -1.639   0.325  0.00  0.00     0.000 A 
ENDROOT
TORSDOF 0
ENDMDL
