MODEL 1
REMARK minimizedAffinity -2.85512257
REMARK minimizedRMSD -1
REMARK  0 active torsions:
REMARK  status: ('A' for Active; 'I' for Inactive)
ROOT
ATOM      1  C1  BNZ d   1       0.842  -1.579   0.661  0.00  0.00     0.000 A 
ATOM      2  C2  BNZ d   1      -0.479  -1.222   0.602  0.00  0.00     0.000 A 
ATOM      3  C3  BNZ d   1      -0.859  -0.040   0.029  0.00  0.00     0.000 A 
ATOM      4  C4  BNZ d   1       0.083   0.799  -0.447  0.00  0.00     0.000 A 
ATOM      5  C5  BNZ d   1       1.419   0.457  -0.386  0.00  0.00     0.000 A 
ATOM      6  C6  BNZ d   1       1.795  -0.750   0.156  0.00  0.00     0.000 A 
ENDROOT
TORSDOF 0
ENDMDL
