MODEL 1
REMARK minimizedAffinity -4.69315052
REMARK minimizedRMSD -1
REMARK  0 active torsions:
REMARK  status: ('A' for Active; 'I' for Inactive)
ROOT
ATOM      1  C1  BNZ d   1      -0.160  -1.371  -0.329  0.00  0.00     0.000 A 
ATOM      2  C2  BNZ d   1       0.335  -2.413   0.410  0.00  0.00     0.000 A 
ATOM      3  C3  BNZ d   1       1.558  -2.324   1.013  0.00  0.00     0.000 A 
ATOM      4  C4  BNZ d   1       2.301  -1.212   0.845  0.00  0.00     0.000 A 
ATOM      5  C5  BNZ d   1       1.820  -0.156   0.096  0.00  0.00     0.000 A 
ATOM      6  C6  BNZ d   1       0.572  -0.233  -0.478  0.00  0.00     0.000 A 
ENDROOT
TORSDOF 0
ENDMDL
