MODEL 1
REMARK minimizedAffinity -3.1435709
REMARK minimizedRMSD -1
REMARK  0 active torsions:
REMARK  status: ('A' for Active; 'I' for Inactive)
ROOT
ATOM      1  C1  BNZ d   1      -1.098  -0.415   1.556  0.00  0.00     0.000 A 
ATOM      2  C2  BNZ d   1      -0.073  -1.024   0.881  0.00  0.00     0.000 A 
ATOM      3  C3  BNZ d   1       0.471  -0.449  -0.233  0.00  0.00     0.000 A 
ATOM      4  C4  BNZ d   1      -0.036   0.712  -0.694  0.00  0.00     0.000 A 
ATOM      5  C5  BNZ d   1      -1.075   1.334  -0.031  0.00  0.00     0.000 A 
ATOM      6  C6  BNZ d   1      -1.594   0.772   1.113  0.00  0.00     0.000 A 
ENDROOT
TORSDOF 0
ENDMDL
