MODEL 1
REMARK minimizedAffinity -3.40765309
REMARK minimizedRMSD -1
REMARK  0 active torsions:
REMARK  status: ('A' for Active; 'I' for Inactive)
ROOT
ATOM      1  C1  BNZ d   1       2.111  -1.847   0.221  0.00  0.00     0.000 A 
ATOM      2  C2  BNZ d   1       1.653  -1.009  -0.761  0.00  0.00     0.000 A 
ATOM      3  C3  BNZ d   1       0.482  -0.322  -0.604  0.00  0.00     0.000 A 
ATOM      4  C4  BNZ d   1      -0.249  -0.504   0.515  0.00  0.00     0.000 A 
ATOM      5  C5  BNZ d   1       0.195  -1.352   1.510  0.00  0.00     0.000 A 
ATOM      6  C6  BNZ d   1       1.394  -2.012   1.365  0.00  0.00     0.000 A 
ENDROOT
TORSDOF 0
ENDMDL
