MODEL 1
REMARK minimizedAffinity -2.79075503
REMARK minimizedRMSD -1
REMARK  0 active torsions:
REMARK  status: ('A' for Active; 'I' for Inactive)
ROOT
ATOM      1  C1  BNZ d   1       0.041  -1.813   1.293  0.00  0.00     0.000 A 
ATOM      2  C2  BNZ d   1      -0.481  -0.798   0.536  0.00  0.00     0.000 A 
ATOM      3  C3  BNZ d   1       0.299  -0.121  -0.360  0.00  0.00     0.000 A 
ATOM      4  C4  BNZ d   1       1.606  -0.434  -0.470  0.00  0.00     0.000 A 
ATOM      5  C5  BNZ d   1       2.149  -1.449   0.293  0.00  0.00     0.000 A 
ATOM      6  C6  BNZ d   1       1.352  -2.154   1.166  0.00  0.00     0.000 A 
ENDROOT
TORSDOF 0
ENDMDL
