MODEL 1
REMARK minimizedAffinity -3.24203277
REMARK minimizedRMSD -1
REMARK  0 active torsions:
REMARK  status: ('A' for Active; 'I' for Inactive)
ROOT
ATOM      1  C1  BNZ d   1      -0.643   2.539  -3.208  0.00  0.00     0.000 A 
ATOM      2  C2  BNZ d   1      -1.398   2.159  -4.286  0.00  0.00     0.000 A 
ATOM      3  C3  BNZ d   1      -2.663   1.670  -4.118  0.00  0.00     0.000 A 
ATOM      4  C4  BNZ d   1      -3.157   1.524  -2.872  0.00  0.00     0.000 A 
ATOM      5  C5  BNZ d   1      -2.405   1.892  -1.774  0.00  0.00     0.000 A 
ATOM      6  C6  BNZ d   1      -1.147   2.421  -1.949  0.00  0.00     0.000 A 
ENDROOT
TORSDOF 0
ENDMDL
