MODEL 1
REMARK minimizedAffinity -2.69099927
REMARK minimizedRMSD -1
REMARK  0 active torsions:
REMARK  status: ('A' for Active; 'I' for Inactive)
ROOT
ATOM      1  C1  BNZ d   1       0.807  -1.519  -1.213  0.00  0.00     0.000 A 
ATOM      2  C2  BNZ d   1       1.311  -2.703  -0.742  0.00  0.00     0.000 A 
ATOM      3  C3  BNZ d   1       1.848  -2.785   0.513  0.00  0.00     0.000 A 
ATOM      4  C4  BNZ d   1       1.916  -1.677   1.279  0.00  0.00     0.000 A 
ATOM      5  C5  BNZ d   1       1.421  -0.474   0.814  0.00  0.00     0.000 A 
ATOM      6  C6  BNZ d   1       0.846  -0.404  -0.434  0.00  0.00     0.000 A 
ENDROOT
TORSDOF 0
ENDMDL
