MODEL 1
REMARK minimizedAffinity -3.31929207
REMARK minimizedRMSD -1
REMARK  0 active torsions:
REMARK  status: ('A' for Active; 'I' for Inactive)
ROOT
ATOM      1  C1  BNZ d   1       1.563  -2.265   0.868  0.00  0.00     0.000 A 
ATOM      2  C2  BNZ d   1       2.244  -1.224   0.296  0.00  0.00     0.000 A 
ATOM      3  C3  BNZ d   1       1.589  -0.284  -0.450  0.00  0.00     0.000 A 
ATOM      4  C4  BNZ d   1       0.263  -0.409  -0.657  0.00  0.00     0.000 A 
ATOM      5  C5  BNZ d   1      -0.437  -1.458  -0.095  0.00  0.00     0.000 A 
ATOM      6  C6  BNZ d   1       0.219  -2.381   0.688  0.00  0.00     0.000 A 
ENDROOT
TORSDOF 0
ENDMDL
