MODEL 1
REMARK minimizedAffinity -4.45318031
REMARK minimizedRMSD -1
REMARK  0 active torsions:
REMARK  status: ('A' for Active; 'I' for Inactive)
ROOT
ATOM      1  C1  BNZ d   1       0.255  -1.149  -0.820  0.00  0.00     0.000 A 
ATOM      2  C2  BNZ d   1       0.683  -2.169  -0.013  0.00  0.00     0.000 A 
ATOM      3  C3  BNZ d   1       1.855  -2.067   0.682  0.00  0.00     0.000 A 
ATOM      4  C4  BNZ d   1       2.617  -0.963   0.539  0.00  0.00     0.000 A 
ATOM      5  C5  BNZ d   1       2.204   0.070  -0.278  0.00  0.00     0.000 A 
ATOM      6  C6  BNZ d   1       1.004  -0.020  -0.946  0.00  0.00     0.000 A 
ENDROOT
TORSDOF 0
ENDMDL
