MODEL 1
REMARK minimizedAffinity -4.80395365
REMARK minimizedRMSD -1
REMARK  0 active torsions:
REMARK  status: ('A' for Active; 'I' for Inactive)
ROOT
ATOM      1  C1  BNZ d   1       1.904  -0.654  -0.286  0.00  0.00     0.000 A 
ATOM      2  C2  BNZ d   1       2.430  -1.679   0.453  0.00  0.00     0.000 A 
ATOM      3  C3  BNZ d   1       1.615  -2.588   1.069  0.00  0.00     0.000 A 
ATOM      4  C4  BNZ d   1       0.277  -2.447   0.978  0.00  0.00     0.000 A 
ATOM      5  C5  BNZ d   1      -0.269  -1.412   0.245  0.00  0.00     0.000 A 
ATOM      6  C6  BNZ d   1       0.554  -0.522  -0.406  0.00  0.00     0.000 A 
ENDROOT
TORSDOF 0
ENDMDL
