MODEL 1
REMARK minimizedAffinity -1.69197893
REMARK minimizedRMSD -1
REMARK  0 active torsions:
REMARK  status: ('A' for Active; 'I' for Inactive)
ROOT
ATOM      1  C1  BNZ d   1      -1.060   1.122   0.028  0.00  0.00     0.000 A 
ATOM      2  C2  BNZ d   1       0.087   0.763  -0.630  0.00  0.00     0.000 A 
ATOM      3  C3  BNZ d   1       0.783  -0.355  -0.263  0.00  0.00     0.000 A 
ATOM      4  C4  BNZ d   1       0.356  -1.088   0.785  0.00  0.00     0.000 A 
ATOM      5  C5  BNZ d   1      -0.793  -0.734   1.464  0.00  0.00     0.000 A 
ATOM      6  C6  BNZ d   1      -1.513   0.370   1.068  0.00  0.00     0.000 A 
ENDROOT
TORSDOF 0
ENDMDL
