MODEL 1
REMARK minimizedAffinity -0.568201602
REMARK minimizedRMSD -1
REMARK  0 active torsions:
REMARK  status: ('A' for Active; 'I' for Inactive)
ROOT
ATOM      1  C1  BNZ d   1      -1.221   0.467   1.034  0.00  0.00     0.000 A 
ATOM      2  C2  BNZ d   1      -1.044  -0.717   1.699  0.00  0.00     0.000 A 
ATOM      3  C3  BNZ d   1      -0.071  -1.597   1.315  0.00  0.00     0.000 A 
ATOM      4  C4  BNZ d   1       0.696  -1.311   0.243  0.00  0.00     0.000 A 
ATOM      5  C5  BNZ d   1       0.524  -0.125  -0.443  0.00  0.00     0.000 A 
ATOM      6  C6  BNZ d   1      -0.431   0.776  -0.030  0.00  0.00     0.000 A 
ENDROOT
TORSDOF 0
ENDMDL
