MODEL 1
REMARK minimizedAffinity -1.91208184
REMARK minimizedRMSD -1
REMARK  0 active torsions:
REMARK  status: ('A' for Active; 'I' for Inactive)
ROOT
ATOM      1  C1  BNZ d   1      -0.599  -0.368  -0.879  0.00  0.00     0.000 A 
ATOM      2  C2  BNZ d   1       0.720  -0.629  -1.140  0.00  0.00     0.000 A 
ATOM      3  C3  BNZ d   1       1.699   0.231  -0.726  0.00  0.00     0.000 A 
ATOM      4  C4  BNZ d   1       1.356   1.369  -0.089  0.00  0.00     0.000 A 
ATOM      5  C5  BNZ d   1       0.030   1.650   0.174  0.00  0.00     0.000 A 
ATOM      6  C6  BNZ d   1      -0.950   0.763  -0.210  0.00  0.00     0.000 A 
ENDROOT
TORSDOF 0
ENDMDL
