MODEL 1
REMARK minimizedAffinity -4.21064091
REMARK minimizedRMSD -1
REMARK  0 active torsions:
REMARK  status: ('A' for Active; 'I' for Inactive)
ROOT
ATOM      1  C1  BNZ d   1      -1.045   0.842  -0.294  0.00  0.00     0.000 A 
ATOM      2  C2  BNZ d   1       0.260   0.427  -0.338  0.00  0.00     0.000 A 
ATOM      3  C3  BNZ d   1       0.865   0.147  -1.531  0.00  0.00     0.000 A 
ATOM      4  C4  BNZ d   1       0.156   0.244  -2.673  0.00  0.00     0.000 A 
ATOM      5  C5  BNZ d   1      -1.163   0.652  -2.645  0.00  0.00     0.000 A 
ATOM      6  C6  BNZ d   1      -1.758   0.971  -1.446  0.00  0.00     0.000 A 
ENDROOT
TORSDOF 0
ENDMDL
