MODEL 1
REMARK minimizedAffinity 2.60156941
REMARK minimizedRMSD -1
REMARK  0 active torsions:
REMARK  status: ('A' for Active; 'I' for Inactive)
ROOT
ATOM      1  O1  BZF d   1      -0.014   0.480  -1.788  0.00  0.00    -0.204 OA
ATOM      2  C2  BZF d   1      -0.955   1.485  -1.666  0.00  0.00     0.174 A 
ATOM      3  C3  BZF d   1      -1.110   1.840  -0.374  0.00  0.00    -0.012 A 
ATOM      4  C3A BZF d   1      -0.144   1.069   0.347  0.00  0.00    -0.107 A 
ATOM      5  C4  BZF d   1       0.199   0.990   1.666  0.00  0.00     0.055 A 
ATOM      6  C5  BZF d   1       1.134   0.083   2.053  0.00  0.00    -0.016 A 
ATOM      7  C6  BZF d   1       1.743  -0.762   1.148  0.00  0.00     0.022 A 
ATOM      8  C7  BZF d   1       1.439  -0.718  -0.172  0.00  0.00     0.029 A 
ATOM      9  C7A BZF d   1       0.518   0.220  -0.570  0.00  0.00     0.058 A 
ENDROOT
TORSDOF 0
ENDMDL
