MODEL 1
REMARK minimizedAffinity 15.1481752
REMARK minimizedRMSD -1
REMARK  0 active torsions:
REMARK  status: ('A' for Active; 'I' for Inactive)
ROOT
ATOM      1  O1  BZF d   1      -5.392   0.797   2.463  0.00  0.00    -0.204 OA
ATOM      2  C2  BZF d   1      -5.741   0.188   1.273  0.00  0.00     0.174 A 
ATOM      3  C3  BZF d   1      -5.980  -1.126   1.460  0.00  0.00    -0.012 A 
ATOM      4  C3A BZF d   1      -5.859  -1.333   2.871  0.00  0.00    -0.107 A 
ATOM      5  C4  BZF d   1      -5.999  -2.428   3.674  0.00  0.00     0.055 A 
ATOM      6  C5  BZF d   1      -5.740  -2.310   5.003  0.00  0.00    -0.016 A 
ATOM      7  C6  BZF d   1      -5.335  -1.115   5.560  0.00  0.00     0.022 A 
ATOM      8  C7  BZF d   1      -5.187   0.000   4.804  0.00  0.00     0.029 A 
ATOM      9  C7A BZF d   1      -5.479  -0.108   3.467  0.00  0.00     0.058 A 
ENDROOT
TORSDOF 0
ENDMDL
