MODEL 1
REMARK minimizedAffinity 2.36841416
REMARK minimizedRMSD -1
REMARK  0 active torsions:
REMARK  status: ('A' for Active; 'I' for Inactive)
ROOT
ATOM      1  O1  BZF d   1      -0.495   2.122  -0.937  0.00  0.00    -0.204 OA
ATOM      2  C2  BZF d   1      -0.522   1.032  -1.785  0.00  0.00     0.174 A 
ATOM      3  C3  BZF d   1       0.034  -0.046  -1.197  0.00  0.00    -0.012 A 
ATOM      4  C3A BZF d   1       0.350   0.373   0.135  0.00  0.00    -0.107 A 
ATOM      5  C4  BZF d   1       0.907  -0.258   1.210  0.00  0.00     0.055 A 
ATOM      6  C5  BZF d   1       1.147   0.455   2.342  0.00  0.00    -0.016 A 
ATOM      7  C6  BZF d   1       0.846   1.798   2.432  0.00  0.00     0.022 A 
ATOM      8  C7  BZF d   1       0.287   2.465   1.393  0.00  0.00     0.029 A 
ATOM      9  C7A BZF d   1       0.014   1.741   0.259  0.00  0.00     0.058 A 
ENDROOT
TORSDOF 0
ENDMDL
