MODEL 1
REMARK minimizedAffinity -0.430157572
REMARK minimizedRMSD -1
REMARK  0 active torsions:
REMARK  status: ('A' for Active; 'I' for Inactive)
ROOT
ATOM      1  O1  BZF d   1      -0.280   2.562  -1.587  0.00  0.00    -0.204 OA
ATOM      2  C2  BZF d   1      -0.055   3.900  -1.847  0.00  0.00     0.174 A 
ATOM      3  C3  BZF d   1       0.136   4.585  -0.701  0.00  0.00    -0.012 A 
ATOM      4  C3A BZF d   1       0.115   3.598   0.335  0.00  0.00    -0.107 A 
ATOM      5  C4  BZF d   1       0.265   3.657   1.691  0.00  0.00     0.055 A 
ATOM      6  C5  BZF d   1       0.117   2.521   2.422  0.00  0.00    -0.016 A 
ATOM      7  C6  BZF d   1      -0.186   1.312   1.831  0.00  0.00     0.022 A 
ATOM      8  C7  BZF d   1      -0.340   1.203   0.488  0.00  0.00     0.029 A 
ATOM      9  C7A BZF d   1      -0.158   2.342  -0.256  0.00  0.00     0.058 A 
ENDROOT
TORSDOF 0
ENDMDL
