MODEL 1
REMARK minimizedAffinity 5.3294673
REMARK minimizedRMSD -1
REMARK  0 active torsions:
REMARK  status: ('A' for Active; 'I' for Inactive)
ROOT
ATOM      1  O1  BZF d   1       0.775   0.377  -0.920  0.00  0.00    -0.204 OA
ATOM      2  C2  BZF d   1      -0.239   1.314  -0.865  0.00  0.00     0.174 A 
ATOM      3  C3  BZF d   1      -0.613   1.538   0.411  0.00  0.00    -0.012 A 
ATOM      4  C3A BZF d   1       0.281   0.756   1.209  0.00  0.00    -0.107 A 
ATOM      5  C4  BZF d   1       0.423   0.574   2.555  0.00  0.00     0.055 A 
ATOM      6  C5  BZF d   1       1.347  -0.314   3.007  0.00  0.00    -0.016 A 
ATOM      7  C6  BZF d   1       2.142  -1.038   2.143  0.00  0.00     0.022 A 
ATOM      8  C7  BZF d   1       2.042  -0.887   0.800  0.00  0.00     0.029 A 
ATOM      9  C7A BZF d   1       1.131   0.033   0.341  0.00  0.00     0.058 A 
ENDROOT
TORSDOF 0
ENDMDL
