MODEL 1
REMARK minimizedAffinity 7.87063885
REMARK minimizedRMSD -1
REMARK  0 active torsions:
REMARK  status: ('A' for Active; 'I' for Inactive)
ROOT
ATOM      1  O1  BZF d   1      -1.908   1.313  -2.498  0.00  0.00    -0.204 OA
ATOM      2  C2  BZF d   1      -2.980   0.448  -2.611  0.00  0.00     0.174 A 
ATOM      3  C3  BZF d   1      -2.908  -0.526  -1.681  0.00  0.00    -0.012 A 
ATOM      4  C3A BZF d   1      -1.767  -0.200  -0.881  0.00  0.00    -0.107 A 
ATOM      5  C4  BZF d   1      -1.189  -0.781   0.211  0.00  0.00     0.055 A 
ATOM      6  C5  BZF d   1      -0.040  -0.253   0.709  0.00  0.00    -0.016 A 
ATOM      7  C6  BZF d   1       0.559   0.850   0.139  0.00  0.00     0.022 A 
ATOM      8  C7  BZF d   1       0.020   1.465  -0.942  0.00  0.00     0.029 A 
ATOM      9  C7A BZF d   1      -1.159   0.954  -1.428  0.00  0.00     0.058 A 
ENDROOT
TORSDOF 0
ENDMDL
