MODEL 1
REMARK minimizedAffinity 3.3524754
REMARK minimizedRMSD -1
REMARK  0 active torsions:
REMARK  status: ('A' for Active; 'I' for Inactive)
ROOT
ATOM      1  O1  BZF d   1       0.326   1.506   2.847  0.00  0.00    -0.204 OA
ATOM      2  C2  BZF d   1       1.059   0.555   3.530  0.00  0.00     0.174 A 
ATOM      3  C3  BZF d   1       1.482  -0.415   2.693  0.00  0.00    -0.012 A 
ATOM      4  C3A BZF d   1       1.060   0.002   1.391  0.00  0.00    -0.107 A 
ATOM      5  C4  BZF d   1       1.198  -0.535   0.143  0.00  0.00     0.055 A 
ATOM      6  C5  BZF d   1       0.606   0.084  -0.912  0.00  0.00    -0.016 A 
ATOM      7  C6  BZF d   1      -0.134   1.238  -0.755  0.00  0.00     0.022 A 
ATOM      8  C7  BZF d   1      -0.295   1.811   0.463  0.00  0.00     0.029 A 
ATOM      9  C7A BZF d   1       0.330   1.205   1.526  0.00  0.00     0.058 A 
ENDROOT
TORSDOF 0
ENDMDL
