MODEL 1
REMARK minimizedAffinity -4.7061038
REMARK minimizedRMSD -1
REMARK  1 active torsions:
REMARK  status: ('A' for Active; 'I' for Inactive)
REMARK    1  A    between atoms: C1_2  and  C2_3 
ROOT
ATOM      1  C2  UNL d   1      -5.837  -4.855   0.535  0.00  0.00    -0.081 A 
ATOM      2  C3  UNL d   1      -5.863  -5.396  -0.756  0.00  0.00     0.006 A 
ATOM      3  C4  UNL d   1      -5.722  -4.570  -1.874  0.00  0.00     0.002 A 
ATOM      4  C5  UNL d   1      -5.544  -3.191  -1.719  0.00  0.00    -0.080 A 
ATOM      5  C6  UNL d   1      -5.360  -2.296  -2.909  0.00  0.00     0.076 C 
ATOM      6  C7  UNL d   1      -5.535  -2.647  -0.430  0.00  0.00     0.002 A 
ATOM      7  C8  UNL d   1      -5.677  -3.473   0.688  0.00  0.00     0.006 A 
ENDROOT
BRANCH   1   8
ATOM      8  C1  UNL d   1      -5.925  -5.751   1.743  0.00  0.00     0.054 C 
ATOM      9  C   UNL d   1      -4.551  -5.998   2.350  0.00  0.00     0.018 C 
ENDBRANCH   1   8
TORSDOF 1
ENDMDL
