MODEL 1
REMARK minimizedAffinity 6.46756649
REMARK minimizedRMSD -1
REMARK  1 active torsions:
REMARK  status: ('A' for Active; 'I' for Inactive)
REMARK    1  A    between atoms: C1_2  and  C2_3 
ROOT
ATOM      1  C2  UNL d   1      -1.060   2.064   2.996  0.00  0.00    -0.081 A 
ATOM      2  C3  UNL d   1      -1.964   1.488   2.095  0.00  0.00     0.006 A 
ATOM      3  C4  UNL d   1      -2.056   0.099   1.974  0.00  0.00     0.002 A 
ATOM      4  C5  UNL d   1      -1.252  -0.736   2.758  0.00  0.00    -0.080 A 
ATOM      5  C6  UNL d   1      -1.362  -2.229   2.661  0.00  0.00     0.076 C 
ATOM      6  C7  UNL d   1      -0.337  -0.160   3.646  0.00  0.00     0.002 A 
ATOM      7  C8  UNL d   1      -0.244   1.228   3.766  0.00  0.00     0.006 A 
ENDROOT
BRANCH   1   8
ATOM      8  C1  UNL d   1      -1.004   3.560   3.174  0.00  0.00     0.054 C 
ATOM      9  C   UNL d   1      -2.400   4.157   3.276  0.00  0.00     0.018 C 
ENDBRANCH   1   8
TORSDOF 1
ENDMDL
