MODEL 1
REMARK minimizedAffinity -0.437117964
REMARK minimizedRMSD -1
REMARK  1 active torsions:
REMARK  status: ('A' for Active; 'I' for Inactive)
REMARK    1  A    between atoms: C1_2  and  C2_3 
ROOT
ATOM      1  C2  UNL d   1      -5.975  -4.606  -0.241  0.00  0.00    -0.081 A 
ATOM      2  C3  UNL d   1      -5.987  -4.972  -1.592  0.00  0.00     0.006 A 
ATOM      3  C4  UNL d   1      -6.000  -3.995  -2.591  0.00  0.00     0.002 A 
ATOM      4  C5  UNL d   1      -5.994  -2.637  -2.255  0.00  0.00    -0.080 A 
ATOM      5  C6  UNL d   1      -5.977  -1.578  -3.317  0.00  0.00     0.076 C 
ATOM      6  C7  UNL d   1      -6.000  -2.271  -0.905  0.00  0.00     0.002 A 
ATOM      7  C8  UNL d   1      -5.987  -3.247   0.094  0.00  0.00     0.006 A 
ENDROOT
BRANCH   1   8
ATOM      8  C1  UNL d   1      -5.895  -5.656   0.837  0.00  0.00     0.054 C 
ATOM      9  C   UNL d   1      -4.450  -5.981   1.188  0.00  0.00     0.018 C 
ENDBRANCH   1   8
TORSDOF 1
ENDMDL
