MODEL 1
REMARK minimizedAffinity 4.64121389
REMARK minimizedRMSD -1
REMARK  1 active torsions:
REMARK  status: ('A' for Active; 'I' for Inactive)
REMARK    1  A    between atoms: C1_2  and  C2_3 
ROOT
ATOM      1  C2  UNL d   1       1.939   0.079   2.579  0.00  0.00    -0.081 A 
ATOM      2  C3  UNL d   1       1.836  -1.043   3.410  0.00  0.00     0.006 A 
ATOM      3  C4  UNL d   1       0.594  -1.444   3.907  0.00  0.00     0.002 A 
ATOM      4  C5  UNL d   1      -0.566  -0.736   3.575  0.00  0.00    -0.080 A 
ATOM      5  C6  UNL d   1      -1.910  -1.174   4.077  0.00  0.00     0.076 C 
ATOM      6  C7  UNL d   1      -0.461   0.396   2.759  0.00  0.00     0.002 A 
ATOM      7  C8  UNL d   1       0.781   0.798   2.262  0.00  0.00     0.006 A 
ENDROOT
BRANCH   1   8
ATOM      8  C1  UNL d   1       3.269   0.476   1.989  0.00  0.00     0.054 C 
ATOM      9  C   UNL d   1       4.359  -0.517   2.364  0.00  0.00     0.018 C 
ENDBRANCH   1   8
TORSDOF 1
ENDMDL
