MODEL 1
REMARK minimizedAffinity 1.01214397
REMARK minimizedRMSD -1
REMARK  1 active torsions:
REMARK  status: ('A' for Active; 'I' for Inactive)
REMARK    1  A    between atoms: C1_2  and  C2_3 
ROOT
ATOM      1  C2  UNL d   1      -5.680  -3.908  -1.730  0.00  0.00    -0.081 A 
ATOM      2  C3  UNL d   1      -5.665  -5.308  -1.696  0.00  0.00     0.006 A 
ATOM      3  C4  UNL d   1      -5.755  -5.988  -0.479  0.00  0.00     0.002 A 
ATOM      4  C5  UNL d   1      -5.870  -5.281   0.723  0.00  0.00    -0.080 A 
ATOM      5  C6  UNL d   1      -5.998  -5.999   2.033  0.00  0.00     0.076 C 
ATOM      6  C7  UNL d   1      -5.868  -3.882   0.691  0.00  0.00     0.002 A 
ATOM      7  C8  UNL d   1      -5.777  -3.202  -0.526  0.00  0.00     0.006 A 
ENDROOT
BRANCH   1   8
ATOM      8  C1  UNL d   1      -5.648  -3.173  -3.045  0.00  0.00     0.054 C 
ATOM      9  C   UNL d   1      -5.784  -1.671  -2.843  0.00  0.00     0.018 C 
ENDBRANCH   1   8
TORSDOF 1
ENDMDL
