MODEL 1
REMARK minimizedAffinity 6.90905666
REMARK minimizedRMSD -1
REMARK  1 active torsions:
REMARK  status: ('A' for Active; 'I' for Inactive)
REMARK    1  A    between atoms: C1_2  and  C2_3 
ROOT
ATOM      1  C2  UNL d   1      -4.984  -4.809  -0.062  0.00  0.00    -0.081 A 
ATOM      2  C3  UNL d   1      -4.939  -3.503   0.441  0.00  0.00     0.006 A 
ATOM      3  C4  UNL d   1      -5.237  -2.416  -0.384  0.00  0.00     0.002 A 
ATOM      4  C5  UNL d   1      -5.593  -2.616  -1.722  0.00  0.00    -0.080 A 
ATOM      5  C6  UNL d   1      -5.944  -1.460  -2.610  0.00  0.00     0.076 C 
ATOM      6  C7  UNL d   1      -5.621  -3.920  -2.229  0.00  0.00     0.002 A 
ATOM      7  C8  UNL d   1      -5.323  -5.007  -1.405  0.00  0.00     0.006 A 
ENDROOT
BRANCH   1   8
ATOM      8  C1  UNL d   1      -4.727  -5.988   0.842  0.00  0.00     0.054 C 
ATOM      9  C   UNL d   1      -5.687  -6.000   2.023  0.00  0.00     0.018 C 
ENDBRANCH   1   8
TORSDOF 1
ENDMDL
