MODEL 1
REMARK minimizedAffinity 14.2097197
REMARK minimizedRMSD -1
REMARK  1 active torsions:
REMARK  status: ('A' for Active; 'I' for Inactive)
REMARK    1  A    between atoms: C1_2  and  C2_3 
ROOT
ATOM      1  C2  UNL d   1       1.881   4.556  -5.484  0.00  0.00    -0.081 A 
ATOM      2  C3  UNL d   1       2.624   5.400  -4.650  0.00  0.00     0.006 A 
ATOM      3  C4  UNL d   1       3.953   5.101  -4.343  0.00  0.00     0.002 A 
ATOM      4  C5  UNL d   1       4.564   3.958  -4.870  0.00  0.00    -0.080 A 
ATOM      5  C6  UNL d   1       5.999   3.641  -4.572  0.00  0.00     0.076 C 
ATOM      6  C7  UNL d   1       3.816   3.105  -5.689  0.00  0.00     0.002 A 
ATOM      7  C8  UNL d   1       2.487   3.403  -5.996  0.00  0.00     0.006 A 
ENDROOT
BRANCH   1   8
ATOM      8  C1  UNL d   1       0.467   4.910  -5.869  0.00  0.00     0.054 C 
ATOM      9  C   UNL d   1      -0.147   5.890  -4.880  0.00  0.00     0.018 C 
ENDBRANCH   1   8
TORSDOF 1
ENDMDL
