MODEL 1
REMARK minimizedAffinity 14.1861944
REMARK minimizedRMSD -1
REMARK  1 active torsions:
REMARK  status: ('A' for Active; 'I' for Inactive)
REMARK    1  A    between atoms: C1_2  and  C2_3 
ROOT
ATOM      1  C2  UNL d   1       3.737   3.763  -2.977  0.00  0.00    -0.081 A 
ATOM      2  C3  UNL d   1       3.071   4.801  -2.313  0.00  0.00     0.006 A 
ATOM      3  C4  UNL d   1       2.416   4.562  -1.103  0.00  0.00     0.002 A 
ATOM      4  C5  UNL d   1       2.421   3.284  -0.533  0.00  0.00    -0.080 A 
ATOM      5  C6  UNL d   1       1.747   3.022   0.781  0.00  0.00     0.076 C 
ATOM      6  C7  UNL d   1       3.071   2.244  -1.204  0.00  0.00     0.002 A 
ATOM      7  C8  UNL d   1       3.726   2.481  -2.415  0.00  0.00     0.006 A 
ENDROOT
BRANCH   1   8
ATOM      8  C1  UNL d   1       4.499   4.031  -4.249  0.00  0.00     0.054 C 
ATOM      9  C   UNL d   1       5.998   4.093  -3.993  0.00  0.00     0.018 C 
ENDBRANCH   1   8
TORSDOF 1
ENDMDL
