MODEL 1
REMARK minimizedAffinity 2.07990503
REMARK minimizedRMSD -1
REMARK  1 active torsions:
REMARK  status: ('A' for Active; 'I' for Inactive)
REMARK    1  A    between atoms: C1_2  and  C2_3 
ROOT
ATOM      1  C2  UNL d   1      -5.769  -4.523  -1.928  0.00  0.00    -0.081 A 
ATOM      2  C3  UNL d   1      -5.841  -4.290  -3.307  0.00  0.00     0.006 A 
ATOM      3  C4  UNL d   1      -5.928  -2.987  -3.802  0.00  0.00     0.002 A 
ATOM      4  C5  UNL d   1      -5.937  -1.895  -2.928  0.00  0.00    -0.080 A 
ATOM      5  C6  UNL d   1      -6.000  -0.489  -3.448  0.00  0.00     0.076 C 
ATOM      6  C7  UNL d   1      -5.882  -2.127  -1.550  0.00  0.00     0.002 A 
ATOM      7  C8  UNL d   1      -5.796  -3.430  -1.054  0.00  0.00     0.006 A 
ENDROOT
BRANCH   1   8
ATOM      8  C1  UNL d   1      -5.609  -5.923  -1.394  0.00  0.00     0.054 C 
ATOM      9  C   UNL d   1      -4.488  -5.999  -0.368  0.00  0.00     0.018 C 
ENDBRANCH   1   8
TORSDOF 1
ENDMDL
