MODEL 1
REMARK minimizedAffinity 1.04844975
REMARK minimizedRMSD -1
REMARK  1 active torsions:
REMARK  status: ('A' for Active; 'I' for Inactive)
REMARK    1  A    between atoms: C1_2  and  C2_3 
ROOT
ATOM      1  C2  UNL d   1       1.578   1.881  -1.531  0.00  0.00    -0.081 A 
ATOM      2  C3  UNL d   1       0.493   1.105  -1.105  0.00  0.00     0.006 A 
ATOM      3  C4  UNL d   1       0.264  -0.156  -1.659  0.00  0.00     0.002 A 
ATOM      4  C5  UNL d   1       1.120  -0.667  -2.641  0.00  0.00    -0.080 A 
ATOM      5  C6  UNL d   1       0.903  -2.033  -3.221  0.00  0.00     0.076 C 
ATOM      6  C7  UNL d   1       2.194   0.115  -3.079  0.00  0.00     0.002 A 
ATOM      7  C8  UNL d   1       2.423   1.377  -2.526  0.00  0.00     0.006 A 
ENDROOT
BRANCH   1   8
ATOM      8  C1  UNL d   1       1.865   3.215  -0.890  0.00  0.00     0.054 C 
ATOM      9  C   UNL d   1       1.871   3.110   0.628  0.00  0.00     0.018 C 
ENDBRANCH   1   8
TORSDOF 1
ENDMDL
