MODEL 1
REMARK minimizedAffinity 11.1369791
REMARK minimizedRMSD -1
REMARK  1 active torsions:
REMARK  status: ('A' for Active; 'I' for Inactive)
REMARK    1  A    between atoms: C1_2  and  C2_3 
ROOT
ATOM      1  C2  UNL d   1       2.970   3.869  -3.353  0.00  0.00    -0.081 A 
ATOM      2  C3  UNL d   1       2.161   4.698  -2.567  0.00  0.00     0.006 A 
ATOM      3  C4  UNL d   1       1.614   4.226  -1.371  0.00  0.00     0.002 A 
ATOM      4  C5  UNL d   1       1.873   2.922  -0.938  0.00  0.00    -0.080 A 
ATOM      5  C6  UNL d   1       1.317   2.413   0.359  0.00  0.00     0.076 C 
ATOM      6  C7  UNL d   1       2.668   2.088  -1.732  0.00  0.00     0.002 A 
ATOM      7  C8  UNL d   1       3.215   2.559  -2.928  0.00  0.00     0.006 A 
ENDROOT
BRANCH   1   8
ATOM      8  C1  UNL d   1       3.615   4.395  -4.610  0.00  0.00     0.054 C 
ATOM      9  C   UNL d   1       5.072   3.966  -4.707  0.00  0.00     0.018 C 
ENDBRANCH   1   8
TORSDOF 1
ENDMDL
