MODEL 1
REMARK minimizedAffinity 5.40153122
REMARK minimizedRMSD -1
REMARK  1 active torsions:
REMARK  status: ('A' for Active; 'I' for Inactive)
REMARK    1  A    between atoms: C1_2  and  C2_3 
ROOT
ATOM      1  C2  UNL d   1       1.174   0.892   3.246  0.00  0.00    -0.081 A 
ATOM      2  C3  UNL d   1      -0.121   0.425   2.991  0.00  0.00     0.006 A 
ATOM      3  C4  UNL d   1      -1.205   1.307   2.992  0.00  0.00     0.002 A 
ATOM      4  C5  UNL d   1      -1.011   2.670   3.241  0.00  0.00    -0.080 A 
ATOM      5  C6  UNL d   1      -2.162   3.631   3.215  0.00  0.00     0.076 C 
ATOM      6  C7  UNL d   1       0.281   3.133   3.513  0.00  0.00     0.002 A 
ATOM      7  C8  UNL d   1       1.364   2.253   3.512  0.00  0.00     0.006 A 
ENDROOT
BRANCH   1   8
ATOM      8  C1  UNL d   1       2.353  -0.045   3.181  0.00  0.00     0.054 C 
ATOM      9  C   UNL d   1       3.419   0.472   2.225  0.00  0.00     0.018 C 
ENDBRANCH   1   8
TORSDOF 1
ENDMDL
