MODEL 1
REMARK minimizedAffinity 10.881896
REMARK minimizedRMSD -1
REMARK  1 active torsions:
REMARK  status: ('A' for Active; 'I' for Inactive)
REMARK    1  A    between atoms: C1_2  and  C2_3 
ROOT
ATOM      1  C2  UNL d   1       1.629   2.060  -2.047  0.00  0.00    -0.081 A 
ATOM      2  C3  UNL d   1       2.437   1.347  -2.941  0.00  0.00     0.006 A 
ATOM      3  C4  UNL d   1       2.122   0.030  -3.284  0.00  0.00     0.002 A 
ATOM      4  C5  UNL d   1       0.991  -0.593  -2.745  0.00  0.00    -0.080 A 
ATOM      5  C6  UNL d   1       0.625  -1.996  -3.128  0.00  0.00     0.076 C 
ATOM      6  C7  UNL d   1       0.194   0.114  -1.838  0.00  0.00     0.002 A 
ATOM      7  C8  UNL d   1       0.509   1.431  -1.494  0.00  0.00     0.006 A 
ENDROOT
BRANCH   1   8
ATOM      8  C1  UNL d   1       1.930   3.502  -1.725  0.00  0.00     0.054 C 
ATOM      9  C   UNL d   1       2.538   4.221  -2.921  0.00  0.00     0.018 C 
ENDBRANCH   1   8
TORSDOF 1
ENDMDL
