MODEL 1
REMARK minimizedAffinity 2.03760409
REMARK minimizedRMSD -1
REMARK  1 active torsions:
REMARK  status: ('A' for Active; 'I' for Inactive)
REMARK    1  A    between atoms: C1_2  and  C2_3 
ROOT
ATOM      1  C2  UNL d   1      -5.928  -4.868   0.342  0.00  0.00    -0.081 A 
ATOM      2  C3  UNL d   1      -5.984  -5.826  -0.677  0.00  0.00     0.006 A 
ATOM      3  C4  UNL d   1      -5.999  -5.434  -2.018  0.00  0.00     0.002 A 
ATOM      4  C5  UNL d   1      -5.949  -4.079  -2.361  0.00  0.00    -0.080 A 
ATOM      5  C6  UNL d   1      -5.933  -3.646  -3.797  0.00  0.00     0.076 C 
ATOM      6  C7  UNL d   1      -5.911  -3.121  -1.343  0.00  0.00     0.002 A 
ATOM      7  C8  UNL d   1      -5.897  -3.512  -0.002  0.00  0.00     0.006 A 
ENDROOT
BRANCH   1   8
ATOM      8  C1  UNL d   1      -5.847  -5.289   1.787  0.00  0.00     0.054 C 
ATOM      9  C   UNL d   1      -4.533  -5.996   2.085  0.00  0.00     0.018 C 
ENDBRANCH   1   8
TORSDOF 1
ENDMDL
