MODEL 1
REMARK minimizedAffinity 10.001441
REMARK minimizedRMSD -1
REMARK  1 active torsions:
REMARK  status: ('A' for Active; 'I' for Inactive)
REMARK    1  A    between atoms: C1_2  and  C2_3 
ROOT
ATOM      1  C2  UNL d   1       4.495   4.026  -5.166  0.00  0.00    -0.081 A 
ATOM      2  C3  UNL d   1       4.227   5.260  -4.559  0.00  0.00     0.006 A 
ATOM      3  C4  UNL d   1       2.944   5.810  -4.608  0.00  0.00     0.002 A 
ATOM      4  C5  UNL d   1       1.906   5.132  -5.257  0.00  0.00    -0.080 A 
ATOM      5  C6  UNL d   1       0.517   5.697  -5.291  0.00  0.00     0.076 C 
ATOM      6  C7  UNL d   1       2.177   3.909  -5.879  0.00  0.00     0.002 A 
ATOM      7  C8  UNL d   1       3.460   3.359  -5.831  0.00  0.00     0.006 A 
ENDROOT
BRANCH   1   8
ATOM      8  C1  UNL d   1       5.862   3.400  -5.059  0.00  0.00     0.054 C 
ATOM      9  C   UNL d   1       5.998   2.207  -5.994  0.00  0.00     0.018 C 
ENDBRANCH   1   8
TORSDOF 1
ENDMDL
