MODEL 1
REMARK minimizedAffinity -4.30924368
REMARK minimizedRMSD -1
REMARK  0 active torsions:
REMARK  status: ('A' for Active; 'I' for Inactive)
ROOT
ATOM      1  C4' PXY d   1       0.738   1.130  -1.510  0.00  0.00     0.077 C 
ATOM      2  C1' PXY d   1      -1.301  -0.827   3.533  0.00  0.00     0.077 C 
ATOM      3  C1  PXY d   1      -0.775  -0.321   2.204  0.00  0.00    -0.082 A 
ATOM      4  C2  PXY d   1       0.472   0.113   2.116  0.00  0.00     0.003 A 
ATOM      5  C3  PXY d   1       0.954   0.604   0.930  0.00  0.00     0.003 A 
ATOM      6  C4  PXY d   1       0.168   0.601  -0.191  0.00  0.00    -0.082 A 
ATOM      7  C5  PXY d   1      -1.102   0.151  -0.112  0.00  0.00     0.003 A 
ATOM      8  C6  PXY d   1      -1.585  -0.305   1.111  0.00  0.00     0.003 A 
ENDROOT
TORSDOF 0
ENDMDL
