MODEL 1
REMARK minimizedAffinity -1.50414002
REMARK minimizedRMSD -1
REMARK  0 active torsions:
REMARK  status: ('A' for Active; 'I' for Inactive)
ROOT
ATOM      1  C4' PXY d   1       0.759   0.429  -2.198  0.00  0.00     0.077 C 
ATOM      2  C1' PXY d   1      -1.166  -1.032   3.053  0.00  0.00     0.077 C 
ATOM      3  C1  PXY d   1      -0.653  -0.640   1.681  0.00  0.00    -0.082 A 
ATOM      4  C2  PXY d   1      -1.433  -0.792   0.623  0.00  0.00     0.003 A 
ATOM      5  C3  PXY d   1      -0.973  -0.473  -0.628  0.00  0.00     0.003 A 
ATOM      6  C4  PXY d   1       0.279   0.056  -0.793  0.00  0.00    -0.082 A 
ATOM      7  C5  PXY d   1       1.077   0.224   0.283  0.00  0.00     0.003 A 
ATOM      8  C6  PXY d   1       0.607  -0.145   1.540  0.00  0.00     0.003 A 
ENDROOT
TORSDOF 0
ENDMDL
