MODEL 1
REMARK minimizedAffinity -5.17785263
REMARK minimizedRMSD -1
REMARK  0 active torsions:
REMARK  status: ('A' for Active; 'I' for Inactive)
ROOT
ATOM      1  C4' PXY d   1       1.310   0.160  -1.730  0.00  0.00     0.077 C 
ATOM      2  C1' PXY d   1      -1.389  -0.072   3.377  0.00  0.00     0.077 C 
ATOM      3  C1  PXY d   1      -0.692  -0.014   2.031  0.00  0.00    -0.082 A 
ATOM      4  C2  PXY d   1       0.609  -0.244   1.958  0.00  0.00     0.003 A 
ATOM      5  C3  PXY d   1       1.260  -0.164   0.754  0.00  0.00     0.003 A 
ATOM      6  C4  PXY d   1       0.563   0.103  -0.394  0.00  0.00    -0.082 A 
ATOM      7  C5  PXY d   1      -0.766   0.328  -0.329  0.00  0.00     0.003 A 
ATOM      8  C6  PXY d   1      -1.401   0.282   0.908  0.00  0.00     0.003 A 
ENDROOT
TORSDOF 0
ENDMDL
