MODEL 1
REMARK minimizedAffinity -5.43107796
REMARK minimizedRMSD -1
REMARK  0 active torsions:
REMARK  status: ('A' for Active; 'I' for Inactive)
ROOT
ATOM      1  C4' PXY d   1       0.738   0.200  -2.205  0.00  0.00     0.077 C 
ATOM      2  C1' PXY d   1      -0.799  -0.560   3.316  0.00  0.00     0.077 C 
ATOM      3  C1  PXY d   1      -0.387  -0.353   1.872  0.00  0.00    -0.082 A 
ATOM      4  C2  PXY d   1      -1.268  -0.551   0.905  0.00  0.00     0.003 A 
ATOM      5  C3  PXY d   1      -0.902  -0.399  -0.408  0.00  0.00     0.003 A 
ATOM      6  C4  PXY d   1       0.363   0.012  -0.732  0.00  0.00    -0.082 A 
ATOM      7  C5  PXY d   1       1.265   0.226   0.249  0.00  0.00     0.003 A 
ATOM      8  C6  PXY d   1       0.886   0.027   1.574  0.00  0.00     0.003 A 
ENDROOT
TORSDOF 0
ENDMDL
