MODEL 1
REMARK minimizedAffinity -3.88721514
REMARK minimizedRMSD -1
REMARK  0 active torsions:
REMARK  status: ('A' for Active; 'I' for Inactive)
ROOT
ATOM      1  C4' PXY d   1       0.424   0.400  -1.637  0.00  0.00     0.077 C 
ATOM      2  C1' PXY d   1      -1.525  -0.740   3.685  0.00  0.00     0.077 C 
ATOM      3  C1  PXY d   1      -1.004  -0.435   2.294  0.00  0.00    -0.082 A 
ATOM      4  C2  PXY d   1      -1.838  -0.442   1.267  0.00  0.00     0.003 A 
ATOM      5  C3  PXY d   1      -1.378  -0.199  -0.002  0.00  0.00     0.003 A 
ATOM      6  C4  PXY d   1      -0.060   0.107  -0.214  0.00  0.00    -0.082 A 
ATOM      7  C5  PXY d   1       0.795   0.127   0.831  0.00  0.00     0.003 A 
ATOM      8  C6  PXY d   1       0.316  -0.163   2.105  0.00  0.00     0.003 A 
ENDROOT
TORSDOF 0
ENDMDL
