MODEL 1
REMARK minimizedAffinity -4.97201777
REMARK minimizedRMSD -1
REMARK  0 active torsions:
REMARK  status: ('A' for Active; 'I' for Inactive)
ROOT
ATOM      1  C4' PXY d   1      -1.031  -0.464   3.459  0.00  0.00     0.077 C 
ATOM      2  C1' PXY d   1      -0.209   0.231  -2.220  0.00  0.00     0.077 C 
ATOM      3  C1  PXY d   1      -0.436   0.055  -0.732  0.00  0.00    -0.082 A 
ATOM      4  C2  PXY d   1       0.600  -0.125   0.071  0.00  0.00     0.003 A 
ATOM      5  C3  PXY d   1       0.411  -0.318   1.415  0.00  0.00     0.003 A 
ATOM      6  C4  PXY d   1      -0.848  -0.273   1.951  0.00  0.00    -0.082 A 
ATOM      7  C5  PXY d   1      -1.910  -0.079   1.140  0.00  0.00     0.003 A 
ATOM      8  C6  PXY d   1      -1.700   0.074  -0.227  0.00  0.00     0.003 A 
ENDROOT
TORSDOF 0
ENDMDL
