MODEL 1
REMARK minimizedAffinity -5.37285709
REMARK minimizedRMSD -1
REMARK  0 active torsions:
REMARK  status: ('A' for Active; 'I' for Inactive)
ROOT
ATOM      1  C4' PXY d   1       0.996  -0.726  -2.948  0.00  0.00     0.077 C 
ATOM      2  C1' PXY d   1      -0.217  -0.034   2.662  0.00  0.00     0.077 C 
ATOM      3  C1  PXY d   1       0.107  -0.204   1.190  0.00  0.00    -0.082 A 
ATOM      4  C2  PXY d   1      -0.624  -1.021   0.450  0.00  0.00     0.003 A 
ATOM      5  C3  PXY d   1      -0.325  -1.211  -0.875  0.00  0.00     0.003 A 
ATOM      6  C4  PXY d   1       0.699  -0.516  -1.460  0.00  0.00    -0.082 A 
ATOM      7  C5  PXY d   1       1.443   0.328  -0.714  0.00  0.00     0.003 A 
ATOM      8  C6  PXY d   1       1.149   0.475   0.639  0.00  0.00     0.003 A 
ENDROOT
TORSDOF 0
ENDMDL
