MODEL 1
REMARK minimizedAffinity -4.05185699
REMARK minimizedRMSD -1
REMARK  0 active torsions:
REMARK  status: ('A' for Active; 'I' for Inactive)
ROOT
ATOM      1  C4' PXY d   1       0.527   0.230  -1.649  0.00  0.00     0.077 C 
ATOM      2  C1' PXY d   1      -1.441  -0.735   3.700  0.00  0.00     0.077 C 
ATOM      3  C1  PXY d   1      -0.915  -0.476   2.302  0.00  0.00    -0.082 A 
ATOM      4  C2  PXY d   1      -1.749  -0.492   1.276  0.00  0.00     0.003 A 
ATOM      5  C3  PXY d   1      -1.285  -0.291   0.001  0.00  0.00     0.003 A 
ATOM      6  C4  PXY d   1       0.038  -0.018  -0.219  0.00  0.00    -0.082 A 
ATOM      7  C5  PXY d   1       0.894   0.011   0.824  0.00  0.00     0.003 A 
ATOM      8  C6  PXY d   1       0.410  -0.236   2.106  0.00  0.00     0.003 A 
ENDROOT
TORSDOF 0
ENDMDL
