MODEL 1
REMARK minimizedAffinity -3.92841959
REMARK minimizedRMSD -1
REMARK  0 active torsions:
REMARK  status: ('A' for Active; 'I' for Inactive)
ROOT
ATOM      1  C4' PXY d   1       0.729   0.036  -2.161  0.00  0.00     0.077 C 
ATOM      2  C1' PXY d   1      -0.702  -0.703   3.391  0.00  0.00     0.077 C 
ATOM      3  C1  PXY d   1      -0.317  -0.500   1.939  0.00  0.00    -0.082 A 
ATOM      4  C2  PXY d   1      -1.208  -0.731   0.988  0.00  0.00     0.003 A 
ATOM      5  C3  PXY d   1      -0.867  -0.584  -0.332  0.00  0.00     0.003 A 
ATOM      6  C4  PXY d   1       0.382  -0.145  -0.681  0.00  0.00    -0.082 A 
ATOM      7  C5  PXY d   1       1.293   0.102   0.284  0.00  0.00     0.003 A 
ATOM      8  C6  PXY d   1       0.940  -0.093   1.616  0.00  0.00     0.003 A 
ENDROOT
TORSDOF 0
ENDMDL
