MODEL 1
REMARK minimizedAffinity -4.6427207
REMARK minimizedRMSD -1
REMARK  0 active torsions:
REMARK  status: ('A' for Active; 'I' for Inactive)
ROOT
ATOM      1  C4' PXY d   1       0.395   0.297  -2.363  0.00  0.00     0.077 C 
ATOM      2  C1' PXY d   1      -0.252  -0.712   3.292  0.00  0.00     0.077 C 
ATOM      3  C1  PXY d   1      -0.091  -0.457   1.806  0.00  0.00    -0.082 A 
ATOM      4  C2  PXY d   1       1.024   0.092   1.354  0.00  0.00     0.003 A 
ATOM      5  C3  PXY d   1       1.174   0.359   0.017  0.00  0.00     0.003 A 
ATOM      6  C4  PXY d   1       0.192   0.012  -0.872  0.00  0.00    -0.082 A 
ATOM      7  C5  PXY d   1      -0.945  -0.558  -0.420  0.00  0.00     0.003 A 
ATOM      8  C6  PXY d   1      -1.093  -0.783   0.945  0.00  0.00     0.003 A 
ENDROOT
TORSDOF 0
ENDMDL
