MODEL 1
REMARK minimizedAffinity -4.99233007
REMARK minimizedRMSD -1
REMARK  0 active torsions:
REMARK  status: ('A' for Active; 'I' for Inactive)
ROOT
ATOM      1  C4' PXY d   1       0.747   0.521  -1.854  0.00  0.00     0.077 C 
ATOM      2  C1' PXY d   1      -0.935  -0.420   3.596  0.00  0.00     0.077 C 
ATOM      3  C1  PXY d   1      -0.504  -0.180   2.162  0.00  0.00    -0.082 A 
ATOM      4  C2  PXY d   1       0.764   0.090   1.897  0.00  0.00     0.003 A 
ATOM      5  C3  PXY d   1       1.164   0.342   0.610  0.00  0.00     0.003 A 
ATOM      6  C4  PXY d   1       0.269   0.263  -0.423  0.00  0.00    -0.082 A 
ATOM      7  C5  PXY d   1      -1.024  -0.023  -0.161  0.00  0.00     0.003 A 
ATOM      8  C6  PXY d   1      -1.419  -0.234   1.156  0.00  0.00     0.003 A 
ENDROOT
TORSDOF 0
ENDMDL
