MODEL 1
REMARK minimizedAffinity -5.62132883
REMARK minimizedRMSD -1
REMARK  0 active torsions:
REMARK  status: ('A' for Active; 'I' for Inactive)
ROOT
ATOM      1  C4' PXY d   1      -0.031  -0.011  -1.423  0.00  0.00     0.077 C 
ATOM      2  C1' PXY d   1      -1.597  -0.221   4.137  0.00  0.00     0.077 C 
ATOM      3  C1  PXY d   1      -1.175  -0.160   2.682  0.00  0.00    -0.082 A 
ATOM      4  C2  PXY d   1      -2.087  -0.284   1.732  0.00  0.00     0.003 A 
ATOM      5  C3  PXY d   1      -1.719  -0.263   0.411  0.00  0.00     0.003 A 
ATOM      6  C4  PXY d   1      -0.412  -0.058   0.059  0.00  0.00    -0.082 A 
ATOM      7  C5  PXY d   1       0.523   0.081   1.023  0.00  0.00     0.003 A 
ATOM      8  C6  PXY d   1       0.135   0.014   2.358  0.00  0.00     0.003 A 
ENDROOT
TORSDOF 0
ENDMDL
