MODEL 1
REMARK minimizedAffinity -5.58962488
REMARK minimizedRMSD -1
REMARK  0 active torsions:
REMARK  status: ('A' for Active; 'I' for Inactive)
ROOT
ATOM      1  C4' PXY d   1      -2.059  -0.013   3.679  0.00  0.00     0.077 C 
ATOM      2  C1' PXY d   1       0.547   0.268  -1.473  0.00  0.00     0.077 C 
ATOM      3  C1  PXY d   1      -0.147   0.199  -0.127  0.00  0.00    -0.082 A 
ATOM      4  C2  PXY d   1       0.574   0.213   0.983  0.00  0.00     0.003 A 
ATOM      5  C3  PXY d   1      -0.036   0.119   2.207  0.00  0.00     0.003 A 
ATOM      6  C4  PXY d   1      -1.401   0.064   2.299  0.00  0.00    -0.082 A 
ATOM      7  C5  PXY d   1      -2.144   0.060   1.172  0.00  0.00     0.003 A 
ATOM      8  C6  PXY d   1      -1.503   0.114  -0.063  0.00  0.00     0.003 A 
ENDROOT
TORSDOF 0
ENDMDL
