MODEL 1
REMARK minimizedAffinity -4.55960226
REMARK minimizedRMSD -1
REMARK  0 active torsions:
REMARK  status: ('A' for Active; 'I' for Inactive)
ROOT
ATOM      1  C4' PXY d   1       0.432   0.722  -1.943  0.00  0.00     0.077 C 
ATOM      2  C1' PXY d   1      -0.718  -0.626   3.560  0.00  0.00     0.077 C 
ATOM      3  C1  PXY d   1      -0.427  -0.278   2.113  0.00  0.00    -0.082 A 
ATOM      4  C2  PXY d   1       0.820  -0.051   1.732  0.00  0.00     0.003 A 
ATOM      5  C3  PXY d   1       1.096   0.295   0.435  0.00  0.00     0.003 A 
ATOM      6  C4  PXY d   1       0.093   0.359  -0.494  0.00  0.00    -0.082 A 
ATOM      7  C5  PXY d   1      -1.180   0.118  -0.116  0.00  0.00     0.003 A 
ATOM      8  C6  PXY d   1      -1.445  -0.192   1.215  0.00  0.00     0.003 A 
ENDROOT
TORSDOF 0
ENDMDL
