MODEL 1
REMARK minimizedAffinity -4.09511328
REMARK minimizedRMSD -1
REMARK  0 active torsions:
REMARK  status: ('A' for Active; 'I' for Inactive)
ROOT
ATOM      1  C4' PXY d   1      -0.969   1.520  -1.896  0.00  0.00     0.077 C 
ATOM      2  C1' PXY d   1      -0.351  -1.403   3.052  0.00  0.00     0.077 C 
ATOM      3  C1  PXY d   1      -0.500  -0.635   1.754  0.00  0.00    -0.082 A 
ATOM      4  C2  PXY d   1      -1.663  -0.081   1.452  0.00  0.00     0.003 A 
ATOM      5  C3  PXY d   1      -1.825   0.591   0.268  0.00  0.00     0.003 A 
ATOM      6  C4  PXY d   1      -0.770   0.742  -0.592  0.00  0.00    -0.082 A 
ATOM      7  C5  PXY d   1       0.423   0.190  -0.286  0.00  0.00     0.003 A 
ATOM      8  C6  PXY d   1       0.555  -0.523   0.902  0.00  0.00     0.003 A 
ENDROOT
TORSDOF 0
ENDMDL
