MODEL 1
REMARK minimizedAffinity -3.79607415
REMARK minimizedRMSD -1
REMARK  0 active torsions:
REMARK  status: ('A' for Active; 'I' for Inactive)
ROOT
ATOM      1  C4' PXY d   1      -1.705  -0.722   2.315  0.00  0.00     0.077 C 
ATOM      2  C1' PXY d   1       0.757   0.625  -2.739  0.00  0.00     0.077 C 
ATOM      3  C1  PXY d   1       0.105   0.283  -1.414  0.00  0.00    -0.082 A 
ATOM      4  C2  PXY d   1       0.657  -0.629  -0.629  0.00  0.00     0.003 A 
ATOM      5  C3  PXY d   1       0.064  -0.973   0.558  0.00  0.00     0.003 A 
ATOM      6  C4  PXY d   1      -1.077  -0.339   0.972  0.00  0.00    -0.082 A 
ATOM      7  C5  PXY d   1      -1.640   0.600   0.182  0.00  0.00     0.003 A 
ATOM      8  C6  PXY d   1      -1.045   0.906  -1.038  0.00  0.00     0.003 A 
ENDROOT
TORSDOF 0
ENDMDL
