MODEL 1
REMARK minimizedAffinity -3.88910961
REMARK minimizedRMSD -1
REMARK  0 active torsions:
REMARK  status: ('A' for Active; 'I' for Inactive)
ROOT
ATOM      1  C4' PXY d   1       0.807   0.166  -2.005  0.00  0.00     0.077 C 
ATOM      2  C1' PXY d   1      -0.715   0.056   3.571  0.00  0.00     0.077 C 
ATOM      3  C1  PXY d   1      -0.306   0.092   2.112  0.00  0.00    -0.082 A 
ATOM      4  C2  PXY d   1      -1.210  -0.134   1.173  0.00  0.00     0.003 A 
ATOM      5  C3  PXY d   1      -0.850  -0.137  -0.150  0.00  0.00     0.003 A 
ATOM      6  C4  PXY d   1       0.437   0.149  -0.519  0.00  0.00    -0.082 A 
ATOM      7  C5  PXY d   1       1.363   0.392   0.433  0.00  0.00     0.003 A 
ATOM      8  C6  PXY d   1       0.987   0.349   1.772  0.00  0.00     0.003 A 
ENDROOT
TORSDOF 0
ENDMDL
