MODEL 1
REMARK minimizedAffinity -2.49255896
REMARK minimizedRMSD -1
REMARK  0 active torsions:
REMARK  status: ('A' for Active; 'I' for Inactive)
ROOT
ATOM      1  C4' PXY d   1       0.378   1.349  -1.856  0.00  0.00     0.077 C 
ATOM      2  C1' PXY d   1      -1.346  -1.153   3.062  0.00  0.00     0.077 C 
ATOM      3  C1  PXY d   1      -0.903  -0.504   1.766  0.00  0.00    -0.082 A 
ATOM      4  C2  PXY d   1       0.322  -0.012   1.666  0.00  0.00     0.003 A 
ATOM      5  C3  PXY d   1       0.728   0.607   0.512  0.00  0.00     0.003 A 
ATOM      6  C4  PXY d   1      -0.109   0.676  -0.569  0.00  0.00    -0.082 A 
ATOM      7  C5  PXY d   1      -1.356   0.167  -0.479  0.00  0.00     0.003 A 
ATOM      8  C6  PXY d   1      -1.763  -0.421   0.715  0.00  0.00     0.003 A 
ENDROOT
TORSDOF 0
ENDMDL
