MODEL 1
REMARK minimizedAffinity -2.72170067
REMARK minimizedRMSD -1
REMARK  0 active torsions:
REMARK  status: ('A' for Active; 'I' for Inactive)
ROOT
ATOM      1  C4' PXY d   1      -0.247  -0.767   3.308  0.00  0.00     0.077 C 
ATOM      2  C1' PXY d   1      -0.205   0.759  -2.267  0.00  0.00     0.077 C 
ATOM      3  C1  PXY d   1      -0.203   0.358  -0.805  0.00  0.00    -0.082 A 
ATOM      4  C2  PXY d   1      -1.299  -0.151  -0.265  0.00  0.00     0.003 A 
ATOM      5  C3  PXY d   1      -1.324  -0.489   1.063  0.00  0.00     0.003 A 
ATOM      6  C4  PXY d   1      -0.200  -0.356   1.834  0.00  0.00    -0.082 A 
ATOM      7  C5  PXY d   1       0.925   0.152   1.287  0.00  0.00     0.003 A 
ATOM      8  C6  PXY d   1       0.917   0.528  -0.053  0.00  0.00     0.003 A 
ENDROOT
TORSDOF 0
ENDMDL
