MODEL 1
REMARK minimizedAffinity 0.50654155
REMARK minimizedRMSD -1
REMARK  2 active torsions:
REMARK  status: ('A' for Active; 'I' for Inactive)
REMARK    1  A    between atoms: C2'_3  and  C1'_4 
REMARK    2  A    between atoms: C1'_4  and  C1_5 
ROOT
ATOM      1  C1  I4B d   1       4.387   5.673   0.049  0.00  0.00    -0.075 A 
ATOM      2  C2  I4B d   1       3.212   5.121   0.493  0.00  0.00     0.003 A 
ATOM      3  C3  I4B d   1       2.167   4.840  -0.420  0.00  0.00     0.002 A 
ATOM      4  C4  I4B d   1       2.320   5.170  -1.751  0.00  0.00    -0.004 A 
ATOM      5  C5  I4B d   1       3.521   5.709  -2.203  0.00  0.00     0.002 A 
ATOM      6  C6  I4B d   1       4.566   5.951  -1.300  0.00  0.00     0.003 A 
ENDROOT
BRANCH   1   7
ATOM      7  C1' I4B d   1       5.458   5.988   1.045  0.00  0.00     0.060 C 
BRANCH   7   8
ATOM      8  C2' I4B d   1       5.195   5.162   2.288  0.00  0.00    -0.013 C 
ATOM      9  C4' I4B d   1       5.981   3.878   2.265  0.00  0.00     0.013 C 
ATOM     10  C3' I4B d   1       5.555   5.996   3.482  0.00  0.00     0.013 C 
ENDBRANCH   7   8
ENDBRANCH   1   7
TORSDOF 2
ENDMDL
