MODEL 1
REMARK minimizedAffinity 3.53382564
REMARK minimizedRMSD -1
REMARK  2 active torsions:
REMARK  status: ('A' for Active; 'I' for Inactive)
REMARK    1  A    between atoms: C2'_3  and  C1'_4 
REMARK    2  A    between atoms: C1'_4  and  C1_5 
ROOT
ATOM      1  C1  I4B d   1       2.346   0.105  -2.380  0.00  0.00    -0.075 A 
ATOM      2  C2  I4B d   1       1.319   0.844  -1.847  0.00  0.00     0.003 A 
ATOM      3  C3  I4B d   1       0.814   1.968  -2.543  0.00  0.00     0.002 A 
ATOM      4  C4  I4B d   1       1.394   2.346  -3.737  0.00  0.00    -0.004 A 
ATOM      5  C5  I4B d   1       2.419   1.582  -4.287  0.00  0.00     0.002 A 
ATOM      6  C6  I4B d   1       2.890   0.447  -3.611  0.00  0.00     0.003 A 
ENDROOT
BRANCH   1   7
ATOM      7  C1' I4B d   1       2.877  -1.057  -1.602  0.00  0.00     0.060 C 
BRANCH   7   8
ATOM      8  C2' I4B d   1       1.775  -2.090  -1.494  0.00  0.00    -0.013 C 
ATOM      9  C4' I4B d   1       1.379  -2.609  -2.851  0.00  0.00     0.013 C 
ATOM     10  C3' I4B d   1       2.264  -3.200  -0.612  0.00  0.00     0.013 C 
ENDBRANCH   7   8
ENDBRANCH   1   7
TORSDOF 2
ENDMDL
