MODEL 1
REMARK minimizedAffinity 0.480558664
REMARK minimizedRMSD -1
REMARK  2 active torsions:
REMARK  status: ('A' for Active; 'I' for Inactive)
REMARK    1  A    between atoms: C2'_3  and  C1'_4 
REMARK    2  A    between atoms: C1'_4  and  C1_5 
ROOT
ATOM      1  C1  I4B d   1       0.775  -0.742  -0.956  0.00  0.00    -0.075 A 
ATOM      2  C2  I4B d   1       0.988  -1.725  -0.021  0.00  0.00     0.003 A 
ATOM      3  C3  I4B d   1       2.138  -2.548  -0.102  0.00  0.00     0.002 A 
ATOM      4  C4  I4B d   1       3.015  -2.388  -1.155  0.00  0.00    -0.004 A 
ATOM      5  C5  I4B d   1       2.809  -1.376  -2.088  0.00  0.00     0.002 A 
ATOM      6  C6  I4B d   1       1.689  -0.540  -1.981  0.00  0.00     0.003 A 
ENDROOT
BRANCH   1   7
ATOM      7  C1' I4B d   1      -0.467   0.087  -0.859  0.00  0.00     0.060 C 
BRANCH   7   8
ATOM      8  C2' I4B d   1      -0.050   1.538  -0.729  0.00  0.00    -0.013 C 
ATOM      9  C4' I4B d   1      -0.404   2.320  -1.967  0.00  0.00     0.013 C 
ATOM     10  C3' I4B d   1      -0.726   2.107   0.483  0.00  0.00     0.013 C 
ENDBRANCH   7   8
ENDBRANCH   1   7
TORSDOF 2
ENDMDL
