MODEL 1
REMARK minimizedAffinity 3.10281754
REMARK minimizedRMSD -1
REMARK  2 active torsions:
REMARK  status: ('A' for Active; 'I' for Inactive)
REMARK    1  A    between atoms: C2'_3  and  C1'_4 
REMARK    2  A    between atoms: C1'_4  and  C1_5 
ROOT
ATOM      1  C1  I4B d   1       1.097   1.212  -0.126  0.00  0.00    -0.075 A 
ATOM      2  C2  I4B d   1       0.419   2.189  -0.811  0.00  0.00     0.003 A 
ATOM      3  C3  I4B d   1       0.477   2.239  -2.225  0.00  0.00     0.002 A 
ATOM      4  C4  I4B d   1       1.261   1.330  -2.905  0.00  0.00    -0.004 A 
ATOM      5  C5  I4B d   1       1.929   0.326  -2.211  0.00  0.00     0.002 A 
ATOM      6  C6  I4B d   1       1.838   0.259  -0.813  0.00  0.00     0.003 A 
ENDROOT
BRANCH   1   7
ATOM      7  C1' I4B d   1       1.041   1.208   1.369  0.00  0.00     0.060 C 
BRANCH   7   8
ATOM      8  C2' I4B d   1       2.388   1.667   1.888  0.00  0.00    -0.013 C 
ATOM      9  C4' I4B d   1       3.275   0.494   2.213  0.00  0.00     0.013 C 
ATOM     10  C3' I4B d   1       3.012   2.545   0.845  0.00  0.00     0.013 C 
ENDBRANCH   7   8
ENDBRANCH   1   7
TORSDOF 2
ENDMDL
