MODEL 1
REMARK minimizedAffinity 11.8137217
REMARK minimizedRMSD -1
REMARK  2 active torsions:
REMARK  status: ('A' for Active; 'I' for Inactive)
REMARK    1  A    between atoms: C2'_3  and  C1'_4 
REMARK    2  A    between atoms: C1'_4  and  C1_5 
ROOT
ATOM      1  C1  I4B d   1      -4.735   0.488   2.781  0.00  0.00    -0.075 A 
ATOM      2  C2  I4B d   1      -4.463  -0.750   2.253  0.00  0.00     0.003 A 
ATOM      3  C3  I4B d   1      -4.950  -1.101   0.971  0.00  0.00     0.002 A 
ATOM      4  C4  I4B d   1      -5.741  -0.209   0.276  0.00  0.00    -0.004 A 
ATOM      5  C5  I4B d   1      -5.996   1.054   0.803  0.00  0.00     0.002 A 
ATOM      6  C6  I4B d   1      -5.480   1.410   2.057  0.00  0.00     0.003 A 
ENDROOT
BRANCH   1   7
ATOM      7  C1' I4B d   1      -4.233   0.813   4.152  0.00  0.00     0.060 C 
BRANCH   7   8
ATOM      8  C2' I4B d   1      -5.103   0.080   5.153  0.00  0.00    -0.013 C 
ATOM      9  C4' I4B d   1      -4.286  -0.860   5.999  0.00  0.00     0.013 C 
ATOM     10  C3' I4B d   1      -5.799   1.105   5.999  0.00  0.00     0.013 C 
ENDBRANCH   7   8
ENDBRANCH   1   7
TORSDOF 2
ENDMDL
