MODEL 1
REMARK minimizedAffinity 10.1245584
REMARK minimizedRMSD -1
REMARK  2 active torsions:
REMARK  status: ('A' for Active; 'I' for Inactive)
REMARK    1  A    between atoms: C2'_3  and  C1'_4 
REMARK    2  A    between atoms: C1'_4  and  C1_5 
ROOT
ATOM      1  C1  I4B d   1      -0.112  -1.693  -1.593  0.00  0.00    -0.075 A 
ATOM      2  C2  I4B d   1       0.579  -1.871  -2.766  0.00  0.00     0.003 A 
ATOM      3  C3  I4B d   1       1.995  -1.899  -2.762  0.00  0.00     0.002 A 
ATOM      4  C4  I4B d   1       2.675  -1.696  -1.579  0.00  0.00    -0.004 A 
ATOM      5  C5  I4B d   1       1.973  -1.540  -0.387  0.00  0.00     0.002 A 
ATOM      6  C6  I4B d   1       0.571  -1.550  -0.392  0.00  0.00     0.003 A 
ENDROOT
BRANCH   1   7
ATOM      7  C1' I4B d   1      -1.606  -1.636  -1.638  0.00  0.00     0.060 C 
BRANCH   7   8
ATOM      8  C2' I4B d   1      -2.072  -0.737  -0.511  0.00  0.00    -0.013 C 
ATOM      9  C4' I4B d   1      -1.448   0.630  -0.609  0.00  0.00     0.013 C 
ATOM     10  C3' I4B d   1      -3.569  -0.655  -0.573  0.00  0.00     0.013 C 
ENDBRANCH   7   8
ENDBRANCH   1   7
TORSDOF 2
ENDMDL
