MODEL 1
REMARK minimizedAffinity 7.52471304
REMARK minimizedRMSD -1
REMARK  2 active torsions:
REMARK  status: ('A' for Active; 'I' for Inactive)
REMARK    1  A    between atoms: C2'_3  and  C1'_4 
REMARK    2  A    between atoms: C1'_4  and  C1_5 
ROOT
ATOM      1  C1  I4B d   1       2.905  -2.611   1.948  0.00  0.00    -0.075 A 
ATOM      2  C2  I4B d   1       2.956  -1.243   1.844  0.00  0.00     0.003 A 
ATOM      3  C3  I4B d   1       4.056  -0.528   2.377  0.00  0.00     0.002 A 
ATOM      4  C4  I4B d   1       5.052  -1.211   3.044  0.00  0.00    -0.004 A 
ATOM      5  C5  I4B d   1       5.010  -2.600   3.128  0.00  0.00     0.002 A 
ATOM      6  C6  I4B d   1       3.937  -3.306   2.566  0.00  0.00     0.003 A 
ENDROOT
BRANCH   1   7
ATOM      7  C1' I4B d   1       1.713  -3.331   1.404  0.00  0.00     0.060 C 
BRANCH   7   8
ATOM      8  C2' I4B d   1       1.844  -3.378  -0.105  0.00  0.00    -0.013 C 
ATOM      9  C4' I4B d   1       1.488  -2.053  -0.725  0.00  0.00     0.013 C 
ATOM     10  C3' I4B d   1       3.253  -3.770  -0.435  0.00  0.00     0.013 C 
ENDBRANCH   7   8
ENDBRANCH   1   7
TORSDOF 2
ENDMDL
