MODEL 1
REMARK minimizedAffinity 11.5992966
REMARK minimizedRMSD -1
REMARK  2 active torsions:
REMARK  status: ('A' for Active; 'I' for Inactive)
REMARK    1  A    between atoms: C2'_3  and  C1'_4 
REMARK    2  A    between atoms: C1'_4  and  C1_5 
ROOT
ATOM      1  C1  I4B d   1       1.543   1.316  -0.751  0.00  0.00    -0.075 A 
ATOM      2  C2  I4B d   1       0.247   1.591  -1.109  0.00  0.00     0.003 A 
ATOM      3  C3  I4B d   1      -0.676   2.058  -0.142  0.00  0.00     0.002 A 
ATOM      4  C4  I4B d   1      -0.277   2.188   1.172  0.00  0.00    -0.004 A 
ATOM      5  C5  I4B d   1       1.044   1.930   1.529  0.00  0.00     0.002 A 
ATOM      6  C6  I4B d   1       1.963   1.503   0.560  0.00  0.00     0.003 A 
ENDROOT
BRANCH   1   7
ATOM      7  C1' I4B d   1       2.482   0.792  -1.790  0.00  0.00     0.060 C 
BRANCH   7   8
ATOM      8  C2' I4B d   1       2.311  -0.712  -1.859  0.00  0.00    -0.013 C 
ATOM      9  C4' I4B d   1       3.073  -1.398  -0.755  0.00  0.00     0.013 C 
ATOM     10  C3' I4B d   1       0.845  -1.016  -1.774  0.00  0.00     0.013 C 
ENDBRANCH   7   8
ENDBRANCH   1   7
TORSDOF 2
ENDMDL
