MODEL 1
REMARK minimizedAffinity 0.24705112
REMARK minimizedRMSD -1
REMARK  2 active torsions:
REMARK  status: ('A' for Active; 'I' for Inactive)
REMARK    1  A    between atoms: C2'_3  and  C1'_4 
REMARK    2  A    between atoms: C1'_4  and  C1_5 
ROOT
ATOM      1  C1  I4B d   1       0.356  -0.277  -1.204  0.00  0.00    -0.075 A 
ATOM      2  C2  I4B d   1       0.192  -1.401  -0.434  0.00  0.00     0.003 A 
ATOM      3  C3  I4B d   1       1.190  -2.405  -0.416  0.00  0.00     0.002 A 
ATOM      4  C4  I4B d   1       2.306  -2.269  -1.217  0.00  0.00    -0.004 A 
ATOM      5  C5  I4B d   1       2.481  -1.118  -1.980  0.00  0.00     0.002 A 
ATOM      6  C6  I4B d   1       1.507  -0.110  -1.964  0.00  0.00     0.003 A 
ENDROOT
BRANCH   1   7
ATOM      7  C1' I4B d   1      -0.733   0.748  -1.225  0.00  0.00     0.060 C 
BRANCH   7   8
ATOM      8  C2' I4B d   1      -0.096   2.110  -1.034  0.00  0.00    -0.013 C 
ATOM      9  C4' I4B d   1      -0.096   2.896  -2.318  0.00  0.00     0.013 C 
ATOM     10  C3' I4B d   1      -0.855   2.829   0.041  0.00  0.00     0.013 C 
ENDBRANCH   7   8
ENDBRANCH   1   7
TORSDOF 2
ENDMDL
