MODEL 1
REMARK minimizedAffinity 13.9188051
REMARK minimizedRMSD -1
REMARK  2 active torsions:
REMARK  status: ('A' for Active; 'I' for Inactive)
REMARK    1  A    between atoms: C2'_3  and  C1'_4 
REMARK    2  A    between atoms: C1'_4  and  C1_5 
ROOT
ATOM      1  C1  I4B d   1       3.696   3.805  -0.158  0.00  0.00    -0.075 A 
ATOM      2  C2  I4B d   1       4.645   4.058   0.801  0.00  0.00     0.003 A 
ATOM      3  C3  I4B d   1       5.684   4.986   0.548  0.00  0.00     0.002 A 
ATOM      4  C4  I4B d   1       5.765   5.595  -0.688  0.00  0.00    -0.004 A 
ATOM      5  C5  I4B d   1       4.789   5.354  -1.650  0.00  0.00     0.002 A 
ATOM      6  C6  I4B d   1       3.741   4.463  -1.380  0.00  0.00     0.003 A 
ENDROOT
BRANCH   1   7
ATOM      7  C1' I4B d   1       2.631   2.795   0.132  0.00  0.00     0.060 C 
BRANCH   7   8
ATOM      8  C2' I4B d   1       2.324   2.852   1.614  0.00  0.00    -0.013 C 
ATOM      9  C4' I4B d   1       0.847   2.702   1.871  0.00  0.00     0.013 C 
ATOM     10  C3' I4B d   1       3.104   1.765   2.291  0.00  0.00     0.013 C 
ENDBRANCH   7   8
ENDBRANCH   1   7
TORSDOF 2
ENDMDL
