MODEL 1
REMARK minimizedAffinity 6.4148078
REMARK minimizedRMSD -1
REMARK  2 active torsions:
REMARK  status: ('A' for Active; 'I' for Inactive)
REMARK    1  A    between atoms: C2'_3  and  C1'_4 
REMARK    2  A    between atoms: C1'_4  and  C1_5 
ROOT
ATOM      1  C1  I4B d   1       0.877  -0.534  -0.812  0.00  0.00    -0.075 A 
ATOM      2  C2  I4B d   1       1.175  -1.208   0.346  0.00  0.00     0.003 A 
ATOM      3  C3  I4B d   1       2.040  -2.329   0.315  0.00  0.00     0.002 A 
ATOM      4  C4  I4B d   1       2.541  -2.768  -0.893  0.00  0.00    -0.004 A 
ATOM      5  C5  I4B d   1       2.256  -2.069  -2.063  0.00  0.00     0.002 A 
ATOM      6  C6  I4B d   1       1.429  -0.938  -2.021  0.00  0.00     0.003 A 
ENDROOT
BRANCH   1   7
ATOM      7  C1' I4B d   1      -0.066   0.626  -0.748  0.00  0.00     0.060 C 
BRANCH   7   8
ATOM      8  C2' I4B d   1       0.651   1.842  -1.298  0.00  0.00    -0.013 C 
ATOM      9  C4' I4B d   1      -0.326   2.916  -1.698  0.00  0.00     0.013 C 
ATOM     10  C3' I4B d   1       1.598   2.336  -0.245  0.00  0.00     0.013 C 
ENDBRANCH   7   8
ENDBRANCH   1   7
TORSDOF 2
ENDMDL
