MODEL 1
REMARK minimizedAffinity -3.93502998
REMARK minimizedRMSD -1
REMARK  0 active torsions:
REMARK  status: ('A' for Active; 'I' for Inactive)
ROOT
ATOM      1  C   UNL d   1       0.225  -0.341   2.924  0.00  0.00     0.020 A 
ATOM      2  C1  UNL d   1       1.283  -0.101   2.049  0.00  0.00     0.020 A 
ATOM      3  C2  UNL d   1       1.027   0.197   0.709  0.00  0.00     0.034 A 
ATOM      4  C3  UNL d   1      -0.290   0.254   0.240  0.00  0.00     0.017 A 
ATOM      5  C4  UNL d   1      -1.352   0.013   1.119  0.00  0.00     0.017 A 
ATOM      6  C5  UNL d   1      -1.090  -0.285   2.460  0.00  0.00     0.034 A 
ATOM      7 Cl   UNL d   1      -3.004   0.066   0.614  0.00  0.00    -0.070 Cl
ATOM      8 Cl1  UNL d   1      -0.533   0.628  -1.429  0.00  0.00    -0.070 Cl
ENDROOT
TORSDOF 0
ENDMDL
