MODEL 1
REMARK minimizedAffinity -2.91790891
REMARK minimizedRMSD -1
REMARK  0 active torsions:
REMARK  status: ('A' for Active; 'I' for Inactive)
ROOT
ATOM      1  C   UNL d   1      -0.844  -0.364   2.972  0.00  0.00     0.020 A 
ATOM      2  C1  UNL d   1      -1.470  -1.310   2.162  0.00  0.00     0.020 A 
ATOM      3  C2  UNL d   1      -1.121  -1.415   0.813  0.00  0.00     0.034 A 
ATOM      4  C3  UNL d   1      -0.144  -0.572   0.272  0.00  0.00     0.017 A 
ATOM      5  C4  UNL d   1       0.484   0.377   1.086  0.00  0.00     0.017 A 
ATOM      6  C5  UNL d   1       0.131   0.478   2.436  0.00  0.00     0.034 A 
ATOM      7 Cl   UNL d   1       1.699   1.452   0.490  0.00  0.00    -0.070 Cl
ATOM      8 Cl1  UNL d   1       0.238  -0.757  -1.403  0.00  0.00    -0.070 Cl
ENDROOT
TORSDOF 0
ENDMDL
