MODEL 1
REMARK minimizedAffinity -2.75291753
REMARK minimizedRMSD -1
REMARK  0 active torsions:
REMARK  status: ('A' for Active; 'I' for Inactive)
ROOT
ATOM      1  C   UNL d   1      -0.792  -0.570   3.254  0.00  0.00     0.020 A 
ATOM      2  C1  UNL d   1      -1.735  -0.330   2.255  0.00  0.00     0.020 A 
ATOM      3  C2  UNL d   1      -1.336  -0.268   0.919  0.00  0.00     0.034 A 
ATOM      4  C3  UNL d   1       0.010  -0.446   0.577  0.00  0.00     0.017 A 
ATOM      5  C4  UNL d   1       0.956  -0.687   1.580  0.00  0.00     0.017 A 
ATOM      6  C5  UNL d   1       0.550  -0.748   2.917  0.00  0.00     0.034 A 
ATOM      7 Cl   UNL d   1       2.634  -0.916   1.236  0.00  0.00    -0.070 Cl
ATOM      8 Cl1  UNL d   1       0.432  -0.357  -1.096  0.00  0.00    -0.070 Cl
ENDROOT
TORSDOF 0
ENDMDL
