MODEL 1
REMARK minimizedAffinity -3.80890131
REMARK minimizedRMSD -1
REMARK  0 active torsions:
REMARK  status: ('A' for Active; 'I' for Inactive)
ROOT
ATOM      1  C   UNL d   1      -0.420  -0.607   3.267  0.00  0.00     0.020 A 
ATOM      2  C1  UNL d   1      -1.568  -0.607   2.476  0.00  0.00     0.020 A 
ATOM      3  C2  UNL d   1      -1.480  -0.294   1.118  0.00  0.00     0.034 A 
ATOM      4  C3  UNL d   1      -0.242   0.020   0.546  0.00  0.00     0.017 A 
ATOM      5  C4  UNL d   1       0.910   0.019   1.341  0.00  0.00     0.017 A 
ATOM      6  C5  UNL d   1       0.817  -0.295   2.700  0.00  0.00     0.034 A 
ATOM      7 Cl   UNL d   1       2.473   0.396   0.707  0.00  0.00    -0.070 Cl
ATOM      8 Cl1  UNL d   1      -0.208   0.396  -1.140  0.00  0.00    -0.070 Cl
ENDROOT
TORSDOF 0
ENDMDL
