MODEL 1
REMARK minimizedAffinity -4.41879225
REMARK minimizedRMSD -1
REMARK  0 active torsions:
REMARK  status: ('A' for Active; 'I' for Inactive)
ROOT
ATOM      1  C   UNL d   1       0.401   0.612  -1.106  0.00  0.00     0.020 A 
ATOM      2  C1  UNL d   1       1.357   0.608  -0.090  0.00  0.00     0.020 A 
ATOM      3  C2  UNL d   1       1.011   0.179   1.192  0.00  0.00     0.034 A 
ATOM      4  C3  UNL d   1      -0.294  -0.249   1.463  0.00  0.00     0.017 A 
ATOM      5  C4  UNL d   1      -1.252  -0.245   0.443  0.00  0.00     0.017 A 
ATOM      6  C5  UNL d   1      -0.901   0.186  -0.839  0.00  0.00     0.034 A 
ATOM      7 Cl   UNL d   1      -2.883  -0.759   0.701  0.00  0.00    -0.070 Cl
ATOM      8 Cl1  UNL d   1      -0.652  -0.768   3.072  0.00  0.00    -0.070 Cl
ENDROOT
TORSDOF 0
ENDMDL
