MODEL 1
REMARK minimizedAffinity -1.75319076
REMARK minimizedRMSD -1
REMARK  0 active torsions:
REMARK  status: ('A' for Active; 'I' for Inactive)
ROOT
ATOM      1  C   UNL d   1      -1.218  -0.719   1.973  0.00  0.00     0.020 A 
ATOM      2  C1  UNL d   1      -0.340  -0.167   2.905  0.00  0.00     0.020 A 
ATOM      3  C2  UNL d   1       0.809   0.499   2.474  0.00  0.00     0.034 A 
ATOM      4  C3  UNL d   1       1.083   0.615   1.106  0.00  0.00     0.017 A 
ATOM      5  C4  UNL d   1       0.202   0.060   0.171  0.00  0.00     0.017 A 
ATOM      6  C5  UNL d   1      -0.947  -0.605   0.609  0.00  0.00     0.034 A 
ATOM      7 Cl   UNL d   1       0.473   0.163  -1.533  0.00  0.00    -0.070 Cl
ATOM      8 Cl1  UNL d   1       2.522   1.452   0.644  0.00  0.00    -0.070 Cl
ENDROOT
TORSDOF 0
ENDMDL
