MODEL 1
REMARK minimizedAffinity -4.35954571
REMARK minimizedRMSD -1
REMARK  0 active torsions:
REMARK  status: ('A' for Active; 'I' for Inactive)
ROOT
ATOM      1  C   UNL d   1      -1.681  -1.281   2.411  0.00  0.00     0.020 A 
ATOM      2  C1  UNL d   1      -0.628  -0.766   3.165  0.00  0.00     0.020 A 
ATOM      3  C2  UNL d   1       0.392  -0.046   2.540  0.00  0.00     0.034 A 
ATOM      4  C3  UNL d   1       0.361   0.161   1.156  0.00  0.00     0.017 A 
ATOM      5  C4  UNL d   1      -0.697  -0.356   0.400  0.00  0.00     0.017 A 
ATOM      6  C5  UNL d   1      -1.716  -1.076   1.031  0.00  0.00     0.034 A 
ATOM      7 Cl   UNL d   1      -0.805  -0.141  -1.312  0.00  0.00    -0.070 Cl
ATOM      8 Cl1  UNL d   1       1.655   1.062   0.449  0.00  0.00    -0.070 Cl
ENDROOT
TORSDOF 0
ENDMDL
