MODEL 1
REMARK minimizedAffinity -1.25350535
REMARK minimizedRMSD -1
REMARK  0 active torsions:
REMARK  status: ('A' for Active; 'I' for Inactive)
ROOT
ATOM      1  C   UNL d   1       0.185   0.738   2.239  0.00  0.00     0.020 A 
ATOM      2  C1  UNL d   1       1.305   0.079   1.733  0.00  0.00     0.020 A 
ATOM      3  C2  UNL d   1       1.364  -0.257   0.379  0.00  0.00     0.034 A 
ATOM      4  C3  UNL d   1       0.301   0.065  -0.473  0.00  0.00     0.017 A 
ATOM      5  C4  UNL d   1      -0.822   0.726   0.036  0.00  0.00     0.017 A 
ATOM      6  C5  UNL d   1      -0.876   1.060   1.393  0.00  0.00     0.034 A 
ATOM      7 Cl   UNL d   1      -2.172   1.156  -0.954  0.00  0.00    -0.070 Cl
ATOM      8 Cl1  UNL d   1       0.442  -0.380  -2.137  0.00  0.00    -0.070 Cl
ENDROOT
TORSDOF 0
ENDMDL
