MODEL 1
REMARK minimizedAffinity -5.34412432
REMARK minimizedRMSD -1
REMARK  0 active torsions:
REMARK  status: ('A' for Active; 'I' for Inactive)
ROOT
ATOM      1  C   UNL d   1       1.311  -0.613   1.926  0.00  0.00     0.020 A 
ATOM      2  C1  UNL d   1       0.145  -0.800   2.667  0.00  0.00     0.020 A 
ATOM      3  C2  UNL d   1      -1.097  -0.511   2.098  0.00  0.00     0.034 A 
ATOM      4  C3  UNL d   1      -1.176  -0.033   0.785  0.00  0.00     0.017 A 
ATOM      5  C4  UNL d   1      -0.005   0.154   0.042  0.00  0.00     0.017 A 
ATOM      6  C5  UNL d   1       1.236  -0.137   0.617  0.00  0.00     0.034 A 
ATOM      7 Cl   UNL d   1      -0.022   0.740  -1.584  0.00  0.00    -0.070 Cl
ATOM      8 Cl1  UNL d   1      -2.745   0.304   0.146  0.00  0.00    -0.070 Cl
ENDROOT
TORSDOF 0
ENDMDL
