MODEL 1
REMARK minimizedAffinity -2.82574344
REMARK minimizedRMSD -1
REMARK  0 active torsions:
REMARK  status: ('A' for Active; 'I' for Inactive)
ROOT
ATOM      1  C   UNL d   1      -0.745   0.848  -1.134  0.00  0.00     0.020 A 
ATOM      2  C1  UNL d   1      -1.846   0.114  -0.695  0.00  0.00     0.020 A 
ATOM      3  C2  UNL d   1      -1.783  -0.583   0.513  0.00  0.00     0.034 A 
ATOM      4  C3  UNL d   1      -0.617  -0.547   1.287  0.00  0.00     0.017 A 
ATOM      5  C4  UNL d   1       0.487   0.190   0.846  0.00  0.00     0.017 A 
ATOM      6  C5  UNL d   1       0.419   0.886  -0.365  0.00  0.00     0.034 A 
ATOM      7 Cl   UNL d   1       1.960   0.282   1.745  0.00  0.00    -0.070 Cl
ATOM      8 Cl1  UNL d   1      -0.610  -1.432   2.771  0.00  0.00    -0.070 Cl
ENDROOT
TORSDOF 0
ENDMDL
