MODEL 1
REMARK minimizedAffinity -2.22701478
REMARK minimizedRMSD -1
REMARK  0 active torsions:
REMARK  status: ('A' for Active; 'I' for Inactive)
ROOT
ATOM      1  C   UNL d   1       1.112   0.406  -0.085  0.00  0.00     0.020 A 
ATOM      2  C1  UNL d   1       0.150   0.561  -1.083  0.00  0.00     0.020 A 
ATOM      3  C2  UNL d   1      -1.204   0.410  -0.776  0.00  0.00     0.034 A 
ATOM      4  C3  UNL d   1      -1.600   0.102   0.530  0.00  0.00     0.017 A 
ATOM      5  C4  UNL d   1      -0.634  -0.054   1.531  0.00  0.00     0.017 A 
ATOM      6  C5  UNL d   1       0.721   0.099   1.219  0.00  0.00     0.034 A 
ATOM      7 Cl   UNL d   1      -1.046  -0.433   3.166  0.00  0.00    -0.070 Cl
ATOM      8 Cl1  UNL d   1      -3.292  -0.070   0.838  0.00  0.00    -0.070 Cl
ENDROOT
TORSDOF 0
ENDMDL
