MODEL 1
REMARK minimizedAffinity -4.93700838
REMARK minimizedRMSD -1
REMARK  0 active torsions:
REMARK  status: ('A' for Active; 'I' for Inactive)
ROOT
ATOM      1  C   UNL d   1      -2.388  -0.140   2.281  0.00  0.00     0.020 A 
ATOM      2  C1  UNL d   1      -1.473   0.079   3.310  0.00  0.00     0.020 A 
ATOM      3  C2  UNL d   1      -0.113   0.203   3.020  0.00  0.00     0.034 A 
ATOM      4  C3  UNL d   1       0.337   0.107   1.698  0.00  0.00     0.017 A 
ATOM      5  C4  UNL d   1      -0.583  -0.113   0.666  0.00  0.00     0.017 A 
ATOM      6  C5  UNL d   1      -1.944  -0.236   0.962  0.00  0.00     0.034 A 
ATOM      7 Cl   UNL d   1      -0.104  -0.242  -0.990  0.00  0.00    -0.070 Cl
ATOM      8 Cl1  UNL d   1       2.033   0.270   1.412  0.00  0.00    -0.070 Cl
ENDROOT
TORSDOF 0
ENDMDL
