MODEL 1
REMARK minimizedAffinity -4.31631279
REMARK minimizedRMSD -1
REMARK  0 active torsions:
REMARK  status: ('A' for Active; 'I' for Inactive)
ROOT
ATOM      1  C   UNL d   1       1.398  -0.021  -0.238  0.00  0.00     0.020 A 
ATOM      2  C1  UNL d   1       0.452   0.122  -1.253  0.00  0.00     0.020 A 
ATOM      3  C2  UNL d   1      -0.905  -0.051  -0.972  0.00  0.00     0.034 A 
ATOM      4  C3  UNL d   1      -1.320  -0.369   0.326  0.00  0.00     0.017 A 
ATOM      5  C4  UNL d   1      -0.370  -0.512   1.344  0.00  0.00     0.017 A 
ATOM      6  C5  UNL d   1       0.987  -0.337   1.057  0.00  0.00     0.034 A 
ATOM      7 Cl   UNL d   1      -0.806  -0.903   2.971  0.00  0.00    -0.070 Cl
ATOM      8 Cl1  UNL d   1      -3.014  -0.569   0.602  0.00  0.00    -0.070 Cl
ENDROOT
TORSDOF 0
ENDMDL
