MODEL 1
REMARK minimizedAffinity 4.39447021
REMARK minimizedRMSD -1
REMARK  0 active torsions:
REMARK  status: ('A' for Active; 'I' for Inactive)
ROOT
ATOM      1  C2' OXE d   1       0.606  -0.051  -2.589  0.00  0.00     0.078 C 
ATOM      2  C1' OXE d   1      -0.059   2.082  -0.889  0.00  0.00     0.078 C 
ATOM      3  C1  OXE d   1       0.695   0.918  -0.296  0.00  0.00    -0.078 A 
ATOM      4  C2  OXE d   1       0.975  -0.142  -1.124  0.00  0.00    -0.078 A 
ATOM      5  C3  OXE d   1       1.715  -1.218  -0.641  0.00  0.00     0.003 A 
ATOM      6  C4  OXE d   1       2.044  -1.299   0.718  0.00  0.00    -0.002 A 
ATOM      7  C5  OXE d   1       1.733  -0.248   1.587  0.00  0.00    -0.002 A 
ATOM      8  C6  OXE d   1       1.098   0.884   1.089  0.00  0.00     0.003 A 
ENDROOT
TORSDOF 0
ENDMDL
