MODEL 1
REMARK minimizedAffinity 11.0096283
REMARK minimizedRMSD -1
REMARK  0 active torsions:
REMARK  status: ('A' for Active; 'I' for Inactive)
ROOT
ATOM      1  C2' OXE d   1       2.783   4.236   1.138  0.00  0.00     0.078 C 
ATOM      2  C1' OXE d   1       1.144   5.293  -0.881  0.00  0.00     0.078 C 
ATOM      3  C1  OXE d   1       0.866   3.887  -0.414  0.00  0.00    -0.078 A 
ATOM      4  C2  OXE d   1       1.702   3.361   0.542  0.00  0.00    -0.078 A 
ATOM      5  C3  OXE d   1       1.456   2.087   1.047  0.00  0.00     0.003 A 
ATOM      6  C4  OXE d   1       0.460   1.281   0.483  0.00  0.00    -0.002 A 
ATOM      7  C5  OXE d   1      -0.377   1.783  -0.518  0.00  0.00    -0.002 A 
ATOM      8  C6  OXE d   1      -0.215   3.096  -0.947  0.00  0.00     0.003 A 
ENDROOT
TORSDOF 0
ENDMDL
