MODEL 1
REMARK minimizedAffinity 8.90413857
REMARK minimizedRMSD -1
REMARK  0 active torsions:
REMARK  status: ('A' for Active; 'I' for Inactive)
ROOT
ATOM      1  C2' OXE d   1       2.238   6.000  -1.145  0.00  0.00     0.078 C 
ATOM      2  C1' OXE d   1      -0.540   5.599  -1.226  0.00  0.00     0.078 C 
ATOM      3  C1  OXE d   1       0.301   4.560  -0.527  0.00  0.00    -0.078 A 
ATOM      4  C2  OXE d   1       1.663   4.741  -0.532  0.00  0.00    -0.078 A 
ATOM      5  C3  OXE d   1       2.481   3.841   0.146  0.00  0.00     0.003 A 
ATOM      6  C4  OXE d   1       1.942   2.674   0.702  0.00  0.00    -0.002 A 
ATOM      7  C5  OXE d   1       0.561   2.451   0.684  0.00  0.00    -0.002 A 
ATOM      8  C6  OXE d   1      -0.275   3.403   0.112  0.00  0.00     0.003 A 
ENDROOT
TORSDOF 0
ENDMDL
