MODEL 1
REMARK minimizedAffinity 0.545513332
REMARK minimizedRMSD -1
REMARK  0 active torsions:
REMARK  status: ('A' for Active; 'I' for Inactive)
ROOT
ATOM      1  C2' OXE d   1      -2.914   3.002  -3.348  0.00  0.00     0.078 C 
ATOM      2  C1' OXE d   1      -5.620   2.284  -3.548  0.00  0.00     0.078 C 
ATOM      3  C1  OXE d   1      -5.134   3.436  -4.392  0.00  0.00    -0.078 A 
ATOM      4  C2  OXE d   1      -3.819   3.811  -4.252  0.00  0.00    -0.078 A 
ATOM      5  C3  OXE d   1      -3.305   4.832  -5.046  0.00  0.00     0.003 A 
ATOM      6  C4  OXE d   1      -4.151   5.581  -5.873  0.00  0.00    -0.002 A 
ATOM      7  C5  OXE d   1      -5.503   5.241  -6.000  0.00  0.00    -0.002 A 
ATOM      8  C6  OXE d   1      -5.999   4.147  -5.300  0.00  0.00     0.003 A 
ENDROOT
TORSDOF 0
ENDMDL
