MODEL 1
REMARK minimizedAffinity 10.2824039
REMARK minimizedRMSD -1
REMARK  0 active torsions:
REMARK  status: ('A' for Active; 'I' for Inactive)
ROOT
ATOM      1  C2' OXE d   1       5.241  -3.497   4.126  0.00  0.00     0.078 C 
ATOM      2  C1' OXE d   1       4.888  -1.437   5.999  0.00  0.00     0.078 C 
ATOM      3  C1  OXE d   1       4.185  -1.308   4.671  0.00  0.00    -0.078 A 
ATOM      4  C2  OXE d   1       4.401  -2.298   3.743  0.00  0.00    -0.078 A 
ATOM      5  C3  OXE d   1       3.734  -2.256   2.522  0.00  0.00     0.003 A 
ATOM      6  C4  OXE d   1       2.967  -1.138   2.172  0.00  0.00    -0.002 A 
ATOM      7  C5  OXE d   1       2.766  -0.100   3.088  0.00  0.00    -0.002 A 
ATOM      8  C6  OXE d   1       3.332  -0.189   4.354  0.00  0.00     0.003 A 
ENDROOT
TORSDOF 0
ENDMDL
