MODEL 1
REMARK minimizedAffinity 10.4956198
REMARK minimizedRMSD -1
REMARK  0 active torsions:
REMARK  status: ('A' for Active; 'I' for Inactive)
ROOT
ATOM      1  C2' OXE d   1       0.898   2.273   0.507  0.00  0.00     0.078 C 
ATOM      2  C1' OXE d   1      -1.794   2.991   0.167  0.00  0.00     0.078 C 
ATOM      3  C1  OXE d   1      -0.743   3.929  -0.371  0.00  0.00    -0.078 A 
ATOM      4  C2  OXE d   1       0.573   3.592  -0.159  0.00  0.00    -0.078 A 
ATOM      5  C3  OXE d   1       1.582   4.395  -0.683  0.00  0.00     0.003 A 
ATOM      6  C4  OXE d   1       1.273   5.618  -1.289  0.00  0.00    -0.002 A 
ATOM      7  C5  OXE d   1      -0.059   6.000  -1.479  0.00  0.00    -0.002 A 
ATOM      8  C6  OXE d   1      -1.078   5.148  -1.065  0.00  0.00     0.003 A 
ENDROOT
TORSDOF 0
ENDMDL
