MODEL 1
REMARK minimizedAffinity -1.8511076
REMARK minimizedRMSD -1
REMARK  0 active torsions:
REMARK  status: ('A' for Active; 'I' for Inactive)
ROOT
ATOM      1  C2' OXE d   1      -5.066   1.180  -3.721  0.00  0.00     0.078 C 
ATOM      2  C1' OXE d   1      -3.035   2.992  -3.036  0.00  0.00     0.078 C 
ATOM      3  C1  OXE d   1      -4.047   3.426  -4.067  0.00  0.00    -0.078 A 
ATOM      4  C2  OXE d   1      -5.009   2.515  -4.430  0.00  0.00    -0.078 A 
ATOM      5  C3  OXE d   1      -5.999   2.883  -5.337  0.00  0.00     0.003 A 
ATOM      6  C4  OXE d   1      -5.933   4.117  -5.996  0.00  0.00    -0.002 A 
ATOM      7  C5  OXE d   1      -4.938   5.044  -5.670  0.00  0.00    -0.002 A 
ATOM      8  C6  OXE d   1      -4.014   4.731  -4.679  0.00  0.00     0.003 A 
ENDROOT
TORSDOF 0
ENDMDL
