MODEL 1
REMARK minimizedAffinity 13.1920557
REMARK minimizedRMSD -1
REMARK  0 active torsions:
REMARK  status: ('A' for Active; 'I' for Inactive)
ROOT
ATOM      1  C2' OXE d   1       3.098  -0.920   2.485  0.00  0.00     0.078 C 
ATOM      2  C1' OXE d   1       1.526  -1.522   4.732  0.00  0.00     0.078 C 
ATOM      3  C1  OXE d   1       3.005  -1.811   4.810  0.00  0.00    -0.078 A 
ATOM      4  C2  OXE d   1       3.758  -1.556   3.689  0.00  0.00    -0.078 A 
ATOM      5  C3  OXE d   1       5.136  -1.753   3.725  0.00  0.00     0.003 A 
ATOM      6  C4  OXE d   1       5.737  -2.351   4.839  0.00  0.00    -0.002 A 
ATOM      7  C5  OXE d   1       4.981  -2.655   5.976  0.00  0.00    -0.002 A 
ATOM      8  C6  OXE d   1       3.624  -2.353   5.994  0.00  0.00     0.003 A 
ENDROOT
TORSDOF 0
ENDMDL
