MODEL 1
REMARK minimizedAffinity 9.35634041
REMARK minimizedRMSD -1
REMARK  0 active torsions:
REMARK  status: ('A' for Active; 'I' for Inactive)
ROOT
ATOM      1  C2' OXE d   1       3.776   4.799   0.890  0.00  0.00     0.078 C 
ATOM      2  C1' OXE d   1       1.790   5.882  -0.771  0.00  0.00     0.078 C 
ATOM      3  C1  OXE d   1       1.543   4.518  -0.178  0.00  0.00    -0.078 A 
ATOM      4  C2  OXE d   1       2.541   3.975   0.596  0.00  0.00    -0.078 A 
ATOM      5  C3  OXE d   1       2.342   2.743   1.213  0.00  0.00     0.003 A 
ATOM      6  C4  OXE d   1       1.201   1.984   0.927  0.00  0.00    -0.002 A 
ATOM      7  C5  OXE d   1       0.191   2.500   0.110  0.00  0.00    -0.002 A 
ATOM      8  C6  OXE d   1       0.327   3.781  -0.415  0.00  0.00     0.003 A 
ENDROOT
TORSDOF 0
ENDMDL
