MODEL 1
REMARK minimizedAffinity 6.54205847
REMARK minimizedRMSD -1
REMARK  0 active torsions:
REMARK  status: ('A' for Active; 'I' for Inactive)
ROOT
ATOM      1  C2' OXE d   1      -1.272   0.750  -4.987  0.00  0.00     0.078 C 
ATOM      2  C1' OXE d   1      -3.315   0.765  -3.062  0.00  0.00     0.078 C 
ATOM      3  C1  OXE d   1      -3.308   1.870  -4.088  0.00  0.00    -0.078 A 
ATOM      4  C2  OXE d   1      -2.277   1.881  -4.998  0.00  0.00    -0.078 A 
ATOM      5  C3  OXE d   1      -2.253   2.847  -6.000  0.00  0.00     0.003 A 
ATOM      6  C4  OXE d   1      -3.181   3.896  -5.997  0.00  0.00    -0.002 A 
ATOM      7  C5  OXE d   1      -4.215   3.925  -5.055  0.00  0.00    -0.002 A 
ATOM      8  C6  OXE d   1      -4.317   2.899  -4.122  0.00  0.00     0.003 A 
ENDROOT
TORSDOF 0
ENDMDL
