MODEL 1
REMARK minimizedAffinity 11.9099092
REMARK minimizedRMSD -1
REMARK  0 active torsions:
REMARK  status: ('A' for Active; 'I' for Inactive)
ROOT
ATOM      1  O1  BZF d   1       2.137  -3.907   0.788  0.00  0.00    -0.204 OA
ATOM      2  C2  BZF d   1       2.114  -3.466   2.097  0.00  0.00     0.174 A 
ATOM      3  C3  BZF d   1       3.317  -3.640   2.681  0.00  0.00    -0.012 A 
ATOM      4  C3A BZF d   1       4.169  -4.140   1.647  0.00  0.00    -0.107 A 
ATOM      5  C4  BZF d   1       5.488  -4.493   1.606  0.00  0.00     0.055 A 
ATOM      6  C5  BZF d   1       5.997  -5.015   0.459  0.00  0.00    -0.016 A 
ATOM      7  C6  BZF d   1       5.215  -5.203  -0.662  0.00  0.00     0.022 A 
ATOM      8  C7  BZF d   1       3.903  -4.864  -0.671  0.00  0.00     0.029 A 
ATOM      9  C7A BZF d   1       3.394  -4.305   0.476  0.00  0.00     0.058 A 
ENDROOT
TORSDOF 0
ENDMDL
