MODEL 1
REMARK minimizedAffinity 6.91686964
REMARK minimizedRMSD -1
REMARK  0 active torsions:
REMARK  status: ('A' for Active; 'I' for Inactive)
ROOT
ATOM      1  O1  BZF d   1      -3.616  -2.301  -3.246  0.00  0.00    -0.204 OA
ATOM      2  C2  BZF d   1      -4.325  -1.950  -4.379  0.00  0.00     0.174 A 
ATOM      3  C3  BZF d   1      -4.979  -0.785  -4.191  0.00  0.00    -0.012 A 
ATOM      4  C3A BZF d   1      -4.585  -0.338  -2.891  0.00  0.00    -0.107 A 
ATOM      5  C4  BZF d   1      -4.888   0.766  -2.146  0.00  0.00     0.055 A 
ATOM      6  C5  BZF d   1      -4.394   0.868  -0.884  0.00  0.00    -0.016 A 
ATOM      7  C6  BZF d   1      -3.600  -0.117  -0.334  0.00  0.00     0.022 A 
ATOM      8  C7  BZF d   1      -3.268  -1.228  -1.036  0.00  0.00     0.029 A 
ATOM      9  C7A BZF d   1      -3.738  -1.318  -2.323  0.00  0.00     0.058 A 
ENDROOT
TORSDOF 0
ENDMDL
