MODEL 1
REMARK minimizedAffinity 6.52023888
REMARK minimizedRMSD -1
REMARK  0 active torsions:
REMARK  status: ('A' for Active; 'I' for Inactive)
ROOT
ATOM      1  O1  BZF d   1       0.181  -1.909   0.275  0.00  0.00    -0.204 OA
ATOM      2  C2  BZF d   1       0.600  -2.344   1.518  0.00  0.00     0.174 A 
ATOM      3  C3  BZF d   1       1.502  -1.491   2.045  0.00  0.00    -0.012 A 
ATOM      4  C3A BZF d   1       1.588  -0.410   1.111  0.00  0.00    -0.107 A 
ATOM      5  C4  BZF d   1       2.304   0.752   1.083  0.00  0.00     0.055 A 
ATOM      6  C5  BZF d   1       2.215   1.557  -0.008  0.00  0.00    -0.016 A 
ATOM      7  C6  BZF d   1       1.424   1.228  -1.090  0.00  0.00     0.022 A 
ATOM      8  C7  BZF d   1       0.691   0.088  -1.106  0.00  0.00     0.029 A 
ATOM      9  C7A BZF d   1       0.754  -0.711   0.009  0.00  0.00     0.058 A 
ENDROOT
TORSDOF 0
ENDMDL
