MODEL 1
REMARK minimizedAffinity 9.54849052
REMARK minimizedRMSD -1
REMARK  0 active torsions:
REMARK  status: ('A' for Active; 'I' for Inactive)
ROOT
ATOM      1  O1  BZF d   1       1.090  -3.541   1.403  0.00  0.00    -0.204 OA
ATOM      2  C2  BZF d   1       2.425  -3.613   1.749  0.00  0.00     0.174 A 
ATOM      3  C3  BZF d   1       2.738  -2.658   2.649  0.00  0.00    -0.012 A 
ATOM      4  C3A BZF d   1       1.501  -2.003   2.948  0.00  0.00    -0.107 A 
ATOM      5  C4  BZF d   1       1.160  -0.979   3.784  0.00  0.00     0.055 A 
ATOM      6  C5  BZF d   1      -0.123  -0.529   3.787  0.00  0.00    -0.016 A 
ATOM      7  C6  BZF d   1      -1.086  -1.076   2.966  0.00  0.00     0.022 A 
ATOM      8  C7  BZF d   1      -0.796  -2.097   2.123  0.00  0.00     0.029 A 
ATOM      9  C7A BZF d   1       0.491  -2.576   2.141  0.00  0.00     0.058 A 
ENDROOT
TORSDOF 0
ENDMDL
