MODEL 1
REMARK minimizedAffinity 15.3898811
REMARK minimizedRMSD -1
REMARK  0 active torsions:
REMARK  status: ('A' for Active; 'I' for Inactive)
ROOT
ATOM      1  O1  BZF d   1      -3.247  -1.477  -1.133  0.00  0.00    -0.204 OA
ATOM      2  C2  BZF d   1      -3.751  -0.400  -0.430  0.00  0.00     0.174 A 
ATOM      3  C3  BZF d   1      -4.645   0.282  -1.175  0.00  0.00    -0.012 A 
ATOM      4  C3A BZF d   1      -4.771  -0.466  -2.389  0.00  0.00    -0.107 A 
ATOM      5  C4  BZF d   1      -5.522  -0.304  -3.518  0.00  0.00     0.055 A 
ATOM      6  C5  BZF d   1      -5.357  -1.171  -4.551  0.00  0.00    -0.016 A 
ATOM      7  C6  BZF d   1      -4.449  -2.208  -4.491  0.00  0.00     0.022 A 
ATOM      8  C7  BZF d   1      -3.685  -2.412  -3.390  0.00  0.00     0.029 A 
ATOM      9  C7A BZF d   1      -3.872  -1.556  -2.332  0.00  0.00     0.058 A 
ENDROOT
TORSDOF 0
ENDMDL
