MODEL 1
REMARK minimizedAffinity 6.05810261
REMARK minimizedRMSD -1
REMARK  0 active torsions:
REMARK  status: ('A' for Active; 'I' for Inactive)
ROOT
ATOM      1  O1  BZF d   1       1.899  -4.845   1.230  0.00  0.00    -0.204 OA
ATOM      2  C2  BZF d   1       1.668  -3.617   1.820  0.00  0.00     0.174 A 
ATOM      3  C3  BZF d   1       2.811  -2.908   1.914  0.00  0.00    -0.012 A 
ATOM      4  C3A BZF d   1       3.804  -3.708   1.264  0.00  0.00    -0.107 A 
ATOM      5  C4  BZF d   1       5.137  -3.535   1.020  0.00  0.00     0.055 A 
ATOM      6  C5  BZF d   1       5.835  -4.538   0.427  0.00  0.00    -0.016 A 
ATOM      7  C6  BZF d   1       5.235  -5.728   0.070  0.00  0.00     0.022 A 
ATOM      8  C7  BZF d   1       3.915  -5.945   0.288  0.00  0.00     0.029 A 
ATOM      9  C7A BZF d   1       3.200  -4.920   0.857  0.00  0.00     0.058 A 
ENDROOT
TORSDOF 0
ENDMDL
