MODEL 1
REMARK minimizedAffinity 13.8615036
REMARK minimizedRMSD -1
REMARK  0 active torsions:
REMARK  status: ('A' for Active; 'I' for Inactive)
ROOT
ATOM      1  O1  BZF d   1      -2.907  -1.885  -1.867  0.00  0.00    -0.204 OA
ATOM      2  C2  BZF d   1      -2.727  -0.830  -0.995  0.00  0.00     0.174 A 
ATOM      3  C3  BZF d   1      -3.584   0.173  -1.275  0.00  0.00    -0.012 A 
ATOM      4  C3A BZF d   1      -4.410  -0.321  -2.333  0.00  0.00    -0.107 A 
ATOM      5  C4  BZF d   1      -5.458   0.206  -3.031  0.00  0.00     0.055 A 
ATOM      6  C5  BZF d   1      -5.998  -0.508  -4.053  0.00  0.00    -0.016 A 
ATOM      7  C6  BZF d   1      -5.512  -1.750  -4.407  0.00  0.00     0.022 A 
ATOM      8  C7  BZF d   1      -4.476  -2.317  -3.741  0.00  0.00     0.029 A 
ATOM      9  C7A BZF d   1      -3.950  -1.611  -2.687  0.00  0.00     0.058 A 
ENDROOT
TORSDOF 0
ENDMDL
