MODEL 1
REMARK minimizedAffinity 11.0727177
REMARK minimizedRMSD -1
REMARK  0 active torsions:
REMARK  status: ('A' for Active; 'I' for Inactive)
ROOT
ATOM      1  O1  BZF d   1      -3.995  -2.952  -3.714  0.00  0.00    -0.204 OA
ATOM      2  C2  BZF d   1      -5.041  -2.753  -4.595  0.00  0.00     0.174 A 
ATOM      3  C3  BZF d   1      -5.692  -1.606  -4.313  0.00  0.00    -0.012 A 
ATOM      4  C3A BZF d   1      -4.954  -1.007  -3.243  0.00  0.00    -0.107 A 
ATOM      5  C4  BZF d   1      -5.097   0.154  -2.539  0.00  0.00     0.055 A 
ATOM      6  C5  BZF d   1      -4.249   0.409  -1.508  0.00  0.00    -0.016 A 
ATOM      7  C6  BZF d   1      -3.252  -0.475  -1.151  0.00  0.00     0.022 A 
ATOM      8  C7  BZF d   1      -3.068  -1.637  -1.824  0.00  0.00     0.029 A 
ATOM      9  C7A BZF d   1      -3.902  -1.883  -2.887  0.00  0.00     0.058 A 
ENDROOT
TORSDOF 0
ENDMDL
