MODEL 1
REMARK minimizedAffinity 13.5521555
REMARK minimizedRMSD -1
REMARK  0 active torsions:
REMARK  status: ('A' for Active; 'I' for Inactive)
ROOT
ATOM      1  O1  BZF d   1       1.098  -1.407   3.417  0.00  0.00    -0.204 OA
ATOM      2  C2  BZF d   1      -0.221  -1.484   3.014  0.00  0.00     0.174 A 
ATOM      3  C3  BZF d   1      -0.382  -2.450   2.086  0.00  0.00    -0.012 A 
ATOM      4  C3A BZF d   1       0.900  -3.073   1.965  0.00  0.00    -0.107 A 
ATOM      5  C4  BZF d   1       1.373  -4.109   1.212  0.00  0.00     0.055 A 
ATOM      6  C5  BZF d   1       2.694  -4.422   1.274  0.00  0.00    -0.016 A 
ATOM      7  C6  BZF d   1       3.570  -3.717   2.073  0.00  0.00     0.022 A 
ATOM      8  C7  BZF d   1       3.147  -2.685   2.841  0.00  0.00     0.029 A 
ATOM      9  C7A BZF d   1       1.806  -2.387   2.806  0.00  0.00     0.058 A 
ENDROOT
TORSDOF 0
ENDMDL
