MODEL 1
REMARK minimizedAffinity -4.38356304
REMARK minimizedRMSD -1
REMARK  0 active torsions:
REMARK  status: ('A' for Active; 'I' for Inactive)
ROOT
ATOM      1  O1  BZF d   1       4.775  -1.723   3.403  0.00  0.00    -0.204 OA
ATOM      2  C2  BZF d   1       4.942  -2.119   2.090  0.00  0.00     0.174 A 
ATOM      3  C3  BZF d   1       4.872  -3.462   1.983  0.00  0.00    -0.012 A 
ATOM      4  C3A BZF d   1       4.556  -3.928   3.298  0.00  0.00    -0.107 A 
ATOM      5  C4  BZF d   1       4.341  -5.169   3.828  0.00  0.00     0.055 A 
ATOM      6  C5  BZF d   1       4.125  -5.288   5.164  0.00  0.00    -0.016 A 
ATOM      7  C6  BZF d   1       4.123  -4.190   6.000  0.00  0.00     0.022 A 
ATOM      8  C7  BZF d   1       4.327  -2.939   5.520  0.00  0.00     0.029 A 
ATOM      9  C7A BZF d   1       4.512  -2.812   4.165  0.00  0.00     0.058 A 
ENDROOT
TORSDOF 0
ENDMDL
