MODEL 1
REMARK minimizedAffinity 10.8157768
REMARK minimizedRMSD -1
REMARK  0 active torsions:
REMARK  status: ('A' for Active; 'I' for Inactive)
ROOT
ATOM      1  O1  BZF d   1       6.000  -5.352  -0.384  0.00  0.00    -0.204 OA
ATOM      2  C2  BZF d   1       5.328  -5.781  -1.513  0.00  0.00     0.174 A 
ATOM      3  C3  BZF d   1       4.012  -5.500  -1.421  0.00  0.00    -0.012 A 
ATOM      4  C3A BZF d   1       3.866  -4.773  -0.198  0.00  0.00    -0.107 A 
ATOM      5  C4  BZF d   1       2.798  -4.207   0.437  0.00  0.00     0.055 A 
ATOM      6  C5  BZF d   1       2.980  -3.633   1.655  0.00  0.00    -0.016 A 
ATOM      7  C6  BZF d   1       4.215  -3.612   2.269  0.00  0.00     0.022 A 
ATOM      8  C7  BZF d   1       5.306  -4.156   1.677  0.00  0.00     0.029 A 
ATOM      9  C7A BZF d   1       5.131  -4.708   0.431  0.00  0.00     0.058 A 
ENDROOT
TORSDOF 0
ENDMDL
