MODEL 1
REMARK minimizedAffinity 9.03081322
REMARK minimizedRMSD -1
REMARK  0 active torsions:
REMARK  status: ('A' for Active; 'I' for Inactive)
ROOT
ATOM      1  O1  BZF d   1       0.430  -2.623   0.815  0.00  0.00    -0.204 OA
ATOM      2  C2  BZF d   1       1.203  -2.849   1.938  0.00  0.00     0.174 A 
ATOM      3  C3  BZF d   1       2.018  -1.802   2.177  0.00  0.00    -0.012 A 
ATOM      4  C3A BZF d   1       1.672  -0.824   1.192  0.00  0.00    -0.107 A 
ATOM      5  C4  BZF d   1       2.122   0.438   0.923  0.00  0.00     0.055 A 
ATOM      6  C5  BZF d   1       1.626   1.099  -0.156  0.00  0.00    -0.016 A 
ATOM      7  C6  BZF d   1       0.686   0.529  -0.989  0.00  0.00     0.022 A 
ATOM      8  C7  BZF d   1       0.206  -0.718  -0.759  0.00  0.00     0.029 A 
ATOM      9  C7A BZF d   1       0.680  -1.376   0.349  0.00  0.00     0.058 A 
ENDROOT
TORSDOF 0
ENDMDL
