MODEL 1
REMARK minimizedAffinity -0.434050888
REMARK minimizedRMSD -1
REMARK  0 active torsions:
REMARK  status: ('A' for Active; 'I' for Inactive)
ROOT
ATOM      1  C   UNL d   1       1.876  -1.879   1.575  0.00  0.00     0.023 A 
ATOM      2  C1  UNL d   1       0.615  -1.460   1.998  0.00  0.00     0.003 A 
ATOM      3  C2  UNL d   1      -0.137  -0.592   1.202  0.00  0.00     0.048 A 
ATOM      4  C3  UNL d   1       0.379  -0.150  -0.016  0.00  0.00     0.023 A 
ATOM      5  C4  UNL d   1       1.640  -0.567  -0.443  0.00  0.00     0.048 A 
ATOM      6  C5  UNL d   1       2.388  -1.434   0.356  0.00  0.00     0.003 A 
ATOM      7  I   UNL d   1      -0.738   1.141  -1.201  0.00  0.00    -0.146 I 
ENDROOT
TORSDOF 0
ENDMDL
