MODEL 1
REMARK minimizedAffinity -2.71714568
REMARK minimizedRMSD -1
REMARK  0 active torsions:
REMARK  status: ('A' for Active; 'I' for Inactive)
ROOT
ATOM      1  C   UNL d   1       1.204  -1.860   0.598  0.00  0.00     0.023 A 
ATOM      2  C1  UNL d   1       1.674  -0.745  -0.095  0.00  0.00     0.003 A 
ATOM      3  C2  UNL d   1       0.803   0.299  -0.413  0.00  0.00     0.048 A 
ATOM      4  C3  UNL d   1      -0.537   0.222  -0.034  0.00  0.00     0.023 A 
ATOM      5  C4  UNL d   1      -1.011  -0.891   0.661  0.00  0.00     0.048 A 
ATOM      6  C5  UNL d   1      -0.137  -1.933   0.976  0.00  0.00     0.003 A 
ATOM      7  I   UNL d   1      -1.835   1.775  -0.506  0.00  0.00    -0.146 I 
ENDROOT
TORSDOF 0
ENDMDL
