MODEL 1
REMARK minimizedAffinity -1.45533037
REMARK minimizedRMSD -1
REMARK  0 active torsions:
REMARK  status: ('A' for Active; 'I' for Inactive)
ROOT
ATOM      1  C   UNL d   1       2.356   0.616  -0.867  0.00  0.00     0.023 A 
ATOM      2  C1  UNL d   1       1.280   1.492  -1.006  0.00  0.00     0.003 A 
ATOM      3  C2  UNL d   1       0.090   1.253  -0.316  0.00  0.00     0.048 A 
ATOM      4  C3  UNL d   1      -0.017   0.137   0.512  0.00  0.00     0.023 A 
ATOM      5  C4  UNL d   1       1.058  -0.743   0.655  0.00  0.00     0.048 A 
ATOM      6  C5  UNL d   1       2.245  -0.500  -0.038  0.00  0.00     0.003 A 
ATOM      7  I   UNL d   1      -1.788  -0.221   1.540  0.00  0.00    -0.146 I 
ENDROOT
TORSDOF 0
ENDMDL
