MODEL 1
REMARK minimizedAffinity -3.93489528
REMARK minimizedRMSD -1
REMARK  0 active torsions:
REMARK  status: ('A' for Active; 'I' for Inactive)
ROOT
ATOM      1  C   UNL d   1       0.793  -1.246   2.047  0.00  0.00     0.023 A 
ATOM      2  C1  UNL d   1      -0.498  -0.781   2.300  0.00  0.00     0.003 A 
ATOM      3  C2  UNL d   1      -1.214  -0.123   1.298  0.00  0.00     0.048 A 
ATOM      4  C3  UNL d   1      -0.633   0.066   0.044  0.00  0.00     0.023 A 
ATOM      5  C4  UNL d   1       0.658  -0.398  -0.214  0.00  0.00     0.048 A 
ATOM      6  C5  UNL d   1       1.370  -1.055   0.792  0.00  0.00     0.003 A 
ATOM      7  I   UNL d   1      -1.695   1.044  -1.450  0.00  0.00    -0.146 I 
ENDROOT
TORSDOF 0
ENDMDL
