MODEL 1
REMARK minimizedAffinity -3.98382449
REMARK minimizedRMSD -1
REMARK  0 active torsions:
REMARK  status: ('A' for Active; 'I' for Inactive)
ROOT
ATOM      1  C   UNL d   1       0.971  -1.112   0.776  0.00  0.00     0.023 A 
ATOM      2  C1  UNL d   1       1.335  -0.672  -0.497  0.00  0.00     0.003 A 
ATOM      3  C2  UNL d   1       0.433   0.065  -1.267  0.00  0.00     0.048 A 
ATOM      4  C3  UNL d   1      -0.831   0.360  -0.757  0.00  0.00     0.023 A 
ATOM      5  C4  UNL d   1      -1.199  -0.077   0.516  0.00  0.00     0.048 A 
ATOM      6  C5  UNL d   1      -0.294  -0.815   1.282  0.00  0.00     0.003 A 
ATOM      7  I   UNL d   1      -2.176   1.457  -1.901  0.00  0.00    -0.146 I 
ENDROOT
TORSDOF 0
ENDMDL
