MODEL 1
REMARK minimizedAffinity -0.891187906
REMARK minimizedRMSD -1
REMARK  0 active torsions:
REMARK  status: ('A' for Active; 'I' for Inactive)
ROOT
ATOM      1  C   UNL d   1       0.685  -0.093   0.939  0.00  0.00     0.023 A 
ATOM      2  C1  UNL d   1      -0.655   0.261   1.101  0.00  0.00     0.003 A 
ATOM      3  C2  UNL d   1      -1.436   0.571  -0.014  0.00  0.00     0.048 A 
ATOM      4  C3  UNL d   1      -0.871   0.524  -1.288  0.00  0.00     0.023 A 
ATOM      5  C4  UNL d   1       0.469   0.170  -1.455  0.00  0.00     0.048 A 
ATOM      6  C5  UNL d   1       1.246  -0.139  -0.337  0.00  0.00     0.003 A 
ATOM      7  I   UNL d   1      -2.032   0.985  -2.950  0.00  0.00    -0.146 I 
ENDROOT
TORSDOF 0
ENDMDL
