MODEL 1
REMARK minimizedAffinity -4.86043262
REMARK minimizedRMSD -1
REMARK  0 active torsions:
REMARK  status: ('A' for Active; 'I' for Inactive)
ROOT
ATOM      1  C   UNL d   1      -3.030   1.624  -1.650  0.00  0.00     0.023 A 
ATOM      2  C1  UNL d   1      -1.911   1.539  -2.479  0.00  0.00     0.003 A 
ATOM      3  C2  UNL d   1      -0.796   0.802  -2.075  0.00  0.00     0.048 A 
ATOM      4  C3  UNL d   1      -0.807   0.151  -0.842  0.00  0.00     0.023 A 
ATOM      5  C4  UNL d   1      -1.924   0.232  -0.010  0.00  0.00     0.048 A 
ATOM      6  C5  UNL d   1      -3.037   0.971  -0.417  0.00  0.00     0.003 A 
ATOM      7  I   UNL d   1       0.852  -0.946  -0.240  0.00  0.00    -0.146 I 
ENDROOT
TORSDOF 0
ENDMDL
