MODEL 1
REMARK minimizedAffinity 4.44722652
REMARK minimizedRMSD -1
REMARK  0 active torsions:
REMARK  status: ('A' for Active; 'I' for Inactive)
ROOT
ATOM      1  C   UNL d   1       0.944  -0.456   0.924  0.00  0.00     0.023 A 
ATOM      2  C1  UNL d   1       0.553   0.815   0.502  0.00  0.00     0.003 A 
ATOM      3  C2  UNL d   1       1.434   1.610  -0.235  0.00  0.00     0.048 A 
ATOM      4  C3  UNL d   1       2.705   1.127  -0.546  0.00  0.00     0.023 A 
ATOM      5  C4  UNL d   1       3.100  -0.144  -0.127  0.00  0.00     0.048 A 
ATOM      6  C5  UNL d   1       2.216  -0.934   0.610  0.00  0.00     0.003 A 
ATOM      7  I   UNL d   1       4.018   2.308  -1.642  0.00  0.00    -0.146 I 
ENDROOT
TORSDOF 0
ENDMDL
