MODEL 1
REMARK minimizedAffinity 7.71499205
REMARK minimizedRMSD -1
REMARK  0 active torsions:
REMARK  status: ('A' for Active; 'I' for Inactive)
ROOT
ATOM      1  C   UNL d   1       1.053  -5.341  -5.579  0.00  0.00     0.023 A 
ATOM      2  C1  UNL d   1      -0.112  -5.986  -5.996  0.00  0.00     0.003 A 
ATOM      3  C2  UNL d   1      -1.289  -5.853  -5.256  0.00  0.00     0.048 A 
ATOM      4  C3  UNL d   1      -1.294  -5.073  -4.100  0.00  0.00     0.023 A 
ATOM      5  C4  UNL d   1      -0.131  -4.425  -3.679  0.00  0.00     0.048 A 
ATOM      6  C5  UNL d   1       1.043  -4.562  -4.422  0.00  0.00     0.003 A 
ATOM      7  I   UNL d   1      -3.044  -4.873  -2.997  0.00  0.00    -0.146 I 
ENDROOT
TORSDOF 0
ENDMDL
