MODEL 1
REMARK minimizedAffinity 4.34152174
REMARK minimizedRMSD -1
REMARK  0 active torsions:
REMARK  status: ('A' for Active; 'I' for Inactive)
ROOT
ATOM      1  C   UNL d   1      -3.624  -4.271   1.642  0.00  0.00     0.023 A 
ATOM      2  C1  UNL d   1      -2.994  -4.159   0.403  0.00  0.00     0.003 A 
ATOM      3  C2  UNL d   1      -3.616  -4.656  -0.745  0.00  0.00     0.048 A 
ATOM      4  C3  UNL d   1      -4.868  -5.261  -0.646  0.00  0.00     0.023 A 
ATOM      5  C4  UNL d   1      -5.503  -5.374   0.592  0.00  0.00     0.048 A 
ATOM      6  C5  UNL d   1      -4.877  -4.877   1.737  0.00  0.00     0.003 A 
ATOM      7  I   UNL d   1      -5.796  -6.000  -2.353  0.00  0.00    -0.146 I 
ENDROOT
TORSDOF 0
ENDMDL
