MODEL 1
REMARK minimizedAffinity 4.46488523
REMARK minimizedRMSD -1
REMARK  0 active torsions:
REMARK  status: ('A' for Active; 'I' for Inactive)
ROOT
ATOM      1  C   UNL d   1       3.006  -5.156  -4.198  0.00  0.00     0.023 A 
ATOM      2  C1  UNL d   1       2.031  -5.633  -3.321  0.00  0.00     0.003 A 
ATOM      3  C2  UNL d   1       0.735  -5.874  -3.780  0.00  0.00     0.048 A 
ATOM      4  C3  UNL d   1       0.420  -5.636  -5.118  0.00  0.00     0.023 A 
ATOM      5  C4  UNL d   1       1.391  -5.160  -5.999  0.00  0.00     0.048 A 
ATOM      6  C5  UNL d   1       2.686  -4.920  -5.535  0.00  0.00     0.003 A 
ATOM      7  I   UNL d   1      -1.510  -5.994  -5.803  0.00  0.00    -0.146 I 
ENDROOT
TORSDOF 0
ENDMDL
