MODEL 1
REMARK minimizedAffinity 3.01096487
REMARK minimizedRMSD -1
REMARK  0 active torsions:
REMARK  status: ('A' for Active; 'I' for Inactive)
ROOT
ATOM      1  C   UNL d   1       1.799  -0.103  -0.392  0.00  0.00     0.023 A 
ATOM      2  C1  UNL d   1       0.637   0.033   0.368  0.00  0.00     0.003 A 
ATOM      3  C2  UNL d   1       0.577  -0.501   1.657  0.00  0.00     0.048 A 
ATOM      4  C3  UNL d   1       1.683  -1.170   2.180  0.00  0.00     0.023 A 
ATOM      5  C4  UNL d   1       2.848  -1.308   1.424  0.00  0.00     0.048 A 
ATOM      6  C5  UNL d   1       2.903  -0.773   0.135  0.00  0.00     0.003 A 
ATOM      7  I   UNL d   1       1.596  -1.966   4.098  0.00  0.00    -0.146 I 
ENDROOT
TORSDOF 0
ENDMDL
