MODEL 1
REMARK minimizedAffinity -1.82637072
REMARK minimizedRMSD -1
REMARK  0 active torsions:
REMARK  status: ('A' for Active; 'I' for Inactive)
ROOT
ATOM      1  C   UNL d   1       0.856  -1.780   2.372  0.00  0.00     0.023 A 
ATOM      2  C1  UNL d   1       0.104  -0.734   1.836  0.00  0.00     0.003 A 
ATOM      3  C2  UNL d   1       0.588  -0.014   0.742  0.00  0.00     0.048 A 
ATOM      4  C3  UNL d   1       1.824  -0.345   0.189  0.00  0.00     0.023 A 
ATOM      5  C4  UNL d   1       2.580  -1.390   0.721  0.00  0.00     0.048 A 
ATOM      6  C5  UNL d   1       2.092  -2.107   1.816  0.00  0.00     0.003 A 
ATOM      7  I   UNL d   1       2.547   0.726  -1.439  0.00  0.00    -0.146 I 
ENDROOT
TORSDOF 0
ENDMDL
