MODEL 1
REMARK minimizedAffinity -5.76877499
REMARK minimizedRMSD -1
REMARK  0 active torsions:
REMARK  status: ('A' for Active; 'I' for Inactive)
ROOT
ATOM      1  C   UNL d   1       1.133  -2.888   2.144  0.00  0.00     0.023 A 
ATOM      2  C1  UNL d   1       1.513  -2.825   0.803  0.00  0.00     0.003 A 
ATOM      3  C2  UNL d   1       0.792  -2.032  -0.091  0.00  0.00     0.048 A 
ATOM      4  C3  UNL d   1      -0.307  -1.303   0.361  0.00  0.00     0.023 A 
ATOM      5  C4  UNL d   1      -0.691  -1.362   1.702  0.00  0.00     0.048 A 
ATOM      6  C5  UNL d   1       0.033  -2.157   2.593  0.00  0.00     0.003 A 
ATOM      7  I   UNL d   1      -1.382  -0.121  -0.969  0.00  0.00    -0.146 I 
ENDROOT
TORSDOF 0
ENDMDL
