MODEL 1
REMARK minimizedAffinity -1.1333766
REMARK minimizedRMSD -1
REMARK  0 active torsions:
REMARK  status: ('A' for Active; 'I' for Inactive)
ROOT
ATOM      1  C   UNL d   1      -1.112  -0.227   1.342  0.00  0.00     0.023 A 
ATOM      2  C1  UNL d   1      -0.074   0.583   0.879  0.00  0.00     0.003 A 
ATOM      3  C2  UNL d   1      -0.165   1.185  -0.377  0.00  0.00     0.048 A 
ATOM      4  C3  UNL d   1      -1.296   0.975  -1.165  0.00  0.00     0.023 A 
ATOM      5  C4  UNL d   1      -2.337   0.166  -0.706  0.00  0.00     0.048 A 
ATOM      6  C5  UNL d   1      -2.241  -0.435   0.550  0.00  0.00     0.003 A 
ATOM      7  I   UNL d   1      -1.433   1.872  -3.035  0.00  0.00    -0.146 I 
ENDROOT
TORSDOF 0
ENDMDL
