MODEL 1
REMARK minimizedAffinity -5.66811705
REMARK minimizedRMSD -1
REMARK  3 active torsions:
REMARK  status: ('A' for Active; 'I' for Inactive)
REMARK    1  A    between atoms: C3'_2  and  C2'_3 
REMARK    2  A    between atoms: C2'_3  and  C1'_4 
REMARK    3  A    between atoms: C1'_4  and  C1_5 
ROOT
ATOM      1  C1  N4B d   1       0.388  -0.252   0.250  0.00  0.00    -0.075 A 
ATOM      2  C2  N4B d   1       0.966   0.571   1.241  0.00  0.00     0.002 A 
ATOM      3  C3  N4B d   1       0.163   1.258   2.117  0.00  0.00     0.002 A 
ATOM      4  C4  N4B d   1      -1.216   1.153   2.011  0.00  0.00    -0.004 A 
ATOM      5  C5  N4B d   1      -1.766   0.336   1.067  0.00  0.00     0.002 A 
ATOM      6  C6  N4B d   1      -0.971  -0.364   0.182  0.00  0.00     0.002 A 
ENDROOT
BRANCH   1   7
ATOM      7  C1' N4B d   1       1.223  -0.956  -0.785  0.00  0.00     0.057 C 
BRANCH   7   8
ATOM      8  C2' N4B d   1       0.661  -0.654  -2.171  0.00  0.00     0.009 C 
BRANCH   8   9
ATOM      9  C3' N4B d   1       1.674   0.054  -3.053  0.00  0.00     0.004 C 
ATOM     10  C4' N4B d   1       1.359  -0.069  -4.514  0.00  0.00     0.003 C 
ENDBRANCH   8   9
ENDBRANCH   7   8
ENDBRANCH   1   7
TORSDOF 3
ENDMDL
