MODEL 1
REMARK minimizedAffinity -4.75602007
REMARK minimizedRMSD -1
REMARK  3 active torsions:
REMARK  status: ('A' for Active; 'I' for Inactive)
REMARK    1  A    between atoms: C3'_2  and  C2'_3 
REMARK    2  A    between atoms: C2'_3  and  C1'_4 
REMARK    3  A    between atoms: C1'_4  and  C1_5 
ROOT
ATOM      1  C1  N4B d   1       0.009  -0.076   0.777  0.00  0.00    -0.075 A 
ATOM      2  C2  N4B d   1      -1.369  -0.290   0.995  0.00  0.00     0.002 A 
ATOM      3  C3  N4B d   1      -2.001   0.324   2.049  0.00  0.00     0.002 A 
ATOM      4  C4  N4B d   1      -1.273   1.136   2.906  0.00  0.00    -0.004 A 
ATOM      5  C5  N4B d   1       0.053   1.357   2.674  0.00  0.00     0.002 A 
ATOM      6  C6  N4B d   1       0.699   0.751   1.616  0.00  0.00     0.002 A 
ENDROOT
BRANCH   1   7
ATOM      7  C1' N4B d   1       0.762  -0.792  -0.311  0.00  0.00     0.057 C 
BRANCH   7   8
ATOM      8  C2' N4B d   1      -0.039  -0.715  -1.607  0.00  0.00     0.009 C 
BRANCH   8   9
ATOM      9  C3' N4B d   1       0.663   0.125  -2.660  0.00  0.00     0.004 C 
ATOM     10  C4' N4B d   1      -0.281   0.682  -3.683  0.00  0.00     0.003 C 
ENDBRANCH   8   9
ENDBRANCH   7   8
ENDBRANCH   1   7
TORSDOF 3
ENDMDL
