MODEL 1
REMARK minimizedAffinity -3.43118
REMARK minimizedRMSD -1
REMARK  0 active torsions:
REMARK  status: ('A' for Active; 'I' for Inactive)
ROOT
ATOM      1  C   UNL d   1       1.880  -0.787   1.777  0.00  0.00     0.020 A 
ATOM      2  C1  UNL d   1       2.390  -1.800   0.967  0.00  0.00     0.020 A 
ATOM      3  C2  UNL d   1       1.831  -2.037  -0.290  0.00  0.00     0.034 A 
ATOM      4  C3  UNL d   1       0.758  -1.259  -0.741  0.00  0.00     0.017 A 
ATOM      5  C4  UNL d   1       0.247  -0.242   0.073  0.00  0.00     0.017 A 
ATOM      6  C5  UNL d   1       0.811  -0.010   1.331  0.00  0.00     0.034 A 
ATOM      7 Cl   UNL d   1      -1.076   0.758  -0.414  0.00  0.00    -0.070 Cl
ATOM      8 Cl1  UNL d   1       0.116  -1.607  -2.307  0.00  0.00    -0.070 Cl
ENDROOT
TORSDOF 0
ENDMDL
