MODEL 1
REMARK minimizedAffinity -4.49938679
REMARK minimizedRMSD -1
REMARK  0 active torsions:
REMARK  status: ('A' for Active; 'I' for Inactive)
ROOT
ATOM      1  C   UNL d   1       3.539  -1.323   0.457  0.00  0.00     0.020 A 
ATOM      2  C1  UNL d   1       2.364  -2.067   0.350  0.00  0.00     0.020 A 
ATOM      3  C2  UNL d   1       1.134  -1.416   0.241  0.00  0.00     0.034 A 
ATOM      4  C3  UNL d   1       1.075  -0.017   0.239  0.00  0.00     0.017 A 
ATOM      5  C4  UNL d   1       2.255   0.728   0.346  0.00  0.00     0.017 A 
ATOM      6  C5  UNL d   1       3.484   0.071   0.455  0.00  0.00     0.034 A 
ATOM      7 Cl   UNL d   1       2.262   2.456   0.350  0.00  0.00    -0.070 Cl
ATOM      8 Cl1  UNL d   1      -0.481   0.721   0.100  0.00  0.00    -0.070 Cl
ENDROOT
TORSDOF 0
ENDMDL
