MODEL 1
REMARK minimizedAffinity -5.08230686
REMARK minimizedRMSD -1
REMARK  0 active torsions:
REMARK  status: ('A' for Active; 'I' for Inactive)
ROOT
ATOM      1  C   UNL d   1       3.336   1.568   0.093  0.00  0.00     0.020 A 
ATOM      2  C1  UNL d   1       3.950   0.369   0.453  0.00  0.00     0.020 A 
ATOM      3  C2  UNL d   1       3.221  -0.822   0.436  0.00  0.00     0.034 A 
ATOM      4  C3  UNL d   1       1.873  -0.816   0.059  0.00  0.00     0.017 A 
ATOM      5  C4  UNL d   1       1.258   0.388  -0.303  0.00  0.00     0.017 A 
ATOM      6  C5  UNL d   1       1.993   1.577  -0.285  0.00  0.00     0.034 A 
ATOM      7 Cl   UNL d   1      -0.401   0.474  -0.781  0.00  0.00    -0.070 Cl
ATOM      8 Cl1  UNL d   1       1.032  -2.325   0.061  0.00  0.00    -0.070 Cl
ENDROOT
TORSDOF 0
ENDMDL
