MODEL 1
REMARK minimizedAffinity -1.0644747
REMARK minimizedRMSD -1
REMARK  0 active torsions:
REMARK  status: ('A' for Active; 'I' for Inactive)
ROOT
ATOM      1  C   UNL d   1       2.764  -0.878  -0.775  0.00  0.00     0.020 A 
ATOM      2  C1  UNL d   1       1.676  -1.723  -0.557  0.00  0.00     0.020 A 
ATOM      3  C2  UNL d   1       0.412  -1.184  -0.308  0.00  0.00     0.034 A 
ATOM      4  C3  UNL d   1       0.233   0.204  -0.277  0.00  0.00     0.017 A 
ATOM      5  C4  UNL d   1       1.325   1.051  -0.495  0.00  0.00     0.017 A 
ATOM      6  C5  UNL d   1       2.589   0.506  -0.744  0.00  0.00     0.034 A 
ATOM      7 Cl   UNL d   1       1.182   2.774  -0.471  0.00  0.00    -0.070 Cl
ATOM      8 Cl1  UNL d   1      -1.358   0.802   0.037  0.00  0.00    -0.070 Cl
ENDROOT
TORSDOF 0
ENDMDL
