MODEL 1
REMARK minimizedAffinity -2.5142343
REMARK minimizedRMSD -1
REMARK  0 active torsions:
REMARK  status: ('A' for Active; 'I' for Inactive)
ROOT
ATOM      1  C   UNL d   1       2.228  -1.427   1.062  0.00  0.00     0.020 A 
ATOM      2  C1  UNL d   1       1.007  -2.093   0.956  0.00  0.00     0.020 A 
ATOM      3  C2  UNL d   1      -0.143  -1.388   0.593  0.00  0.00     0.034 A 
ATOM      4  C3  UNL d   1      -0.074  -0.014   0.335  0.00  0.00     0.017 A 
ATOM      5  C4  UNL d   1       1.151   0.653   0.442  0.00  0.00     0.017 A 
ATOM      6  C5  UNL d   1       2.300  -0.058   0.806  0.00  0.00     0.034 A 
ATOM      7 Cl   UNL d   1       1.314   2.347   0.139  0.00  0.00    -0.070 Cl
ATOM      8 Cl1  UNL d   1      -1.536   0.793  -0.110  0.00  0.00    -0.070 Cl
ENDROOT
TORSDOF 0
ENDMDL
