MODEL 1
REMARK minimizedAffinity -1.79593074
REMARK minimizedRMSD -1
REMARK  0 active torsions:
REMARK  status: ('A' for Active; 'I' for Inactive)
ROOT
ATOM      1  C   UNL d   1       1.686  -1.745  -0.332  0.00  0.00     0.020 A 
ATOM      2  C1  UNL d   1       2.741  -0.852  -0.146  0.00  0.00     0.020 A 
ATOM      3  C2  UNL d   1       2.482   0.511   0.011  0.00  0.00     0.034 A 
ATOM      4  C3  UNL d   1       1.165   0.985  -0.017  0.00  0.00     0.017 A 
ATOM      5  C4  UNL d   1       0.108   0.088  -0.204  0.00  0.00     0.017 A 
ATOM      6  C5  UNL d   1       0.373  -1.276  -0.361  0.00  0.00     0.034 A 
ATOM      7 Cl   UNL d   1      -1.543   0.598  -0.251  0.00  0.00    -0.070 Cl
ATOM      8 Cl1  UNL d   1       0.919   2.683   0.184  0.00  0.00    -0.070 Cl
ENDROOT
TORSDOF 0
ENDMDL
