MODEL 1
REMARK minimizedAffinity 3.81399274
REMARK minimizedRMSD -1
REMARK  3 active torsions:
REMARK  status: ('A' for Active; 'I' for Inactive)
REMARK    1  A    between atoms: C3'_2  and  C2'_3 
REMARK    2  A    between atoms: C2'_3  and  C1'_4 
REMARK    3  A    between atoms: C1'_4  and  C1_5 
ROOT
ATOM      1  C1  N4B d   1      -1.931  -1.305   0.901  0.00  0.00    -0.075 A 
ATOM      2  C2  N4B d   1      -3.242  -0.805   1.063  0.00  0.00     0.002 A 
ATOM      3  C3  N4B d   1      -4.053  -0.640  -0.033  0.00  0.00     0.002 A 
ATOM      4  C4  N4B d   1      -3.571  -0.949  -1.296  0.00  0.00    -0.004 A 
ATOM      5  C5  N4B d   1      -2.313  -1.455  -1.441  0.00  0.00     0.002 A 
ATOM      6  C6  N4B d   1      -1.488  -1.630  -0.348  0.00  0.00     0.002 A 
ENDROOT
BRANCH   1   7
ATOM      7  C1' N4B d   1      -0.977  -1.421   2.059  0.00  0.00     0.057 C 
BRANCH   7   8
ATOM      8  C2' N4B d   1       0.376  -1.904   1.546  0.00  0.00     0.009 C 
BRANCH   8   9
ATOM      9  C3' N4B d   1       1.506  -1.536   2.492  0.00  0.00     0.004 C 
ATOM     10  C4' N4B d   1       1.468  -0.096   2.910  0.00  0.00     0.003 C 
ENDBRANCH   8   9
ENDBRANCH   7   8
ENDBRANCH   1   7
TORSDOF 3
ENDMDL
