MODEL 1
REMARK minimizedAffinity 6.69597483
REMARK minimizedRMSD -1
REMARK  3 active torsions:
REMARK  status: ('A' for Active; 'I' for Inactive)
REMARK    1  A    between atoms: C3'_2  and  C2'_3 
REMARK    2  A    between atoms: C2'_3  and  C1'_4 
REMARK    3  A    between atoms: C1'_4  and  C1_5 
ROOT
ATOM      1  C1  N4B d   1       1.307  -0.188   1.853  0.00  0.00    -0.075 A 
ATOM      2  C2  N4B d   1       0.201   0.443   2.464  0.00  0.00     0.002 A 
ATOM      3  C3  N4B d   1      -0.997  -0.221   2.568  0.00  0.00     0.002 A 
ATOM      4  C4  N4B d   1      -1.117  -1.504   2.054  0.00  0.00    -0.004 A 
ATOM      5  C5  N4B d   1      -0.037  -2.115   1.488  0.00  0.00     0.002 A 
ATOM      6  C6  N4B d   1       1.174  -1.461   1.380  0.00  0.00     0.002 A 
ENDROOT
BRANCH   1   7
ATOM      7  C1' N4B d   1       2.612   0.530   1.639  0.00  0.00     0.057 C 
BRANCH   7   8
ATOM      8  C2' N4B d   1       2.339   1.882   0.986  0.00  0.00     0.009 C 
BRANCH   8   9
ATOM      9  C3' N4B d   1       2.954   1.979  -0.399  0.00  0.00     0.004 C 
ATOM     10  C4' N4B d   1       2.063   1.425  -1.470  0.00  0.00     0.003 C 
ENDBRANCH   8   9
ENDBRANCH   7   8
ENDBRANCH   1   7
TORSDOF 3
ENDMDL
