MODEL 1
REMARK minimizedAffinity 9.2630825
REMARK minimizedRMSD -1
REMARK  3 active torsions:
REMARK  status: ('A' for Active; 'I' for Inactive)
REMARK    1  A    between atoms: C3'_2  and  C2'_3 
REMARK    2  A    between atoms: C2'_3  and  C1'_4 
REMARK    3  A    between atoms: C1'_4  and  C1_5 
ROOT
ATOM      1  C1  N4B d   1       5.222   3.617   2.876  0.00  0.00    -0.075 A 
ATOM      2  C2  N4B d   1       4.236   4.171   2.031  0.00  0.00     0.002 A 
ATOM      3  C3  N4B d   1       4.074   3.687   0.756  0.00  0.00     0.002 A 
ATOM      4  C4  N4B d   1       4.895   2.667   0.300  0.00  0.00    -0.004 A 
ATOM      5  C5  N4B d   1       5.828   2.120   1.132  0.00  0.00     0.002 A 
ATOM      6  C6  N4B d   1       5.999   2.594   2.417  0.00  0.00     0.002 A 
ENDROOT
BRANCH   1   7
ATOM      7  C1' N4B d   1       5.493   4.171   4.248  0.00  0.00     0.057 C 
BRANCH   7   8
ATOM      8  C2' N4B d   1       4.265   3.957   5.127  0.00  0.00     0.009 C 
BRANCH   8   9
ATOM      9  C3' N4B d   1       3.928   5.192   5.944  0.00  0.00     0.004 C 
ATOM     10  C4' N4B d   1       2.498   5.617   5.792  0.00  0.00     0.003 C 
ENDBRANCH   8   9
ENDBRANCH   7   8
ENDBRANCH   1   7
TORSDOF 3
ENDMDL
