MODEL 1
REMARK minimizedAffinity 17.4169025
REMARK minimizedRMSD -1
REMARK  3 active torsions:
REMARK  status: ('A' for Active; 'I' for Inactive)
REMARK    1  A    between atoms: C3'_2  and  C2'_3 
REMARK    2  A    between atoms: C2'_3  and  C1'_4 
REMARK    3  A    between atoms: C1'_4  and  C1_5 
ROOT
ATOM      1  C1  N4B d   1      -2.407  -1.538  -1.274  0.00  0.00    -0.075 A 
ATOM      2  C2  N4B d   1      -3.400  -0.884  -0.512  0.00  0.00     0.002 A 
ATOM      3  C3  N4B d   1      -3.403  -1.000   0.857  0.00  0.00     0.002 A 
ATOM      4  C4  N4B d   1      -2.438  -1.777   1.481  0.00  0.00    -0.004 A 
ATOM      5  C5  N4B d   1      -1.468  -2.385   0.739  0.00  0.00     0.002 A 
ATOM      6  C6  N4B d   1      -1.450  -2.273  -0.636  0.00  0.00     0.002 A 
ENDROOT
BRANCH   1   7
ATOM      7  C1' N4B d   1      -2.414  -1.510  -2.778  0.00  0.00     0.057 C 
BRANCH   7   8
ATOM      8  C2' N4B d   1      -1.047  -1.951  -3.293  0.00  0.00     0.009 C 
BRANCH   8   9
ATOM      9  C3' N4B d   1      -0.301  -0.813  -3.969  0.00  0.00     0.004 C 
ATOM     10  C4' N4B d   1       1.138  -0.736  -3.557  0.00  0.00     0.003 C 
ENDBRANCH   8   9
ENDBRANCH   7   8
ENDBRANCH   1   7
TORSDOF 3
ENDMDL
