MODEL 1
REMARK minimizedAffinity 8.91129589
REMARK minimizedRMSD -1
REMARK  3 active torsions:
REMARK  status: ('A' for Active; 'I' for Inactive)
REMARK    1  A    between atoms: C3'_2  and  C2'_3 
REMARK    2  A    between atoms: C2'_3  and  C1'_4 
REMARK    3  A    between atoms: C1'_4  and  C1_5 
ROOT
ATOM      1  C1  N4B d   1      -4.012   3.746  -5.133  0.00  0.00    -0.075 A 
ATOM      2  C2  N4B d   1      -5.289   3.983  -5.689  0.00  0.00     0.002 A 
ATOM      3  C3  N4B d   1      -5.996   5.105  -5.332  0.00  0.00     0.002 A 
ATOM      4  C4  N4B d   1      -5.457   5.990  -4.410  0.00  0.00    -0.004 A 
ATOM      5  C5  N4B d   1      -4.213   5.767  -3.897  0.00  0.00     0.002 A 
ATOM      6  C6  N4B d   1      -3.489   4.646  -4.250  0.00  0.00     0.002 A 
ENDROOT
BRANCH   1   7
ATOM      7  C1' N4B d   1      -3.238   2.491  -5.428  0.00  0.00     0.057 C 
BRANCH   7   8
ATOM      8  C2' N4B d   1      -2.274   2.215  -4.279  0.00  0.00     0.009 C 
BRANCH   8   9
ATOM      9  C3' N4B d   1      -0.907   2.831  -4.524  0.00  0.00     0.004 C 
ATOM     10  C4' N4B d   1      -0.541   2.871  -5.978  0.00  0.00     0.003 C 
ENDBRANCH   8   9
ENDBRANCH   7   8
ENDBRANCH   1   7
TORSDOF 3
ENDMDL
