MODEL 1
REMARK minimizedAffinity 4.65622616
REMARK minimizedRMSD -1
REMARK  3 active torsions:
REMARK  status: ('A' for Active; 'I' for Inactive)
REMARK    1  A    between atoms: C3'_2  and  C2'_3 
REMARK    2  A    between atoms: C2'_3  and  C1'_4 
REMARK    3  A    between atoms: C1'_4  and  C1_5 
ROOT
ATOM      1  C1  N4B d   1      -3.063  -1.530   0.521  0.00  0.00    -0.075 A 
ATOM      2  C2  N4B d   1      -2.146  -1.331   1.576  0.00  0.00     0.002 A 
ATOM      3  C3  N4B d   1      -0.816  -1.126   1.301  0.00  0.00     0.002 A 
ATOM      4  C4  N4B d   1      -0.379  -1.135  -0.015  0.00  0.00    -0.004 A 
ATOM      5  C5  N4B d   1      -1.275  -1.303  -1.030  0.00  0.00     0.002 A 
ATOM      6  C6  N4B d   1      -2.615  -1.506  -0.768  0.00  0.00     0.002 A 
ENDROOT
BRANCH   1   7
ATOM      7  C1' N4B d   1      -4.512  -1.843   0.776  0.00  0.00     0.057 C 
BRANCH   7   8
ATOM      8  C2' N4B d   1      -4.610  -3.121   1.603  0.00  0.00     0.009 C 
BRANCH   8   9
ATOM      9  C3' N4B d   1      -6.000  -3.731   1.544  0.00  0.00     0.004 C 
ATOM     10  C4' N4B d   1      -5.979  -5.190   1.197  0.00  0.00     0.003 C 
ENDBRANCH   8   9
ENDBRANCH   7   8
ENDBRANCH   1   7
TORSDOF 3
ENDMDL
