MODEL 1
REMARK minimizedAffinity 15.8867178
REMARK minimizedRMSD -1
REMARK  3 active torsions:
REMARK  status: ('A' for Active; 'I' for Inactive)
REMARK    1  A    between atoms: C3'_2  and  C2'_3 
REMARK    2  A    between atoms: C2'_3  and  C1'_4 
REMARK    3  A    between atoms: C1'_4  and  C1_5 
ROOT
ATOM      1  C1  N4B d   1       0.215  -0.898  -1.672  0.00  0.00    -0.075 A 
ATOM      2  C2  N4B d   1       1.085  -0.110  -0.888  0.00  0.00     0.002 A 
ATOM      3  C3  N4B d   1       2.329   0.222  -1.365  0.00  0.00     0.002 A 
ATOM      4  C4  N4B d   1       2.730  -0.237  -2.611  0.00  0.00    -0.004 A 
ATOM      5  C5  N4B d   1       1.874  -0.977  -3.373  0.00  0.00     0.002 A 
ATOM      6  C6  N4B d   1       0.619  -1.314  -2.908  0.00  0.00     0.002 A 
ENDROOT
BRANCH   1   7
ATOM      7  C1' N4B d   1      -1.122  -1.358  -1.157  0.00  0.00     0.057 C 
BRANCH   7   8
ATOM      8  C2' N4B d   1      -1.188  -1.118   0.348  0.00  0.00     0.009 C 
BRANCH   8   9
ATOM      9  C3' N4B d   1      -1.180  -2.419   1.132  0.00  0.00     0.004 C 
ATOM     10  C4' N4B d   1      -1.463  -2.220   2.591  0.00  0.00     0.003 C 
ENDBRANCH   8   9
ENDBRANCH   7   8
ENDBRANCH   1   7
TORSDOF 3
ENDMDL
