MODEL 1
REMARK minimizedAffinity 16.4731483
REMARK minimizedRMSD -1
REMARK  3 active torsions:
REMARK  status: ('A' for Active; 'I' for Inactive)
REMARK    1  A    between atoms: C3'_2  and  C2'_3 
REMARK    2  A    between atoms: C2'_3  and  C1'_4 
REMARK    3  A    between atoms: C1'_4  and  C1_5 
ROOT
ATOM      1  C1  N4B d   1       4.885   3.429   4.510  0.00  0.00    -0.075 A 
ATOM      2  C2  N4B d   1       5.763   4.319   5.167  0.00  0.00     0.002 A 
ATOM      3  C3  N4B d   1       5.259   5.357   5.910  0.00  0.00     0.002 A 
ATOM      4  C4  N4B d   1       3.886   5.536   5.996  0.00  0.00    -0.004 A 
ATOM      5  C5  N4B d   1       3.044   4.657   5.380  0.00  0.00     0.002 A 
ATOM      6  C6  N4B d   1       3.537   3.606   4.632  0.00  0.00     0.002 A 
ENDROOT
BRANCH   1   7
ATOM      7  C1' N4B d   1       5.391   2.330   3.616  0.00  0.00     0.057 C 
BRANCH   7   8
ATOM      8  C2' N4B d   1       4.501   2.241   2.379  0.00  0.00     0.009 C 
BRANCH   8   9
ATOM      9  C3' N4B d   1       4.939   3.210   1.294  0.00  0.00     0.004 C 
ATOM     10  C4' N4B d   1       3.861   3.479   0.287  0.00  0.00     0.003 C 
ENDBRANCH   8   9
ENDBRANCH   7   8
ENDBRANCH   1   7
TORSDOF 3
ENDMDL
