MODEL 1
REMARK minimizedAffinity 12.4371433
REMARK minimizedRMSD -1
REMARK  3 active torsions:
REMARK  status: ('A' for Active; 'I' for Inactive)
REMARK    1  A    between atoms: C3'_2  and  C2'_3 
REMARK    2  A    between atoms: C2'_3  and  C1'_4 
REMARK    3  A    between atoms: C1'_4  and  C1_5 
ROOT
ATOM      1  C1  N4B d   1      -2.357  -0.649   5.774  0.00  0.00    -0.075 A 
ATOM      2  C2  N4B d   1      -1.308  -1.554   5.497  0.00  0.00     0.002 A 
ATOM      3  C3  N4B d   1      -1.556  -2.904   5.466  0.00  0.00     0.002 A 
ATOM      4  C4  N4B d   1      -2.835  -3.373   5.725  0.00  0.00    -0.004 A 
ATOM      5  C5  N4B d   1      -3.848  -2.491   5.966  0.00  0.00     0.002 A 
ATOM      6  C6  N4B d   1      -3.614  -1.131   5.997  0.00  0.00     0.002 A 
ENDROOT
BRANCH   1   7
ATOM      7  C1' N4B d   1      -2.117   0.830   5.904  0.00  0.00     0.057 C 
BRANCH   7   8
ATOM      8  C2' N4B d   1      -3.204   1.583   5.143  0.00  0.00     0.009 C 
BRANCH   8   9
ATOM      9  C3' N4B d   1      -3.804   2.705   5.971  0.00  0.00     0.004 C 
ATOM     10  C4' N4B d   1      -5.303   2.669   5.999  0.00  0.00     0.003 C 
ENDBRANCH   8   9
ENDBRANCH   7   8
ENDBRANCH   1   7
TORSDOF 3
ENDMDL
