MODEL 1
REMARK minimizedAffinity 13.4597321
REMARK minimizedRMSD -1
REMARK  3 active torsions:
REMARK  status: ('A' for Active; 'I' for Inactive)
REMARK    1  A    between atoms: C3'_2  and  C2'_3 
REMARK    2  A    between atoms: C2'_3  and  C1'_4 
REMARK    3  A    between atoms: C1'_4  and  C1_5 
ROOT
ATOM      1  C1  N4B d   1      -2.039  -1.965   5.454  0.00  0.00    -0.075 A 
ATOM      2  C2  N4B d   1      -1.069  -2.809   4.871  0.00  0.00     0.002 A 
ATOM      3  C3  N4B d   1      -1.259  -4.169   4.863  0.00  0.00     0.002 A 
ATOM      4  C4  N4B d   1      -2.396  -4.707   5.446  0.00  0.00    -0.004 A 
ATOM      5  C5  N4B d   1      -3.340  -3.883   5.985  0.00  0.00     0.002 A 
ATOM      6  C6  N4B d   1      -3.165  -2.514   5.996  0.00  0.00     0.002 A 
ENDROOT
BRANCH   1   7
ATOM      7  C1' N4B d   1      -1.836  -0.478   5.563  0.00  0.00     0.057 C 
BRANCH   7   8
ATOM      8  C2' N4B d   1      -3.145   0.176   5.994  0.00  0.00     0.009 C 
BRANCH   8   9
ATOM      9  C3' N4B d   1      -3.054   1.692   5.979  0.00  0.00     0.004 C 
ATOM     10  C4' N4B d   1      -4.400   2.355   5.985  0.00  0.00     0.003 C 
ENDBRANCH   8   9
ENDBRANCH   7   8
ENDBRANCH   1   7
TORSDOF 3
ENDMDL
