MODEL 1
REMARK minimizedAffinity 13.3998938
REMARK minimizedRMSD -1
REMARK  3 active torsions:
REMARK  status: ('A' for Active; 'I' for Inactive)
REMARK    1  A    between atoms: C3'_2  and  C2'_3 
REMARK    2  A    between atoms: C2'_3  and  C1'_4 
REMARK    3  A    between atoms: C1'_4  and  C1_5 
ROOT
ATOM      1  C1  N4B d   1      -2.967  -0.422   5.022  0.00  0.00    -0.075 A 
ATOM      2  C2  N4B d   1      -1.765  -1.011   5.471  0.00  0.00     0.002 A 
ATOM      3  C3  N4B d   1      -1.745  -2.333   5.841  0.00  0.00     0.002 A 
ATOM      4  C4  N4B d   1      -2.913  -3.079   5.787  0.00  0.00    -0.004 A 
ATOM      5  C5  N4B d   1      -4.064  -2.509   5.327  0.00  0.00     0.002 A 
ATOM      6  C6  N4B d   1      -4.098  -1.182   4.949  0.00  0.00     0.002 A 
ENDROOT
BRANCH   1   7
ATOM      7  C1' N4B d   1      -3.058   1.042   4.689  0.00  0.00     0.057 C 
BRANCH   7   8
ATOM      8  C2' N4B d   1      -3.398   1.824   5.955  0.00  0.00     0.009 C 
BRANCH   8   9
ATOM      9  C3' N4B d   1      -4.837   2.310   5.953  0.00  0.00     0.004 C 
ATOM     10  C4' N4B d   1      -4.945   3.805   5.999  0.00  0.00     0.003 C 
ENDBRANCH   8   9
ENDBRANCH   7   8
ENDBRANCH   1   7
TORSDOF 3
ENDMDL
