MODEL 1
REMARK minimizedAffinity 19.8852768
REMARK minimizedRMSD -1
REMARK  3 active torsions:
REMARK  status: ('A' for Active; 'I' for Inactive)
REMARK    1  A    between atoms: C3'_2  and  C2'_3 
REMARK    2  A    between atoms: C2'_3  and  C1'_4 
REMARK    3  A    between atoms: C1'_4  and  C1_5 
ROOT
ATOM      1  C1  N4B d   1       3.508   0.840  -1.094  0.00  0.00    -0.075 A 
ATOM      2  C2  N4B d   1       2.246   1.371  -0.745  0.00  0.00     0.002 A 
ATOM      3  C3  N4B d   1       2.166   2.449   0.102  0.00  0.00     0.002 A 
ATOM      4  C4  N4B d   1       3.327   2.999   0.625  0.00  0.00    -0.004 A 
ATOM      5  C5  N4B d   1       4.542   2.496   0.263  0.00  0.00     0.002 A 
ATOM      6  C6  N4B d   1       4.638   1.415  -0.591  0.00  0.00     0.002 A 
ENDROOT
BRANCH   1   7
ATOM      7  C1' N4B d   1       3.642  -0.391  -1.948  0.00  0.00     0.057 C 
BRANCH   7   8
ATOM      8  C2' N4B d   1       5.091  -0.868  -1.914  0.00  0.00     0.009 C 
BRANCH   8   9
ATOM      9  C3' N4B d   1       5.769  -0.726  -3.266  0.00  0.00     0.004 C 
ATOM     10  C4' N4B d   1       6.000   0.704  -3.652  0.00  0.00     0.003 C 
ENDBRANCH   8   9
ENDBRANCH   7   8
ENDBRANCH   1   7
TORSDOF 3
ENDMDL
