MODEL 1
REMARK minimizedAffinity -5.00983763
REMARK minimizedRMSD -1
REMARK  0 active torsions:
REMARK  status: ('A' for Active; 'I' for Inactive)
ROOT
ATOM      1  N1  IND d   1      -0.175   1.236   0.241  0.00  0.00    -0.196 N 
ATOM      2  C2  IND d   1       1.189   1.137   0.241  0.00  0.00     0.054 A 
ATOM      3  C3  IND d   1       1.567  -0.151   0.399  0.00  0.00    -0.031 A 
ATOM      4  C4  IND d   1       0.116  -2.271   0.574  0.00  0.00     0.051 A 
ATOM      5  C5  IND d   1      -1.184  -2.683   0.659  0.00  0.00    -0.031 A 
ATOM      6  C6  IND d   1      -2.236  -1.791   0.606  0.00  0.00     0.015 A 
ATOM      7  C7  IND d   1      -2.026  -0.450   0.453  0.00  0.00    -0.016 A 
ATOM      8  C8  IND d   1      -0.706  -0.028   0.373  0.00  0.00    -0.047 A 
ATOM      9  C9  IND d   1       0.367  -0.923   0.469  0.00  0.00    -0.096 A 
ATOM     10  HN1 IND d   1      -0.625   1.966   0.170  0.00  0.00     0.298 HD
ENDROOT
TORSDOF 0
ENDMDL
