MODEL 1
REMARK minimizedAffinity -3.95137477
REMARK minimizedRMSD -1
REMARK  0 active torsions:
REMARK  status: ('A' for Active; 'I' for Inactive)
ROOT
ATOM      1  N1  IND d   1       0.076   1.215  -0.266  0.00  0.00    -0.196 N 
ATOM      2  C2  IND d   1       1.425   0.997  -0.303  0.00  0.00     0.054 A 
ATOM      3  C3  IND d   1       1.716  -0.235   0.172  0.00  0.00    -0.031 A 
ATOM      4  C4  IND d   1       0.127  -2.098   0.968  0.00  0.00     0.051 A 
ATOM      5  C5  IND d   1      -1.192  -2.354   1.220  0.00  0.00    -0.031 A 
ATOM      6  C6  IND d   1      -2.175  -1.416   0.982  0.00  0.00     0.015 A 
ATOM      7  C7  IND d   1      -1.876  -0.184   0.471  0.00  0.00    -0.016 A 
ATOM      8  C8  IND d   1      -0.538   0.082   0.220  0.00  0.00    -0.047 A 
ATOM      9  C9  IND d   1       0.469  -0.851   0.500  0.00  0.00    -0.096 A 
ATOM     10  HN1 IND d   1      -0.322   1.939  -0.505  0.00  0.00     0.298 HD
ENDROOT
TORSDOF 0
ENDMDL
