MODEL 1
REMARK minimizedAffinity -3.5874207
REMARK minimizedRMSD -1
REMARK  0 active torsions:
REMARK  status: ('A' for Active; 'I' for Inactive)
ROOT
ATOM      1  N1  IND d   1      -0.506   0.923  -1.121  0.00  0.00    -0.196 N 
ATOM      2  C2  IND d   1       0.710   1.486  -0.852  0.00  0.00     0.054 A 
ATOM      3  C3  IND d   1       1.408   0.709   0.008  0.00  0.00    -0.031 A 
ATOM      4  C4  IND d   1       0.788  -1.575   1.019  0.00  0.00     0.051 A 
ATOM      5  C5  IND d   1      -0.236  -2.477   1.096  0.00  0.00    -0.031 A 
ATOM      6  C6  IND d   1      -1.425  -2.290   0.422  0.00  0.00     0.015 A 
ATOM      7  C7  IND d   1      -1.631  -1.193  -0.366  0.00  0.00    -0.016 A 
ATOM      8  C8  IND d   1      -0.597  -0.272  -0.441  0.00  0.00    -0.047 A 
ATOM      9  C9  IND d   1       0.596  -0.436   0.274  0.00  0.00    -0.096 A 
ATOM     10  HN1 IND d   1      -1.113   1.259  -1.630  0.00  0.00     0.298 HD
ENDROOT
TORSDOF 0
ENDMDL
