MODEL 1
REMARK minimizedAffinity -2.88265085
REMARK minimizedRMSD -1
REMARK  0 active torsions:
REMARK  status: ('A' for Active; 'I' for Inactive)
ROOT
ATOM      1  N1  IND d   1      -2.235  -1.371   1.371  0.00  0.00    -0.196 N 
ATOM      2  C2  IND d   1      -1.842  -2.666   1.560  0.00  0.00     0.054 A 
ATOM      3  C3  IND d   1      -0.604  -2.861   1.051  0.00  0.00    -0.031 A 
ATOM      4  C4  IND d   1       0.999  -1.170  -0.043  0.00  0.00     0.051 A 
ATOM      5  C5  IND d   1       1.070   0.126  -0.469  0.00  0.00    -0.031 A 
ATOM      6  C6  IND d   1       0.024   1.009  -0.297  0.00  0.00     0.015 A 
ATOM      7  C7  IND d   1      -1.134   0.629   0.320  0.00  0.00    -0.016 A 
ATOM      8  C8  IND d   1      -1.213  -0.689   0.747  0.00  0.00    -0.047 A 
ATOM      9  C9  IND d   1      -0.171  -1.601   0.537  0.00  0.00    -0.096 A 
ATOM     10  HN1 IND d   1      -2.993  -1.038   1.604  0.00  0.00     0.298 HD
ENDROOT
TORSDOF 0
ENDMDL
