MODEL 1
REMARK minimizedAffinity -5.38057232
REMARK minimizedRMSD -1
REMARK  0 active torsions:
REMARK  status: ('A' for Active; 'I' for Inactive)
ROOT
ATOM      1  N1  IND d   1       1.400   0.360   0.184  0.00  0.00    -0.196 N 
ATOM      2  C2  IND d   1       0.941   1.625  -0.056  0.00  0.00     0.054 A 
ATOM      3  C3  IND d   1      -0.411   1.646  -0.038  0.00  0.00    -0.031 A 
ATOM      4  C4  IND d   1      -2.070  -0.257   0.466  0.00  0.00     0.051 A 
ATOM      5  C5  IND d   1      -2.126  -1.601   0.708  0.00  0.00    -0.031 A 
ATOM      6  C6  IND d   1      -0.987  -2.375   0.791  0.00  0.00     0.015 A 
ATOM      7  C7  IND d   1       0.257  -1.829   0.647  0.00  0.00    -0.016 A 
ATOM      8  C8  IND d   1       0.318  -0.466   0.395  0.00  0.00    -0.047 A 
ATOM      9  C9  IND d   1      -0.836   0.317   0.267  0.00  0.00    -0.096 A 
ATOM     10  HN1 IND d   1       2.226   0.121   0.201  0.00  0.00     0.298 HD
ENDROOT
TORSDOF 0
ENDMDL
