MODEL 1
REMARK minimizedAffinity -5.73892212
REMARK minimizedRMSD -1
REMARK  0 active torsions:
REMARK  status: ('A' for Active; 'I' for Inactive)
ROOT
ATOM      1  N1  IND d   1      -0.316   0.859   0.310  0.00  0.00    -0.196 N 
ATOM      2  C2  IND d   1       0.801   0.272  -0.216  0.00  0.00     0.054 A 
ATOM      3  C3  IND d   1       0.762  -1.066  -0.027  0.00  0.00    -0.031 A 
ATOM      4  C4  IND d   1      -1.086  -2.516   1.027  0.00  0.00     0.051 A 
ATOM      5  C5  IND d   1      -2.282  -2.428   1.683  0.00  0.00    -0.031 A 
ATOM      6  C6  IND d   1      -2.897  -1.215   1.916  0.00  0.00     0.015 A 
ATOM      7  C7  IND d   1      -2.343  -0.041   1.491  0.00  0.00    -0.016 A 
ATOM      8  C8  IND d   1      -1.125  -0.127   0.832  0.00  0.00    -0.047 A 
ATOM      9  C9  IND d   1      -0.475  -1.351   0.629  0.00  0.00    -0.096 A 
ATOM     10  HN1 IND d   1      -0.485   1.702   0.314  0.00  0.00     0.298 HD
ENDROOT
TORSDOF 0
ENDMDL
