MODEL 1
REMARK minimizedAffinity -3.81404352
REMARK minimizedRMSD -1
REMARK  0 active torsions:
REMARK  status: ('A' for Active; 'I' for Inactive)
ROOT
ATOM      1  N1  IND d   1      -0.787   1.107   0.008  0.00  0.00    -0.196 N 
ATOM      2  C2  IND d   1       0.481   1.498  -0.319  0.00  0.00     0.054 A 
ATOM      3  C3  IND d   1       1.354   0.487  -0.110  0.00  0.00    -0.031 A 
ATOM      4  C4  IND d   1       0.906  -1.925   0.668  0.00  0.00     0.051 A 
ATOM      5  C5  IND d   1      -0.091  -2.743   1.122  0.00  0.00    -0.031 A 
ATOM      6  C6  IND d   1      -1.397  -2.312   1.227  0.00  0.00     0.015 A 
ATOM      7  C7  IND d   1      -1.759  -1.043   0.870  0.00  0.00    -0.016 A 
ATOM      8  C8  IND d   1      -0.749  -0.208   0.416  0.00  0.00    -0.047 A 
ATOM      9  C9  IND d   1       0.586  -0.627   0.347  0.00  0.00    -0.096 A 
ATOM     10  HN1 IND d   1      -1.490   1.600  -0.034  0.00  0.00     0.298 HD
ENDROOT
TORSDOF 0
ENDMDL
