MODEL 1
REMARK minimizedAffinity 1.75677633
REMARK minimizedRMSD -1
REMARK  0 active torsions:
REMARK  status: ('A' for Active; 'I' for Inactive)
ROOT
ATOM      1  N1  IND d   1      -1.955  -0.984   1.608  0.00  0.00    -0.196 N 
ATOM      2  C2  IND d   1      -1.593  -2.250   1.975  0.00  0.00     0.054 A 
ATOM      3  C3  IND d   1      -0.446  -2.610   1.356  0.00  0.00    -0.031 A 
ATOM      4  C4  IND d   1       1.059  -1.242  -0.222  0.00  0.00     0.051 A 
ATOM      5  C5  IND d   1       1.125  -0.046  -0.880  0.00  0.00    -0.031 A 
ATOM      6  C6  IND d   1       0.149   0.919  -0.738  0.00  0.00     0.015 A 
ATOM      7  C7  IND d   1      -0.928   0.728   0.081  0.00  0.00    -0.016 A 
ATOM      8  C8  IND d   1      -1.002  -0.488   0.745  0.00  0.00    -0.047 A 
ATOM      9  C9  IND d   1      -0.036  -1.488   0.572  0.00  0.00    -0.096 A 
ATOM     10  HN1 IND d   1      -2.659  -0.567   1.871  0.00  0.00     0.298 HD
ENDROOT
TORSDOF 0
ENDMDL
