MODEL 1
REMARK minimizedAffinity -3.45352387
REMARK minimizedRMSD -1
REMARK  0 active torsions:
REMARK  status: ('A' for Active; 'I' for Inactive)
ROOT
ATOM      1  N1  IND d   1      -2.181  -1.606   0.624  0.00  0.00    -0.196 N 
ATOM      2  C2  IND d   1      -1.786  -2.835   1.074  0.00  0.00     0.054 A 
ATOM      3  C3  IND d   1      -0.438  -2.926   1.075  0.00  0.00    -0.031 A 
ATOM      4  C4  IND d   1       1.321  -1.144   0.475  0.00  0.00     0.051 A 
ATOM      5  C5  IND d   1       1.445   0.122  -0.025  0.00  0.00    -0.031 A 
ATOM      6  C6  IND d   1       0.344   0.893  -0.338  0.00  0.00     0.015 A 
ATOM      7  C7  IND d   1      -0.927   0.429  -0.151  0.00  0.00    -0.016 A 
ATOM      8  C8  IND d   1      -1.056  -0.859   0.350  0.00  0.00    -0.047 A 
ATOM      9  C9  IND d   1       0.057  -1.662   0.629  0.00  0.00    -0.096 A 
ATOM     10  HN1 IND d   1      -2.994  -1.344   0.528  0.00  0.00     0.298 HD
ENDROOT
TORSDOF 0
ENDMDL
