MODEL 1
REMARK minimizedAffinity -2.30798364
REMARK minimizedRMSD -1
REMARK  0 active torsions:
REMARK  status: ('A' for Active; 'I' for Inactive)
ROOT
ATOM      1  N1  IND d   1      -0.821   0.545  -0.598  0.00  0.00    -0.196 N 
ATOM      2  C2  IND d   1       0.496   0.886  -0.731  0.00  0.00     0.054 A 
ATOM      3  C3  IND d   1       1.283  -0.033  -0.128  0.00  0.00    -0.031 A 
ATOM      4  C4  IND d   1       0.629  -2.229   1.046  0.00  0.00     0.051 A 
ATOM      5  C5  IND d   1      -0.458  -2.952   1.449  0.00  0.00    -0.031 A 
ATOM      6  C6  IND d   1      -1.748  -2.540   1.183  0.00  0.00     0.015 A 
ATOM      7  C7  IND d   1      -1.999  -1.389   0.490  0.00  0.00    -0.016 A 
ATOM      8  C8  IND d   1      -0.898  -0.649   0.086  0.00  0.00    -0.047 A 
ATOM      9  C9  IND d   1       0.412  -1.040   0.390  0.00  0.00    -0.096 A 
ATOM     10  HN1 IND d   1      -1.489   1.000  -0.892  0.00  0.00     0.298 HD
ENDROOT
TORSDOF 0
ENDMDL
