MODEL 1
REMARK minimizedAffinity -5.38306999
REMARK minimizedRMSD -1
REMARK  0 active torsions:
REMARK  status: ('A' for Active; 'I' for Inactive)
ROOT
ATOM      1  N1  IND d   1       1.463  -1.097   0.183  0.00  0.00    -0.196 N 
ATOM      2  C2  IND d   1       1.263  -0.038  -0.659  0.00  0.00     0.054 A 
ATOM      3  C3  IND d   1      -0.040   0.321  -0.660  0.00  0.00    -0.031 A 
ATOM      4  C4  IND d   1      -1.999  -0.623   0.718  0.00  0.00     0.051 A 
ATOM      5  C5  IND d   1      -2.315  -1.620   1.598  0.00  0.00    -0.031 A 
ATOM      6  C6  IND d   1      -1.369  -2.509   2.062  0.00  0.00     0.015 A 
ATOM      7  C7  IND d   1      -0.062  -2.428   1.672  0.00  0.00    -0.016 A 
ATOM      8  C8  IND d   1       0.261  -1.421   0.773  0.00  0.00    -0.047 A 
ATOM      9  C9  IND d   1      -0.703  -0.542   0.265  0.00  0.00    -0.096 A 
ATOM     10  HN1 IND d   1       2.214  -1.493   0.321  0.00  0.00     0.298 HD
ENDROOT
TORSDOF 0
ENDMDL
