MODEL 1
REMARK minimizedAffinity -1.69582582
REMARK minimizedRMSD -1
REMARK  0 active torsions:
REMARK  status: ('A' for Active; 'I' for Inactive)
ROOT
ATOM      1  N1  IND d   1      -0.684   1.504  -0.862  0.00  0.00    -0.196 N 
ATOM      2  C2  IND d   1      -0.127   0.773   0.150  0.00  0.00     0.054 A 
ATOM      3  C3  IND d   1       1.206   0.652  -0.036  0.00  0.00    -0.031 A 
ATOM      4  C4  IND d   1       2.699   1.660  -1.876  0.00  0.00     0.051 A 
ATOM      5  C5  IND d   1       2.641   2.372  -3.041  0.00  0.00    -0.031 A 
ATOM      6  C6  IND d   1       1.447   2.843  -3.548  0.00  0.00     0.015 A 
ATOM      7  C7  IND d   1       0.263   2.629  -2.900  0.00  0.00    -0.016 A 
ATOM      8  C8  IND d   1       0.318   1.900  -1.720  0.00  0.00    -0.047 A 
ATOM      9  C9  IND d   1       1.521   1.382  -1.223  0.00  0.00    -0.096 A 
ATOM     10  HN1 IND d   1      -1.520   1.687  -0.948  0.00  0.00     0.298 HD
ENDROOT
TORSDOF 0
ENDMDL
