MODEL 1
REMARK minimizedAffinity -4.19182587
REMARK minimizedRMSD -1
REMARK  0 active torsions:
REMARK  status: ('A' for Active; 'I' for Inactive)
ROOT
ATOM      1  N1  IND d   1      -0.710   1.405   1.271  0.00  0.00    -0.196 N 
ATOM      2  C2  IND d   1      -2.016   1.809   1.300  0.00  0.00     0.054 A 
ATOM      3  C3  IND d   1      -2.836   0.769   1.028  0.00  0.00    -0.031 A 
ATOM      4  C4  IND d   1      -2.257  -1.703   0.602  0.00  0.00     0.051 A 
ATOM      5  C5  IND d   1      -1.195  -2.548   0.439  0.00  0.00    -0.031 A 
ATOM      6  C6  IND d   1       0.109  -2.110   0.549  0.00  0.00     0.015 A 
ATOM      7  C7  IND d   1       0.401  -0.808   0.840  0.00  0.00    -0.016 A 
ATOM      8  C8  IND d   1      -0.675   0.055   0.999  0.00  0.00    -0.047 A 
ATOM      9  C9  IND d   1      -1.999  -0.375   0.847  0.00  0.00    -0.096 A 
ATOM     10  HN1 IND d   1      -0.026   1.909   1.399  0.00  0.00     0.298 HD
ENDROOT
TORSDOF 0
ENDMDL
