MODEL 1
REMARK minimizedAffinity -6.15064001
REMARK minimizedRMSD -1
REMARK  0 active torsions:
REMARK  status: ('A' for Active; 'I' for Inactive)
ROOT
ATOM      1  N1  IND d   1      -0.211   1.222   0.591  0.00  0.00    -0.196 N 
ATOM      2  C2  IND d   1       0.890   0.631   0.036  0.00  0.00     0.054 A 
ATOM      3  C3  IND d   1       0.791  -0.715   0.114  0.00  0.00    -0.031 A 
ATOM      4  C4  IND d   1      -1.135  -2.164   1.019  0.00  0.00     0.051 A 
ATOM      5  C5  IND d   1      -2.338  -2.077   1.661  0.00  0.00    -0.031 A 
ATOM      6  C6  IND d   1      -2.907  -0.862   1.983  0.00  0.00     0.015 A 
ATOM      7  C7  IND d   1      -2.296   0.317   1.664  0.00  0.00    -0.016 A 
ATOM      8  C8  IND d   1      -1.070   0.233   1.018  0.00  0.00    -0.047 A 
ATOM      9  C9  IND d   1      -0.468  -0.998   0.726  0.00  0.00    -0.096 A 
ATOM     10  HN1 IND d   1      -0.344   2.068   0.662  0.00  0.00     0.298 HD
ENDROOT
TORSDOF 0
ENDMDL
