MODEL 1
REMARK minimizedAffinity -3.44073534
REMARK minimizedRMSD -1
REMARK  0 active torsions:
REMARK  status: ('A' for Active; 'I' for Inactive)
ROOT
ATOM      1  N1  IND d   1      -2.177   1.245   0.428  0.00  0.00    -0.196 N 
ATOM      2  C2  IND d   1      -1.240   2.223   0.616  0.00  0.00     0.054 A 
ATOM      3  C3  IND d   1      -0.048   1.675   0.941  0.00  0.00    -0.031 A 
ATOM      4  C4  IND d   1       0.617  -0.806   1.121  0.00  0.00     0.051 A 
ATOM      5  C5  IND d   1       0.094  -2.068   1.073  0.00  0.00    -0.031 A 
ATOM      6  C6  IND d   1      -1.239  -2.294   0.799  0.00  0.00     0.015 A 
ATOM      7  C7  IND d   1      -2.101  -1.263   0.551  0.00  0.00    -0.016 A 
ATOM      8  C8  IND d   1      -1.574   0.020   0.606  0.00  0.00    -0.047 A 
ATOM      9  C9  IND d   1      -0.231   0.258   0.925  0.00  0.00    -0.096 A 
ATOM     10  HN1 IND d   1      -3.005   1.375   0.232  0.00  0.00     0.298 HD
ENDROOT
TORSDOF 0
ENDMDL
