MODEL 1
REMARK minimizedAffinity -1.12533188
REMARK minimizedRMSD -1
REMARK  0 active torsions:
REMARK  status: ('A' for Active; 'I' for Inactive)
ROOT
ATOM      1  C   UNL d   1       2.236  -0.130   1.009  0.00  0.00     0.020 A 
ATOM      2  C1  UNL d   1       1.502  -0.863   0.078  0.00  0.00     0.020 A 
ATOM      3  C2  UNL d   1       0.109  -0.766   0.054  0.00  0.00     0.034 A 
ATOM      4  C3  UNL d   1      -0.554   0.066   0.963  0.00  0.00     0.017 A 
ATOM      5  C4  UNL d   1       0.183   0.802   1.897  0.00  0.00     0.017 A 
ATOM      6  C5  UNL d   1       1.578   0.701   1.917  0.00  0.00     0.034 A 
ATOM      7 Cl   UNL d   1      -0.564   1.850   3.051  0.00  0.00    -0.070 Cl
ATOM      8 Cl1  UNL d   1      -2.278   0.138   0.876  0.00  0.00    -0.070 Cl
ENDROOT
TORSDOF 0
ENDMDL
