MODEL 1
REMARK minimizedAffinity 2.24765873
REMARK minimizedRMSD -1
REMARK  0 active torsions:
REMARK  status: ('A' for Active; 'I' for Inactive)
ROOT
ATOM      1  C   UNL d   1      -2.029  -0.225   0.943  0.00  0.00     0.020 A 
ATOM      2  C1  UNL d   1      -0.957  -0.995   0.493  0.00  0.00     0.020 A 
ATOM      3  C2  UNL d   1      -0.297  -0.650  -0.689  0.00  0.00     0.034 A 
ATOM      4  C3  UNL d   1      -0.709   0.467  -1.424  0.00  0.00     0.017 A 
ATOM      5  C4  UNL d   1      -1.786   1.239  -0.972  0.00  0.00     0.017 A 
ATOM      6  C5  UNL d   1      -2.442   0.889   0.212  0.00  0.00     0.034 A 
ATOM      7 Cl   UNL d   1      -2.351   2.632  -1.825  0.00  0.00    -0.070 Cl
ATOM      8 Cl1  UNL d   1       0.152   0.836  -2.876  0.00  0.00    -0.070 Cl
ENDROOT
TORSDOF 0
ENDMDL
