MODEL 1
REMARK minimizedAffinity 5.91171646
REMARK minimizedRMSD -1
REMARK  0 active torsions:
REMARK  status: ('A' for Active; 'I' for Inactive)
ROOT
ATOM      1  C   UNL d   1      -2.094   0.311  -0.664  0.00  0.00     0.020 A 
ATOM      2  C1  UNL d   1      -1.992  -0.846   0.108  0.00  0.00     0.020 A 
ATOM      3  C2  UNL d   1      -0.761  -1.214   0.655  0.00  0.00     0.034 A 
ATOM      4  C3  UNL d   1       0.373  -0.425   0.430  0.00  0.00     0.017 A 
ATOM      5  C4  UNL d   1       0.270   0.735  -0.345  0.00  0.00     0.017 A 
ATOM      6  C5  UNL d   1      -0.966   1.100  -0.890  0.00  0.00     0.034 A 
ATOM      7 Cl   UNL d   1       1.625   1.759  -0.666  0.00  0.00    -0.070 Cl
ATOM      8 Cl1  UNL d   1       1.863  -0.941   1.137  0.00  0.00    -0.070 Cl
ENDROOT
TORSDOF 0
ENDMDL
