MODEL 1
REMARK minimizedAffinity -3.36963511
REMARK minimizedRMSD -1
REMARK  0 active torsions:
REMARK  status: ('A' for Active; 'I' for Inactive)
ROOT
ATOM      1  C   UNL d   1      -0.474   0.266   3.170  0.00  0.00     0.020 A 
ATOM      2  C1  UNL d   1      -1.730   0.185   2.571  0.00  0.00     0.020 A 
ATOM      3  C2  UNL d   1      -1.840  -0.172   1.225  0.00  0.00     0.034 A 
ATOM      4  C3  UNL d   1      -0.692  -0.448   0.474  0.00  0.00     0.017 A 
ATOM      5  C4  UNL d   1       0.569  -0.366   1.077  0.00  0.00     0.017 A 
ATOM      6  C5  UNL d   1       0.673  -0.009   2.425  0.00  0.00     0.034 A 
ATOM      7 Cl   UNL d   1       2.031  -0.693   0.215  0.00  0.00    -0.070 Cl
ATOM      8 Cl1  UNL d   1      -0.902  -0.884  -1.184  0.00  0.00    -0.070 Cl
ENDROOT
TORSDOF 0
ENDMDL
