MODEL 1
REMARK minimizedAffinity -3.00993419
REMARK minimizedRMSD -1
REMARK  0 active torsions:
REMARK  status: ('A' for Active; 'I' for Inactive)
ROOT
ATOM      1  C   UNL d   1      -0.788   0.927   3.327  0.00  0.00     0.020 A 
ATOM      2  C1  UNL d   1      -1.115   1.919   2.402  0.00  0.00     0.020 A 
ATOM      3  C2  UNL d   1      -0.404   2.018   1.205  0.00  0.00     0.034 A 
ATOM      4  C3  UNL d   1       0.638   1.126   0.929  0.00  0.00     0.017 A 
ATOM      5  C4  UNL d   1       0.965   0.131   1.857  0.00  0.00     0.017 A 
ATOM      6  C5  UNL d   1       0.250   0.036   3.055  0.00  0.00     0.034 A 
ATOM      7 Cl   UNL d   1       2.238  -1.007   1.587  0.00  0.00    -0.070 Cl
ATOM      8 Cl1  UNL d   1       1.475   1.307  -0.572  0.00  0.00    -0.070 Cl
ENDROOT
TORSDOF 0
ENDMDL
