MODEL 1
REMARK minimizedAffinity 0.279415429
REMARK minimizedRMSD -1
REMARK  0 active torsions:
REMARK  status: ('A' for Active; 'I' for Inactive)
ROOT
ATOM      1  C   UNL d   1      -2.320   0.904   0.460  0.00  0.00     0.020 A 
ATOM      2  C1  UNL d   1      -1.683   0.499   1.633  0.00  0.00     0.020 A 
ATOM      3  C2  UNL d   1      -0.466  -0.184   1.567  0.00  0.00     0.034 A 
ATOM      4  C3  UNL d   1       0.117  -0.465   0.326  0.00  0.00     0.017 A 
ATOM      5  C4  UNL d   1      -0.523  -0.058  -0.851  0.00  0.00     0.017 A 
ATOM      6  C5  UNL d   1      -1.741   0.626  -0.779  0.00  0.00     0.034 A 
ATOM      7 Cl   UNL d   1       0.135  -0.368  -2.419  0.00  0.00    -0.070 Cl
ATOM      8 Cl1  UNL d   1       1.622  -1.312   0.319  0.00  0.00    -0.070 Cl
ENDROOT
TORSDOF 0
ENDMDL
