MODEL 1
REMARK minimizedAffinity 4.68526125
REMARK minimizedRMSD -1
REMARK  0 active torsions:
REMARK  status: ('A' for Active; 'I' for Inactive)
ROOT
ATOM      1  C   UNL d   1      -2.609   0.550   0.710  0.00  0.00     0.020 A 
ATOM      2  C1  UNL d   1      -1.997   0.435   1.957  0.00  0.00     0.020 A 
ATOM      3  C2  UNL d   1      -0.656   0.054   2.045  0.00  0.00     0.034 A 
ATOM      4  C3  UNL d   1       0.077  -0.214   0.883  0.00  0.00     0.017 A 
ATOM      5  C4  UNL d   1      -0.538  -0.099  -0.369  0.00  0.00     0.017 A 
ATOM      6  C5  UNL d   1      -1.881   0.283  -0.451  0.00  0.00     0.034 A 
ATOM      7 Cl   UNL d   1       0.301  -0.413  -1.846  0.00  0.00    -0.070 Cl
ATOM      8 Cl1  UNL d   1       1.731  -0.680   1.066  0.00  0.00    -0.070 Cl
ENDROOT
TORSDOF 0
ENDMDL
