MODEL 1
REMARK minimizedAffinity -4.28975582
REMARK minimizedRMSD -1
REMARK  0 active torsions:
REMARK  status: ('A' for Active; 'I' for Inactive)
ROOT
ATOM      1  C   UNL d   1      -2.064   1.000   0.822  0.00  0.00     0.020 A 
ATOM      2  C1  UNL d   1      -1.273   0.286  -0.077  0.00  0.00     0.020 A 
ATOM      3  C2  UNL d   1      -0.002  -0.148   0.304  0.00  0.00     0.034 A 
ATOM      4  C3  UNL d   1       0.482   0.131   1.587  0.00  0.00     0.017 A 
ATOM      5  C4  UNL d   1      -0.313   0.848   2.489  0.00  0.00     0.017 A 
ATOM      6  C5  UNL d   1      -1.585   1.280   2.102  0.00  0.00     0.034 A 
ATOM      7 Cl   UNL d   1       0.215   1.230   4.090  0.00  0.00    -0.070 Cl
ATOM      8 Cl1  UNL d   1       2.063  -0.437   1.991  0.00  0.00    -0.070 Cl
ENDROOT
TORSDOF 0
ENDMDL
