MODEL 1
REMARK minimizedAffinity 3.90122819
REMARK minimizedRMSD -1
REMARK  0 active torsions:
REMARK  status: ('A' for Active; 'I' for Inactive)
ROOT
ATOM      1  C   UNL d   1       0.654   1.211  -4.311  0.00  0.00     0.020 A 
ATOM      2  C1  UNL d   1       1.884   1.861  -4.213  0.00  0.00     0.020 A 
ATOM      3  C2  UNL d   1       2.429   2.138  -2.958  0.00  0.00     0.034 A 
ATOM      4  C3  UNL d   1       1.745   1.766  -1.795  0.00  0.00     0.017 A 
ATOM      5  C4  UNL d   1       0.510   1.114  -1.894  0.00  0.00     0.017 A 
ATOM      6  C5  UNL d   1      -0.031   0.839  -3.154  0.00  0.00     0.034 A 
ATOM      7 Cl   UNL d   1      -0.394   0.624  -0.505  0.00  0.00    -0.070 Cl
ATOM      8 Cl1  UNL d   1       2.478   2.140  -0.276  0.00  0.00    -0.070 Cl
ENDROOT
TORSDOF 0
ENDMDL
