MODEL 1
REMARK minimizedAffinity -0.861340225
REMARK minimizedRMSD -1
REMARK  0 active torsions:
REMARK  status: ('A' for Active; 'I' for Inactive)
ROOT
ATOM      1  C   UNL d   1      -0.045  -0.858  -0.414  0.00  0.00     0.020 A 
ATOM      2  C1  UNL d   1       1.116  -0.512   0.276  0.00  0.00     0.020 A 
ATOM      3  C2  UNL d   1       2.104   0.247  -0.355  0.00  0.00     0.034 A 
ATOM      4  C3  UNL d   1       1.933   0.662  -1.681  0.00  0.00     0.017 A 
ATOM      5  C4  UNL d   1       0.767   0.314  -2.373  0.00  0.00     0.017 A 
ATOM      6  C5  UNL d   1      -0.219  -0.446  -1.736  0.00  0.00     0.034 A 
ATOM      7 Cl   UNL d   1       0.485   0.789  -4.010  0.00  0.00    -0.070 Cl
ATOM      8 Cl1  UNL d   1       3.196   1.598  -2.399  0.00  0.00    -0.070 Cl
ENDROOT
TORSDOF 0
ENDMDL
