MODEL 1
REMARK minimizedAffinity -3.86205769
REMARK minimizedRMSD -1
REMARK  0 active torsions:
REMARK  status: ('A' for Active; 'I' for Inactive)
ROOT
ATOM      1  C   UNL d   1      -0.204  -0.771  -0.887  0.00  0.00     0.020 A 
ATOM      2  C1  UNL d   1       1.035  -1.347  -0.608  0.00  0.00     0.020 A 
ATOM      3  C2  UNL d   1       1.582  -1.239   0.672  0.00  0.00     0.034 A 
ATOM      4  C3  UNL d   1       0.891  -0.554   1.678  0.00  0.00     0.017 A 
ATOM      5  C4  UNL d   1      -0.353   0.024   1.397  0.00  0.00     0.017 A 
ATOM      6  C5  UNL d   1      -0.896  -0.087   0.113  0.00  0.00     0.034 A 
ATOM      7 Cl   UNL d   1      -1.265   0.885   2.586  0.00  0.00    -0.070 Cl
ATOM      8 Cl1  UNL d   1       1.627  -0.460   3.239  0.00  0.00    -0.070 Cl
ENDROOT
TORSDOF 0
ENDMDL
