MODEL 1
REMARK minimizedAffinity -4.61627769
REMARK minimizedRMSD -1
REMARK  0 active torsions:
REMARK  status: ('A' for Active; 'I' for Inactive)
ROOT
ATOM      1  C   UNL d   1       1.467   0.043   3.571  0.00  0.00     0.020 A 
ATOM      2  C1  UNL d   1       0.307   0.760   3.863  0.00  0.00     0.020 A 
ATOM      3  C2  UNL d   1      -0.651   0.971   2.869  0.00  0.00     0.034 A 
ATOM      4  C3  UNL d   1      -0.451   0.465   1.580  0.00  0.00     0.017 A 
ATOM      5  C4  UNL d   1       0.714  -0.254   1.288  0.00  0.00     0.017 A 
ATOM      6  C5  UNL d   1       1.670  -0.463   2.287  0.00  0.00     0.034 A 
ATOM      7 Cl   UNL d   1       1.030  -0.909  -0.280  0.00  0.00    -0.070 Cl
ATOM      8 Cl1  UNL d   1      -1.678   0.764   0.400  0.00  0.00    -0.070 Cl
ENDROOT
TORSDOF 0
ENDMDL
