MODEL 1
REMARK minimizedAffinity -2.48190212
REMARK minimizedRMSD -1
REMARK  0 active torsions:
REMARK  status: ('A' for Active; 'I' for Inactive)
ROOT
ATOM      1  O1  BZF d   1       6.000   4.715  -2.567  0.00  0.00    -0.204 OA
ATOM      2  C2  BZF d   1       5.048   5.317  -1.766  0.00  0.00     0.174 A 
ATOM      3  C3  BZF d   1       3.899   5.503  -2.447  0.00  0.00    -0.012 A 
ATOM      4  C3A BZF d   1       4.118   4.903  -3.727  0.00  0.00    -0.107 A 
ATOM      5  C4  BZF d   1       3.339   4.751  -4.838  0.00  0.00     0.055 A 
ATOM      6  C5  BZF d   1       3.877   4.182  -5.949  0.00  0.00    -0.016 A 
ATOM      7  C6  BZF d   1       5.189   3.759  -5.985  0.00  0.00     0.022 A 
ATOM      8  C7  BZF d   1       5.999   3.883  -4.906  0.00  0.00     0.029 A 
ATOM      9  C7A BZF d   1       5.449   4.428  -3.771  0.00  0.00     0.058 A 
ENDROOT
TORSDOF 0
ENDMDL
