MODEL 1
REMARK minimizedAffinity -3.85973239
REMARK minimizedRMSD -1
REMARK  0 active torsions:
REMARK  status: ('A' for Active; 'I' for Inactive)
ROOT
ATOM      1  O1  BZF d   1       5.999   2.684  -4.082  0.00  0.00    -0.204 OA
ATOM      2  C2  BZF d   1       5.745   2.211  -5.355  0.00  0.00     0.174 A 
ATOM      3  C3  BZF d   1       4.846   2.994  -5.986  0.00  0.00    -0.012 A 
ATOM      4  C3A BZF d   1       4.587   4.073  -5.083  0.00  0.00    -0.107 A 
ATOM      5  C4  BZF d   1       3.793   5.182  -5.148  0.00  0.00     0.055 A 
ATOM      6  C5  BZF d   1       3.710   5.999  -4.065  0.00  0.00    -0.016 A 
ATOM      7  C6  BZF d   1       4.403   5.736  -2.902  0.00  0.00     0.022 A 
ATOM      8  C7  BZF d   1       5.208   4.651  -2.792  0.00  0.00     0.029 A 
ATOM      9  C7A BZF d   1       5.319   3.841  -3.895  0.00  0.00     0.058 A 
ENDROOT
TORSDOF 0
ENDMDL
