MODEL 1
REMARK minimizedAffinity -5.93976068
REMARK minimizedRMSD -1
REMARK  0 active torsions:
REMARK  status: ('A' for Active; 'I' for Inactive)
ROOT
ATOM      1  O1  BZF d   1       5.298   4.876  -1.925  0.00  0.00    -0.204 OA
ATOM      2  C2  BZF d   1       4.125   5.471  -1.505  0.00  0.00     0.174 A 
ATOM      3  C3  BZF d   1       3.199   5.449  -2.485  0.00  0.00    -0.012 A 
ATOM      4  C3A BZF d   1       3.803   4.718  -3.557  0.00  0.00    -0.107 A 
ATOM      5  C4  BZF d   1       3.374   4.347  -4.799  0.00  0.00     0.055 A 
ATOM      6  C5  BZF d   1       4.234   3.701  -5.629  0.00  0.00    -0.016 A 
ATOM      7  C6  BZF d   1       5.530   3.416  -5.252  0.00  0.00     0.022 A 
ATOM      8  C7  BZF d   1       6.000   3.759  -4.028  0.00  0.00     0.029 A 
ATOM      9  C7A BZF d   1       5.122   4.382  -3.175  0.00  0.00     0.058 A 
ENDROOT
TORSDOF 0
ENDMDL
