MODEL 1
REMARK minimizedAffinity 0.428432465
REMARK minimizedRMSD -1
REMARK  0 active torsions:
REMARK  status: ('A' for Active; 'I' for Inactive)
ROOT
ATOM      1  O1  BZF d   1       3.774   5.581  -5.024  0.00  0.00    -0.204 OA
ATOM      2  C2  BZF d   1       4.933   5.987  -5.658  0.00  0.00     0.174 A 
ATOM      3  C3  BZF d   1       5.970   6.000  -4.796  0.00  0.00    -0.012 A 
ATOM      4  C3A BZF d   1       5.445   5.487  -3.568  0.00  0.00    -0.107 A 
ATOM      5  C4  BZF d   1       5.994   5.243  -2.341  0.00  0.00     0.055 A 
ATOM      6  C5  BZF d   1       5.192   4.809  -1.333  0.00  0.00    -0.016 A 
ATOM      7  C6  BZF d   1       3.839   4.613  -1.515  0.00  0.00     0.022 A 
ATOM      8  C7  BZF d   1       3.250   4.837  -2.715  0.00  0.00     0.029 A 
ATOM      9  C7A BZF d   1       4.063   5.244  -3.744  0.00  0.00     0.058 A 
ENDROOT
TORSDOF 0
ENDMDL
