MODEL 1
REMARK minimizedAffinity -2.79572439
REMARK minimizedRMSD -1
REMARK  0 active torsions:
REMARK  status: ('A' for Active; 'I' for Inactive)
ROOT
ATOM      1  O1  BZF d   1       4.162   3.131  -5.064  0.00  0.00    -0.204 OA
ATOM      2  C2  BZF d   1       5.156   3.338  -6.000  0.00  0.00     0.174 A 
ATOM      3  C3  BZF d   1       6.000   4.309  -5.595  0.00  0.00    -0.012 A 
ATOM      4  C3A BZF d   1       5.555   4.671  -4.283  0.00  0.00    -0.107 A 
ATOM      5  C4  BZF d   1       6.000   5.569  -3.356  0.00  0.00     0.055 A 
ATOM      6  C5  BZF d   1       5.298   5.730  -2.203  0.00  0.00    -0.016 A 
ATOM      7  C6  BZF d   1       4.147   5.015  -1.948  0.00  0.00     0.022 A 
ATOM      8  C7  BZF d   1       3.670   4.108  -2.836  0.00  0.00     0.029 A 
ATOM      9  C7A BZF d   1       4.395   3.919  -3.987  0.00  0.00     0.058 A 
ENDROOT
TORSDOF 0
ENDMDL
