MODEL 1
REMARK minimizedAffinity -2.79136872
REMARK minimizedRMSD -1
REMARK  0 active torsions:
REMARK  status: ('A' for Active; 'I' for Inactive)
ROOT
ATOM      1  O1  BZF d   1       5.999   4.233  -2.184  0.00  0.00    -0.204 OA
ATOM      2  C2  BZF d   1       5.457   5.465  -1.875  0.00  0.00     0.174 A 
ATOM      3  C3  BZF d   1       4.830   5.994  -2.945  0.00  0.00    -0.012 A 
ATOM      4  C3A BZF d   1       4.911   4.992  -3.962  0.00  0.00    -0.107 A 
ATOM      5  C4  BZF d   1       4.459   4.921  -5.249  0.00  0.00     0.055 A 
ATOM      6  C5  BZF d   1       4.768   3.831  -5.999  0.00  0.00    -0.016 A 
ATOM      7  C6  BZF d   1       5.532   2.797  -5.497  0.00  0.00     0.022 A 
ATOM      8  C7  BZF d   1       5.999   2.820  -4.225  0.00  0.00     0.029 A 
ATOM      9  C7A BZF d   1       5.660   3.905  -3.454  0.00  0.00     0.058 A 
ENDROOT
TORSDOF 0
ENDMDL
