MODEL 1
REMARK minimizedAffinity -2.01125169
REMARK minimizedRMSD -1
REMARK  0 active torsions:
REMARK  status: ('A' for Active; 'I' for Inactive)
ROOT
ATOM      1  O1  BZF d   1       5.976   3.166  -4.128  0.00  0.00    -0.204 OA
ATOM      2  C2  BZF d   1       5.998   3.169  -5.509  0.00  0.00     0.174 A 
ATOM      3  C3  BZF d   1       5.089   4.036  -6.000  0.00  0.00    -0.012 A 
ATOM      4  C3A BZF d   1       4.523   4.678  -4.853  0.00  0.00    -0.107 A 
ATOM      5  C4  BZF d   1       3.576   5.648  -4.692  0.00  0.00     0.055 A 
ATOM      6  C5  BZF d   1       3.198   6.000  -3.435  0.00  0.00    -0.016 A 
ATOM      7  C6  BZF d   1       3.741   5.398  -2.318  0.00  0.00     0.022 A 
ATOM      8  C7  BZF d   1       4.687   4.434  -2.428  0.00  0.00     0.029 A 
ATOM      9  C7A BZF d   1       5.095   4.100  -3.696  0.00  0.00     0.058 A 
ENDROOT
TORSDOF 0
ENDMDL
