MODEL 1
REMARK minimizedAffinity -2.52407813
REMARK minimizedRMSD -1
REMARK  0 active torsions:
REMARK  status: ('A' for Active; 'I' for Inactive)
ROOT
ATOM      1  O1  BZF d   1       4.605   4.788  -1.879  0.00  0.00    -0.204 OA
ATOM      2  C2  BZF d   1       3.372   4.170  -1.808  0.00  0.00     0.174 A 
ATOM      3  C3  BZF d   1       2.825   4.053  -3.036  0.00  0.00    -0.012 A 
ATOM      4  C3A BZF d   1       3.816   4.551  -3.939  0.00  0.00    -0.107 A 
ATOM      5  C4  BZF d   1       3.868   4.680  -5.297  0.00  0.00     0.055 A 
ATOM      6  C5  BZF d   1       4.953   5.273  -5.863  0.00  0.00    -0.016 A 
ATOM      7  C6  BZF d   1       5.999   5.751  -5.102  0.00  0.00     0.022 A 
ATOM      8  C7  BZF d   1       5.994   5.641  -3.751  0.00  0.00     0.029 A 
ATOM      9  C7A BZF d   1       4.915   5.013  -3.178  0.00  0.00     0.058 A 
ENDROOT
TORSDOF 0
ENDMDL
