MODEL 1
REMARK minimizedAffinity 0.239100501
REMARK minimizedRMSD -1
REMARK  0 active torsions:
REMARK  status: ('A' for Active; 'I' for Inactive)
ROOT
ATOM      1  O1  BZF d   1      -0.001  -5.661  -3.395  0.00  0.00    -0.204 OA
ATOM      2  C2  BZF d   1      -0.954  -5.992  -4.339  0.00  0.00     0.174 A 
ATOM      3  C3  BZF d   1      -1.662  -4.904  -4.704  0.00  0.00    -0.012 A 
ATOM      4  C3A BZF d   1      -1.057  -3.809  -4.009  0.00  0.00    -0.107 A 
ATOM      5  C4  BZF d   1      -1.305  -2.467  -3.974  0.00  0.00     0.055 A 
ATOM      6  C5  BZF d   1      -0.578  -1.683  -3.135  0.00  0.00    -0.016 A 
ATOM      7  C6  BZF d   1       0.400  -2.208  -2.316  0.00  0.00     0.022 A 
ATOM      8  C7  BZF d   1       0.685  -3.532  -2.319  0.00  0.00     0.029 A 
ATOM      9  C7A BZF d   1      -0.025  -4.323  -3.189  0.00  0.00     0.058 A 
ENDROOT
TORSDOF 0
ENDMDL
