MODEL 1
REMARK minimizedAffinity -2.27813721
REMARK minimizedRMSD -1
REMARK  0 active torsions:
REMARK  status: ('A' for Active; 'I' for Inactive)
ROOT
ATOM      1  O1  BZF d   1       6.000   4.314  -2.436  0.00  0.00    -0.204 OA
ATOM      2  C2  BZF d   1       5.367   5.278  -1.675  0.00  0.00     0.174 A 
ATOM      3  C3  BZF d   1       4.512   5.998  -2.429  0.00  0.00    -0.012 A 
ATOM      4  C3A BZF d   1       4.549   5.391  -3.724  0.00  0.00    -0.107 A 
ATOM      5  C4  BZF d   1       3.905   5.647  -4.900  0.00  0.00     0.055 A 
ATOM      6  C5  BZF d   1       4.220   4.913  -6.000  0.00  0.00    -0.016 A 
ATOM      7  C6  BZF d   1       5.178   3.921  -5.961  0.00  0.00     0.022 A 
ATOM      8  C7  BZF d   1       5.840   3.627  -4.815  0.00  0.00     0.029 A 
ATOM      9  C7A BZF d   1       5.500   4.344  -3.695  0.00  0.00     0.058 A 
ENDROOT
TORSDOF 0
ENDMDL
