MODEL 1
REMARK minimizedAffinity 1.27289414
REMARK minimizedRMSD -1
REMARK  0 active torsions:
REMARK  status: ('A' for Active; 'I' for Inactive)
ROOT
ATOM      1  O1  BZF d   1       5.962   4.570  -2.406  0.00  0.00    -0.204 OA
ATOM      2  C2  BZF d   1       5.146   5.245  -1.520  0.00  0.00     0.174 A 
ATOM      3  C3  BZF d   1       4.199   5.945  -2.179  0.00  0.00    -0.012 A 
ATOM      4  C3A BZF d   1       4.383   5.618  -3.559  0.00  0.00    -0.107 A 
ATOM      5  C4  BZF d   1       3.738   5.986  -4.705  0.00  0.00     0.055 A 
ATOM      6  C5  BZF d   1       4.211   5.546  -5.901  0.00  0.00    -0.016 A 
ATOM      7  C6  BZF d   1       5.329   4.742  -5.987  0.00  0.00     0.022 A 
ATOM      8  C7  BZF d   1       5.999   4.345  -4.878  0.00  0.00     0.029 A 
ATOM      9  C7A BZF d   1       5.503   4.761  -3.666  0.00  0.00     0.058 A 
ENDROOT
TORSDOF 0
ENDMDL
