MODEL 1
REMARK minimizedAffinity 2.74475622
REMARK minimizedRMSD -1
REMARK  0 active torsions:
REMARK  status: ('A' for Active; 'I' for Inactive)
ROOT
ATOM      1  O1  BZF d   1       3.849   5.548  -2.148  0.00  0.00    -0.204 OA
ATOM      2  C2  BZF d   1       4.999   5.162  -1.487  0.00  0.00     0.174 A 
ATOM      3  C3  BZF d   1       6.000   4.935  -2.362  0.00  0.00    -0.012 A 
ATOM      4  C3A BZF d   1       5.467   5.285  -3.643  0.00  0.00    -0.107 A 
ATOM      5  C4  BZF d   1       5.986   5.290  -4.906  0.00  0.00     0.055 A 
ATOM      6  C5  BZF d   1       5.179   5.617  -5.950  0.00  0.00    -0.016 A 
ATOM      7  C6  BZF d   1       3.850   5.940  -5.767  0.00  0.00     0.022 A 
ATOM      8  C7  BZF d   1       3.292   5.954  -4.533  0.00  0.00     0.029 A 
ATOM      9  C7A BZF d   1       4.113   5.655  -3.472  0.00  0.00     0.058 A 
ENDROOT
TORSDOF 0
ENDMDL
