MODEL 1
REMARK minimizedAffinity 3.87517238
REMARK minimizedRMSD -1
REMARK  0 active torsions:
REMARK  status: ('A' for Active; 'I' for Inactive)
ROOT
ATOM      1  O1  BZF d   1       4.860   4.220  -1.183  0.00  0.00    -0.204 OA
ATOM      2  C2  BZF d   1       5.857   5.151  -0.968  0.00  0.00     0.174 A 
ATOM      3  C3  BZF d   1       5.999   5.957  -2.040  0.00  0.00    -0.012 A 
ATOM      4  C3A BZF d   1       4.967   5.560  -2.948  0.00  0.00    -0.107 A 
ATOM      5  C4  BZF d   1       4.584   5.998  -4.184  0.00  0.00     0.055 A 
ATOM      6  C5  BZF d   1       3.583   5.349  -4.834  0.00  0.00    -0.016 A 
ATOM      7  C6  BZF d   1       2.948   4.255  -4.282  0.00  0.00     0.022 A 
ATOM      8  C7  BZF d   1       3.290   3.787  -3.057  0.00  0.00     0.029 A 
ATOM      9  C7A BZF d   1       4.279   4.462  -2.383  0.00  0.00     0.058 A 
ENDROOT
TORSDOF 0
ENDMDL
