MODEL 1
REMARK minimizedAffinity 1.91807473
REMARK minimizedRMSD -1
REMARK  0 active torsions:
REMARK  status: ('A' for Active; 'I' for Inactive)
ROOT
ATOM      1  O1  BZF d   1       6.000   5.427  -4.994  0.00  0.00    -0.204 OA
ATOM      2  C2  BZF d   1       5.066   5.263  -6.000  0.00  0.00     0.174 A 
ATOM      3  C3  BZF d   1       3.934   4.714  -5.516  0.00  0.00    -0.012 A 
ATOM      4  C3A BZF d   1       4.140   4.608  -4.104  0.00  0.00    -0.107 A 
ATOM      5  C4  BZF d   1       3.368   4.153  -3.074  0.00  0.00     0.055 A 
ATOM      6  C5  BZF d   1       3.892   4.117  -1.821  0.00  0.00    -0.016 A 
ATOM      7  C6  BZF d   1       5.186   4.522  -1.563  0.00  0.00     0.022 A 
ATOM      8  C7  BZF d   1       5.988   4.986  -2.552  0.00  0.00     0.029 A 
ATOM      9  C7A BZF d   1       5.450   5.055  -3.814  0.00  0.00     0.058 A 
ENDROOT
TORSDOF 0
ENDMDL
