MODEL 1
REMARK minimizedAffinity -1.48710644
REMARK minimizedRMSD -1
REMARK  0 active torsions:
REMARK  status: ('A' for Active; 'I' for Inactive)
ROOT
ATOM      1  O1  BZF d   1       4.993   4.259  -1.208  0.00  0.00    -0.204 OA
ATOM      2  C2  BZF d   1       6.000   5.203  -1.163  0.00  0.00     0.174 A 
ATOM      3  C3  BZF d   1       5.959   5.999  -2.252  0.00  0.00    -0.012 A 
ATOM      4  C3A BZF d   1       4.801   5.580  -2.980  0.00  0.00    -0.107 A 
ATOM      5  C4  BZF d   1       4.221   6.000  -4.143  0.00  0.00     0.055 A 
ATOM      6  C5  BZF d   1       3.138   5.332  -4.619  0.00  0.00    -0.016 A 
ATOM      7  C6  BZF d   1       2.613   4.238  -3.963  0.00  0.00     0.022 A 
ATOM      8  C7  BZF d   1       3.151   3.787  -2.804  0.00  0.00     0.029 A 
ATOM      9  C7A BZF d   1       4.225   4.480  -2.302  0.00  0.00     0.058 A 
ENDROOT
TORSDOF 0
ENDMDL
