MODEL 1
REMARK minimizedAffinity 3.09274077
REMARK minimizedRMSD -1
REMARK  0 active torsions:
REMARK  status: ('A' for Active; 'I' for Inactive)
ROOT
ATOM      1  O1  BZF d   1       3.760   3.242  -5.367  0.00  0.00    -0.204 OA
ATOM      2  C2  BZF d   1       4.933   2.618  -5.744  0.00  0.00     0.174 A 
ATOM      3  C3  BZF d   1       5.997   3.203  -5.158  0.00  0.00    -0.012 A 
ATOM      4  C3A BZF d   1       5.447   4.201  -4.292  0.00  0.00    -0.107 A 
ATOM      5  C4  BZF d   1       6.000   5.104  -3.430  0.00  0.00     0.055 A 
ATOM      6  C5  BZF d   1       5.190   5.987  -2.789  0.00  0.00    -0.016 A 
ATOM      7  C6  BZF d   1       3.825   5.999  -2.991  0.00  0.00     0.022 A 
ATOM      8  C7  BZF d   1       3.230   5.120  -3.833  0.00  0.00     0.029 A 
ATOM      9  C7A BZF d   1       4.042   4.204  -4.457  0.00  0.00     0.058 A 
ENDROOT
TORSDOF 0
ENDMDL
