MODEL 1
REMARK minimizedAffinity 0.205254689
REMARK minimizedRMSD -1
REMARK  0 active torsions:
REMARK  status: ('A' for Active; 'I' for Inactive)
ROOT
ATOM      1  O1  BZF d   1       4.033   4.969  -2.145  0.00  0.00    -0.204 OA
ATOM      2  C2  BZF d   1       5.047   5.716  -1.577  0.00  0.00     0.174 A 
ATOM      3  C3  BZF d   1       6.000   6.000  -2.487  0.00  0.00    -0.012 A 
ATOM      4  C3A BZF d   1       5.509   5.471  -3.723  0.00  0.00    -0.107 A 
ATOM      5  C4  BZF d   1       6.000   5.453  -4.997  0.00  0.00     0.055 A 
ATOM      6  C5  BZF d   1       5.308   4.792  -5.962  0.00  0.00    -0.016 A 
ATOM      7  C6  BZF d   1       4.128   4.134  -5.687  0.00  0.00     0.022 A 
ATOM      8  C7  BZF d   1       3.599   4.128  -4.439  0.00  0.00     0.029 A 
ATOM      9  C7A BZF d   1       4.278   4.823  -3.469  0.00  0.00     0.058 A 
ENDROOT
TORSDOF 0
ENDMDL
