MODEL 1
REMARK minimizedAffinity -2.40215182
REMARK minimizedRMSD -1
REMARK  0 active torsions:
REMARK  status: ('A' for Active; 'I' for Inactive)
ROOT
ATOM      1  O1  BZF d   1       4.505   5.053  -1.675  0.00  0.00    -0.204 OA
ATOM      2  C2  BZF d   1       3.241   4.496  -1.635  0.00  0.00     0.174 A 
ATOM      3  C3  BZF d   1       2.710   4.425  -2.873  0.00  0.00    -0.012 A 
ATOM      4  C3A BZF d   1       3.740   4.887  -3.752  0.00  0.00    -0.107 A 
ATOM      5  C4  BZF d   1       3.822   5.035  -5.107  0.00  0.00     0.055 A 
ATOM      6  C5  BZF d   1       4.943   5.581  -5.645  0.00  0.00    -0.016 A 
ATOM      7  C6  BZF d   1       5.999   5.995  -4.859  0.00  0.00     0.022 A 
ATOM      8  C7  BZF d   1       5.966   5.864  -3.510  0.00  0.00     0.029 A 
ATOM      9  C7A BZF d   1       4.848   5.282  -2.966  0.00  0.00     0.058 A 
ENDROOT
TORSDOF 0
ENDMDL
