MODEL 1
REMARK minimizedAffinity -2.99409151
REMARK minimizedRMSD -1
REMARK  0 active torsions:
REMARK  status: ('A' for Active; 'I' for Inactive)
ROOT
ATOM      1  C   UNL d   1      -5.513   0.308   2.588  0.00  0.00    -0.002 A 
ATOM      2  C1  UNL d   1      -5.831  -0.751   1.749  0.00  0.00     0.010 A 
ATOM      3  C2  UNL d   1      -5.999  -2.038   2.263  0.00  0.00     0.041 A 
ATOM      4  C3  UNL d   1      -5.841  -2.245   3.648  0.00  0.00    -0.075 A 
ATOM      5  S   UNL d   1      -6.000  -3.735   4.501  0.00  0.00     0.015 SA
ATOM      6  C4  UNL d   1      -5.649  -3.001   5.998  0.00  0.00     0.022 A 
ATOM      7  C5  UNL d   1      -5.414  -1.653   5.869  0.00  0.00     0.026 A 
ATOM      8  C6  UNL d   1      -5.522  -1.195   4.513  0.00  0.00    -0.082 A 
ATOM      9  C7  UNL d   1      -5.357   0.098   3.961  0.00  0.00     0.045 A 
ENDROOT
TORSDOF 0
ENDMDL
