MODEL 1
REMARK minimizedAffinity 8.26960659
REMARK minimizedRMSD -1
REMARK  0 active torsions:
REMARK  status: ('A' for Active; 'I' for Inactive)
ROOT
ATOM      1  C   UNL d   1       0.094  -1.165   1.568  0.00  0.00    -0.002 A 
ATOM      2  C1  UNL d   1      -0.083  -0.602   0.312  0.00  0.00     0.010 A 
ATOM      3  C2  UNL d   1       0.099   0.768   0.115  0.00  0.00     0.041 A 
ATOM      4  C3  UNL d   1       0.468   1.571   1.212  0.00  0.00    -0.075 A 
ATOM      5  S   UNL d   1       0.747   3.272   1.208  0.00  0.00     0.015 SA
ATOM      6  C4  UNL d   1       1.109   3.292   2.874  0.00  0.00     0.022 A 
ATOM      7  C5  UNL d   1       1.023   2.040   3.435  0.00  0.00     0.026 A 
ATOM      8  C6  UNL d   1       0.653   1.027   2.487  0.00  0.00    -0.082 A 
ATOM      9  C7  UNL d   1       0.459  -0.365   2.654  0.00  0.00     0.045 A 
ENDROOT
TORSDOF 0
ENDMDL
