MODEL 1
REMARK minimizedAffinity 1.80495679
REMARK minimizedRMSD -1
REMARK  0 active torsions:
REMARK  status: ('A' for Active; 'I' for Inactive)
ROOT
ATOM      1  C   UNL d   1       0.848   4.764   0.229  0.00  0.00    -0.002 A 
ATOM      2  C1  UNL d   1       1.566   4.859   1.413  0.00  0.00     0.010 A 
ATOM      3  C2  UNL d   1       1.841   3.720   2.171  0.00  0.00     0.041 A 
ATOM      4  C3  UNL d   1       1.379   2.470   1.714  0.00  0.00    -0.075 A 
ATOM      5  S   UNL d   1       1.597   0.939   2.476  0.00  0.00     0.015 SA
ATOM      6  C4  UNL d   1       0.743   0.122   1.248  0.00  0.00     0.022 A 
ATOM      7  C5  UNL d   1       0.295   0.980   0.273  0.00  0.00     0.026 A 
ATOM      8  C6  UNL d   1       0.655   2.348   0.525  0.00  0.00    -0.082 A 
ATOM      9  C7  UNL d   1       0.392   3.522  -0.221  0.00  0.00     0.045 A 
ENDROOT
TORSDOF 0
ENDMDL
