MODEL 1
REMARK minimizedAffinity -3.35948467
REMARK minimizedRMSD -1
REMARK  0 active torsions:
REMARK  status: ('A' for Active; 'I' for Inactive)
ROOT
ATOM      1  C   UNL d   1       0.008   3.946   0.752  0.00  0.00    -0.002 A 
ATOM      2  C1  UNL d   1       0.146   3.747   2.118  0.00  0.00     0.010 A 
ATOM      3  C2  UNL d   1       0.555   2.509   2.618  0.00  0.00     0.041 A 
ATOM      4  C3  UNL d   1       0.826   1.464   1.712  0.00  0.00    -0.075 A 
ATOM      5  S   UNL d   1       1.341  -0.136   2.094  0.00  0.00     0.015 SA
ATOM      6  C4  UNL d   1       1.389  -0.593   0.453  0.00  0.00     0.022 A 
ATOM      7  C5  UNL d   1       1.025   0.439  -0.380  0.00  0.00     0.026 A 
ATOM      8  C6  UNL d   1       0.695   1.641   0.331  0.00  0.00    -0.082 A 
ATOM      9  C7  UNL d   1       0.278   2.908  -0.144  0.00  0.00     0.045 A 
ENDROOT
TORSDOF 0
ENDMDL
