MODEL 1
REMARK minimizedAffinity 2.58134031
REMARK minimizedRMSD -1
REMARK  0 active torsions:
REMARK  status: ('A' for Active; 'I' for Inactive)
ROOT
ATOM      1  C   UNL d   1       1.425   3.276   2.684  0.00  0.00    -0.002 A 
ATOM      2  C1  UNL d   1       1.047   3.938   1.524  0.00  0.00     0.010 A 
ATOM      3  C2  UNL d   1       0.762   3.223   0.359  0.00  0.00     0.041 A 
ATOM      4  C3  UNL d   1       0.861   1.818   0.380  0.00  0.00    -0.075 A 
ATOM      5  S   UNL d   1       0.558   0.735  -0.927  0.00  0.00     0.015 SA
ATOM      6  C4  UNL d   1       0.922  -0.632   0.024  0.00  0.00     0.022 A 
ATOM      7  C5  UNL d   1       1.268  -0.289   1.310  0.00  0.00     0.026 A 
ATOM      8  C6  UNL d   1       1.238   1.129   1.536  0.00  0.00    -0.082 A 
ATOM      9  C7  UNL d   1       1.522   1.882   2.701  0.00  0.00     0.045 A 
ENDROOT
TORSDOF 0
ENDMDL
