MODEL 1
REMARK minimizedAffinity 6.86020327
REMARK minimizedRMSD -1
REMARK  1 active torsions:
REMARK  status: ('A' for Active; 'I' for Inactive)
REMARK    1  A    between atoms: C1_2  and  C2_3 
ROOT
ATOM      1  C2  UNL d   1       3.627  -2.286   2.988  0.00  0.00    -0.077 A 
ATOM      2  C3  UNL d   1       3.302  -1.528   1.855  0.00  0.00     0.002 A 
ATOM      3  C4  UNL d   1       1.974  -1.186   1.591  0.00  0.00     0.002 A 
ATOM      4  C5  UNL d   1       0.962  -1.594   2.458  0.00  0.00    -0.004 A 
ATOM      5  C6  UNL d   1       1.275  -2.350   3.587  0.00  0.00     0.002 A 
ATOM      6  C7  UNL d   1       2.602  -2.693   3.852  0.00  0.00     0.002 A 
ENDROOT
BRANCH   1   7
ATOM      7  C1  UNL d   1       5.064  -2.614   3.301  0.00  0.00     0.055 C 
ATOM      8  C   UNL d   1       5.987  -2.195   2.166  0.00  0.00     0.019 C 
ENDBRANCH   1   7
TORSDOF 1
ENDMDL
