MODEL 1
REMARK minimizedAffinity 4.42018604
REMARK minimizedRMSD -1
REMARK  1 active torsions:
REMARK  status: ('A' for Active; 'I' for Inactive)
REMARK    1  A    between atoms: C1_2  and  C2_3 
ROOT
ATOM      1  C2  UNL d   1       0.716  -1.909   3.751  0.00  0.00    -0.077 A 
ATOM      2  C3  UNL d   1       1.617  -2.707   3.031  0.00  0.00     0.002 A 
ATOM      3  C4  UNL d   1       2.185  -2.237   1.846  0.00  0.00     0.002 A 
ATOM      4  C5  UNL d   1       1.863  -0.967   1.372  0.00  0.00    -0.004 A 
ATOM      5  C6  UNL d   1       0.966  -0.167   2.079  0.00  0.00     0.002 A 
ATOM      6  C7  UNL d   1       0.396  -0.635   3.263  0.00  0.00     0.002 A 
ENDROOT
BRANCH   1   7
ATOM      7  C1  UNL d   1       0.139  -2.394   5.055  0.00  0.00     0.055 C 
ATOM      8  C   UNL d   1       1.232  -2.872   6.000  0.00  0.00     0.019 C 
ENDBRANCH   1   7
TORSDOF 1
ENDMDL
