MODEL 1
REMARK minimizedAffinity 10.1418152
REMARK minimizedRMSD -1
REMARK  1 active torsions:
REMARK  status: ('A' for Active; 'I' for Inactive)
REMARK    1  A    between atoms: C1_2  and  C2_3 
ROOT
ATOM      1  C2  UNL d   1      -2.817   2.094  -0.029  0.00  0.00    -0.077 A 
ATOM      2  C3  UNL d   1      -3.409   2.514  -1.229  0.00  0.00     0.002 A 
ATOM      3  C4  UNL d   1      -3.589   1.613  -2.280  0.00  0.00     0.002 A 
ATOM      4  C5  UNL d   1      -3.184   0.287  -2.141  0.00  0.00    -0.004 A 
ATOM      5  C6  UNL d   1      -2.593  -0.139  -0.953  0.00  0.00     0.002 A 
ATOM      6  C7  UNL d   1      -2.410   0.760   0.099  0.00  0.00     0.002 A 
ENDROOT
BRANCH   1   7
ATOM      7  C1  UNL d   1      -2.666   3.052   1.123  0.00  0.00     0.055 C 
ATOM      8  C   UNL d   1      -1.203   3.255   1.487  0.00  0.00     0.019 C 
ENDBRANCH   1   7
TORSDOF 1
ENDMDL
