MODEL 1
REMARK minimizedAffinity 1.58355331
REMARK minimizedRMSD -1
REMARK  1 active torsions:
REMARK  status: ('A' for Active; 'I' for Inactive)
REMARK    1  A    between atoms: C1_2  and  C2_3 
ROOT
ATOM      1  C2  UNL d   1       1.334  -2.047   4.614  0.00  0.00    -0.077 A 
ATOM      2  C3  UNL d   1       0.812  -0.841   4.127  0.00  0.00     0.002 A 
ATOM      3  C4  UNL d   1       1.218  -0.344   2.887  0.00  0.00     0.002 A 
ATOM      4  C5  UNL d   1       2.145  -1.049   2.123  0.00  0.00    -0.004 A 
ATOM      5  C6  UNL d   1       2.672  -2.249   2.599  0.00  0.00     0.002 A 
ATOM      6  C7  UNL d   1       2.268  -2.746   3.839  0.00  0.00     0.002 A 
ENDROOT
BRANCH   1   7
ATOM      7  C1  UNL d   1       0.860  -2.609   5.929  0.00  0.00     0.055 C 
ATOM      8  C   UNL d   1       1.070  -4.115   5.995  0.00  0.00     0.019 C 
ENDBRANCH   1   7
TORSDOF 1
ENDMDL
