MODEL 1
REMARK minimizedAffinity -2.51960945
REMARK minimizedRMSD -1
REMARK  0 active torsions:
REMARK  status: ('A' for Active; 'I' for Inactive)
ROOT
ATOM      1  C   UNL d   1       0.170   1.192  -1.824  0.00  0.00    -0.002 A 
ATOM      2  C1  UNL d   1       0.352   0.045  -2.584  0.00  0.00     0.010 A 
ATOM      3  C2  UNL d   1       0.155  -1.218  -2.021  0.00  0.00     0.041 A 
ATOM      4  C3  UNL d   1      -0.234  -1.309  -0.670  0.00  0.00    -0.075 A 
ATOM      5  S   UNL d   1      -0.533  -2.749   0.230  0.00  0.00     0.015 SA
ATOM      6  C4  UNL d   1      -0.911  -1.875   1.644  0.00  0.00     0.022 A 
ATOM      7  C5  UNL d   1      -0.815  -0.517   1.452  0.00  0.00     0.026 A 
ATOM      8  C6  UNL d   1      -0.424  -0.169   0.115  0.00  0.00    -0.082 A 
ATOM      9  C7  UNL d   1      -0.215   1.097  -0.484  0.00  0.00     0.045 A 
ENDROOT
TORSDOF 0
ENDMDL
