MODEL 1
REMARK minimizedAffinity -3.19559097
REMARK minimizedRMSD -1
REMARK  0 active torsions:
REMARK  status: ('A' for Active; 'I' for Inactive)
ROOT
ATOM      1  C   UNL d   1       1.031   1.413   0.340  0.00  0.00    -0.002 A 
ATOM      2  C1  UNL d   1      -0.343   1.532   0.194  0.00  0.00     0.010 A 
ATOM      3  C2  UNL d   1      -1.153   0.395   0.145  0.00  0.00     0.041 A 
ATOM      4  C3  UNL d   1      -0.552  -0.875   0.248  0.00  0.00    -0.075 A 
ATOM      5  S   UNL d   1      -1.344  -2.406   0.214  0.00  0.00     0.015 SA
ATOM      6  C4  UNL d   1       0.124  -3.253   0.394  0.00  0.00     0.022 A 
ATOM      7  C5  UNL d   1       1.202  -2.404   0.479  0.00  0.00     0.026 A 
ATOM      8  C6  UNL d   1       0.831  -1.020   0.397  0.00  0.00    -0.082 A 
ATOM      9  C7  UNL d   1       1.624   0.152   0.442  0.00  0.00     0.045 A 
ENDROOT
TORSDOF 0
ENDMDL
