MODEL 1
REMARK minimizedAffinity -0.414473712
REMARK minimizedRMSD -1
REMARK  0 active torsions:
REMARK  status: ('A' for Active; 'I' for Inactive)
ROOT
ATOM      1  C   UNL d   1      -1.201  -1.976   1.098  0.00  0.00    -0.002 A 
ATOM      2  C1  UNL d   1       0.001  -2.606   0.813  0.00  0.00     0.010 A 
ATOM      3  C2  UNL d   1       1.121  -1.863   0.433  0.00  0.00     0.041 A 
ATOM      4  C3  UNL d   1       1.010  -0.461   0.346  0.00  0.00    -0.075 A 
ATOM      5  S   UNL d   1       2.249   0.653  -0.098  0.00  0.00     0.015 SA
ATOM      6  C4  UNL d   1       1.211   1.993   0.082  0.00  0.00     0.022 A 
ATOM      7  C5  UNL d   1      -0.054   1.617   0.471  0.00  0.00     0.026 A 
ATOM      8  C6  UNL d   1      -0.190   0.197   0.630  0.00  0.00    -0.082 A 
ATOM      9  C7  UNL d   1      -1.307  -0.585   1.011  0.00  0.00     0.045 A 
ENDROOT
TORSDOF 0
ENDMDL
