MODEL 1
REMARK minimizedAffinity -3.19211125
REMARK minimizedRMSD -1
REMARK  0 active torsions:
REMARK  status: ('A' for Active; 'I' for Inactive)
ROOT
ATOM      1  C   UNL d   1       0.378  -2.113   0.931  0.00  0.00    -0.002 A 
ATOM      2  C1  UNL d   1       0.136  -2.307  -0.421  0.00  0.00     0.010 A 
ATOM      3  C2  UNL d   1       0.178  -1.233  -1.312  0.00  0.00     0.041 A 
ATOM      4  C3  UNL d   1       0.472   0.053  -0.816  0.00  0.00    -0.075 A 
ATOM      5  S   UNL d   1       0.579   1.517  -1.720  0.00  0.00     0.015 SA
ATOM      6  C4  UNL d   1       0.949   2.434  -0.332  0.00  0.00     0.022 A 
ATOM      7  C5  UNL d   1       0.993   1.659   0.802  0.00  0.00     0.026 A 
ATOM      8  C6  UNL d   1       0.720   0.273   0.542  0.00  0.00    -0.082 A 
ATOM      9  C7  UNL d   1       0.669  -0.837   1.420  0.00  0.00     0.045 A 
ENDROOT
TORSDOF 0
ENDMDL
