MODEL 1
REMARK minimizedAffinity -2.28949213
REMARK minimizedRMSD -1
REMARK  0 active torsions:
REMARK  status: ('A' for Active; 'I' for Inactive)
ROOT
ATOM      1  C   UNL d   1       1.957  -0.037   0.111  0.00  0.00     0.078 C 
ATOM      2  C1  UNL d   1       0.473   0.081   0.288  0.00  0.00    -0.077 A 
ATOM      3  C2  UNL d   1      -0.134   1.328   0.481  0.00  0.00    -0.001 A 
ATOM      4  C3  UNL d   1      -1.515   1.422   0.654  0.00  0.00     0.003 A 
ATOM      5  C4  UNL d   1      -2.303   0.273   0.638  0.00  0.00    -0.005 A 
ATOM      6  C5  UNL d   1      -1.708  -0.973   0.448  0.00  0.00     0.003 A 
ATOM      7  C6  UNL d   1      -0.326  -1.069   0.275  0.00  0.00    -0.001 A 
ENDROOT
TORSDOF 0
ENDMDL
