MODEL 1
REMARK minimizedAffinity -4.91284657
REMARK minimizedRMSD -1
REMARK  0 active torsions:
REMARK  status: ('A' for Active; 'I' for Inactive)
ROOT
ATOM      1  C   UNL d   1       0.652   1.589   0.075  0.00  0.00     0.078 C 
ATOM      2  C1  UNL d   1       0.161   0.194   0.320  0.00  0.00    -0.077 A 
ATOM      3  C2  UNL d   1       1.050  -0.835   0.655  0.00  0.00    -0.001 A 
ATOM      4  C3  UNL d   1       0.580  -2.132   0.870  0.00  0.00     0.003 A 
ATOM      5  C4  UNL d   1      -0.780  -2.412   0.751  0.00  0.00    -0.005 A 
ATOM      6  C5  UNL d   1      -1.672  -1.395   0.416  0.00  0.00     0.003 A 
ATOM      7  C6  UNL d   1      -1.204  -0.098   0.200  0.00  0.00    -0.001 A 
ENDROOT
TORSDOF 0
ENDMDL
