MODEL 1
REMARK minimizedAffinity -2.41859746
REMARK minimizedRMSD -1
REMARK  0 active torsions:
REMARK  status: ('A' for Active; 'I' for Inactive)
ROOT
ATOM      1  C   UNL d   1       1.388   1.498  -0.402  0.00  0.00     0.078 C 
ATOM      2  C1  UNL d   1       0.023   1.010  -0.019  0.00  0.00    -0.077 A 
ATOM      3  C2  UNL d   1      -0.971   1.903   0.402  0.00  0.00    -0.001 A 
ATOM      4  C3  UNL d   1      -2.234   1.434   0.765  0.00  0.00     0.003 A 
ATOM      5  C4  UNL d   1      -2.515   0.070   0.713  0.00  0.00    -0.005 A 
ATOM      6  C5  UNL d   1      -1.533  -0.826   0.298  0.00  0.00     0.003 A 
ATOM      7  C6  UNL d   1      -0.269  -0.359  -0.066  0.00  0.00    -0.001 A 
ENDROOT
TORSDOF 0
ENDMDL
