MODEL 1
REMARK minimizedAffinity -1.72242916
REMARK minimizedRMSD -1
REMARK  0 active torsions:
REMARK  status: ('A' for Active; 'I' for Inactive)
ROOT
ATOM      1  C   UNL d   1      -0.774  -2.293   1.709  0.00  0.00     0.078 C 
ATOM      2  C1  UNL d   1      -0.312  -1.150   0.855  0.00  0.00    -0.077 A 
ATOM      3  C2  UNL d   1       0.837  -1.260   0.062  0.00  0.00    -0.001 A 
ATOM      4  C3  UNL d   1       1.261  -0.184  -0.719  0.00  0.00     0.003 A 
ATOM      5  C4  UNL d   1       0.543   1.010  -0.715  0.00  0.00    -0.005 A 
ATOM      6  C5  UNL d   1      -0.600   1.130   0.073  0.00  0.00     0.003 A 
ATOM      7  C6  UNL d   1      -1.025   0.055   0.856  0.00  0.00    -0.001 A 
ENDROOT
TORSDOF 0
ENDMDL
