MODEL 1
REMARK minimizedAffinity -4.45785952
REMARK minimizedRMSD -1
REMARK  0 active torsions:
REMARK  status: ('A' for Active; 'I' for Inactive)
ROOT
ATOM      1  C   UNL d   1      -1.166  -2.311   0.700  0.00  0.00     0.078 C 
ATOM      2  C1  UNL d   1      -0.315  -1.156   0.266  0.00  0.00    -0.077 A 
ATOM      3  C2  UNL d   1       1.043  -1.330  -0.027  0.00  0.00    -0.001 A 
ATOM      4  C3  UNL d   1       1.825  -0.243  -0.421  0.00  0.00     0.003 A 
ATOM      5  C4  UNL d   1       1.259   1.026  -0.523  0.00  0.00    -0.005 A 
ATOM      6  C5  UNL d   1      -0.091   1.210  -0.231  0.00  0.00     0.003 A 
ATOM      7  C6  UNL d   1      -0.875   0.124   0.163  0.00  0.00    -0.001 A 
ENDROOT
TORSDOF 0
ENDMDL
