MODEL 1
REMARK minimizedAffinity -5.45165777
REMARK minimizedRMSD -1
REMARK  0 active torsions:
REMARK  status: ('A' for Active; 'I' for Inactive)
ROOT
ATOM      1  C   UNL d   1      -0.153   0.763   0.062  0.00  0.00     0.078 C 
ATOM      2  C1  UNL d   1      -0.979  -0.339   0.656  0.00  0.00    -0.077 A 
ATOM      3  C2  UNL d   1      -2.190  -0.065   1.302  0.00  0.00    -0.001 A 
ATOM      4  C3  UNL d   1      -2.943  -1.099   1.858  0.00  0.00     0.003 A 
ATOM      5  C4  UNL d   1      -2.493  -2.416   1.776  0.00  0.00    -0.005 A 
ATOM      6  C5  UNL d   1      -1.288  -2.698   1.137  0.00  0.00     0.003 A 
ATOM      7  C6  UNL d   1      -0.533  -1.665   0.580  0.00  0.00    -0.001 A 
ENDROOT
TORSDOF 0
ENDMDL
