MODEL 1
REMARK minimizedAffinity -4.29562569
REMARK minimizedRMSD -1
REMARK  0 active torsions:
REMARK  status: ('A' for Active; 'I' for Inactive)
ROOT
ATOM      1  C   UNL d   1       0.318   1.286  -0.714  0.00  0.00     0.078 C 
ATOM      2  C1  UNL d   1       0.100   0.036   0.085  0.00  0.00    -0.077 A 
ATOM      3  C2  UNL d   1       1.165  -0.822   0.386  0.00  0.00    -0.001 A 
ATOM      4  C3  UNL d   1       0.947  -1.987   1.122  0.00  0.00     0.003 A 
ATOM      5  C4  UNL d   1      -0.336  -2.306   1.562  0.00  0.00    -0.005 A 
ATOM      6  C5  UNL d   1      -1.403  -1.460   1.266  0.00  0.00     0.003 A 
ATOM      7  C6  UNL d   1      -1.186  -0.294   0.529  0.00  0.00    -0.001 A 
ENDROOT
TORSDOF 0
ENDMDL
