MODEL 1
REMARK minimizedAffinity -4.83683729
REMARK minimizedRMSD -1
REMARK  0 active torsions:
REMARK  status: ('A' for Active; 'I' for Inactive)
ROOT
ATOM      1  C   UNL d   1       0.271   0.969  -0.747  0.00  0.00     0.078 C 
ATOM      2  C1  UNL d   1      -0.261  -0.291  -0.133  0.00  0.00    -0.077 A 
ATOM      3  C2  UNL d   1      -1.634  -0.465   0.081  0.00  0.00    -0.001 A 
ATOM      4  C3  UNL d   1      -2.115  -1.640   0.662  0.00  0.00     0.003 A 
ATOM      5  C4  UNL d   1      -1.230  -2.649   1.036  0.00  0.00    -0.005 A 
ATOM      6  C5  UNL d   1       0.138  -2.484   0.830  0.00  0.00     0.003 A 
ATOM      7  C6  UNL d   1       0.621  -1.310   0.248  0.00  0.00    -0.001 A 
ENDROOT
TORSDOF 0
ENDMDL
