MODEL 1
REMARK minimizedAffinity -5.07016802
REMARK minimizedRMSD -1
REMARK  0 active torsions:
REMARK  status: ('A' for Active; 'I' for Inactive)
ROOT
ATOM      1  C   UNL d   1      -2.090  -2.402   0.960  0.00  0.00     0.078 C 
ATOM      2  C1  UNL d   1      -1.073  -1.383   0.540  0.00  0.00    -0.077 A 
ATOM      3  C2  UNL d   1      -1.460  -0.096   0.148  0.00  0.00    -0.001 A 
ATOM      4  C3  UNL d   1      -0.503   0.839  -0.249  0.00  0.00     0.003 A 
ATOM      5  C4  UNL d   1       0.847   0.497  -0.259  0.00  0.00    -0.005 A 
ATOM      6  C5  UNL d   1       1.242  -0.782   0.127  0.00  0.00     0.003 A 
ATOM      7  C6  UNL d   1       0.287  -1.719   0.524  0.00  0.00    -0.001 A 
ENDROOT
TORSDOF 0
ENDMDL
