MODEL 1
REMARK minimizedAffinity -1.79375839
REMARK minimizedRMSD -1
REMARK  0 active torsions:
REMARK  status: ('A' for Active; 'I' for Inactive)
ROOT
ATOM      1  C   UNL d   1      -1.951  -2.074   0.929  0.00  0.00     0.078 C 
ATOM      2  C1  UNL d   1      -1.111  -0.915   0.481  0.00  0.00    -0.077 A 
ATOM      3  C2  UNL d   1      -1.622   0.388   0.483  0.00  0.00    -0.001 A 
ATOM      4  C3  UNL d   1      -0.832   1.456   0.055  0.00  0.00     0.003 A 
ATOM      5  C4  UNL d   1       0.473   1.231  -0.380  0.00  0.00    -0.005 A 
ATOM      6  C5  UNL d   1       0.989  -0.063  -0.387  0.00  0.00     0.003 A 
ATOM      7  C6  UNL d   1       0.201  -1.132   0.041  0.00  0.00    -0.001 A 
ENDROOT
TORSDOF 0
ENDMDL
