MODEL 1
REMARK minimizedAffinity -4.37865162
REMARK minimizedRMSD -1
REMARK  0 active torsions:
REMARK  status: ('A' for Active; 'I' for Inactive)
ROOT
ATOM      1  C   UNL d   1       0.283   0.768  -1.599  0.00  0.00     0.078 C 
ATOM      2  C1  UNL d   1      -0.045  -0.307  -0.607  0.00  0.00    -0.077 A 
ATOM      3  C2  UNL d   1      -1.266  -0.990  -0.660  0.00  0.00    -0.001 A 
ATOM      4  C3  UNL d   1      -1.562  -1.983   0.275  0.00  0.00     0.003 A 
ATOM      5  C4  UNL d   1      -0.642  -2.301   1.272  0.00  0.00    -0.005 A 
ATOM      6  C5  UNL d   1       0.575  -1.625   1.335  0.00  0.00     0.003 A 
ATOM      7  C6  UNL d   1       0.873  -0.632   0.400  0.00  0.00    -0.001 A 
ENDROOT
TORSDOF 0
ENDMDL
