MODEL 1
REMARK minimizedAffinity -6.29585075
REMARK minimizedRMSD -1
REMARK  0 active torsions:
REMARK  status: ('A' for Active; 'I' for Inactive)
ROOT
ATOM      1  C   UNL d   1       0.285   0.968  -0.055  0.00  0.00     0.078 C 
ATOM      2  C1  UNL d   1      -0.498  -0.120   0.618  0.00  0.00    -0.077 A 
ATOM      3  C2  UNL d   1      -1.685   0.164   1.303  0.00  0.00    -0.001 A 
ATOM      4  C3  UNL d   1      -2.398  -0.857   1.934  0.00  0.00     0.003 A 
ATOM      5  C4  UNL d   1      -1.931  -2.169   1.887  0.00  0.00    -0.005 A 
ATOM      6  C5  UNL d   1      -0.749  -2.461   1.209  0.00  0.00     0.003 A 
ATOM      7  C6  UNL d   1      -0.034  -1.441   0.578  0.00  0.00    -0.001 A 
ENDROOT
TORSDOF 0
ENDMDL
