MODEL 1
REMARK minimizedAffinity -4.51363802
REMARK minimizedRMSD -1
REMARK  0 active torsions:
REMARK  status: ('A' for Active; 'I' for Inactive)
ROOT
ATOM      1  C   UNL d   1      -2.197  -2.631   1.092  0.00  0.00     0.078 C 
ATOM      2  C1  UNL d   1      -1.118  -1.604   0.920  0.00  0.00    -0.077 A 
ATOM      3  C2  UNL d   1       0.232  -1.974   0.891  0.00  0.00    -0.001 A 
ATOM      4  C3  UNL d   1       1.227  -1.007   0.740  0.00  0.00     0.003 A 
ATOM      5  C4  UNL d   1       0.882   0.338   0.618  0.00  0.00    -0.005 A 
ATOM      6  C5  UNL d   1      -0.459   0.716   0.648  0.00  0.00     0.003 A 
ATOM      7  C6  UNL d   1      -1.455  -0.250   0.799  0.00  0.00    -0.001 A 
ENDROOT
TORSDOF 0
ENDMDL
