MODEL 1
REMARK minimizedAffinity 10.8053989
REMARK minimizedRMSD -1
REMARK  0 active torsions:
REMARK  status: ('A' for Active; 'I' for Inactive)
ROOT
ATOM      1  C2' OXE d   1      -4.794   2.983  -1.290  0.00  0.00     0.078 C 
ATOM      2  C1' OXE d   1      -2.344   2.852  -2.653  0.00  0.00     0.078 C 
ATOM      3  C1  OXE d   1      -3.607   2.849  -3.476  0.00  0.00    -0.078 A 
ATOM      4  C2  OXE d   1      -4.803   2.866  -2.799  0.00  0.00    -0.078 A 
ATOM      5  C3  OXE d   1      -5.998   2.920  -3.511  0.00  0.00     0.003 A 
ATOM      6  C4  OXE d   1      -5.997   2.801  -4.907  0.00  0.00    -0.002 A 
ATOM      7  C5  OXE d   1      -4.792   2.742  -5.614  0.00  0.00    -0.002 A 
ATOM      8  C6  OXE d   1      -3.590   2.808  -4.918  0.00  0.00     0.003 A 
ENDROOT
TORSDOF 0
ENDMDL
