MODEL 1
REMARK minimizedAffinity 5.24357939
REMARK minimizedRMSD -1
REMARK  0 active torsions:
REMARK  status: ('A' for Active; 'I' for Inactive)
ROOT
ATOM      1  C2' OXE d   1       1.841  -2.060   2.899  0.00  0.00     0.078 C 
ATOM      2  C1' OXE d   1      -0.141  -1.620   0.961  0.00  0.00     0.078 C 
ATOM      3  C1  OXE d   1       0.973  -0.609   1.070  0.00  0.00    -0.078 A 
ATOM      4  C2  OXE d   1       1.913  -0.808   2.052  0.00  0.00    -0.078 A 
ATOM      5  C3  OXE d   1       2.992   0.064   2.160  0.00  0.00     0.003 A 
ATOM      6  C4  OXE d   1       3.046   1.225   1.380  0.00  0.00    -0.002 A 
ATOM      7  C5  OXE d   1       2.078   1.468   0.400  0.00  0.00    -0.002 A 
ATOM      8  C6  OXE d   1       1.060   0.541   0.204  0.00  0.00     0.003 A 
ENDROOT
TORSDOF 0
ENDMDL
