MODEL 1
REMARK minimizedAffinity 5.63972425
REMARK minimizedRMSD -1
REMARK  0 active torsions:
REMARK  status: ('A' for Active; 'I' for Inactive)
ROOT
ATOM      1  C2' OXE d   1      -1.358  -0.756  -0.177  0.00  0.00     0.078 C 
ATOM      2  C1' OXE d   1       0.830  -1.641   1.343  0.00  0.00     0.078 C 
ATOM      3  C1  OXE d   1       0.716  -2.132  -0.079  0.00  0.00    -0.078 A 
ATOM      4  C2  OXE d   1      -0.383  -1.731  -0.800  0.00  0.00    -0.078 A 
ATOM      5  C3  OXE d   1      -0.508  -2.112  -2.133  0.00  0.00     0.003 A 
ATOM      6  C4  OXE d   1       0.393  -3.022  -2.699  0.00  0.00    -0.002 A 
ATOM      7  C5  OXE d   1       1.497  -3.474  -1.969  0.00  0.00    -0.002 A 
ATOM      8  C6  OXE d   1       1.696  -3.006  -0.675  0.00  0.00     0.003 A 
ENDROOT
TORSDOF 0
ENDMDL
