MODEL 1
REMARK minimizedAffinity 8.10523605
REMARK minimizedRMSD -1
REMARK  0 active torsions:
REMARK  status: ('A' for Active; 'I' for Inactive)
ROOT
ATOM      1  C2' OXE d   1       0.466  -1.435   1.087  0.00  0.00     0.078 C 
ATOM      2  C1' OXE d   1       2.538   0.279   1.892  0.00  0.00     0.078 C 
ATOM      3  C1  OXE d   1       2.440  -1.069   2.561  0.00  0.00    -0.078 A 
ATOM      4  C2  OXE d   1       1.395  -1.883   2.195  0.00  0.00    -0.078 A 
ATOM      5  C3  OXE d   1       1.290  -3.158   2.742  0.00  0.00     0.003 A 
ATOM      6  C4  OXE d   1       2.148  -3.561   3.772  0.00  0.00    -0.002 A 
ATOM      7  C5  OXE d   1       3.195  -2.732   4.189  0.00  0.00    -0.002 A 
ATOM      8  C6  OXE d   1       3.380  -1.503   3.565  0.00  0.00     0.003 A 
ENDROOT
TORSDOF 0
ENDMDL
