MODEL 1
REMARK minimizedAffinity -2.96426392
REMARK minimizedRMSD -1
REMARK  0 active torsions:
REMARK  status: ('A' for Active; 'I' for Inactive)
ROOT
ATOM      1  C2' OXE d   1       4.968   5.991  -5.107  0.00  0.00     0.078 C 
ATOM      2  C1' OXE d   1       6.000   4.892  -2.739  0.00  0.00     0.078 C 
ATOM      3  C1  OXE d   1       4.520   5.181  -2.795  0.00  0.00    -0.078 A 
ATOM      4  C2  OXE d   1       4.032   5.762  -3.940  0.00  0.00    -0.078 A 
ATOM      5  C3  OXE d   1       2.666   5.999  -4.065  0.00  0.00     0.003 A 
ATOM      6  C4  OXE d   1       1.809   5.794  -2.977  0.00  0.00    -0.002 A 
ATOM      7  C5  OXE d   1       2.292   5.240  -1.787  0.00  0.00    -0.002 A 
ATOM      8  C6  OXE d   1       3.635   4.889  -1.695  0.00  0.00     0.003 A 
ENDROOT
TORSDOF 0
ENDMDL
