MODEL 1
REMARK minimizedAffinity 1.25964403
REMARK minimizedRMSD -1
REMARK  0 active torsions:
REMARK  status: ('A' for Active; 'I' for Inactive)
ROOT
ATOM      1  C2' OXE d   1       1.142  -3.745   2.777  0.00  0.00     0.078 C 
ATOM      2  C1' OXE d   1       0.901  -2.347   0.355  0.00  0.00     0.078 C 
ATOM      3  C1  OXE d   1       1.710  -1.710   1.457  0.00  0.00    -0.078 A 
ATOM      4  C2  OXE d   1       1.783  -2.379   2.655  0.00  0.00    -0.078 A 
ATOM      5  C3  OXE d   1       2.561  -1.862   3.687  0.00  0.00     0.003 A 
ATOM      6  C4  OXE d   1       3.143  -0.594   3.569  0.00  0.00    -0.002 A 
ATOM      7  C5  OXE d   1       3.047   0.123   2.372  0.00  0.00    -0.002 A 
ATOM      8  C6  OXE d   1       2.371  -0.439   1.294  0.00  0.00     0.003 A 
ENDROOT
TORSDOF 0
ENDMDL
