MODEL 1
REMARK minimizedAffinity 5.70347452
REMARK minimizedRMSD -1
REMARK  0 active torsions:
REMARK  status: ('A' for Active; 'I' for Inactive)
ROOT
ATOM      1  C2' OXE d   1      -2.138   0.875   0.898  0.00  0.00     0.078 C 
ATOM      2  C1' OXE d   1      -3.460   1.681  -1.444  0.00  0.00     0.078 C 
ATOM      3  C1  OXE d   1      -4.067   2.078  -0.121  0.00  0.00    -0.078 A 
ATOM      4  C2  OXE d   1      -3.439   1.639   1.020  0.00  0.00    -0.078 A 
ATOM      5  C3  OXE d   1      -3.927   2.023   2.266  0.00  0.00     0.003 A 
ATOM      6  C4  OXE d   1      -5.136   2.721   2.370  0.00  0.00    -0.002 A 
ATOM      7  C5  OXE d   1      -5.813   3.143   1.221  0.00  0.00    -0.002 A 
ATOM      8  C6  OXE d   1      -5.271   2.867  -0.030  0.00  0.00     0.003 A 
ENDROOT
TORSDOF 0
ENDMDL
