MODEL 1
REMARK minimizedAffinity 3.32016921
REMARK minimizedRMSD -1
REMARK  0 active torsions:
REMARK  status: ('A' for Active; 'I' for Inactive)
ROOT
ATOM      1  C2' OXE d   1       0.988  -1.467  -0.218  0.00  0.00     0.078 C 
ATOM      2  C1' OXE d   1       3.665  -0.626  -0.177  0.00  0.00     0.078 C 
ATOM      3  C1  OXE d   1       3.248  -1.592  -1.258  0.00  0.00    -0.078 A 
ATOM      4  C2  OXE d   1       1.947  -2.035  -1.242  0.00  0.00    -0.078 A 
ATOM      5  C3  OXE d   1       1.496  -2.884  -2.248  0.00  0.00     0.003 A 
ATOM      6  C4  OXE d   1       2.392  -3.412  -3.185  0.00  0.00    -0.002 A 
ATOM      7  C5  OXE d   1       3.731  -3.006  -3.195  0.00  0.00    -0.002 A 
ATOM      8  C6  OXE d   1       4.164  -2.066  -2.266  0.00  0.00     0.003 A 
ENDROOT
TORSDOF 0
ENDMDL
