MODEL 1
REMARK minimizedAffinity 4.74501181
REMARK minimizedRMSD -1
REMARK  0 active torsions:
REMARK  status: ('A' for Active; 'I' for Inactive)
ROOT
ATOM      1  C2' OXE d   1       2.559  -1.046   0.006  0.00  0.00     0.078 C 
ATOM      2  C1' OXE d   1       1.676  -2.030   2.483  0.00  0.00     0.078 C 
ATOM      3  C1  OXE d   1       2.163  -0.604   2.426  0.00  0.00    -0.078 A 
ATOM      4  C2  OXE d   1       2.636  -0.145   1.220  0.00  0.00    -0.078 A 
ATOM      5  C3  OXE d   1       3.046   1.179   1.099  0.00  0.00     0.003 A 
ATOM      6  C4  OXE d   1       3.124   2.003   2.229  0.00  0.00    -0.002 A 
ATOM      7  C5  OXE d   1       2.684   1.543   3.474  0.00  0.00    -0.002 A 
ATOM      8  C6  OXE d   1       2.162   0.259   3.581  0.00  0.00     0.003 A 
ENDROOT
TORSDOF 0
ENDMDL
