MODEL 1
REMARK minimizedAffinity 6.2588439
REMARK minimizedRMSD -1
REMARK  0 active torsions:
REMARK  status: ('A' for Active; 'I' for Inactive)
ROOT
ATOM      1  C2' OXE d   1       2.732   4.886  -2.249  0.00  0.00     0.078 C 
ATOM      2  C1' OXE d   1       0.065   5.075  -1.393  0.00  0.00     0.078 C 
ATOM      3  C1  OXE d   1       0.938   4.028  -0.747  0.00  0.00    -0.078 A 
ATOM      4  C2  OXE d   1       2.229   3.912  -1.205  0.00  0.00    -0.078 A 
ATOM      5  C3  OXE d   1       3.093   3.000  -0.606  0.00  0.00     0.003 A 
ATOM      6  C4  OXE d   1       2.617   2.096   0.352  0.00  0.00    -0.002 A 
ATOM      7  C5  OXE d   1       1.295   2.171   0.804  0.00  0.00    -0.002 A 
ATOM      8  C6  OXE d   1       0.456   3.158   0.296  0.00  0.00     0.003 A 
ENDROOT
TORSDOF 0
ENDMDL
