MODEL 1
REMARK minimizedAffinity -5.83186913
REMARK minimizedRMSD -1
REMARK  2 active torsions:
REMARK  status: ('A' for Active; 'I' for Inactive)
REMARK    1  A    between atoms: C2'_3  and  C1'_4 
REMARK    2  A    between atoms: C1'_4  and  C1_5 
ROOT
ATOM      1  C1  I4B d   1      -3.695   0.908  -4.066  0.00  0.00    -0.075 A 
ATOM      2  C2  I4B d   1      -2.757   0.268  -3.295  0.00  0.00     0.003 A 
ATOM      3  C3  I4B d   1      -2.170   0.930  -2.189  0.00  0.00     0.002 A 
ATOM      4  C4  I4B d   1      -2.511   2.241  -1.923  0.00  0.00    -0.004 A 
ATOM      5  C5  I4B d   1      -3.479   2.881  -2.692  0.00  0.00     0.002 A 
ATOM      6  C6  I4B d   1      -4.084   2.206  -3.763  0.00  0.00     0.003 A 
ENDROOT
BRANCH   1   7
ATOM      7  C1' I4B d   1      -4.270   0.190  -5.245  0.00  0.00     0.060 C 
BRANCH   7   8
ATOM      8  C2' I4B d   1      -3.667  -1.199  -5.286  0.00  0.00    -0.013 C 
ATOM      9  C4' I4B d   1      -4.591  -2.175  -5.965  0.00  0.00     0.013 C 
ATOM     10  C3' I4B d   1      -2.351  -1.112  -6.000  0.00  0.00     0.013 C 
ENDBRANCH   7   8
ENDBRANCH   1   7
TORSDOF 2
ENDMDL
