MODEL 1
REMARK minimizedAffinity 5.02024603
REMARK minimizedRMSD -1
REMARK  2 active torsions:
REMARK  status: ('A' for Active; 'I' for Inactive)
REMARK    1  A    between atoms: C2'_3  and  C1'_4 
REMARK    2  A    between atoms: C1'_4  and  C1_5 
ROOT
ATOM      1  C1  I4B d   1       2.917  -3.122   2.939  0.00  0.00    -0.075 A 
ATOM      2  C2  I4B d   1       1.879  -2.461   2.332  0.00  0.00     0.003 A 
ATOM      3  C3  I4B d   1       1.585  -2.694   0.967  0.00  0.00     0.002 A 
ATOM      4  C4  I4B d   1       2.382  -3.553   0.238  0.00  0.00    -0.004 A 
ATOM      5  C5  I4B d   1       3.420  -4.240   0.860  0.00  0.00     0.002 A 
ATOM      6  C6  I4B d   1       3.682  -4.033   2.222  0.00  0.00     0.003 A 
ENDROOT
BRANCH   1   7
ATOM      7  C1' I4B d   1       3.220  -2.827   4.373  0.00  0.00     0.060 C 
BRANCH   7   8
ATOM      8  C2' I4B d   1       4.491  -3.564   4.743  0.00  0.00    -0.013 C 
ATOM      9  C4' I4B d   1       5.616  -2.603   5.023  0.00  0.00     0.013 C 
ATOM     10  C3' I4B d   1       4.199  -4.419   5.940  0.00  0.00     0.013 C 
ENDBRANCH   7   8
ENDBRANCH   1   7
TORSDOF 2
ENDMDL
