MODEL 1
REMARK minimizedAffinity -2.43520999
REMARK minimizedRMSD -1
REMARK  2 active torsions:
REMARK  status: ('A' for Active; 'I' for Inactive)
REMARK    1  A    between atoms: C2'_3  and  C1'_4 
REMARK    2  A    between atoms: C1'_4  and  C1_5 
ROOT
ATOM      1  C1  I4B d   1       4.281  -3.697   3.702  0.00  0.00    -0.075 A 
ATOM      2  C2  I4B d   1       4.230  -5.069   3.707  0.00  0.00     0.003 A 
ATOM      3  C3  I4B d   1       4.563  -5.790   4.879  0.00  0.00     0.002 A 
ATOM      4  C4  I4B d   1       4.988  -5.106   6.000  0.00  0.00    -0.004 A 
ATOM      5  C5  I4B d   1       5.017  -3.715   6.000  0.00  0.00     0.002 A 
ATOM      6  C6  I4B d   1       4.649  -3.005   4.848  0.00  0.00     0.003 A 
ENDROOT
BRANCH   1   7
ATOM      7  C1' I4B d   1       3.953  -2.969   2.437  0.00  0.00     0.060 C 
BRANCH   7   8
ATOM      8  C2' I4B d   1       2.472  -3.142   2.169  0.00  0.00    -0.013 C 
ATOM      9  C4' I4B d   1       1.736  -1.836   2.314  0.00  0.00     0.013 C 
ATOM     10  C3' I4B d   1       2.314  -3.701   0.786  0.00  0.00     0.013 C 
ENDBRANCH   7   8
ENDBRANCH   1   7
TORSDOF 2
ENDMDL
