MODEL 1
REMARK minimizedAffinity 4.76723862
REMARK minimizedRMSD -1
REMARK  2 active torsions:
REMARK  status: ('A' for Active; 'I' for Inactive)
REMARK    1  A    between atoms: C2'_3  and  C1'_4 
REMARK    2  A    between atoms: C1'_4  and  C1_5 
ROOT
ATOM      1  C1  I4B d   1       1.343  -1.072   0.892  0.00  0.00    -0.075 A 
ATOM      2  C2  I4B d   1       0.487  -1.307   1.939  0.00  0.00     0.003 A 
ATOM      3  C3  I4B d   1       0.304  -2.623   2.428  0.00  0.00     0.002 A 
ATOM      4  C4  I4B d   1       0.954  -3.673   1.813  0.00  0.00    -0.004 A 
ATOM      5  C5  I4B d   1       1.839  -3.430   0.767  0.00  0.00     0.002 A 
ATOM      6  C6  I4B d   1       2.045  -2.120   0.311  0.00  0.00     0.003 A 
ENDROOT
BRANCH   1   7
ATOM      7  C1' I4B d   1       1.487   0.326   0.380  0.00  0.00     0.060 C 
BRANCH   7   8
ATOM      8  C2' I4B d   1       2.714   0.937   1.027  0.00  0.00    -0.013 C 
ATOM      9  C4' I4B d   1       3.614   1.571   0.000  0.00  0.00     0.013 C 
ATOM     10  C3' I4B d   1       2.251   1.944   2.038  0.00  0.00     0.013 C 
ENDBRANCH   7   8
ENDBRANCH   1   7
TORSDOF 2
ENDMDL
