MODEL 1
REMARK minimizedAffinity -3.44562316
REMARK minimizedRMSD -1
REMARK  2 active torsions:
REMARK  status: ('A' for Active; 'I' for Inactive)
REMARK    1  A    between atoms: C2'_3  and  C1'_4 
REMARK    2  A    between atoms: C1'_4  and  C1_5 
ROOT
ATOM      1  C1  I4B d   1      -3.302   0.327  -4.644  0.00  0.00    -0.075 A 
ATOM      2  C2  I4B d   1      -4.498   0.281  -5.317  0.00  0.00     0.003 A 
ATOM      3  C3  I4B d   1      -5.466  -0.696  -4.984  0.00  0.00     0.002 A 
ATOM      4  C4  I4B d   1      -5.180  -1.633  -4.012  0.00  0.00    -0.004 A 
ATOM      5  C5  I4B d   1      -3.976  -1.571  -3.315  0.00  0.00     0.002 A 
ATOM      6  C6  I4B d   1      -3.036  -0.577  -3.624  0.00  0.00     0.003 A 
ENDROOT
BRANCH   1   7
ATOM      7  C1' I4B d   1      -2.289   1.352  -5.045  0.00  0.00     0.060 C 
BRANCH   7   8
ATOM      8  C2' I4B d   1      -1.791   2.033  -3.786  0.00  0.00    -0.013 C 
ATOM      9  C4' I4B d   1      -0.639   2.956  -4.084  0.00  0.00     0.013 C 
ATOM     10  C3' I4B d   1      -2.940   2.781  -3.178  0.00  0.00     0.013 C 
ENDBRANCH   7   8
ENDBRANCH   1   7
TORSDOF 2
ENDMDL
