MODEL 1
REMARK minimizedAffinity 7.6308403
REMARK minimizedRMSD -1
REMARK  2 active torsions:
REMARK  status: ('A' for Active; 'I' for Inactive)
REMARK    1  A    between atoms: C2'_3  and  C1'_4 
REMARK    2  A    between atoms: C1'_4  and  C1_5 
ROOT
ATOM      1  C1  I4B d   1       3.602  -4.165   1.083  0.00  0.00    -0.075 A 
ATOM      2  C2  I4B d   1       4.931  -4.306   1.399  0.00  0.00     0.003 A 
ATOM      3  C3  I4B d   1       5.741  -5.218   0.680  0.00  0.00     0.002 A 
ATOM      4  C4  I4B d   1       5.174  -6.000  -0.306  0.00  0.00    -0.004 A 
ATOM      5  C5  I4B d   1       3.832  -5.839  -0.640  0.00  0.00     0.002 A 
ATOM      6  C6  I4B d   1       3.044  -4.907   0.051  0.00  0.00     0.003 A 
ENDROOT
BRANCH   1   7
ATOM      7  C1' I4B d   1       2.768  -3.216   1.885  0.00  0.00     0.060 C 
BRANCH   7   8
ATOM      8  C2' I4B d   1       1.862  -2.468   0.928  0.00  0.00    -0.013 C 
ATOM      9  C4' I4B d   1       0.580  -2.054   1.602  0.00  0.00     0.013 C 
ATOM     10  C3' I4B d   1       2.613  -1.277   0.415  0.00  0.00     0.013 C 
ENDBRANCH   7   8
ENDBRANCH   1   7
TORSDOF 2
ENDMDL
