MODEL 1
REMARK minimizedAffinity 11.8166533
REMARK minimizedRMSD -1
REMARK  1 active torsions:
REMARK  status: ('A' for Active; 'I' for Inactive)
REMARK    1  A    between atoms: C1_2  and  C2_3 
ROOT
ATOM      1  C2  UNL d   1       3.866   0.617  -1.291  0.00  0.00    -0.073 A 
ATOM      2  C3  UNL d   1       4.376   0.847  -0.008  0.00  0.00    -0.002 A 
ATOM      3  C4  UNL d   1       5.412   1.763   0.185  0.00  0.00     0.004 A 
ATOM      4  C5  UNL d   1       5.942   2.461  -0.899  0.00  0.00    -0.004 A 
ATOM      5  C6  UNL d   1       5.438   2.254  -2.187  0.00  0.00    -0.075 A 
ATOM      6  C7  UNL d   1       5.999   2.997  -3.364  0.00  0.00     0.076 C 
ATOM      7  C8  UNL d   1       4.400   1.332  -2.374  0.00  0.00     0.001 A 
ENDROOT
BRANCH   1   8
ATOM      8  C1  UNL d   1       2.744  -0.365  -1.504  0.00  0.00     0.053 C 
ATOM      9  C   UNL d   1       1.509  -0.005  -0.692  0.00  0.00     0.018 C 
ENDBRANCH   1   8
TORSDOF 1
ENDMDL
