MODEL 1
REMARK minimizedAffinity 6.90445709
REMARK minimizedRMSD -1
REMARK  1 active torsions:
REMARK  status: ('A' for Active; 'I' for Inactive)
REMARK    1  A    between atoms: C1_2  and  C2_3 
ROOT
ATOM      1  C2  UNL d   1       3.752   0.246   0.434  0.00  0.00    -0.073 A 
ATOM      2  C3  UNL d   1       2.897  -0.383  -0.478  0.00  0.00    -0.002 A 
ATOM      3  C4  UNL d   1       3.042  -0.162  -1.848  0.00  0.00     0.004 A 
ATOM      4  C5  UNL d   1       4.045   0.685  -2.320  0.00  0.00    -0.004 A 
ATOM      5  C6  UNL d   1       4.916   1.313  -1.425  0.00  0.00    -0.075 A 
ATOM      6  C7  UNL d   1       5.999   2.228  -1.917  0.00  0.00     0.076 C 
ATOM      7  C8  UNL d   1       4.763   1.088  -0.051  0.00  0.00     0.001 A 
ENDROOT
BRANCH   1   8
ATOM      8  C1  UNL d   1       3.603   0.004   1.914  0.00  0.00     0.053 C 
ATOM      9  C   UNL d   1       4.501  -1.122   2.400  0.00  0.00     0.018 C 
ENDBRANCH   1   8
TORSDOF 1
ENDMDL
