MODEL 1
REMARK minimizedAffinity 8.87169647
REMARK minimizedRMSD -1
REMARK  1 active torsions:
REMARK  status: ('A' for Active; 'I' for Inactive)
REMARK    1  A    between atoms: C1_2  and  C2_3 
ROOT
ATOM      1  C2  UNL d   1      -5.414   5.205   3.088  0.00  0.00    -0.073 A 
ATOM      2  C3  UNL d   1      -5.284   3.814   3.185  0.00  0.00    -0.002 A 
ATOM      3  C4  UNL d   1      -4.736   3.082   2.131  0.00  0.00     0.004 A 
ATOM      4  C5  UNL d   1      -4.307   3.732   0.974  0.00  0.00    -0.004 A 
ATOM      5  C6  UNL d   1      -4.418   5.122   0.862  0.00  0.00    -0.075 A 
ATOM      6  C7  UNL d   1      -3.962   5.835  -0.377  0.00  0.00     0.076 C 
ATOM      7  C8  UNL d   1      -4.972   5.850   1.924  0.00  0.00     0.001 A 
ENDROOT
BRANCH   1   8
ATOM      8  C1  UNL d   1      -6.000   6.000   4.226  0.00  0.00     0.053 C 
ATOM      9  C   UNL d   1      -5.964   5.230   5.537  0.00  0.00     0.018 C 
ENDBRANCH   1   8
TORSDOF 1
ENDMDL
