MODEL 1
REMARK minimizedAffinity 9.27379131
REMARK minimizedRMSD -1
REMARK  1 active torsions:
REMARK  status: ('A' for Active; 'I' for Inactive)
REMARK    1  A    between atoms: C1_2  and  C2_3 
ROOT
ATOM      1  C2  UNL d   1       3.421  -0.032   0.650  0.00  0.00    -0.073 A 
ATOM      2  C3  UNL d   1       2.468  -0.405  -0.304  0.00  0.00    -0.002 A 
ATOM      3  C4  UNL d   1       2.634  -0.052  -1.643  0.00  0.00     0.004 A 
ATOM      4  C5  UNL d   1       3.758   0.671  -2.044  0.00  0.00    -0.004 A 
ATOM      5  C6  UNL d   1       4.728   1.043  -1.108  0.00  0.00    -0.075 A 
ATOM      6  C7  UNL d   1       5.941   1.823  -1.523  0.00  0.00     0.076 C 
ATOM      7  C8  UNL d   1       4.552   0.687   0.236  0.00  0.00     0.001 A 
ENDROOT
BRANCH   1   8
ATOM      8  C1  UNL d   1       3.249  -0.417   2.096  0.00  0.00     0.053 C 
ATOM      9  C   UNL d   1       4.418  -1.242   2.610  0.00  0.00     0.018 C 
ENDBRANCH   1   8
TORSDOF 1
ENDMDL
