MODEL 1
REMARK minimizedAffinity 1.64638472
REMARK minimizedRMSD -1
REMARK  1 active torsions:
REMARK  status: ('A' for Active; 'I' for Inactive)
REMARK    1  A    between atoms: C1_2  and  C2_3 
ROOT
ATOM      1  C2  UNL d   1       4.340   1.114   0.751  0.00  0.00    -0.073 A 
ATOM      2  C3  UNL d   1       3.334   0.355   0.144  0.00  0.00    -0.002 A 
ATOM      3  C4  UNL d   1       3.187   0.361  -1.244  0.00  0.00     0.004 A 
ATOM      4  C5  UNL d   1       4.048   1.119  -2.038  0.00  0.00    -0.004 A 
ATOM      5  C6  UNL d   1       5.067   1.875  -1.450  0.00  0.00    -0.075 A 
ATOM      6  C7  UNL d   1       6.000   2.698  -2.290  0.00  0.00     0.076 C 
ATOM      7  C8  UNL d   1       5.206   1.866  -0.056  0.00  0.00     0.001 A 
ENDROOT
BRANCH   1   8
ATOM      8  C1  UNL d   1       4.507   1.106   2.249  0.00  0.00     0.053 C 
ATOM      9  C   UNL d   1       4.113  -0.230   2.859  0.00  0.00     0.018 C 
ENDBRANCH   1   8
TORSDOF 1
ENDMDL
