MODEL 1
REMARK minimizedAffinity 2.39857864
REMARK minimizedRMSD -1
REMARK  1 active torsions:
REMARK  status: ('A' for Active; 'I' for Inactive)
REMARK    1  A    between atoms: C1_2  and  C2_3 
ROOT
ATOM      1  C2  UNL d   1      -1.493  -3.122  -3.354  0.00  0.00    -0.073 A 
ATOM      2  C3  UNL d   1      -2.010  -4.319  -3.861  0.00  0.00    -0.002 A 
ATOM      3  C4  UNL d   1      -3.030  -4.300  -4.812  0.00  0.00     0.004 A 
ATOM      4  C5  UNL d   1      -3.539  -3.085  -5.272  0.00  0.00    -0.004 A 
ATOM      5  C6  UNL d   1      -3.027  -1.877  -4.786  0.00  0.00    -0.075 A 
ATOM      6  C7  UNL d   1      -3.565  -0.562  -5.268  0.00  0.00     0.076 C 
ATOM      7  C8  UNL d   1      -2.004  -1.905  -3.828  0.00  0.00     0.001 A 
ENDROOT
BRANCH   1   8
ATOM      8  C1  UNL d   1      -0.387  -3.138  -2.331  0.00  0.00     0.053 C 
ATOM      9  C   UNL d   1      -0.358  -1.863  -1.502  0.00  0.00     0.018 C 
ENDBRANCH   1   8
TORSDOF 1
ENDMDL
