MODEL 1
REMARK minimizedAffinity 12.2550659
REMARK minimizedRMSD -1
REMARK  1 active torsions:
REMARK  status: ('A' for Active; 'I' for Inactive)
REMARK    1  A    between atoms: C1_2  and  C2_3 
ROOT
ATOM      1  C2  UNL d   1      -4.603   0.198  -0.424  0.00  0.00    -0.073 A 
ATOM      2  C3  UNL d   1      -4.501   1.518   0.030  0.00  0.00    -0.002 A 
ATOM      3  C4  UNL d   1      -3.269   2.173   0.021  0.00  0.00     0.004 A 
ATOM      4  C5  UNL d   1      -2.129   1.520  -0.448  0.00  0.00    -0.004 A 
ATOM      5  C6  UNL d   1      -2.213   0.205  -0.917  0.00  0.00    -0.075 A 
ATOM      6  C7  UNL d   1      -0.996  -0.513  -1.423  0.00  0.00     0.076 C 
ATOM      7  C8  UNL d   1      -3.453  -0.447  -0.902  0.00  0.00     0.001 A 
ENDROOT
BRANCH   1   8
ATOM      8  C1  UNL d   1      -5.932  -0.512  -0.422  0.00  0.00     0.053 C 
ATOM      9  C   UNL d   1      -5.993  -1.611  -1.471  0.00  0.00     0.018 C 
ENDBRANCH   1   8
TORSDOF 1
ENDMDL
