MODEL 1
REMARK minimizedAffinity 13.714138
REMARK minimizedRMSD -1
REMARK  1 active torsions:
REMARK  status: ('A' for Active; 'I' for Inactive)
REMARK    1  A    between atoms: C1_2  and  C2_3 
ROOT
ATOM      1  C2  UNL d   1       2.577   4.085  -4.528  0.00  0.00    -0.073 A 
ATOM      2  C3  UNL d   1       2.081   3.708  -3.275  0.00  0.00    -0.002 A 
ATOM      3  C4  UNL d   1       0.793   4.078  -2.886  0.00  0.00     0.004 A 
ATOM      4  C5  UNL d   1      -0.014   4.822  -3.747  0.00  0.00    -0.004 A 
ATOM      5  C6  UNL d   1       0.460   5.198  -5.008  0.00  0.00    -0.075 A 
ATOM      6  C7  UNL d   1      -0.395   6.000  -5.946  0.00  0.00     0.076 C 
ATOM      7  C8  UNL d   1       1.755   4.825  -5.391  0.00  0.00     0.001 A 
ENDROOT
BRANCH   1   8
ATOM      8  C1  UNL d   1       3.965   3.683  -4.955  0.00  0.00     0.053 C 
ATOM      9  C   UNL d   1       4.052   2.202  -5.289  0.00  0.00     0.018 C 
ENDBRANCH   1   8
TORSDOF 1
ENDMDL
