MODEL 1
REMARK minimizedAffinity 4.55153942
REMARK minimizedRMSD -1
REMARK  1 active torsions:
REMARK  status: ('A' for Active; 'I' for Inactive)
REMARK    1  A    between atoms: C1_2  and  C2_3 
ROOT
ATOM      1  C2  UNL d   1       1.950   2.193  -1.503  0.00  0.00    -0.073 A 
ATOM      2  C3  UNL d   1       1.971   2.957  -0.330  0.00  0.00    -0.002 A 
ATOM      3  C4  UNL d   1       2.340   2.375   0.883  0.00  0.00     0.004 A 
ATOM      4  C5  UNL d   1       2.697   1.028   0.936  0.00  0.00    -0.004 A 
ATOM      5  C6  UNL d   1       2.694   0.251  -0.227  0.00  0.00    -0.075 A 
ATOM      6  C7  UNL d   1       3.073  -1.200  -0.187  0.00  0.00     0.076 C 
ATOM      7  C8  UNL d   1       2.320   0.842  -1.442  0.00  0.00     0.001 A 
ENDROOT
BRANCH   1   8
ATOM      8  C1  UNL d   1       1.559   2.819  -2.817  0.00  0.00     0.053 C 
ATOM      9  C   UNL d   1       2.178   4.196  -2.999  0.00  0.00     0.018 C 
ENDBRANCH   1   8
TORSDOF 1
ENDMDL
