MODEL 1
REMARK minimizedAffinity 0.920225978
REMARK minimizedRMSD -1
REMARK  1 active torsions:
REMARK  status: ('A' for Active; 'I' for Inactive)
REMARK    1  A    between atoms: C1_2  and  C2_3 
ROOT
ATOM      1  C2  UNL d   1       1.364   4.127  -3.696  0.00  0.00    -0.073 A 
ATOM      2  C3  UNL d   1       2.145   4.205  -4.855  0.00  0.00    -0.002 A 
ATOM      3  C4  UNL d   1       1.651   4.835  -5.997  0.00  0.00     0.004 A 
ATOM      4  C5  UNL d   1       0.375   5.399  -5.992  0.00  0.00    -0.004 A 
ATOM      5  C6  UNL d   1      -0.416   5.342  -4.840  0.00  0.00    -0.075 A 
ATOM      6  C7  UNL d   1      -1.791   5.943  -4.818  0.00  0.00     0.076 C 
ATOM      7  C8  UNL d   1       0.087   4.706  -3.697  0.00  0.00     0.001 A 
ENDROOT
BRANCH   1   8
ATOM      8  C1  UNL d   1       1.896   3.454  -2.458  0.00  0.00     0.053 C 
ATOM      9  C   UNL d   1       1.843   1.938  -2.565  0.00  0.00     0.018 C 
ENDBRANCH   1   8
TORSDOF 1
ENDMDL
