MODEL 1
REMARK minimizedAffinity 9.78980446
REMARK minimizedRMSD -1
REMARK  1 active torsions:
REMARK  status: ('A' for Active; 'I' for Inactive)
REMARK    1  A    between atoms: C1_2  and  C2_3 
ROOT
ATOM      1  C2  UNL d   1       2.672   0.971   0.093  0.00  0.00    -0.073 A 
ATOM      2  C3  UNL d   1       2.404   1.822   1.171  0.00  0.00    -0.002 A 
ATOM      3  C4  UNL d   1       1.556   2.918   1.010  0.00  0.00     0.004 A 
ATOM      4  C5  UNL d   1       0.963   3.171  -0.226  0.00  0.00    -0.004 A 
ATOM      5  C6  UNL d   1       1.209   2.326  -1.313  0.00  0.00    -0.075 A 
ATOM      6  C7  UNL d   1       0.580   2.586  -2.650  0.00  0.00     0.076 C 
ATOM      7  C8  UNL d   1       2.064   1.229  -1.144  0.00  0.00     0.001 A 
ENDROOT
BRANCH   1   8
ATOM      8  C1  UNL d   1       3.582  -0.218   0.263  0.00  0.00     0.053 C 
ATOM      9  C   UNL d   1       3.143  -1.111   1.412  0.00  0.00     0.018 C 
ENDBRANCH   1   8
TORSDOF 1
ENDMDL
