MODEL 1
REMARK minimizedAffinity 8.65158367
REMARK minimizedRMSD -1
REMARK  1 active torsions:
REMARK  status: ('A' for Active; 'I' for Inactive)
REMARK    1  A    between atoms: C1_2  and  C2_3 
ROOT
ATOM      1  C2  UNL d   1      -5.979   2.030  -3.681  0.00  0.00    -0.073 A 
ATOM      2  C3  UNL d   1      -5.964   2.023  -5.081  0.00  0.00    -0.002 A 
ATOM      3  C4  UNL d   1      -5.952   0.816  -5.780  0.00  0.00     0.004 A 
ATOM      4  C5  UNL d   1      -5.962  -0.396  -5.088  0.00  0.00    -0.004 A 
ATOM      5  C6  UNL d   1      -5.989  -0.410  -3.690  0.00  0.00    -0.075 A 
ATOM      6  C7  UNL d   1      -5.998  -1.704  -2.932  0.00  0.00     0.076 C 
ATOM      7  C8  UNL d   1      -5.998   0.807  -2.995  0.00  0.00     0.001 A 
ENDROOT
BRANCH   1   8
ATOM      8  C1  UNL d   1      -5.999   3.332  -2.922  0.00  0.00     0.053 C 
ATOM      9  C   UNL d   1      -5.797   3.124  -1.430  0.00  0.00     0.018 C 
ENDBRANCH   1   8
TORSDOF 1
ENDMDL
