MODEL 1
REMARK minimizedAffinity 5.71578312
REMARK minimizedRMSD -1
REMARK  1 active torsions:
REMARK  status: ('A' for Active; 'I' for Inactive)
REMARK    1  A    between atoms: C1_2  and  C2_3 
ROOT
ATOM      1  C2  UNL d   1      -3.595  -0.194   2.560  0.00  0.00    -0.073 A 
ATOM      2  C3  UNL d   1      -3.759   0.334   3.846  0.00  0.00    -0.002 A 
ATOM      3  C4  UNL d   1      -2.743   0.210   4.794  0.00  0.00     0.004 A 
ATOM      4  C5  UNL d   1      -1.551  -0.435   4.465  0.00  0.00    -0.004 A 
ATOM      5  C6  UNL d   1      -1.363  -0.959   3.181  0.00  0.00    -0.075 A 
ATOM      6  C7  UNL d   1      -0.088  -1.658   2.812  0.00  0.00     0.076 C 
ATOM      7  C8  UNL d   1      -2.390  -0.833   2.236  0.00  0.00     0.001 A 
ENDROOT
BRANCH   1   8
ATOM      8  C1  UNL d   1      -4.688  -0.057   1.532  0.00  0.00     0.053 C 
ATOM      9  C   UNL d   1      -5.500   1.213   1.728  0.00  0.00     0.018 C 
ENDBRANCH   1   8
TORSDOF 1
ENDMDL
