MODEL 1
REMARK minimizedAffinity 9.29449177
REMARK minimizedRMSD -1
REMARK  1 active torsions:
REMARK  status: ('A' for Active; 'I' for Inactive)
REMARK    1  A    between atoms: C1_2  and  C2_3 
ROOT
ATOM      1  C2  UNL d   1      -5.966   0.316  -3.330  0.00  0.00    -0.073 A 
ATOM      2  C3  UNL d   1      -5.993   1.147  -4.455  0.00  0.00    -0.002 A 
ATOM      3  C4  UNL d   1      -5.994   0.597  -5.738  0.00  0.00     0.004 A 
ATOM      4  C5  UNL d   1      -5.975  -0.787  -5.908  0.00  0.00    -0.004 A 
ATOM      5  C6  UNL d   1      -5.960  -1.635  -4.796  0.00  0.00    -0.075 A 
ATOM      6  C7  UNL d   1      -5.938  -3.126  -4.962  0.00  0.00     0.076 C 
ATOM      7  C8  UNL d   1      -5.957  -1.075  -3.511  0.00  0.00     0.001 A 
ENDROOT
BRANCH   1   8
ATOM      8  C1  UNL d   1      -5.971   0.905  -1.943  0.00  0.00     0.053 C 
ATOM      9  C   UNL d   1      -5.735   2.406  -1.960  0.00  0.00     0.018 C 
ENDBRANCH   1   8
TORSDOF 1
ENDMDL
