MODEL 1
REMARK minimizedAffinity 3.9379766
REMARK minimizedRMSD -1
REMARK  1 active torsions:
REMARK  status: ('A' for Active; 'I' for Inactive)
REMARK    1  A    between atoms: C1_2  and  C2_3 
ROOT
ATOM      1  C2  UNL d   1       0.934   3.769  -3.975  0.00  0.00    -0.073 A 
ATOM      2  C3  UNL d   1       2.152   4.320  -4.389  0.00  0.00    -0.002 A 
ATOM      3  C4  UNL d   1       3.355   3.844  -3.866  0.00  0.00     0.004 A 
ATOM      4  C5  UNL d   1       3.353   2.810  -2.930  0.00  0.00    -0.004 A 
ATOM      5  C6  UNL d   1       2.147   2.239  -2.512  0.00  0.00    -0.075 A 
ATOM      6  C7  UNL d   1       2.128   1.127  -1.504  0.00  0.00     0.076 C 
ATOM      7  C8  UNL d   1       0.943   2.724  -3.040  0.00  0.00     0.001 A 
ENDROOT
BRANCH   1   8
ATOM      8  C1  UNL d   1      -0.368   4.275  -4.542  0.00  0.00     0.053 C 
ATOM      9  C   UNL d   1      -0.233   4.688  -5.999  0.00  0.00     0.018 C 
ENDBRANCH   1   8
TORSDOF 1
ENDMDL
