MODEL 1
REMARK minimizedAffinity 2.81050491
REMARK minimizedRMSD -1
REMARK  1 active torsions:
REMARK  status: ('A' for Active; 'I' for Inactive)
REMARK    1  A    between atoms: C1_2  and  C2_3 
ROOT
ATOM      1  C2  UNL d   1      -2.718  -1.248   2.390  0.00  0.00    -0.073 A 
ATOM      2  C3  UNL d   1      -2.844  -1.907   1.162  0.00  0.00    -0.002 A 
ATOM      3  C4  UNL d   1      -3.960  -2.701   0.899  0.00  0.00     0.004 A 
ATOM      4  C5  UNL d   1      -4.965  -2.839   1.856  0.00  0.00    -0.004 A 
ATOM      5  C6  UNL d   1      -4.864  -2.178   3.085  0.00  0.00    -0.075 A 
ATOM      6  C7  UNL d   1      -5.935  -2.318   4.126  0.00  0.00     0.076 C 
ATOM      7  C8  UNL d   1      -3.738  -1.385   3.343  0.00  0.00     0.001 A 
ENDROOT
BRANCH   1   8
ATOM      8  C1  UNL d   1      -1.517  -0.384   2.676  0.00  0.00     0.053 C 
ATOM      9  C   UNL d   1      -1.427  -0.002   4.145  0.00  0.00     0.018 C 
ENDBRANCH   1   8
TORSDOF 1
ENDMDL
