MODEL 1
REMARK minimizedAffinity -4.35699701
REMARK minimizedRMSD -1
REMARK  2 active torsions:
REMARK  status: ('A' for Active; 'I' for Inactive)
REMARK    1  A    between atoms: C2'_3  and  C1'_4 
REMARK    2  A    between atoms: C1'_4  and  C1_5 
ROOT
ATOM      1  C1  I4B d   1       0.014  -0.121  -0.453  0.00  0.00    -0.075 A 
ATOM      2  C2  I4B d   1      -0.814   0.137   0.611  0.00  0.00     0.003 A 
ATOM      3  C3  I4B d   1      -0.420  -0.219   1.923  0.00  0.00     0.002 A 
ATOM      4  C4  I4B d   1       0.780  -0.872   2.119  0.00  0.00    -0.004 A 
ATOM      5  C5  I4B d   1       1.628  -1.111   1.042  0.00  0.00     0.002 A 
ATOM      6  C6  I4B d   1       1.249  -0.723  -0.251  0.00  0.00     0.003 A 
ENDROOT
BRANCH   1   7
ATOM      7  C1' I4B d   1      -0.448   0.239  -1.830  0.00  0.00     0.060 C 
BRANCH   7   8
ATOM      8  C2' I4B d   1      -0.814   1.709  -1.830  0.00  0.00    -0.013 C 
ATOM      9  C4' I4B d   1       0.358   2.563  -2.237  0.00  0.00     0.013 C 
ATOM     10  C3' I4B d   1      -1.972   1.897  -2.765  0.00  0.00     0.013 C 
ENDBRANCH   7   8
ENDBRANCH   1   7
TORSDOF 2
ENDMDL
