MODEL 1
REMARK minimizedAffinity -2.84870648
REMARK minimizedRMSD -1
REMARK  2 active torsions:
REMARK  status: ('A' for Active; 'I' for Inactive)
REMARK    1  A    between atoms: C2'_3  and  C1'_4 
REMARK    2  A    between atoms: C1'_4  and  C1_5 
ROOT
ATOM      1  C1  I4B d   1      -0.477   0.384  -0.137  0.00  0.00    -0.075 A 
ATOM      2  C2  I4B d   1      -1.403   0.345   0.875  0.00  0.00     0.003 A 
ATOM      3  C3  I4B d   1      -1.020  -0.065   2.176  0.00  0.00     0.002 A 
ATOM      4  C4  I4B d   1       0.278  -0.472   2.405  0.00  0.00    -0.004 A 
ATOM      5  C5  I4B d   1       1.221  -0.410   1.383  0.00  0.00     0.002 A 
ATOM      6  C6  I4B d   1       0.844   0.032   0.106  0.00  0.00     0.003 A 
ENDROOT
BRANCH   1   7
ATOM      7  C1' I4B d   1      -0.923   0.791  -1.506  0.00  0.00     0.060 C 
BRANCH   7   8
ATOM      8  C2' I4B d   1      -0.226   2.090  -1.857  0.00  0.00    -0.013 C 
ATOM      9  C4' I4B d   1       0.653   1.927  -3.069  0.00  0.00     0.013 C 
ATOM     10  C3' I4B d   1      -1.280   3.132  -2.089  0.00  0.00     0.013 C 
ENDBRANCH   7   8
ENDBRANCH   1   7
TORSDOF 2
ENDMDL
