MODEL 1
REMARK minimizedAffinity -3.39640784
REMARK minimizedRMSD -1
REMARK  2 active torsions:
REMARK  status: ('A' for Active; 'I' for Inactive)
REMARK    1  A    between atoms: C2'_3  and  C1'_4 
REMARK    2  A    between atoms: C1'_4  and  C1_5 
ROOT
ATOM      1  C1  I4B d   1       0.008   0.498  -0.376  0.00  0.00    -0.075 A 
ATOM      2  C2  I4B d   1      -0.376   1.370   0.611  0.00  0.00     0.003 A 
ATOM      3  C3  I4B d   1      -0.161   1.046   1.973  0.00  0.00     0.002 A 
ATOM      4  C4  I4B d   1       0.392  -0.175   2.301  0.00  0.00    -0.004 A 
ATOM      5  C5  I4B d   1       0.803  -1.048   1.298  0.00  0.00     0.002 A 
ATOM      6  C6  I4B d   1       0.621  -0.705  -0.050  0.00  0.00     0.003 A 
ENDROOT
BRANCH   1   7
ATOM      7  C1' I4B d   1      -0.264   0.858  -1.802  0.00  0.00     0.060 C 
BRANCH   7   8
ATOM      8  C2' I4B d   1      -0.578   2.339  -1.858  0.00  0.00    -0.013 C 
ATOM      9  C4' I4B d   1       0.454   3.084  -2.663  0.00  0.00     0.013 C 
ATOM     10  C3' I4B d   1      -1.946   2.500  -2.449  0.00  0.00     0.013 C 
ENDBRANCH   7   8
ENDBRANCH   1   7
TORSDOF 2
ENDMDL
