MODEL 1
REMARK minimizedAffinity -7.0228138
REMARK minimizedRMSD -1
REMARK  0 active torsions:
REMARK  status: ('A' for Active; 'I' for Inactive)
ROOT
ATOM      1  C1  DEN d   1      -0.685   0.269   1.020  0.00  0.00     0.130 A 
ATOM      2  C2  DEN d   1      -0.481  -0.810   0.057  0.00  0.00    -0.031 A 
ATOM      3  C3  DEN d   1       0.816  -0.587  -0.612  0.00  0.00     0.027 A 
ATOM      4  C4  DEN d   1       2.523   1.312  -0.248  0.00  0.00     0.027 A 
ATOM      5  C5  DEN d   1       2.785   2.467   0.456  0.00  0.00    -0.003 A 
ATOM      6  C6  DEN d   1       1.901   2.984   1.365  0.00  0.00     0.001 A 
ATOM      7  C7  DEN d   1       0.731   2.320   1.627  0.00  0.00     0.017 A 
ATOM      8  C8  DEN d   1       0.457   1.160   0.916  0.00  0.00    -0.094 A 
ATOM      9  C9  DEN d   1       1.369   0.646   0.010  0.00  0.00    -0.072 A 
ENDROOT
TORSDOF 0
ENDMDL
