MODEL 1
REMARK minimizedAffinity -5.57270479
REMARK minimizedRMSD -1
REMARK  0 active torsions:
REMARK  status: ('A' for Active; 'I' for Inactive)
ROOT
ATOM      1  C1  DEN d   1       0.074  -0.522  -0.643  0.00  0.00     0.130 A 
ATOM      2  C2  DEN d   1      -1.237  -0.123  -0.138  0.00  0.00    -0.031 A 
ATOM      3  C3  DEN d   1      -1.065   1.114   0.650  0.00  0.00     0.027 A 
ATOM      4  C4  DEN d   1       1.091   2.446   1.131  0.00  0.00     0.027 A 
ATOM      5  C5  DEN d   1       2.452   2.491   0.924  0.00  0.00    -0.003 A 
ATOM      6  C6  DEN d   1       3.115   1.525   0.215  0.00  0.00     0.001 A 
ATOM      7  C7  DEN d   1       2.411   0.495  -0.352  0.00  0.00     0.017 A 
ATOM      8  C8  DEN d   1       1.040   0.439  -0.142  0.00  0.00    -0.094 A 
ATOM      9  C9  DEN d   1       0.386   1.432   0.568  0.00  0.00    -0.072 A 
ENDROOT
TORSDOF 0
ENDMDL
