MODEL 1
REMARK minimizedAffinity -7.34140635
REMARK minimizedRMSD -1
REMARK  0 active torsions:
REMARK  status: ('A' for Active; 'I' for Inactive)
ROOT
ATOM      1  C1  DEN d   1       2.209   2.794   1.566  0.00  0.00     0.130 A 
ATOM      2  C2  DEN d   1       3.156   2.576   0.476  0.00  0.00    -0.031 A 
ATOM      3  C3  DEN d   1       2.691   1.413  -0.307  0.00  0.00     0.027 A 
ATOM      4  C4  DEN d   1       0.605  -0.059   0.057  0.00  0.00     0.027 A 
ATOM      5  C5  DEN d   1      -0.495  -0.269   0.860  0.00  0.00    -0.003 A 
ATOM      6  C6  DEN d   1      -0.750   0.499   1.965  0.00  0.00     0.001 A 
ATOM      7  C7  DEN d   1       0.082   1.544   2.272  0.00  0.00     0.017 A 
ATOM      8  C8  DEN d   1       1.197   1.757   1.471  0.00  0.00    -0.094 A 
ATOM      9  C9  DEN d   1       1.430   0.977   0.352  0.00  0.00    -0.072 A 
ENDROOT
TORSDOF 0
ENDMDL
