MODEL 1
REMARK minimizedAffinity -4.35437584
REMARK minimizedRMSD -1
REMARK  0 active torsions:
REMARK  status: ('A' for Active; 'I' for Inactive)
ROOT
ATOM      1  C1  DEN d   1       0.723  -0.537  -0.582  0.00  0.00     0.130 A 
ATOM      2  C2  DEN d   1      -0.698  -0.256  -0.395  0.00  0.00    -0.031 A 
ATOM      3  C3  DEN d   1      -0.818   0.979   0.406  0.00  0.00     0.027 A 
ATOM      4  C4  DEN d   1       1.050   2.478   1.365  0.00  0.00     0.027 A 
ATOM      5  C5  DEN d   1       2.413   2.639   1.477  0.00  0.00    -0.003 A 
ATOM      6  C6  DEN d   1       3.301   1.742   0.945  0.00  0.00     0.001 A 
ATOM      7  C7  DEN d   1       2.836   0.666   0.236  0.00  0.00     0.017 A 
ATOM      8  C8  DEN d   1       1.463   0.493   0.124  0.00  0.00    -0.094 A 
ATOM      9  C9  DEN d   1       0.581   1.417   0.659  0.00  0.00    -0.072 A 
ENDROOT
TORSDOF 0
ENDMDL
