MODEL 1
REMARK minimizedAffinity -2.19299483
REMARK minimizedRMSD -1
REMARK  0 active torsions:
REMARK  status: ('A' for Active; 'I' for Inactive)
ROOT
ATOM      1  C1  DEN d   1      -2.127  -1.495  -1.385  0.00  0.00     0.130 A 
ATOM      2  C2  DEN d   1      -1.773  -1.579  -2.800  0.00  0.00    -0.031 A 
ATOM      3  C3  DEN d   1      -0.606  -0.704  -3.031  0.00  0.00     0.027 A 
ATOM      4  C4  DEN d   1       0.682   0.762  -1.344  0.00  0.00     0.027 A 
ATOM      5  C5  DEN d   1       0.745   1.169  -0.029  0.00  0.00    -0.003 A 
ATOM      6  C6  DEN d   1      -0.158   0.747   0.910  0.00  0.00     0.001 A 
ATOM      7  C7  DEN d   1      -1.137  -0.145   0.558  0.00  0.00     0.017 A 
ATOM      8  C8  DEN d   1      -1.211  -0.554  -0.767  0.00  0.00    -0.094 A 
ATOM      9  C9  DEN d   1      -0.282  -0.125  -1.699  0.00  0.00    -0.072 A 
ENDROOT
TORSDOF 0
ENDMDL
