MODEL 1
REMARK minimizedAffinity -6.5774579
REMARK minimizedRMSD -1
REMARK  0 active torsions:
REMARK  status: ('A' for Active; 'I' for Inactive)
ROOT
ATOM      1  C1  DEN d   1       0.650  -0.742  -0.344  0.00  0.00     0.130 A 
ATOM      2  C2  DEN d   1      -0.675  -0.838   0.264  0.00  0.00    -0.031 A 
ATOM      3  C3  DEN d   1      -0.809   0.261   1.241  0.00  0.00     0.027 A 
ATOM      4  C4  DEN d   1       0.893   2.096   1.863  0.00  0.00     0.027 A 
ATOM      5  C5  DEN d   1       2.159   2.582   1.621  0.00  0.00    -0.003 A 
ATOM      6  C6  DEN d   1       3.016   1.978   0.740  0.00  0.00     0.001 A 
ATOM      7  C7  DEN d   1       2.602   0.880   0.034  0.00  0.00     0.017 A 
ATOM      8  C8  DEN d   1       1.329   0.380   0.278  0.00  0.00    -0.094 A 
ATOM      9  C9  DEN d   1       0.473   1.012   1.164  0.00  0.00    -0.072 A 
ENDROOT
TORSDOF 0
ENDMDL
