MODEL 1
REMARK minimizedAffinity -0.660898805
REMARK minimizedRMSD -1
REMARK  0 active torsions:
REMARK  status: ('A' for Active; 'I' for Inactive)
ROOT
ATOM      1  C1  DEN d   1       0.846   1.867   2.506  0.00  0.00     0.130 A 
ATOM      2  C2  DEN d   1       1.811   2.841   2.003  0.00  0.00    -0.031 A 
ATOM      3  C3  DEN d   1       1.997   2.596   0.559  0.00  0.00     0.027 A 
ATOM      4  C4  DEN d   1       0.888   0.814  -0.940  0.00  0.00     0.027 A 
ATOM      5  C5  DEN d   1       0.008  -0.246  -0.961  0.00  0.00    -0.003 A 
ATOM      6  C6  DEN d   1      -0.622  -0.694   0.170  0.00  0.00     0.001 A 
ATOM      7  C7  DEN d   1      -0.417  -0.051   1.361  0.00  0.00     0.017 A 
ATOM      8  C8  DEN d   1       0.474   1.014   1.392  0.00  0.00    -0.094 A 
ATOM      9  C9  DEN d   1       1.092   1.460   0.236  0.00  0.00    -0.072 A 
ENDROOT
TORSDOF 0
ENDMDL
