MODEL 1
REMARK minimizedAffinity -6.94541121
REMARK minimizedRMSD -1
REMARK  0 active torsions:
REMARK  status: ('A' for Active; 'I' for Inactive)
ROOT
ATOM      1  C1  DEN d   1       0.465  -0.392  -0.490  0.00  0.00     0.130 A 
ATOM      2  C2  DEN d   1      -0.875  -0.555   0.067  0.00  0.00    -0.031 A 
ATOM      3  C3  DEN d   1      -1.069   0.484   1.099  0.00  0.00     0.027 A 
ATOM      4  C4  DEN d   1       0.564   2.322   1.879  0.00  0.00     0.027 A 
ATOM      5  C5  DEN d   1       1.824   2.851   1.706  0.00  0.00    -0.003 A 
ATOM      6  C6  DEN d   1       2.724   2.319   0.821  0.00  0.00     0.001 A 
ATOM      7  C7  DEN d   1       2.361   1.253   0.042  0.00  0.00     0.017 A 
ATOM      8  C8  DEN d   1       1.095   0.709   0.215  0.00  0.00    -0.094 A 
ATOM      9  C9  DEN d   1       0.195   1.269   1.106  0.00  0.00    -0.072 A 
ENDROOT
TORSDOF 0
ENDMDL
