MODEL 1
REMARK minimizedAffinity -5.1561408
REMARK minimizedRMSD -1
REMARK  0 active torsions:
REMARK  status: ('A' for Active; 'I' for Inactive)
ROOT
ATOM      1  C1  DEN d   1       3.235   1.443   0.256  0.00  0.00     0.130 A 
ATOM      2  C2  DEN d   1       3.249   0.382  -0.747  0.00  0.00    -0.031 A 
ATOM      3  C3  DEN d   1       1.876  -0.149  -0.870  0.00  0.00     0.027 A 
ATOM      4  C4  DEN d   1      -0.259   0.569   0.386  0.00  0.00     0.027 A 
ATOM      5  C5  DEN d   1      -0.766   1.421   1.343  0.00  0.00    -0.003 A 
ATOM      6  C6  DEN d   1       0.025   2.309   2.023  0.00  0.00     0.001 A 
ATOM      7  C7  DEN d   1       1.359   2.397   1.723  0.00  0.00     0.017 A 
ATOM      8  C8  DEN d   1       1.879   1.537   0.765  0.00  0.00    -0.094 A 
ATOM      9  C9  DEN d   1       1.060   0.654   0.081  0.00  0.00    -0.072 A 
ENDROOT
TORSDOF 0
ENDMDL
