MODEL 1
REMARK minimizedAffinity -0.641847193
REMARK minimizedRMSD -1
REMARK  0 active torsions:
REMARK  status: ('A' for Active; 'I' for Inactive)
ROOT
ATOM      1  C1  DEN d   1       2.429   1.048  -0.861  0.00  0.00     0.130 A 
ATOM      2  C2  DEN d   1       2.347   2.293  -0.102  0.00  0.00    -0.031 A 
ATOM      3  C3  DEN d   1       1.102   2.261   0.693  0.00  0.00     0.027 A 
ATOM      4  C4  DEN d   1      -0.693   0.414   0.823  0.00  0.00     0.027 A 
ATOM      5  C5  DEN d   1      -1.065  -0.825   0.350  0.00  0.00    -0.003 A 
ATOM      6  C6  DEN d   1      -0.323  -1.505  -0.578  0.00  0.00     0.001 A 
ATOM      7  C7  DEN d   1       0.855  -0.971  -1.029  0.00  0.00     0.017 A 
ATOM      8  C8  DEN d   1       1.234   0.281  -0.562  0.00  0.00    -0.094 A 
ATOM      9  C9  DEN d   1       0.476   0.947   0.385  0.00  0.00    -0.072 A 
ENDROOT
TORSDOF 0
ENDMDL
