MODEL 1
REMARK minimizedAffinity -5.79200792
REMARK minimizedRMSD -1
REMARK  0 active torsions:
REMARK  status: ('A' for Active; 'I' for Inactive)
ROOT
ATOM      1  C1  DEN d   1       0.224  -0.792  -0.598  0.00  0.00     0.130 A 
ATOM      2  C2  DEN d   1      -1.125  -0.829  -0.039  0.00  0.00    -0.031 A 
ATOM      3  C3  DEN d   1      -1.252   0.287   0.920  0.00  0.00     0.027 A 
ATOM      4  C4  DEN d   1       0.497   2.061   1.587  0.00  0.00     0.027 A 
ATOM      5  C5  DEN d   1       1.790   2.493   1.388  0.00  0.00    -0.003 A 
ATOM      6  C6  DEN d   1       2.655   1.846   0.545  0.00  0.00     0.001 A 
ATOM      7  C7  DEN d   1       2.223   0.756  -0.164  0.00  0.00     0.017 A 
ATOM      8  C8  DEN d   1       0.923   0.310   0.037  0.00  0.00    -0.094 A 
ATOM      9  C9  DEN d   1       0.061   0.985   0.884  0.00  0.00    -0.072 A 
ENDROOT
TORSDOF 0
ENDMDL
