MODEL 1
REMARK minimizedAffinity -5.46466112
REMARK minimizedRMSD -1
REMARK  0 active torsions:
REMARK  status: ('A' for Active; 'I' for Inactive)
ROOT
ATOM      1  C1  DEN d   1       0.415  -0.739  -0.506  0.00  0.00     0.130 A 
ATOM      2  C2  DEN d   1      -0.899  -1.018   0.068  0.00  0.00    -0.031 A 
ATOM      3  C3  DEN d   1      -1.206   0.046   1.044  0.00  0.00     0.027 A 
ATOM      4  C4  DEN d   1       0.215   2.090   1.718  0.00  0.00     0.027 A 
ATOM      5  C5  DEN d   1       1.410   2.744   1.511  0.00  0.00    -0.003 A 
ATOM      6  C6  DEN d   1       2.363   2.269   0.650  0.00  0.00     0.001 A 
ATOM      7  C7  DEN d   1       2.119   1.130  -0.071  0.00  0.00     0.017 A 
ATOM      8  C8  DEN d   1       0.920   0.461   0.138  0.00  0.00    -0.094 A 
ATOM      9  C9  DEN d   1      -0.036   0.964   1.004  0.00  0.00    -0.072 A 
ENDROOT
TORSDOF 0
ENDMDL
