MODEL 1
REMARK minimizedAffinity -6.24419975
REMARK minimizedRMSD -1
REMARK  0 active torsions:
REMARK  status: ('A' for Active; 'I' for Inactive)
ROOT
ATOM      1  C1  DEN d   1       2.659   0.443  -0.096  0.00  0.00     0.130 A 
ATOM      2  C2  DEN d   1       3.682   1.476   0.037  0.00  0.00    -0.031 A 
ATOM      3  C3  DEN d   1       3.059   2.657   0.668  0.00  0.00     0.027 A 
ATOM      4  C4  DEN d   1       0.623   2.982   1.452  0.00  0.00     0.027 A 
ATOM      5  C5  DEN d   1      -0.617   2.389   1.537  0.00  0.00    -0.003 A 
ATOM      6  C6  DEN d   1      -0.858   1.129   1.058  0.00  0.00     0.001 A 
ATOM      7  C7  DEN d   1       0.167   0.403   0.511  0.00  0.00     0.017 A 
ATOM      8  C8  DEN d   1       1.418   0.997   0.415  0.00  0.00    -0.094 A 
ATOM      9  C9  DEN d   1       1.645   2.267   0.916  0.00  0.00    -0.072 A 
ENDROOT
TORSDOF 0
ENDMDL
