MODEL 1
REMARK minimizedAffinity -2.67056537
REMARK minimizedRMSD -1
REMARK  0 active torsions:
REMARK  status: ('A' for Active; 'I' for Inactive)
ROOT
ATOM      1  C1  DEN d   1       1.316   2.763   1.808  0.00  0.00     0.130 A 
ATOM      2  C2  DEN d   1       2.570   2.560   1.088  0.00  0.00    -0.031 A 
ATOM      3  C3  DEN d   1       2.407   1.385   0.209  0.00  0.00     0.027 A 
ATOM      4  C4  DEN d   1       0.344  -0.130  -0.109  0.00  0.00     0.027 A 
ATOM      5  C5  DEN d   1      -0.953  -0.360   0.295  0.00  0.00    -0.003 A 
ATOM      6  C6  DEN d   1      -1.567   0.407   1.248  0.00  0.00     0.001 A 
ATOM      7  C7  DEN d   1      -0.901   1.471   1.798  0.00  0.00     0.017 A 
ATOM      8  C8  DEN d   1       0.409   1.704   1.401  0.00  0.00    -0.094 A 
ATOM      9  C9  DEN d   1       1.009   0.925   0.427  0.00  0.00    -0.072 A 
ENDROOT
TORSDOF 0
ENDMDL
