MODEL 1
REMARK minimizedAffinity 2.53160191
REMARK minimizedRMSD -1
REMARK  0 active torsions:
REMARK  status: ('A' for Active; 'I' for Inactive)
ROOT
ATOM      1  O1  BZF d   1      -0.620  -1.610  -0.632  0.00  0.00    -0.204 OA
ATOM      2  C2  BZF d   1      -1.848  -0.995  -0.782  0.00  0.00     0.174 A 
ATOM      3  C3  BZF d   1      -1.833   0.241  -0.242  0.00  0.00    -0.012 A 
ATOM      4  C3A BZF d   1      -0.486   0.444   0.195  0.00  0.00    -0.107 A 
ATOM      5  C4  BZF d   1       0.158   1.487   0.798  0.00  0.00     0.055 A 
ATOM      6  C5  BZF d   1       1.459   1.339   1.160  0.00  0.00    -0.016 A 
ATOM      7  C6  BZF d   1       2.145   0.163   0.940  0.00  0.00     0.022 A 
ATOM      8  C7  BZF d   1       1.550  -0.898   0.341  0.00  0.00     0.029 A 
ATOM      9  C7A BZF d   1       0.244  -0.740  -0.056  0.00  0.00     0.058 A 
ENDROOT
TORSDOF 0
ENDMDL
