MODEL 1
REMARK minimizedAffinity -4.42485237
REMARK minimizedRMSD -1
REMARK  0 active torsions:
REMARK  status: ('A' for Active; 'I' for Inactive)
ROOT
ATOM      1  O1  BZF d   1      -1.543   1.319   2.405  0.00  0.00    -0.204 OA
ATOM      2  C2  BZF d   1      -0.451   1.762   3.127  0.00  0.00     0.174 A 
ATOM      3  C3  BZF d   1       0.700   1.395   2.528  0.00  0.00    -0.012 A 
ATOM      4  C3A BZF d   1       0.303   0.758   1.309  0.00  0.00    -0.107 A 
ATOM      5  C4  BZF d   1       0.995   0.194   0.276  0.00  0.00     0.055 A 
ATOM      6  C5  BZF d   1       0.307  -0.407  -0.729  0.00  0.00    -0.016 A 
ATOM      7  C6  BZF d   1      -1.071  -0.468  -0.731  0.00  0.00     0.022 A 
ATOM      8  C7  BZF d   1      -1.801   0.082   0.269  0.00  0.00     0.029 A 
ATOM      9  C7A BZF d   1      -1.110   0.719   1.270  0.00  0.00     0.058 A 
ENDROOT
TORSDOF 0
ENDMDL
