MODEL 1
REMARK minimizedAffinity -4.31286955
REMARK minimizedRMSD -1
REMARK  0 active torsions:
REMARK  status: ('A' for Active; 'I' for Inactive)
ROOT
ATOM      1  O1  BZF d   1      -1.747   1.102   3.032  0.00  0.00    -0.204 OA
ATOM      2  C2  BZF d   1      -0.878   1.813   3.838  0.00  0.00     0.174 A 
ATOM      3  C3  BZF d   1       0.375   1.774   3.341  0.00  0.00    -0.012 A 
ATOM      4  C3A BZF d   1       0.266   1.068   2.101  0.00  0.00    -0.107 A 
ATOM      5  C4  BZF d   1       1.168   0.721   1.137  0.00  0.00     0.055 A 
ATOM      6  C5  BZF d   1       0.753  -0.033   0.084  0.00  0.00    -0.016 A 
ATOM      7  C6  BZF d   1      -0.553  -0.460  -0.032  0.00  0.00     0.022 A 
ATOM      8  C7  BZF d   1      -1.485  -0.137   0.897  0.00  0.00     0.029 A 
ATOM      9  C7A BZF d   1      -1.076   0.652   1.945  0.00  0.00     0.058 A 
ENDROOT
TORSDOF 0
ENDMDL
