MODEL 1
REMARK minimizedAffinity -2.53580427
REMARK minimizedRMSD -1
REMARK  0 active torsions:
REMARK  status: ('A' for Active; 'I' for Inactive)
ROOT
ATOM      1  O1  BZF d   1       1.706  -0.491  -1.741  0.00  0.00    -0.204 OA
ATOM      2  C2  BZF d   1       0.716  -0.575  -2.701  0.00  0.00     0.174 A 
ATOM      3  C3  BZF d   1      -0.499  -0.362  -2.155  0.00  0.00    -0.012 A 
ATOM      4  C3A BZF d   1      -0.244  -0.039  -0.785  0.00  0.00    -0.107 A 
ATOM      5  C4  BZF d   1      -1.050   0.288   0.268  0.00  0.00     0.055 A 
ATOM      6  C5  BZF d   1      -0.493   0.473   1.494  0.00  0.00    -0.016 A 
ATOM      7  C6  BZF d   1       0.864   0.333   1.703  0.00  0.00     0.022 A 
ATOM      8  C7  BZF d   1       1.704   0.015   0.688  0.00  0.00     0.029 A 
ATOM      9  C7A BZF d   1       1.148  -0.140  -0.558  0.00  0.00     0.058 A 
ENDROOT
TORSDOF 0
ENDMDL
