MODEL 1
REMARK minimizedAffinity -3.95937181
REMARK minimizedRMSD -1
REMARK  0 active torsions:
REMARK  status: ('A' for Active; 'I' for Inactive)
ROOT
ATOM      1  O1  BZF d   1       1.528  -0.419  -1.982  0.00  0.00    -0.204 OA
ATOM      2  C2  BZF d   1       0.880  -0.249  -3.191  0.00  0.00     0.174 A 
ATOM      3  C3  BZF d   1      -0.434  -0.013  -3.001  0.00  0.00    -0.012 A 
ATOM      4  C3A BZF d   1      -0.602   0.056  -1.582  0.00  0.00    -0.107 A 
ATOM      5  C4  BZF d   1      -1.680   0.283  -0.774  0.00  0.00     0.055 A 
ATOM      6  C5  BZF d   1      -1.522   0.211   0.574  0.00  0.00    -0.016 A 
ATOM      7  C6  BZF d   1      -0.304  -0.089   1.147  0.00  0.00     0.022 A 
ATOM      8  C7  BZF d   1       0.795  -0.317   0.387  0.00  0.00     0.029 A 
ATOM      9  C7A BZF d   1       0.646  -0.213  -0.975  0.00  0.00     0.058 A 
ENDROOT
TORSDOF 0
ENDMDL
