MODEL 1
REMARK minimizedAffinity -4.66492939
REMARK minimizedRMSD -1
REMARK  0 active torsions:
REMARK  status: ('A' for Active; 'I' for Inactive)
ROOT
ATOM      1  O1  BZF d   1      -1.301  -0.886  -0.008  0.00  0.00    -0.204 OA
ATOM      2  C2  BZF d   1      -0.233  -1.004  -0.876  0.00  0.00     0.174 A 
ATOM      3  C3  BZF d   1       0.777  -0.191  -0.505  0.00  0.00    -0.012 A 
ATOM      4  C3A BZF d   1       0.347   0.408   0.721  0.00  0.00    -0.107 A 
ATOM      5  C4  BZF d   1       0.921   1.296   1.585  0.00  0.00     0.055 A 
ATOM      6  C5  BZF d   1       0.206   1.736   2.653  0.00  0.00    -0.016 A 
ATOM      7  C6  BZF d   1      -1.086   1.313   2.886  0.00  0.00     0.022 A 
ATOM      8  C7  BZF d   1      -1.697   0.428   2.060  0.00  0.00     0.029 A 
ATOM      9  C7A BZF d   1      -0.965  -0.043   0.997  0.00  0.00     0.058 A 
ENDROOT
TORSDOF 0
ENDMDL
