MODEL 1
REMARK minimizedAffinity -1.58171034
REMARK minimizedRMSD -1
REMARK  0 active torsions:
REMARK  status: ('A' for Active; 'I' for Inactive)
ROOT
ATOM      1  O1  BZF d   1      -0.980  -0.954  -0.037  0.00  0.00    -0.204 OA
ATOM      2  C2  BZF d   1      -0.045  -0.693  -1.019  0.00  0.00     0.174 A 
ATOM      3  C3  BZF d   1       0.501   0.529  -0.847  0.00  0.00    -0.012 A 
ATOM      4  C3A BZF d   1      -0.066   1.026   0.368  0.00  0.00    -0.107 A 
ATOM      5  C4  BZF d   1       0.096   2.184   1.075  0.00  0.00     0.055 A 
ATOM      6  C5  BZF d   1      -0.661   2.392   2.184  0.00  0.00    -0.016 A 
ATOM      7  C6  BZF d   1      -1.592   1.468   2.612  0.00  0.00     0.022 A 
ATOM      8  C7  BZF d   1      -1.785   0.303   1.946  0.00  0.00     0.029 A 
ATOM      9  C7A BZF d   1      -0.998   0.075   0.844  0.00  0.00     0.058 A 
ENDROOT
TORSDOF 0
ENDMDL
