MODEL 1
REMARK minimizedAffinity -5.56803846
REMARK minimizedRMSD -1
REMARK  0 active torsions:
REMARK  status: ('A' for Active; 'I' for Inactive)
ROOT
ATOM      1  O1  BZF d   1      -1.151  -0.894  -0.260  0.00  0.00    -0.204 OA
ATOM      2  C2  BZF d   1       0.023  -1.204  -0.919  0.00  0.00     0.174 A 
ATOM      3  C3  BZF d   1       1.060  -0.518  -0.397  0.00  0.00    -0.012 A 
ATOM      4  C3A BZF d   1       0.515   0.200   0.714  0.00  0.00    -0.107 A 
ATOM      5  C4  BZF d   1       1.054   1.047   1.639  0.00  0.00     0.055 A 
ATOM      6  C5  BZF d   1       0.236   1.639   2.549  0.00  0.00    -0.016 A 
ATOM      7  C6  BZF d   1      -1.124   1.410   2.559  0.00  0.00     0.022 A 
ATOM      8  C7  BZF d   1      -1.704   0.574   1.664  0.00  0.00     0.029 A 
ATOM      9  C7A BZF d   1      -0.875  -0.051   0.764  0.00  0.00     0.058 A 
ENDROOT
TORSDOF 0
ENDMDL
