MODEL 1
REMARK minimizedAffinity -3.70631981
REMARK minimizedRMSD -1
REMARK  0 active torsions:
REMARK  status: ('A' for Active; 'I' for Inactive)
ROOT
ATOM      1  O1  BZF d   1      -1.196   1.798   2.200  0.00  0.00    -0.204 OA
ATOM      2  C2  BZF d   1       0.123   2.195   2.306  0.00  0.00     0.174 A 
ATOM      3  C3  BZF d   1       0.911   1.457   1.498  0.00  0.00    -0.012 A 
ATOM      4  C3A BZF d   1       0.017   0.604   0.778  0.00  0.00    -0.107 A 
ATOM      5  C4  BZF d   1       0.198  -0.348  -0.185  0.00  0.00     0.055 A 
ATOM      6  C5  BZF d   1      -0.876  -1.052  -0.628  0.00  0.00    -0.016 A 
ATOM      7  C6  BZF d   1      -2.143  -0.836  -0.128  0.00  0.00     0.022 A 
ATOM      8  C7  BZF d   1      -2.373   0.101   0.825  0.00  0.00     0.029 A 
ATOM      9  C7A BZF d   1      -1.295   0.837   1.251  0.00  0.00     0.058 A 
ENDROOT
TORSDOF 0
ENDMDL
