MODEL 1
REMARK minimizedAffinity -2.31112456
REMARK minimizedRMSD -1
REMARK  0 active torsions:
REMARK  status: ('A' for Active; 'I' for Inactive)
ROOT
ATOM      1  O1  BZF d   1      -1.834   1.079   2.293  0.00  0.00    -0.204 OA
ATOM      2  C2  BZF d   1      -0.829   1.818   2.885  0.00  0.00     0.174 A 
ATOM      3  C3  BZF d   1       0.346   1.619   2.254  0.00  0.00    -0.012 A 
ATOM      4  C3A BZF d   1       0.038   0.770   1.144  0.00  0.00    -0.107 A 
ATOM      5  C4  BZF d   1       0.787   0.233   0.136  0.00  0.00     0.055 A 
ATOM      6  C5  BZF d   1       0.196  -0.615  -0.746  0.00  0.00    -0.016 A 
ATOM      7  C6  BZF d   1      -1.138  -0.951  -0.647  0.00  0.00     0.022 A 
ATOM      8  C7  BZF d   1      -1.923  -0.440   0.333  0.00  0.00     0.029 A 
ATOM      9  C7A BZF d   1      -1.336   0.443   1.206  0.00  0.00     0.058 A 
ENDROOT
TORSDOF 0
ENDMDL
