MODEL 1
REMARK minimizedAffinity 4.84652281
REMARK minimizedRMSD -1
REMARK  0 active torsions:
REMARK  status: ('A' for Active; 'I' for Inactive)
ROOT
ATOM      1  C   UNL d   1       3.300  -4.562  -0.273  0.00  0.00     0.077 C 
ATOM      2  C1  UNL d   1       2.321  -3.488   0.095  0.00  0.00    -0.074 A 
ATOM      3  C2  UNL d   1       2.425  -2.203  -0.448  0.00  0.00    -0.005 A 
ATOM      4  C3  UNL d   1       1.502  -1.216  -0.103  0.00  0.00     0.006 A 
ATOM      5  C4  UNL d   1       0.466  -1.504   0.787  0.00  0.00    -0.005 A 
ATOM      6  C5  UNL d   1       0.345  -2.783   1.339  0.00  0.00    -0.074 A 
ATOM      7  C6  UNL d   1      -0.768  -3.111   2.290  0.00  0.00     0.077 C 
ATOM      8  C7  UNL d   1       1.273  -3.771   0.982  0.00  0.00    -0.001 A 
ENDROOT
TORSDOF 0
ENDMDL
