MODEL 1
REMARK minimizedAffinity -2.52943969
REMARK minimizedRMSD -1
REMARK  0 active torsions:
REMARK  status: ('A' for Active; 'I' for Inactive)
ROOT
ATOM      1  C   UNL d   1       2.638  -5.184   0.782  0.00  0.00     0.077 C 
ATOM      2  C1  UNL d   1       2.131  -3.790   0.560  0.00  0.00    -0.074 A 
ATOM      3  C2  UNL d   1       2.558  -3.036  -0.539  0.00  0.00    -0.005 A 
ATOM      4  C3  UNL d   1       2.070  -1.745  -0.737  0.00  0.00     0.006 A 
ATOM      5  C4  UNL d   1       1.153  -1.194   0.159  0.00  0.00    -0.005 A 
ATOM      6  C5  UNL d   1       0.715  -1.933   1.263  0.00  0.00    -0.074 A 
ATOM      7  C6  UNL d   1      -0.278  -1.360   2.231  0.00  0.00     0.077 C 
ATOM      8  C7  UNL d   1       1.204  -3.233   1.452  0.00  0.00    -0.001 A 
ENDROOT
TORSDOF 0
ENDMDL
