MODEL 1
REMARK minimizedAffinity 2.26078463
REMARK minimizedRMSD -1
REMARK  0 active torsions:
REMARK  status: ('A' for Active; 'I' for Inactive)
ROOT
ATOM      1  C   UNL d   1      -1.540  -2.997   3.265  0.00  0.00     0.077 C 
ATOM      2  C1  UNL d   1      -0.466  -2.817   2.234  0.00  0.00    -0.074 A 
ATOM      3  C2  UNL d   1      -0.334  -1.612   1.536  0.00  0.00    -0.005 A 
ATOM      4  C3  UNL d   1       0.676  -1.456   0.587  0.00  0.00     0.006 A 
ATOM      5  C4  UNL d   1       1.563  -2.501   0.326  0.00  0.00    -0.005 A 
ATOM      6  C5  UNL d   1       1.447  -3.713   1.015  0.00  0.00    -0.074 A 
ATOM      7  C6  UNL d   1       2.399  -4.843   0.755  0.00  0.00     0.077 C 
ATOM      8  C7  UNL d   1       0.434  -3.859   1.973  0.00  0.00    -0.001 A 
ENDROOT
TORSDOF 0
ENDMDL
