MODEL 1
REMARK minimizedAffinity 0.904195726
REMARK minimizedRMSD -1
REMARK  0 active torsions:
REMARK  status: ('A' for Active; 'I' for Inactive)
ROOT
ATOM      1  C   UNL d   1      -2.050   4.180   3.585  0.00  0.00     0.077 C 
ATOM      2  C1  UNL d   1      -3.281   4.072   4.434  0.00  0.00    -0.074 A 
ATOM      3  C2  UNL d   1      -3.708   5.146   5.222  0.00  0.00    -0.005 A 
ATOM      4  C3  UNL d   1      -4.861   5.034   5.999  0.00  0.00     0.006 A 
ATOM      5  C4  UNL d   1      -5.598   3.849   5.996  0.00  0.00    -0.005 A 
ATOM      6  C5  UNL d   1      -5.187   2.765   5.214  0.00  0.00    -0.074 A 
ATOM      7  C6  UNL d   1      -5.973   1.487   5.191  0.00  0.00     0.077 C 
ATOM      8  C7  UNL d   1      -4.031   2.887   4.430  0.00  0.00    -0.001 A 
ENDROOT
TORSDOF 0
ENDMDL
