MODEL 1
REMARK minimizedAffinity 9.20482922
REMARK minimizedRMSD -1
REMARK  0 active torsions:
REMARK  status: ('A' for Active; 'I' for Inactive)
ROOT
ATOM      1  C   UNL d   1       2.603  -3.426   0.048  0.00  0.00     0.077 C 
ATOM      2  C1  UNL d   1       1.599  -2.511   0.685  0.00  0.00    -0.074 A 
ATOM      3  C2  UNL d   1       0.257  -2.887   0.802  0.00  0.00    -0.005 A 
ATOM      4  C3  UNL d   1      -0.663  -2.029   1.405  0.00  0.00     0.006 A 
ATOM      5  C4  UNL d   1      -0.251  -0.790   1.897  0.00  0.00    -0.005 A 
ATOM      6  C5  UNL d   1       1.087  -0.398   1.790  0.00  0.00    -0.074 A 
ATOM      7  C6  UNL d   1       1.549   0.926   2.322  0.00  0.00     0.077 C 
ATOM      8  C7  UNL d   1       2.007  -1.268   1.189  0.00  0.00    -0.001 A 
ENDROOT
TORSDOF 0
ENDMDL
