MODEL 1
REMARK minimizedAffinity 3.13439369
REMARK minimizedRMSD -1
REMARK  0 active torsions:
REMARK  status: ('A' for Active; 'I' for Inactive)
ROOT
ATOM      1  C   UNL d   1      -1.795  -3.271   2.471  0.00  0.00     0.077 C 
ATOM      2  C1  UNL d   1      -0.640  -2.577   1.812  0.00  0.00    -0.074 A 
ATOM      3  C2  UNL d   1      -0.601  -1.183   1.712  0.00  0.00    -0.005 A 
ATOM      4  C3  UNL d   1       0.484  -0.551   1.104  0.00  0.00     0.006 A 
ATOM      5  C4  UNL d   1       1.540  -1.307   0.591  0.00  0.00    -0.005 A 
ATOM      6  C5  UNL d   1       1.518  -2.702   0.683  0.00  0.00    -0.074 A 
ATOM      7  C6  UNL d   1       2.649  -3.528   0.146  0.00  0.00     0.077 C 
ATOM      8  C7  UNL d   1       0.428  -3.329   1.301  0.00  0.00    -0.001 A 
ENDROOT
TORSDOF 0
ENDMDL
