MODEL 1
REMARK minimizedAffinity 3.30649471
REMARK minimizedRMSD -1
REMARK  0 active torsions:
REMARK  status: ('A' for Active; 'I' for Inactive)
ROOT
ATOM      1  C   UNL d   1      -0.017   0.168   1.802  0.00  0.00     0.077 C 
ATOM      2  C1  UNL d   1       0.069  -1.302   1.514  0.00  0.00    -0.074 A 
ATOM      3  C2  UNL d   1      -0.995  -2.157   1.818  0.00  0.00    -0.005 A 
ATOM      4  C3  UNL d   1      -0.904  -3.520   1.536  0.00  0.00     0.006 A 
ATOM      5  C4  UNL d   1       0.249  -4.041   0.947  0.00  0.00    -0.005 A 
ATOM      6  C5  UNL d   1       1.322  -3.201   0.635  0.00  0.00    -0.074 A 
ATOM      7  C6  UNL d   1       2.565  -3.742  -0.007  0.00  0.00     0.077 C 
ATOM      8  C7  UNL d   1       1.221  -1.831   0.915  0.00  0.00    -0.001 A 
ENDROOT
TORSDOF 0
ENDMDL
