MODEL 1
REMARK minimizedAffinity 5.30501604
REMARK minimizedRMSD -1
REMARK  0 active torsions:
REMARK  status: ('A' for Active; 'I' for Inactive)
ROOT
ATOM      1  C   UNL d   1       2.811  -3.740   0.380  0.00  0.00     0.077 C 
ATOM      2  C1  UNL d   1       1.799  -2.692   0.737  0.00  0.00    -0.074 A 
ATOM      3  C2  UNL d   1       2.025  -1.344   0.442  0.00  0.00    -0.005 A 
ATOM      4  C3  UNL d   1       1.070  -0.382   0.772  0.00  0.00     0.006 A 
ATOM      5  C4  UNL d   1      -0.118  -0.758   1.399  0.00  0.00    -0.005 A 
ATOM      6  C5  UNL d   1      -0.363  -2.101   1.700  0.00  0.00    -0.074 A 
ATOM      7  C6  UNL d   1      -1.640  -2.523   2.365  0.00  0.00     0.077 C 
ATOM      8  C7  UNL d   1       0.598  -3.063   1.360  0.00  0.00    -0.001 A 
ENDROOT
TORSDOF 0
ENDMDL
