MODEL 1
REMARK minimizedAffinity 3.90149522
REMARK minimizedRMSD -1
REMARK  0 active torsions:
REMARK  status: ('A' for Active; 'I' for Inactive)
ROOT
ATOM      1  C   UNL d   1       0.025   2.951   0.028  0.00  0.00     0.023 A 
ATOM      2  C1  UNL d   1      -0.714   2.667  -1.120  0.00  0.00     0.003 A 
ATOM      3  C2  UNL d   1      -0.679   3.542  -2.209  0.00  0.00     0.048 A 
ATOM      4  C3  UNL d   1       0.098   4.697  -2.143  0.00  0.00     0.023 A 
ATOM      5  C4  UNL d   1       0.840   4.985  -0.996  0.00  0.00     0.048 A 
ATOM      6  C5  UNL d   1       0.802   4.109   0.090  0.00  0.00     0.003 A 
ATOM      7  I   UNL d   1       0.152   6.000  -3.761  0.00  0.00    -0.146 I 
ENDROOT
TORSDOF 0
ENDMDL
