MODEL 1
REMARK minimizedAffinity 13.3598518
REMARK minimizedRMSD -1
REMARK  0 active torsions:
REMARK  status: ('A' for Active; 'I' for Inactive)
ROOT
ATOM      1  C   UNL d   1       0.293  -2.827  -0.817  0.00  0.00     0.023 A 
ATOM      2  C1  UNL d   1       0.338  -4.106  -1.372  0.00  0.00     0.003 A 
ATOM      3  C2  UNL d   1       1.558  -4.776  -1.488  0.00  0.00     0.048 A 
ATOM      4  C3  UNL d   1       2.729  -4.162  -1.045  0.00  0.00     0.023 A 
ATOM      5  C4  UNL d   1       2.688  -2.882  -0.488  0.00  0.00     0.048 A 
ATOM      6  C5  UNL d   1       1.467  -2.216  -0.376  0.00  0.00     0.003 A 
ATOM      7  I   UNL d   1       4.545  -5.157  -1.215  0.00  0.00    -0.146 I 
ENDROOT
TORSDOF 0
ENDMDL
