MODEL 1
REMARK minimizedAffinity 2.99405503
REMARK minimizedRMSD -1
REMARK  0 active torsions:
REMARK  status: ('A' for Active; 'I' for Inactive)
ROOT
ATOM      1  C   UNL d   1      -1.124   5.409  -1.780  0.00  0.00     0.023 A 
ATOM      2  C1  UNL d   1      -0.745   6.000  -0.574  0.00  0.00     0.003 A 
ATOM      3  C2  UNL d   1      -0.365   5.201   0.506  0.00  0.00     0.048 A 
ATOM      4  C3  UNL d   1      -0.365   3.813   0.374  0.00  0.00     0.023 A 
ATOM      5  C4  UNL d   1      -0.743   3.218  -0.831  0.00  0.00     0.048 A 
ATOM      6  C5  UNL d   1      -1.123   4.020  -1.908  0.00  0.00     0.003 A 
ATOM      7  I   UNL d   1       0.201   2.622   1.981  0.00  0.00    -0.146 I 
ENDROOT
TORSDOF 0
ENDMDL
