MODEL 1
REMARK minimizedAffinity 3.62063932
REMARK minimizedRMSD -1
REMARK  0 active torsions:
REMARK  status: ('A' for Active; 'I' for Inactive)
ROOT
ATOM      1  C   UNL d   1      -1.302   5.997  -2.624  0.00  0.00     0.023 A 
ATOM      2  C1  UNL d   1      -1.800   6.000  -1.321  0.00  0.00     0.003 A 
ATOM      3  C2  UNL d   1      -1.388   5.022  -0.413  0.00  0.00     0.048 A 
ATOM      4  C3  UNL d   1      -0.477   4.046  -0.814  0.00  0.00     0.023 A 
ATOM      5  C4  UNL d   1       0.024   4.039  -2.117  0.00  0.00     0.048 A 
ATOM      6  C5  UNL d   1      -0.391   5.018  -3.022  0.00  0.00     0.003 A 
ATOM      7  I   UNL d   1       0.138   2.590   0.536  0.00  0.00    -0.146 I 
ENDROOT
TORSDOF 0
ENDMDL
