MODEL 1
REMARK minimizedAffinity 4.92021418
REMARK minimizedRMSD -1
REMARK  0 active torsions:
REMARK  status: ('A' for Active; 'I' for Inactive)
ROOT
ATOM      1  C   UNL d   1       1.832   3.848   0.830  0.00  0.00     0.023 A 
ATOM      2  C1  UNL d   1       2.149   4.863  -0.073  0.00  0.00     0.003 A 
ATOM      3  C2  UNL d   1       1.153   5.421  -0.876  0.00  0.00     0.048 A 
ATOM      4  C3  UNL d   1      -0.159   4.961  -0.771  0.00  0.00     0.023 A 
ATOM      5  C4  UNL d   1      -0.482   3.946   0.132  0.00  0.00     0.048 A 
ATOM      6  C5  UNL d   1       0.518   3.390   0.932  0.00  0.00     0.003 A 
ATOM      7  I   UNL d   1      -1.644   5.790  -1.965  0.00  0.00    -0.146 I 
ENDROOT
TORSDOF 0
ENDMDL
