MODEL 1
REMARK minimizedAffinity -1.32493699
REMARK minimizedRMSD -1
REMARK  0 active torsions:
REMARK  status: ('A' for Active; 'I' for Inactive)
ROOT
ATOM      1  C   UNL d   1       0.620   4.792  -0.605  0.00  0.00     0.023 A 
ATOM      2  C1  UNL d   1       0.587   3.929   0.491  0.00  0.00     0.003 A 
ATOM      3  C2  UNL d   1       0.085   2.634   0.346  0.00  0.00     0.048 A 
ATOM      4  C3  UNL d   1      -0.381   2.208  -0.897  0.00  0.00     0.023 A 
ATOM      5  C4  UNL d   1      -0.349   3.067  -1.996  0.00  0.00     0.048 A 
ATOM      6  C5  UNL d   1       0.153   4.362  -1.847  0.00  0.00     0.003 A 
ATOM      7  I   UNL d   1      -1.128   0.281  -1.114  0.00  0.00    -0.146 I 
ENDROOT
TORSDOF 0
ENDMDL
