MODEL 1
REMARK minimizedAffinity -0.0999316871
REMARK minimizedRMSD -1
REMARK  0 active torsions:
REMARK  status: ('A' for Active; 'I' for Inactive)
ROOT
ATOM      1  C1  BNZ d   1       2.448  -1.697  -2.635  0.00  0.00     0.000 A 
ATOM      2  C2  BNZ d   1       1.950  -1.620  -1.361  0.00  0.00     0.000 A 
ATOM      3  C3  BNZ d   1       2.605  -0.907  -0.396  0.00  0.00     0.000 A 
ATOM      4  C4  BNZ d   1       3.776  -0.307  -0.694  0.00  0.00     0.000 A 
ATOM      5  C5  BNZ d   1       4.295  -0.384  -1.971  0.00  0.00     0.000 A 
ATOM      6  C6  BNZ d   1       3.613  -1.069  -2.950  0.00  0.00     0.000 A 
ENDROOT
TORSDOF 0
ENDMDL
