MODEL 1
REMARK minimizedAffinity -3.05162287
REMARK minimizedRMSD -1
REMARK  0 active torsions:
REMARK  status: ('A' for Active; 'I' for Inactive)
ROOT
ATOM      1  C1  BNZ d   1      -0.017  -0.133   1.020  0.00  0.00     0.000 A 
ATOM      2  C2  BNZ d   1       0.671  -1.191   0.487  0.00  0.00     0.000 A 
ATOM      3  C3  BNZ d   1       1.088  -1.169  -0.815  0.00  0.00     0.000 A 
ATOM      4  C4  BNZ d   1       0.783  -0.110  -1.592  0.00  0.00     0.000 A 
ATOM      5  C5  BNZ d   1       0.083   0.960  -1.071  0.00  0.00     0.000 A 
ATOM      6  C6  BNZ d   1      -0.302   0.952   0.250  0.00  0.00     0.000 A 
ENDROOT
TORSDOF 0
ENDMDL
