MODEL 1
REMARK minimizedAffinity 1.66602659
REMARK minimizedRMSD -1
REMARK  0 active torsions:
REMARK  status: ('A' for Active; 'I' for Inactive)
ROOT
ATOM      1  C1  BNZ d   1       2.261   2.179  -3.240  0.00  0.00     0.000 A 
ATOM      2  C2  BNZ d   1       2.948   1.024  -2.979  0.00  0.00     0.000 A 
ATOM      3  C3  BNZ d   1       2.609   0.233  -1.917  0.00  0.00     0.000 A 
ATOM      4  C4  BNZ d   1       1.610   0.617  -1.096  0.00  0.00     0.000 A 
ATOM      5  C5  BNZ d   1       0.914   1.784  -1.341  0.00  0.00     0.000 A 
ATOM      6  C6  BNZ d   1       1.233   2.558  -2.433  0.00  0.00     0.000 A 
ENDROOT
TORSDOF 0
ENDMDL
