MODEL 1
REMARK minimizedAffinity -1.08980227
REMARK minimizedRMSD -1
REMARK  0 active torsions:
REMARK  status: ('A' for Active; 'I' for Inactive)
ROOT
ATOM      1  C1  BNZ d   1       0.159  -1.825  -1.573  0.00  0.00     0.000 A 
ATOM      2  C2  BNZ d   1      -1.025  -2.506  -1.473  0.00  0.00     0.000 A 
ATOM      3  C3  BNZ d   1      -2.164  -1.873  -1.061  0.00  0.00     0.000 A 
ATOM      4  C4  BNZ d   1      -2.110  -0.571  -0.713  0.00  0.00     0.000 A 
ATOM      5  C5  BNZ d   1      -0.922   0.127  -0.800  0.00  0.00     0.000 A 
ATOM      6  C6  BNZ d   1       0.214  -0.504  -1.252  0.00  0.00     0.000 A 
ENDROOT
TORSDOF 0
ENDMDL
