MODEL 1
REMARK minimizedAffinity 3.16136885
REMARK minimizedRMSD -1
REMARK  0 active torsions:
REMARK  status: ('A' for Active; 'I' for Inactive)
ROOT
ATOM      1  C1  BNZ d   1      -2.079  -1.399   1.604  0.00  0.00     0.000 A 
ATOM      2  C2  BNZ d   1      -2.183  -2.690   1.158  0.00  0.00     0.000 A 
ATOM      3  C3  BNZ d   1      -2.322  -2.961  -0.174  0.00  0.00     0.000 A 
ATOM      4  C4  BNZ d   1      -2.395  -1.942  -1.054  0.00  0.00     0.000 A 
ATOM      5  C5  BNZ d   1      -2.301  -0.635  -0.620  0.00  0.00     0.000 A 
ATOM      6  C6  BNZ d   1      -2.123  -0.367   0.718  0.00  0.00     0.000 A 
ENDROOT
TORSDOF 0
ENDMDL
