MODEL 1
REMARK minimizedAffinity 0.425248057
REMARK minimizedRMSD -1
REMARK  0 active torsions:
REMARK  status: ('A' for Active; 'I' for Inactive)
ROOT
ATOM      1  C1  BNZ d   1       1.587   0.496  -1.480  0.00  0.00     0.000 A 
ATOM      2  C2  BNZ d   1       0.859   1.633  -1.707  0.00  0.00     0.000 A 
ATOM      3  C3  BNZ d   1       1.193   2.488  -2.720  0.00  0.00     0.000 A 
ATOM      4  C4  BNZ d   1       2.277   2.226  -3.479  0.00  0.00     0.000 A 
ATOM      5  C5  BNZ d   1       3.027   1.088  -3.257  0.00  0.00     0.000 A 
ATOM      6  C6  BNZ d   1       2.665   0.210  -2.261  0.00  0.00     0.000 A 
ENDROOT
TORSDOF 0
ENDMDL
