MODEL 1
REMARK minimizedAffinity -0.506935835
REMARK minimizedRMSD -1
REMARK  0 active torsions:
REMARK  status: ('A' for Active; 'I' for Inactive)
ROOT
ATOM      1  C1  BNZ d   1       0.009  -3.104  -1.730  0.00  0.00     0.000 A 
ATOM      2  C2  BNZ d   1       0.386  -2.131  -0.843  0.00  0.00     0.000 A 
ATOM      3  C3  BNZ d   1       1.661  -1.639  -0.844  0.00  0.00     0.000 A 
ATOM      4  C4  BNZ d   1       2.568  -2.147  -1.703  0.00  0.00     0.000 A 
ATOM      5  C5  BNZ d   1       2.206  -3.135  -2.597  0.00  0.00     0.000 A 
ATOM      6  C6  BNZ d   1       0.912  -3.601  -2.620  0.00  0.00     0.000 A 
ENDROOT
TORSDOF 0
ENDMDL
