MODEL 1
REMARK minimizedAffinity 6.93219185
REMARK minimizedRMSD -1
REMARK  0 active torsions:
REMARK  status: ('A' for Active; 'I' for Inactive)
ROOT
ATOM      1  C1  BNZ d   1      -3.694   4.177   3.046  0.00  0.00     0.000 A 
ATOM      2  C2  BNZ d   1      -4.472   4.647   4.071  0.00  0.00     0.000 A 
ATOM      3  C3  BNZ d   1      -3.986   5.574   4.950  0.00  0.00     0.000 A 
ATOM      4  C4  BNZ d   1      -2.712   6.000   4.828  0.00  0.00     0.000 A 
ATOM      5  C5  BNZ d   1      -1.912   5.529   3.806  0.00  0.00     0.000 A 
ATOM      6  C6  BNZ d   1      -2.417   4.625   2.900  0.00  0.00     0.000 A 
ENDROOT
TORSDOF 0
ENDMDL
