MODEL 1
REMARK minimizedAffinity 2.68765354
REMARK minimizedRMSD -1
REMARK  0 active torsions:
REMARK  status: ('A' for Active; 'I' for Inactive)
ROOT
ATOM      1  C1  BNZ d   1       1.011  -3.135  -2.282  0.00  0.00     0.000 A 
ATOM      2  C2  BNZ d   1       2.267  -2.603  -2.162  0.00  0.00     0.000 A 
ATOM      3  C3  BNZ d   1       2.492  -1.511  -1.372  0.00  0.00     0.000 A 
ATOM      4  C4  BNZ d   1       1.456  -0.928  -0.736  0.00  0.00     0.000 A 
ATOM      5  C5  BNZ d   1       0.182  -1.446  -0.854  0.00  0.00     0.000 A 
ATOM      6  C6  BNZ d   1      -0.035  -2.569  -1.619  0.00  0.00     0.000 A 
ENDROOT
TORSDOF 0
ENDMDL
