MODEL 1
REMARK minimizedAffinity 6.24460888
REMARK minimizedRMSD -1
REMARK  0 active torsions:
REMARK  status: ('A' for Active; 'I' for Inactive)
ROOT
ATOM      1  C1  BNZ d   1      -0.720   1.129  -0.556  0.00  0.00     0.000 A 
ATOM      2  C2  BNZ d   1      -0.964   1.502   0.739  0.00  0.00     0.000 A 
ATOM      3  C3  BNZ d   1       0.057   1.901   1.556  0.00  0.00     0.000 A 
ATOM      4  C4  BNZ d   1       1.322   1.887   1.091  0.00  0.00     0.000 A 
ATOM      5  C5  BNZ d   1       1.585   1.505  -0.209  0.00  0.00     0.000 A 
ATOM      6  C6  BNZ d   1       0.551   1.141  -1.041  0.00  0.00     0.000 A 
ENDROOT
TORSDOF 0
ENDMDL
