MODEL 1
REMARK minimizedAffinity 0.997572958
REMARK minimizedRMSD -1
REMARK  0 active torsions:
REMARK  status: ('A' for Active; 'I' for Inactive)
ROOT
ATOM      1  C1  BNZ d   1       0.668   1.028  -1.351  0.00  0.00     0.000 A 
ATOM      2  C2  BNZ d   1      -0.253   1.296  -0.374  0.00  0.00     0.000 A 
ATOM      3  C3  BNZ d   1       0.144   1.612   0.895  0.00  0.00     0.000 A 
ATOM      4  C4  BNZ d   1       1.459   1.620   1.196  0.00  0.00     0.000 A 
ATOM      5  C5  BNZ d   1       2.400   1.342   0.224  0.00  0.00     0.000 A 
ATOM      6  C6  BNZ d   1       1.997   1.063  -1.062  0.00  0.00     0.000 A 
ENDROOT
TORSDOF 0
ENDMDL
