MODEL 1
REMARK minimizedAffinity -0.511284351
REMARK minimizedRMSD -1
REMARK  0 active torsions:
REMARK  status: ('A' for Active; 'I' for Inactive)
ROOT
ATOM      1  C1  BNZ d   1       1.393   0.353  -1.199  0.00  0.00     0.000 A 
ATOM      2  C2  BNZ d   1       0.744   1.540  -1.413  0.00  0.00     0.000 A 
ATOM      3  C3  BNZ d   1       1.084   2.344  -2.465  0.00  0.00     0.000 A 
ATOM      4  C4  BNZ d   1       2.098   1.979  -3.277  0.00  0.00     0.000 A 
ATOM      5  C5  BNZ d   1       2.768   0.790  -3.069  0.00  0.00     0.000 A 
ATOM      6  C6  BNZ d   1       2.397  -0.035  -2.032  0.00  0.00     0.000 A 
ENDROOT
TORSDOF 0
ENDMDL
