MODEL 1
REMARK minimizedAffinity 2.24967527
REMARK minimizedRMSD -1
REMARK  0 active torsions:
REMARK  status: ('A' for Active; 'I' for Inactive)
ROOT
ATOM      1  C1  BNZ d   1       2.951  -1.599  -0.616  0.00  0.00     0.000 A 
ATOM      2  C2  BNZ d   1       2.510  -0.529  -1.347  0.00  0.00     0.000 A 
ATOM      3  C3  BNZ d   1       1.175  -0.336  -1.570  0.00  0.00     0.000 A 
ATOM      4  C4  BNZ d   1       0.287  -1.234  -1.097  0.00  0.00     0.000 A 
ATOM      5  C5  BNZ d   1       0.717  -2.323  -0.366  0.00  0.00     0.000 A 
ATOM      6  C6  BNZ d   1       2.058  -2.493  -0.110  0.00  0.00     0.000 A 
ENDROOT
TORSDOF 0
ENDMDL
