MODEL 1
REMARK minimizedAffinity -4.9870882
REMARK minimizedRMSD -1
REMARK  2 active torsions:
REMARK  status: ('A' for Active; 'I' for Inactive)
REMARK    1  A    between atoms: C2'_3  and  C1'_4 
REMARK    2  A    between atoms: C1'_4  and  C1_5 
ROOT
ATOM      1  C1  I4B d   1      -0.201   0.510   0.097  0.00  0.00    -0.075 A 
ATOM      2  C2  I4B d   1      -1.353   0.671   0.825  0.00  0.00     0.003 A 
ATOM      3  C3  I4B d   1      -1.325   0.567   2.236  0.00  0.00     0.002 A 
ATOM      4  C4  I4B d   1      -0.141   0.252   2.871  0.00  0.00    -0.004 A 
ATOM      5  C5  I4B d   1       1.031   0.111   2.133  0.00  0.00     0.002 A 
ATOM      6  C6  I4B d   1       1.004   0.253   0.738  0.00  0.00     0.003 A 
ENDROOT
BRANCH   1   7
ATOM      7  C1' I4B d   1      -0.273   0.594  -1.395  0.00  0.00     0.060 C 
BRANCH   7   8
ATOM      8  C2' I4B d   1       0.739  -0.378  -1.967  0.00  0.00    -0.013 C 
ATOM      9  C4' I4B d   1       0.076  -1.654  -2.416  0.00  0.00     0.013 C 
ATOM     10  C3' I4B d   1       1.439   0.299  -3.107  0.00  0.00     0.013 C 
ENDBRANCH   7   8
ENDBRANCH   1   7
TORSDOF 2
ENDMDL
