MODEL 1
REMARK minimizedAffinity -5.79296207
REMARK minimizedRMSD -1
REMARK  2 active torsions:
REMARK  status: ('A' for Active; 'I' for Inactive)
REMARK    1  A    between atoms: C2'_3  and  C1'_4 
REMARK    2  A    between atoms: C1'_4  and  C1_5 
ROOT
ATOM      1  C1  I4B d   1       0.228   0.324  -0.106  0.00  0.00    -0.075 A 
ATOM      2  C2  I4B d   1      -0.852  -0.118   0.617  0.00  0.00     0.003 A 
ATOM      3  C3  I4B d   1      -0.744  -0.305   2.016  0.00  0.00     0.002 A 
ATOM      4  C4  I4B d   1       0.468  -0.088   2.640  0.00  0.00    -0.004 A 
ATOM      5  C5  I4B d   1       1.555   0.382   1.909  0.00  0.00     0.002 A 
ATOM      6  C6  I4B d   1       1.432   0.601   0.529  0.00  0.00     0.003 A 
ENDROOT
BRANCH   1   7
ATOM      7  C1' I4B d   1       0.089   0.479  -1.587  0.00  0.00     0.060 C 
BRANCH   7   8
ATOM      8  C2' I4B d   1       1.154  -0.372  -2.248  0.00  0.00    -0.013 C 
ATOM      9  C4' I4B d   1       0.539  -1.488  -3.051  0.00  0.00     0.013 C 
ATOM     10  C3' I4B d   1       1.989   0.522  -3.115  0.00  0.00     0.013 C 
ENDBRANCH   7   8
ENDBRANCH   1   7
TORSDOF 2
ENDMDL
