MODEL 1
REMARK minimizedAffinity -5.78117132
REMARK minimizedRMSD -1
REMARK  2 active torsions:
REMARK  status: ('A' for Active; 'I' for Inactive)
REMARK    1  A    between atoms: C2'_3  and  C1'_4 
REMARK    2  A    between atoms: C1'_4  and  C1_5 
ROOT
ATOM      1  C1  I4B d   1      -0.034   0.350  -0.267  0.00  0.00    -0.075 A 
ATOM      2  C2  I4B d   1      -1.053  -0.261   0.421  0.00  0.00     0.003 A 
ATOM      3  C3  I4B d   1      -1.010  -0.345   1.834  0.00  0.00     0.002 A 
ATOM      4  C4  I4B d   1       0.088   0.145   2.510  0.00  0.00    -0.004 A 
ATOM      5  C5  I4B d   1       1.110   0.785   1.814  0.00  0.00     0.002 A 
ATOM      6  C6  I4B d   1       1.043   0.899   0.417  0.00  0.00     0.003 A 
ENDROOT
BRANCH   1   7
ATOM      7  C1' I4B d   1      -0.097   0.392  -1.761  0.00  0.00     0.060 C 
BRANCH   7   8
ATOM      8  C2' I4B d   1       0.777  -0.724  -2.296  0.00  0.00    -0.013 C 
ATOM      9  C4' I4B d   1      -0.001  -1.636  -3.208  0.00  0.00     0.013 C 
ATOM     10  C3' I4B d   1       1.936  -0.100  -3.015  0.00  0.00     0.013 C 
ENDBRANCH   7   8
ENDBRANCH   1   7
TORSDOF 2
ENDMDL
