MODEL 1
REMARK minimizedAffinity -5.67976093
REMARK minimizedRMSD -1
REMARK  2 active torsions:
REMARK  status: ('A' for Active; 'I' for Inactive)
REMARK    1  A    between atoms: C2'_3  and  C1'_4 
REMARK    2  A    between atoms: C1'_4  and  C1_5 
ROOT
ATOM      1  C1  I4B d   1      -0.467  -0.125   0.475  0.00  0.00    -0.075 A 
ATOM      2  C2  I4B d   1       0.509  -0.478   1.374  0.00  0.00     0.003 A 
ATOM      3  C3  I4B d   1       0.165  -0.808   2.707  0.00  0.00     0.002 A 
ATOM      4  C4  I4B d   1      -1.152  -0.723   3.110  0.00  0.00    -0.004 A 
ATOM      5  C5  I4B d   1      -2.143  -0.387   2.192  0.00  0.00     0.002 A 
ATOM      6  C6  I4B d   1      -1.800  -0.099   0.863  0.00  0.00     0.003 A 
ENDROOT
BRANCH   1   7
ATOM      7  C1' I4B d   1      -0.064   0.248  -0.916  0.00  0.00     0.060 C 
BRANCH   7   8
ATOM      8  C2' I4B d   1       0.759  -0.889  -1.485  0.00  0.00    -0.013 C 
ATOM      9  C4' I4B d   1      -0.115  -1.903  -2.176  0.00  0.00     0.013 C 
ATOM     10  C3' I4B d   1       1.763  -0.304  -2.434  0.00  0.00     0.013 C 
ENDBRANCH   7   8
ENDBRANCH   1   7
TORSDOF 2
ENDMDL
