MODEL 1
REMARK minimizedAffinity -5.85287857
REMARK minimizedRMSD -1
REMARK  2 active torsions:
REMARK  status: ('A' for Active; 'I' for Inactive)
REMARK    1  A    between atoms: C2'_3  and  C1'_4 
REMARK    2  A    between atoms: C1'_4  and  C1_5 
ROOT
ATOM      1  C1  I4B d   1       0.018   0.230   0.009  0.00  0.00    -0.075 A 
ATOM      2  C2  I4B d   1       1.245   0.494   0.563  0.00  0.00     0.003 A 
ATOM      3  C3  I4B d   1       1.442   0.356   1.959  0.00  0.00     0.002 A 
ATOM      4  C4  I4B d   1       0.378   0.002   2.763  0.00  0.00    -0.004 A 
ATOM      5  C5  I4B d   1      -0.860  -0.288   2.197  0.00  0.00     0.002 A 
ATOM      6  C6  I4B d   1      -1.038  -0.186   0.810  0.00  0.00     0.003 A 
ENDROOT
BRANCH   1   7
ATOM      7  C1' I4B d   1      -0.164   0.418  -1.464  0.00  0.00     0.060 C 
BRANCH   7   8
ATOM      8  C2' I4B d   1       0.591  -0.688  -2.172  0.00  0.00    -0.013 C 
ATOM      9  C4' I4B d   1      -0.351  -1.616  -2.893  0.00  0.00     0.013 C 
ATOM     10  C3' I4B d   1       1.559  -0.052  -3.124  0.00  0.00     0.013 C 
ENDBRANCH   7   8
ENDBRANCH   1   7
TORSDOF 2
ENDMDL
