MODEL 1
REMARK minimizedAffinity -3.75618887
REMARK minimizedRMSD -1
REMARK  2 active torsions:
REMARK  status: ('A' for Active; 'I' for Inactive)
REMARK    1  A    between atoms: C2'_3  and  C1'_4 
REMARK    2  A    between atoms: C1'_4  and  C1_5 
ROOT
ATOM      1  C1  I4B d   1       0.375  -0.348  -1.771  0.00  0.00    -0.075 A 
ATOM      2  C2  I4B d   1      -0.488  -1.070  -2.558  0.00  0.00     0.003 A 
ATOM      3  C3  I4B d   1      -0.070  -1.540  -3.826  0.00  0.00     0.002 A 
ATOM      4  C4  I4B d   1       1.192  -1.225  -4.287  0.00  0.00    -0.004 A 
ATOM      5  C5  I4B d   1       2.073  -0.512  -3.478  0.00  0.00     0.002 A 
ATOM      6  C6  I4B d   1       1.666  -0.081  -2.207  0.00  0.00     0.003 A 
ENDROOT
BRANCH   1   7
ATOM      7  C1' I4B d   1      -0.110   0.162  -0.451  0.00  0.00     0.060 C 
BRANCH   7   8
ATOM      8  C2' I4B d   1       0.992  -0.053   0.566  0.00  0.00    -0.013 C 
ATOM      9  C4' I4B d   1       1.448   1.253   1.161  0.00  0.00     0.013 C 
ATOM     10  C3' I4B d   1       0.471  -0.978   1.625  0.00  0.00     0.013 C 
ENDBRANCH   7   8
ENDBRANCH   1   7
TORSDOF 2
ENDMDL
