MODEL 1
REMARK minimizedAffinity -4.41733503
REMARK minimizedRMSD -1
REMARK  2 active torsions:
REMARK  status: ('A' for Active; 'I' for Inactive)
REMARK    1  A    between atoms: C2'_3  and  C1'_4 
REMARK    2  A    between atoms: C1'_4  and  C1_5 
ROOT
ATOM      1  C1  I4B d   1      -0.193  -0.183   0.132  0.00  0.00    -0.075 A 
ATOM      2  C2  I4B d   1       0.422   0.583   1.091  0.00  0.00     0.003 A 
ATOM      3  C3  I4B d   1       0.294   0.249   2.461  0.00  0.00     0.002 A 
ATOM      4  C4  I4B d   1      -0.495  -0.822   2.828  0.00  0.00    -0.004 A 
ATOM      5  C5  I4B d   1      -1.099  -1.611   1.854  0.00  0.00     0.002 A 
ATOM      6  C6  I4B d   1      -0.938  -1.298   0.497  0.00  0.00     0.003 A 
ENDROOT
BRANCH   1   7
ATOM      7  C1' I4B d   1      -0.064   0.217  -1.303  0.00  0.00     0.060 C 
BRANCH   7   8
ATOM      8  C2' I4B d   1       0.805  -0.812  -1.998  0.00  0.00    -0.013 C 
ATOM      9  C4' I4B d   1      -0.004  -1.653  -2.951  0.00  0.00     0.013 C 
ATOM     10  C3' I4B d   1       1.901  -0.083  -2.716  0.00  0.00     0.013 C 
ENDBRANCH   7   8
ENDBRANCH   1   7
TORSDOF 2
ENDMDL
