MODEL 1
REMARK minimizedAffinity -5.66110229
REMARK minimizedRMSD -1
REMARK  2 active torsions:
REMARK  status: ('A' for Active; 'I' for Inactive)
REMARK    1  A    between atoms: C2'_3  and  C1'_4 
REMARK    2  A    between atoms: C1'_4  and  C1_5 
ROOT
ATOM      1  C1  I4B d   1      -1.167  -0.178   0.779  0.00  0.00    -0.075 A 
ATOM      2  C2  I4B d   1      -2.454   0.298   0.724  0.00  0.00     0.003 A 
ATOM      3  C3  I4B d   1      -3.120   0.690   1.911  0.00  0.00     0.002 A 
ATOM      4  C4  I4B d   1      -2.484   0.544   3.127  0.00  0.00    -0.004 A 
ATOM      5  C5  I4B d   1      -1.171   0.083   3.178  0.00  0.00     0.002 A 
ATOM      6  C6  I4B d   1      -0.504  -0.268   1.996  0.00  0.00     0.003 A 
ENDROOT
BRANCH   1   7
ATOM      7  C1' I4B d   1      -0.506  -0.614  -0.490  0.00  0.00     0.060 C 
BRANCH   7   8
ATOM      8  C2' I4B d   1       0.395   0.511  -0.958  0.00  0.00    -0.013 C 
ATOM      9  C4' I4B d   1       1.510   0.760   0.023  0.00  0.00     0.013 C 
ATOM     10  C3' I4B d   1       0.933   0.142  -2.308  0.00  0.00     0.013 C 
ENDBRANCH   7   8
ENDBRANCH   1   7
TORSDOF 2
ENDMDL
