MODEL 1
REMARK minimizedAffinity -6.07798243
REMARK minimizedRMSD -1
REMARK  2 active torsions:
REMARK  status: ('A' for Active; 'I' for Inactive)
REMARK    1  A    between atoms: C2'_3  and  C1'_4 
REMARK    2  A    between atoms: C1'_4  and  C1_5 
ROOT
ATOM      1  C1  I4B d   1       0.189   0.343  -0.329  0.00  0.00    -0.075 A 
ATOM      2  C2  I4B d   1      -0.854  -0.082   0.455  0.00  0.00     0.003 A 
ATOM      3  C3  I4B d   1      -0.684  -0.221   1.854  0.00  0.00     0.002 A 
ATOM      4  C4  I4B d   1       0.552   0.026   2.416  0.00  0.00    -0.004 A 
ATOM      5  C5  I4B d   1       1.602   0.479   1.623  0.00  0.00     0.002 A 
ATOM      6  C6  I4B d   1       1.417   0.650   0.243  0.00  0.00     0.003 A 
ENDROOT
BRANCH   1   7
ATOM      7  C1' I4B d   1      -0.016   0.446  -1.807  0.00  0.00     0.060 C 
BRANCH   7   8
ATOM      8  C2' I4B d   1       0.982  -0.473  -2.482  0.00  0.00    -0.013 C 
ATOM      9  C4' I4B d   1       0.292  -1.641  -3.136  0.00  0.00     0.013 C 
ATOM     10  C3' I4B d   1       1.749   0.334  -3.487  0.00  0.00     0.013 C 
ENDBRANCH   7   8
ENDBRANCH   1   7
TORSDOF 2
ENDMDL
