MODEL 1
REMARK minimizedAffinity -6.02428579
REMARK minimizedRMSD -1
REMARK  2 active torsions:
REMARK  status: ('A' for Active; 'I' for Inactive)
REMARK    1  A    between atoms: C2'_3  and  C1'_4 
REMARK    2  A    between atoms: C1'_4  and  C1_5 
ROOT
ATOM      1  C1  I4B d   1       1.193   0.002  -1.376  0.00  0.00    -0.075 A 
ATOM      2  C2  I4B d   1       2.530  -0.232  -1.584  0.00  0.00     0.003 A 
ATOM      3  C3  I4B d   1       2.963  -0.888  -2.761  0.00  0.00     0.002 A 
ATOM      4  C4  I4B d   1       2.030  -1.334  -3.674  0.00  0.00    -0.004 A 
ATOM      5  C5  I4B d   1       0.677  -1.076  -3.472  0.00  0.00     0.002 A 
ATOM      6  C6  I4B d   1       0.256  -0.392  -2.322  0.00  0.00     0.003 A 
ENDROOT
BRANCH   1   7
ATOM      7  C1' I4B d   1       0.768   0.668  -0.105  0.00  0.00     0.060 C 
BRANCH   7   8
ATOM      8  C2' I4B d   1       0.303  -0.410   0.853  0.00  0.00    -0.013 C 
ATOM      9  C4' I4B d   1       0.999  -0.293   2.184  0.00  0.00     0.013 C 
ATOM     10  C3' I4B d   1      -1.184  -0.283   1.007  0.00  0.00     0.013 C 
ENDBRANCH   7   8
ENDBRANCH   1   7
TORSDOF 2
ENDMDL
