MODEL 1
REMARK minimizedAffinity -5.00917912
REMARK minimizedRMSD -1
REMARK  2 active torsions:
REMARK  status: ('A' for Active; 'I' for Inactive)
REMARK    1  A    between atoms: C2'_3  and  C1'_4 
REMARK    2  A    between atoms: C1'_4  and  C1_5 
ROOT
ATOM      1  C1  I4B d   1       0.194   0.065  -0.224  0.00  0.00    -0.075 A 
ATOM      2  C2  I4B d   1       1.288   0.534   0.460  0.00  0.00     0.003 A 
ATOM      3  C3  I4B d   1       1.364   0.392   1.866  0.00  0.00     0.002 A 
ATOM      4  C4  I4B d   1       0.309  -0.177   2.550  0.00  0.00    -0.004 A 
ATOM      5  C5  I4B d   1      -0.789  -0.673   1.853  0.00  0.00     0.002 A 
ATOM      6  C6  I4B d   1      -0.842  -0.562   0.456  0.00  0.00     0.003 A 
ENDROOT
BRANCH   1   7
ATOM      7  C1' I4B d   1       0.131   0.262  -1.706  0.00  0.00     0.060 C 
BRANCH   7   8
ATOM      8  C2' I4B d   1       1.087  -0.723  -2.348  0.00  0.00    -0.013 C 
ATOM      9  C4' I4B d   1       0.361  -1.950  -2.833  0.00  0.00     0.013 C 
ATOM     10  C3' I4B d   1       1.782  -0.024  -3.478  0.00  0.00     0.013 C 
ENDBRANCH   7   8
ENDBRANCH   1   7
TORSDOF 2
ENDMDL
