MODEL 1
REMARK minimizedAffinity -4.66850328
REMARK minimizedRMSD -1
REMARK  2 active torsions:
REMARK  status: ('A' for Active; 'I' for Inactive)
REMARK    1  A    between atoms: C2'_3  and  C1'_4 
REMARK    2  A    between atoms: C1'_4  and  C1_5 
ROOT
ATOM      1  C1  I4B d   1       0.237   0.359  -0.107  0.00  0.00    -0.075 A 
ATOM      2  C2  I4B d   1       1.364   0.927   0.432  0.00  0.00     0.003 A 
ATOM      3  C3  I4B d   1       1.639   0.793   1.815  0.00  0.00     0.002 A 
ATOM      4  C4  I4B d   1       0.740   0.129   2.625  0.00  0.00    -0.004 A 
ATOM      5  C5  I4B d   1      -0.390  -0.467   2.072  0.00  0.00     0.002 A 
ATOM      6  C6  I4B d   1      -0.638  -0.362   0.696  0.00  0.00     0.003 A 
ENDROOT
BRANCH   1   7
ATOM      7  C1' I4B d   1      -0.040   0.549  -1.565  0.00  0.00     0.060 C 
BRANCH   7   8
ATOM      8  C2' I4B d   1       1.049  -0.162  -2.343  0.00  0.00    -0.013 C 
ATOM      9  C4' I4B d   1       0.701  -1.610  -2.569  0.00  0.00     0.013 C 
ATOM     10  C3' I4B d   1       1.235   0.560  -3.644  0.00  0.00     0.013 C 
ENDBRANCH   7   8
ENDBRANCH   1   7
TORSDOF 2
ENDMDL
