MODEL 1
REMARK minimizedAffinity -6.29183769
REMARK minimizedRMSD -1
REMARK  2 active torsions:
REMARK  status: ('A' for Active; 'I' for Inactive)
REMARK    1  A    between atoms: C2'_3  and  C1'_4 
REMARK    2  A    between atoms: C1'_4  and  C1_5 
ROOT
ATOM      1  C1  I4B d   1      -0.057  -0.083   0.243  0.00  0.00    -0.075 A 
ATOM      2  C2  I4B d   1      -1.101  -0.789   0.786  0.00  0.00     0.003 A 
ATOM      3  C3  I4B d   1      -1.073  -1.168   2.150  0.00  0.00     0.002 A 
ATOM      4  C4  I4B d   1       0.034  -0.866   2.917  0.00  0.00    -0.004 A 
ATOM      5  C5  I4B d   1       1.082  -0.130   2.371  0.00  0.00     0.002 A 
ATOM      6  C6  I4B d   1       1.031   0.275   1.029  0.00  0.00     0.003 A 
ENDROOT
BRANCH   1   7
ATOM      7  C1' I4B d   1      -0.104   0.273  -1.209  0.00  0.00     0.060 C 
BRANCH   7   8
ATOM      8  C2' I4B d   1       0.774  -0.708  -1.959  0.00  0.00    -0.013 C 
ATOM      9  C4' I4B d   1      -0.050  -1.778  -2.626  0.00  0.00     0.013 C 
ATOM     10  C3' I4B d   1       1.576   0.063  -2.963  0.00  0.00     0.013 C 
ENDBRANCH   7   8
ENDBRANCH   1   7
TORSDOF 2
ENDMDL
