MODEL 1
REMARK minimizedAffinity 1.56408095
REMARK minimizedRMSD -1
REMARK  2 active torsions:
REMARK  status: ('A' for Active; 'I' for Inactive)
REMARK    1  A    between atoms: C2'_3  and  C1'_4 
REMARK    2  A    between atoms: C1'_4  and  C1_5 
ROOT
ATOM      1  C1  I4B d   1       0.015   0.388   2.564  0.00  0.00    -0.075 A 
ATOM      2  C2  I4B d   1       0.875   1.299   3.124  0.00  0.00     0.003 A 
ATOM      3  C3  I4B d   1       1.962   1.807   2.373  0.00  0.00     0.002 A 
ATOM      4  C4  I4B d   1       2.180   1.342   1.092  0.00  0.00    -0.004 A 
ATOM      5  C5  I4B d   1       1.294   0.436   0.518  0.00  0.00     0.002 A 
ATOM      6  C6  I4B d   1       0.197  -0.036   1.254  0.00  0.00     0.003 A 
ENDROOT
BRANCH   1   7
ATOM      7  C1' I4B d   1      -1.104  -0.153   3.397  0.00  0.00     0.060 C 
BRANCH   7   8
ATOM      8  C2' I4B d   1      -2.307   0.748   3.205  0.00  0.00    -0.013 C 
ATOM      9  C4' I4B d   1      -2.004   2.160   3.631  0.00  0.00     0.013 C 
ATOM     10  C3' I4B d   1      -2.702   0.691   1.759  0.00  0.00     0.013 C 
ENDBRANCH   7   8
ENDBRANCH   1   7
TORSDOF 2
ENDMDL
