MODEL 1
REMARK minimizedAffinity -5.14903784
REMARK minimizedRMSD -1
REMARK  0 active torsions:
REMARK  status: ('A' for Active; 'I' for Inactive)
ROOT
ATOM      1  C   UNL d   1       2.595  -3.317   2.204  0.00  0.00     0.077 C 
ATOM      2  C1  UNL d   1       1.571  -2.382   1.632  0.00  0.00    -0.074 A 
ATOM      3  C2  UNL d   1       0.216  -2.520   1.948  0.00  0.00    -0.005 A 
ATOM      4  C3  UNL d   1      -0.724  -1.637   1.416  0.00  0.00     0.006 A 
ATOM      5  C4  UNL d   1      -0.318  -0.609   0.564  0.00  0.00    -0.005 A 
ATOM      6  C5  UNL d   1       1.033  -0.455   0.238  0.00  0.00    -0.074 A 
ATOM      7  C6  UNL d   1       1.488   0.651  -0.668  0.00  0.00     0.077 C 
ATOM      8  C7  UNL d   1       1.972  -1.342   0.782  0.00  0.00    -0.001 A 
ENDROOT
TORSDOF 0
ENDMDL
