MODEL 1
REMARK minimizedAffinity -4.71600771
REMARK minimizedRMSD -1
REMARK  0 active torsions:
REMARK  status: ('A' for Active; 'I' for Inactive)
ROOT
ATOM      1  C   UNL d   1      -0.894   1.106  -0.239  0.00  0.00     0.077 C 
ATOM      2  C1  UNL d   1       0.077  -0.008   0.017  0.00  0.00    -0.074 A 
ATOM      3  C2  UNL d   1       1.259  -0.116  -0.722  0.00  0.00    -0.005 A 
ATOM      4  C3  UNL d   1       2.157  -1.152  -0.466  0.00  0.00     0.006 A 
ATOM      5  C4  UNL d   1       1.882  -2.090   0.531  0.00  0.00    -0.005 A 
ATOM      6  C5  UNL d   1       0.705  -1.998   1.280  0.00  0.00    -0.074 A 
ATOM      7  C6  UNL d   1       0.399  -2.991   2.362  0.00  0.00     0.077 C 
ATOM      8  C7  UNL d   1      -0.189  -0.950   1.022  0.00  0.00    -0.001 A 
ENDROOT
TORSDOF 0
ENDMDL
