MODEL 1
REMARK minimizedAffinity -6.92382956
REMARK minimizedRMSD -1
REMARK  0 active torsions:
REMARK  status: ('A' for Active; 'I' for Inactive)
ROOT
ATOM      1  C   UNL d   1      -1.690  -1.456   3.192  0.00  0.00     0.077 C 
ATOM      2  C1  UNL d   1      -0.487  -1.653   2.318  0.00  0.00    -0.074 A 
ATOM      3  C2  UNL d   1       0.449  -2.654   2.597  0.00  0.00    -0.005 A 
ATOM      4  C3  UNL d   1       1.558  -2.831   1.770  0.00  0.00     0.006 A 
ATOM      5  C4  UNL d   1       1.742  -2.010   0.657  0.00  0.00    -0.005 A 
ATOM      6  C5  UNL d   1       0.816  -1.004   0.361  0.00  0.00    -0.074 A 
ATOM      7  C6  UNL d   1       0.993  -0.120  -0.837  0.00  0.00     0.077 C 
ATOM      8  C7  UNL d   1      -0.300  -0.837   1.193  0.00  0.00    -0.001 A 
ENDROOT
TORSDOF 0
ENDMDL
