MODEL 1
REMARK minimizedAffinity -5.57349634
REMARK minimizedRMSD -1
REMARK  0 active torsions:
REMARK  status: ('A' for Active; 'I' for Inactive)
ROOT
ATOM      1  C   UNL d   1       0.212  -0.092  -0.214  0.00  0.00     0.077 C 
ATOM      2  C1  UNL d   1       0.589  -1.068   0.860  0.00  0.00    -0.074 A 
ATOM      3  C2  UNL d   1       1.916  -1.480   1.023  0.00  0.00    -0.005 A 
ATOM      4  C3  UNL d   1       2.253  -2.381   2.033  0.00  0.00     0.006 A 
ATOM      5  C4  UNL d   1       1.270  -2.880   2.887  0.00  0.00    -0.005 A 
ATOM      6  C5  UNL d   1      -0.062  -2.480   2.740  0.00  0.00    -0.074 A 
ATOM      7  C6  UNL d   1      -1.130  -2.998   3.656  0.00  0.00     0.077 C 
ATOM      8  C7  UNL d   1      -0.392  -1.568   1.727  0.00  0.00    -0.001 A 
ENDROOT
TORSDOF 0
ENDMDL
