MODEL 1
REMARK minimizedAffinity -6.35108566
REMARK minimizedRMSD -1
REMARK  0 active torsions:
REMARK  status: ('A' for Active; 'I' for Inactive)
ROOT
ATOM      1  C   UNL d   1      -1.918  -1.221   2.707  0.00  0.00     0.077 C 
ATOM      2  C1  UNL d   1      -0.665  -1.538   1.947  0.00  0.00    -0.074 A 
ATOM      3  C2  UNL d   1       0.028  -2.732   2.170  0.00  0.00    -0.005 A 
ATOM      4  C3  UNL d   1       1.188  -3.018   1.449  0.00  0.00     0.006 A 
ATOM      5  C4  UNL d   1       1.665  -2.114   0.499  0.00  0.00    -0.005 A 
ATOM      6  C5  UNL d   1       0.985  -0.915   0.262  0.00  0.00    -0.074 A 
ATOM      7  C6  UNL d   1       1.478   0.063  -0.762  0.00  0.00     0.077 C 
ATOM      8  C7  UNL d   1      -0.183  -0.638   0.986  0.00  0.00    -0.001 A 
ENDROOT
TORSDOF 0
ENDMDL
