MODEL 1
REMARK minimizedAffinity -4.70307064
REMARK minimizedRMSD -1
REMARK  0 active torsions:
REMARK  status: ('A' for Active; 'I' for Inactive)
ROOT
ATOM      1  C   UNL d   1      -1.349   0.952  -0.044  0.00  0.00     0.077 C 
ATOM      2  C1  UNL d   1      -0.152   0.078   0.188  0.00  0.00    -0.074 A 
ATOM      3  C2  UNL d   1       1.074   0.362  -0.422  0.00  0.00    -0.005 A 
ATOM      4  C3  UNL d   1       2.181  -0.454  -0.190  0.00  0.00     0.006 A 
ATOM      5  C4  UNL d   1       2.073  -1.560   0.653  0.00  0.00    -0.005 A 
ATOM      6  C5  UNL d   1       0.856  -1.859   1.273  0.00  0.00    -0.074 A 
ATOM      7  C6  UNL d   1       0.726  -3.039   2.190  0.00  0.00     0.077 C 
ATOM      8  C7  UNL d   1      -0.250  -1.030   1.040  0.00  0.00    -0.001 A 
ENDROOT
TORSDOF 0
ENDMDL
