MODEL 1
REMARK minimizedAffinity -5.9622426
REMARK minimizedRMSD -1
REMARK  0 active torsions:
REMARK  status: ('A' for Active; 'I' for Inactive)
ROOT
ATOM      1  C   UNL d   1      -1.322  -1.525   3.250  0.00  0.00     0.077 C 
ATOM      2  C1  UNL d   1      -0.255  -1.865   2.253  0.00  0.00    -0.074 A 
ATOM      3  C2  UNL d   1       0.609  -2.945   2.463  0.00  0.00    -0.005 A 
ATOM      4  C3  UNL d   1       1.590  -3.255   1.522  0.00  0.00     0.006 A 
ATOM      5  C4  UNL d   1       1.719  -2.489   0.363  0.00  0.00    -0.005 A 
ATOM      6  C5  UNL d   1       0.864  -1.406   0.134  0.00  0.00    -0.074 A 
ATOM      7  C6  UNL d   1       0.982  -0.579  -1.111  0.00  0.00     0.077 C 
ATOM      8  C7  UNL d   1      -0.125  -1.106   1.081  0.00  0.00    -0.001 A 
ENDROOT
TORSDOF 0
ENDMDL
