MODEL 1
REMARK minimizedAffinity -3.3510747
REMARK minimizedRMSD -1
REMARK  0 active torsions:
REMARK  status: ('A' for Active; 'I' for Inactive)
ROOT
ATOM      1  C   UNL d   1      -1.016   1.953  -0.074  0.00  0.00     0.077 C 
ATOM      2  C1  UNL d   1      -1.390   2.279  -1.489  0.00  0.00    -0.074 A 
ATOM      3  C2  UNL d   1      -2.510   1.695  -2.089  0.00  0.00    -0.005 A 
ATOM      4  C3  UNL d   1      -2.852   2.015  -3.403  0.00  0.00     0.006 A 
ATOM      5  C4  UNL d   1      -2.078   2.921  -4.129  0.00  0.00    -0.005 A 
ATOM      6  C5  UNL d   1      -0.955   3.516  -3.546  0.00  0.00    -0.074 A 
ATOM      7  C6  UNL d   1      -0.118   4.499  -4.309  0.00  0.00     0.077 C 
ATOM      8  C7  UNL d   1      -0.622   3.195  -2.222  0.00  0.00    -0.001 A 
ENDROOT
TORSDOF 0
ENDMDL
