MODEL 1
REMARK minimizedAffinity -2.13968444
REMARK minimizedRMSD -1
REMARK  0 active torsions:
REMARK  status: ('A' for Active; 'I' for Inactive)
ROOT
ATOM      1  C   UNL d   1       0.761  -2.929  -1.029  0.00  0.00     0.077 C 
ATOM      2  C1  UNL d   1       0.580  -1.452  -0.842  0.00  0.00    -0.074 A 
ATOM      3  C2  UNL d   1       1.560  -0.682  -0.207  0.00  0.00    -0.005 A 
ATOM      4  C3  UNL d   1       1.382   0.692  -0.048  0.00  0.00     0.006 A 
ATOM      5  C4  UNL d   1       0.224   1.310  -0.523  0.00  0.00    -0.005 A 
ATOM      6  C5  UNL d   1      -0.766   0.557  -1.161  0.00  0.00    -0.074 A 
ATOM      7  C6  UNL d   1      -2.012   1.207  -1.685  0.00  0.00     0.077 C 
ATOM      8  C7  UNL d   1      -0.577  -0.823  -1.323  0.00  0.00    -0.001 A 
ENDROOT
TORSDOF 0
ENDMDL
