MODEL 1
REMARK minimizedAffinity -2.58707047
REMARK minimizedRMSD -1
REMARK  0 active torsions:
REMARK  status: ('A' for Active; 'I' for Inactive)
ROOT
ATOM      1  C   UNL d   1      -1.034  -0.404   1.166  0.00  0.00     0.077 C 
ATOM      2  C1  UNL d   1      -0.669  -0.335  -0.287  0.00  0.00    -0.074 A 
ATOM      3  C2  UNL d   1       0.508  -0.923  -0.761  0.00  0.00    -0.005 A 
ATOM      4  C3  UNL d   1       0.829  -0.860  -2.117  0.00  0.00     0.006 A 
ATOM      5  C4  UNL d   1      -0.022  -0.208  -3.011  0.00  0.00    -0.005 A 
ATOM      6  C5  UNL d   1      -1.204   0.385  -2.555  0.00  0.00    -0.074 A 
ATOM      7  C6  UNL d   1      -2.134   1.080  -3.504  0.00  0.00     0.077 C 
ATOM      8  C7  UNL d   1      -1.523   0.310  -1.192  0.00  0.00    -0.001 A 
ENDROOT
TORSDOF 0
ENDMDL
