MODEL 1
REMARK minimizedAffinity -4.7368288
REMARK minimizedRMSD -1
REMARK  0 active torsions:
REMARK  status: ('A' for Active; 'I' for Inactive)
ROOT
ATOM      1  C   UNL d   1      -0.479   1.066  -0.781  0.00  0.00     0.077 C 
ATOM      2  C1  UNL d   1       0.145  -0.092  -0.062  0.00  0.00    -0.074 A 
ATOM      3  C2  UNL d   1       1.454  -0.494  -0.347  0.00  0.00    -0.005 A 
ATOM      4  C3  UNL d   1       2.025  -1.568   0.336  0.00  0.00     0.006 A 
ATOM      5  C4  UNL d   1       1.294  -2.250   1.310  0.00  0.00    -0.005 A 
ATOM      6  C5  UNL d   1      -0.016  -1.861   1.609  0.00  0.00    -0.074 A 
ATOM      7  C6  UNL d   1      -0.812  -2.577   2.660  0.00  0.00     0.077 C 
ATOM      8  C7  UNL d   1      -0.580  -0.777   0.923  0.00  0.00    -0.001 A 
ENDROOT
TORSDOF 0
ENDMDL
