MODEL 1
REMARK minimizedAffinity 0.416642755
REMARK minimizedRMSD -1
REMARK  0 active torsions:
REMARK  status: ('A' for Active; 'I' for Inactive)
ROOT
ATOM      1  C   UNL d   1      -0.671   0.809  -0.447  0.00  0.00     0.077 C 
ATOM      2  C1  UNL d   1       0.356  -0.140   0.094  0.00  0.00    -0.074 A 
ATOM      3  C2  UNL d   1       1.565  -0.351  -0.578  0.00  0.00    -0.005 A 
ATOM      4  C3  UNL d   1       2.515  -1.229  -0.057  0.00  0.00     0.006 A 
ATOM      5  C4  UNL d   1       2.267  -1.905   1.138  0.00  0.00    -0.005 A 
ATOM      6  C5  UNL d   1       1.065  -1.706   1.825  0.00  0.00    -0.074 A 
ATOM      7  C6  UNL d   1       0.786  -2.416   3.116  0.00  0.00     0.077 C 
ATOM      8  C7  UNL d   1       0.118  -0.816   1.299  0.00  0.00    -0.001 A 
ENDROOT
TORSDOF 0
ENDMDL
