MODEL 1
REMARK minimizedAffinity -5.75748873
REMARK minimizedRMSD -1
REMARK  0 active torsions:
REMARK  status: ('A' for Active; 'I' for Inactive)
ROOT
ATOM      1  C   UNL d   1       0.022  -1.789   3.486  0.00  0.00     0.077 C 
ATOM      2  C1  UNL d   1       0.458  -1.297   2.138  0.00  0.00    -0.074 A 
ATOM      3  C2  UNL d   1       1.622  -1.784   1.537  0.00  0.00    -0.005 A 
ATOM      4  C3  UNL d   1       2.009  -1.325   0.278  0.00  0.00     0.006 A 
ATOM      5  C4  UNL d   1       1.237  -0.375  -0.391  0.00  0.00    -0.005 A 
ATOM      6  C5  UNL d   1       0.068   0.124   0.194  0.00  0.00    -0.074 A 
ATOM      7  C6  UNL d   1      -0.779   1.138  -0.516  0.00  0.00     0.077 C 
ATOM      8  C7  UNL d   1      -0.318  -0.349   1.456  0.00  0.00    -0.001 A 
ENDROOT
TORSDOF 0
ENDMDL
