MODEL 1
REMARK minimizedAffinity -4.07217598
REMARK minimizedRMSD -1
REMARK  0 active torsions:
REMARK  status: ('A' for Active; 'I' for Inactive)
ROOT
ATOM      1  C   UNL d   1       0.067  -1.658   3.119  0.00  0.00     0.077 C 
ATOM      2  C1  UNL d   1       0.472  -1.161   1.763  0.00  0.00    -0.074 A 
ATOM      3  C2  UNL d   1       1.692  -1.539   1.194  0.00  0.00    -0.005 A 
ATOM      4  C3  UNL d   1       2.051  -1.076  -0.072  0.00  0.00     0.006 A 
ATOM      5  C4  UNL d   1       1.194  -0.233  -0.781  0.00  0.00    -0.005 A 
ATOM      6  C5  UNL d   1      -0.031   0.155  -0.228  0.00  0.00    -0.074 A 
ATOM      7  C6  UNL d   1      -0.967   1.053  -0.981  0.00  0.00     0.077 C 
ATOM      8  C7  UNL d   1      -0.387  -0.320   1.042  0.00  0.00    -0.001 A 
ENDROOT
TORSDOF 0
ENDMDL
