MODEL 1
REMARK minimizedAffinity -3.15761852
REMARK minimizedRMSD -1
REMARK  0 active torsions:
REMARK  status: ('A' for Active; 'I' for Inactive)
ROOT
ATOM      1  C   UNL d   1      -1.464  -1.992   3.277  0.00  0.00     0.077 C 
ATOM      2  C1  UNL d   1      -0.320  -1.858   2.317  0.00  0.00    -0.074 A 
ATOM      3  C2  UNL d   1       0.932  -2.410   2.609  0.00  0.00    -0.005 A 
ATOM      4  C3  UNL d   1       1.984  -2.286   1.702  0.00  0.00     0.006 A 
ATOM      5  C4  UNL d   1       1.796  -1.610   0.496  0.00  0.00    -0.005 A 
ATOM      6  C5  UNL d   1       0.552  -1.052   0.186  0.00  0.00    -0.074 A 
ATOM      7  C6  UNL d   1       0.330  -0.331  -1.110  0.00  0.00     0.077 C 
ATOM      8  C7  UNL d   1      -0.503  -1.187   1.100  0.00  0.00    -0.001 A 
ENDROOT
TORSDOF 0
ENDMDL
