MODEL 1
REMARK minimizedAffinity -2.44317293
REMARK minimizedRMSD -1
REMARK  0 active torsions:
REMARK  status: ('A' for Active; 'I' for Inactive)
ROOT
ATOM      1  C   UNL d   1       1.179  -0.966  -0.147  0.00  0.00     0.077 C 
ATOM      2  C1  UNL d   1       0.138   0.009  -0.612  0.00  0.00    -0.074 A 
ATOM      3  C2  UNL d   1      -0.001   1.258   0.001  0.00  0.00    -0.005 A 
ATOM      4  C3  UNL d   1      -0.967   2.158  -0.449  0.00  0.00     0.006 A 
ATOM      5  C4  UNL d   1      -1.803   1.818  -1.513  0.00  0.00    -0.005 A 
ATOM      6  C5  UNL d   1      -1.679   0.573  -2.138  0.00  0.00    -0.074 A 
ATOM      7  C6  UNL d   1      -2.563   0.195  -3.289  0.00  0.00     0.077 C 
ATOM      8  C7  UNL d   1      -0.700  -0.323  -1.685  0.00  0.00    -0.001 A 
ENDROOT
TORSDOF 0
ENDMDL
