MODEL 1
REMARK minimizedAffinity -4.60931301
REMARK minimizedRMSD -1
REMARK  0 active torsions:
REMARK  status: ('A' for Active; 'I' for Inactive)
ROOT
ATOM      1  C   UNL d   1      -0.849   1.138  -0.990  0.00  0.00     0.077 C 
ATOM      2  C1  UNL d   1       0.089   0.168  -0.335  0.00  0.00    -0.074 A 
ATOM      3  C2  UNL d   1       1.333  -0.124  -0.902  0.00  0.00    -0.005 A 
ATOM      4  C3  UNL d   1       2.199  -1.020  -0.276  0.00  0.00     0.006 A 
ATOM      5  C4  UNL d   1       1.830  -1.633   0.922  0.00  0.00    -0.005 A 
ATOM      6  C5  UNL d   1       0.590  -1.353   1.505  0.00  0.00    -0.074 A 
ATOM      7  C6  UNL d   1       0.182  -1.995   2.798  0.00  0.00     0.077 C 
ATOM      8  C7  UNL d   1      -0.271  -0.445   0.873  0.00  0.00    -0.001 A 
ENDROOT
TORSDOF 0
ENDMDL
