MODEL 1
REMARK minimizedAffinity -3.32526326
REMARK minimizedRMSD -1
REMARK  0 active torsions:
REMARK  status: ('A' for Active; 'I' for Inactive)
ROOT
ATOM      1  C   UNL d   1      -0.934   1.115  -0.504  0.00  0.00     0.077 C 
ATOM      2  C1  UNL d   1      -0.143   0.029   0.162  0.00  0.00    -0.074 A 
ATOM      3  C2  UNL d   1       1.031  -0.463  -0.417  0.00  0.00    -0.005 A 
ATOM      4  C3  UNL d   1       1.762  -1.467   0.219  0.00  0.00     0.006 A 
ATOM      5  C4  UNL d   1       1.326  -1.988   1.438  0.00  0.00    -0.005 A 
ATOM      6  C5  UNL d   1       0.155  -1.507   2.032  0.00  0.00    -0.074 A 
ATOM      7  C6  UNL d   1      -0.322  -2.050   3.347  0.00  0.00     0.077 C 
ATOM      8  C7  UNL d   1      -0.570  -0.494   1.390  0.00  0.00    -0.001 A 
ENDROOT
TORSDOF 0
ENDMDL
