MODEL 1
REMARK minimizedAffinity -5.94403315
REMARK minimizedRMSD -1
REMARK  0 active torsions:
REMARK  status: ('A' for Active; 'I' for Inactive)
ROOT
ATOM      1  C1  DEN d   1       1.996  -1.616   1.158  0.00  0.00     0.130 A 
ATOM      2  C2  DEN d   1       2.937  -1.138   0.148  0.00  0.00    -0.031 A 
ATOM      3  C3  DEN d   1       2.330   0.028  -0.525  0.00  0.00     0.027 A 
ATOM      4  C4  DEN d   1       0.041   1.138  -0.100  0.00  0.00     0.027 A 
ATOM      5  C5  DEN d   1      -1.113   1.079   0.649  0.00  0.00    -0.003 A 
ATOM      6  C6  DEN d   1      -1.325   0.106   1.589  0.00  0.00     0.001 A 
ATOM      7  C7  DEN d   1      -0.348  -0.823   1.837  0.00  0.00     0.017 A 
ATOM      8  C8  DEN d   1       0.815  -0.774   1.080  0.00  0.00    -0.094 A 
ATOM      9  C9  DEN d   1       1.015   0.225   0.143  0.00  0.00    -0.072 A 
ENDROOT
TORSDOF 0
ENDMDL
