MODEL 1
REMARK minimizedAffinity -5.28630686
REMARK minimizedRMSD -1
REMARK  0 active torsions:
REMARK  status: ('A' for Active; 'I' for Inactive)
ROOT
ATOM      1  C1  DEN d   1       2.544   0.365  -0.264  0.00  0.00     0.130 A 
ATOM      2  C2  DEN d   1       3.015  -0.954   0.149  0.00  0.00    -0.031 A 
ATOM      3  C3  DEN d   1       1.918  -1.625   0.874  0.00  0.00     0.027 A 
ATOM      4  C4  DEN d   1      -0.455  -0.756   1.391  0.00  0.00     0.027 A 
ATOM      5  C5  DEN d   1      -1.314   0.312   1.253  0.00  0.00    -0.003 A 
ATOM      6  C6  DEN d   1      -0.939   1.476   0.635  0.00  0.00     0.001 A 
ATOM      7  C7  DEN d   1       0.313   1.583   0.091  0.00  0.00     0.017 A 
ATOM      8  C8  DEN d   1       1.188   0.513   0.233  0.00  0.00    -0.094 A 
ATOM      9  C9  DEN d   1       0.786  -0.660   0.850  0.00  0.00    -0.072 A 
ENDROOT
TORSDOF 0
ENDMDL
