MODEL 1
REMARK minimizedAffinity -4.78128004
REMARK minimizedRMSD -1
REMARK  0 active torsions:
REMARK  status: ('A' for Active; 'I' for Inactive)
ROOT
ATOM      1  C1  DEN d   1      -0.832  -0.125   0.860  0.00  0.00     0.130 A 
ATOM      2  C2  DEN d   1      -1.135   1.095   0.117  0.00  0.00    -0.031 A 
ATOM      3  C3  DEN d   1       0.126   1.605  -0.458  0.00  0.00     0.027 A 
ATOM      4  C4  DEN d   1       2.505   0.625  -0.276  0.00  0.00     0.027 A 
ATOM      5  C5  DEN d   1       3.261  -0.393   0.261  0.00  0.00    -0.003 A 
ATOM      6  C6  DEN d   1       2.717  -1.366   1.056  0.00  0.00     0.001 A 
ATOM      7  C7  DEN d   1       1.369  -1.368   1.301  0.00  0.00     0.017 A 
ATOM      8  C8  DEN d   1       0.601  -0.340   0.769  0.00  0.00    -0.094 A 
ATOM      9  C9  DEN d   1       1.168   0.628  -0.042  0.00  0.00    -0.072 A 
ENDROOT
TORSDOF 0
ENDMDL
