MODEL 1
REMARK minimizedAffinity -1.61844683
REMARK minimizedRMSD -1
REMARK  0 active torsions:
REMARK  status: ('A' for Active; 'I' for Inactive)
ROOT
ATOM      1  C1  DEN d   1      -0.260  -2.256   1.363  0.00  0.00     0.130 A 
ATOM      2  C2  DEN d   1       1.117  -2.739   1.297  0.00  0.00    -0.031 A 
ATOM      3  C3  DEN d   1       1.933  -1.701   0.636  0.00  0.00     0.027 A 
ATOM      4  C4  DEN d   1       1.204   0.596  -0.284  0.00  0.00     0.027 A 
ATOM      5  C5  DEN d   1       0.134   1.443  -0.467  0.00  0.00    -0.003 A 
ATOM      6  C6  DEN d   1      -1.138   1.106  -0.087  0.00  0.00     0.001 A 
ATOM      7  C7  DEN d   1      -1.364  -0.092   0.537  0.00  0.00     0.017 A 
ATOM      8  C8  DEN d   1      -0.292  -0.955   0.718  0.00  0.00    -0.094 A 
ATOM      9  C9  DEN d   1       0.989  -0.591   0.339  0.00  0.00    -0.072 A 
ENDROOT
TORSDOF 0
ENDMDL
