MODEL 1
REMARK minimizedAffinity -4.02342033
REMARK minimizedRMSD -1
REMARK  0 active torsions:
REMARK  status: ('A' for Active; 'I' for Inactive)
ROOT
ATOM      1  C1  DEN d   1      -1.320   0.502  -0.410  0.00  0.00     0.130 A 
ATOM      2  C2  DEN d   1      -1.280   1.779  -1.118  0.00  0.00    -0.031 A 
ATOM      3  C3  DEN d   1       0.133   2.101  -1.399  0.00  0.00     0.027 A 
ATOM      4  C4  DEN d   1       2.252   0.751  -0.814  0.00  0.00     0.027 A 
ATOM      5  C5  DEN d   1       2.723  -0.391  -0.205  0.00  0.00    -0.003 A 
ATOM      6  C6  DEN d   1       1.889  -1.291   0.403  0.00  0.00     0.001 A 
ATOM      7  C7  DEN d   1       0.534  -1.087   0.376  0.00  0.00     0.017 A 
ATOM      8  C8  DEN d   1       0.053   0.066  -0.230  0.00  0.00    -0.094 A 
ATOM      9  C9  DEN d   1       0.911   0.958  -0.850  0.00  0.00    -0.072 A 
ENDROOT
TORSDOF 0
ENDMDL
