MODEL 1
REMARK minimizedAffinity -2.07246709
REMARK minimizedRMSD -1
REMARK  0 active torsions:
REMARK  status: ('A' for Active; 'I' for Inactive)
ROOT
ATOM      1  C1  DEN d   1      -1.223   0.253   0.221  0.00  0.00     0.130 A 
ATOM      2  C2  DEN d   1      -1.161   1.316  -0.777  0.00  0.00    -0.031 A 
ATOM      3  C3  DEN d   1       0.230   1.406  -1.264  0.00  0.00     0.027 A 
ATOM      4  C4  DEN d   1       2.283   0.005  -0.575  0.00  0.00     0.027 A 
ATOM      5  C5  DEN d   1       2.726  -1.009   0.246  0.00  0.00    -0.003 A 
ATOM      6  C6  DEN d   1       1.899  -1.645   1.133  0.00  0.00     0.001 A 
ATOM      7  C7  DEN d   1       0.573  -1.304   1.188  0.00  0.00     0.017 A 
ATOM      8  C8  DEN d   1       0.120  -0.278   0.369  0.00  0.00    -0.094 A 
ATOM      9  C9  DEN d   1       0.970   0.344  -0.530  0.00  0.00    -0.072 A 
ENDROOT
TORSDOF 0
ENDMDL
