MODEL 1
REMARK minimizedAffinity -4.48795176
REMARK minimizedRMSD -1
REMARK  0 active torsions:
REMARK  status: ('A' for Active; 'I' for Inactive)
ROOT
ATOM      1  C1  DEN d   1      -1.343  -0.358   0.320  0.00  0.00     0.130 A 
ATOM      2  C2  DEN d   1      -1.268   1.026  -0.137  0.00  0.00    -0.031 A 
ATOM      3  C3  DEN d   1       0.155   1.362  -0.346  0.00  0.00     0.027 A 
ATOM      4  C4  DEN d   1       2.237  -0.123  -0.012  0.00  0.00     0.027 A 
ATOM      5  C5  DEN d   1       2.677  -1.369   0.376  0.00  0.00    -0.003 A 
ATOM      6  C6  DEN d   1       1.818  -2.347   0.801  0.00  0.00     0.001 A 
ATOM      7  C7  DEN d   1       0.468  -2.109   0.806  0.00  0.00     0.017 A 
ATOM      8  C8  DEN d   1       0.018  -0.853   0.424  0.00  0.00    -0.094 A 
ATOM      9  C9  DEN d   1       0.902   0.119  -0.015  0.00  0.00    -0.072 A 
ENDROOT
TORSDOF 0
ENDMDL
