MODEL 1
REMARK minimizedAffinity -0.299045593
REMARK minimizedRMSD -1
REMARK  0 active torsions:
REMARK  status: ('A' for Active; 'I' for Inactive)
ROOT
ATOM      1  C1  DEN d   1      -0.699   4.490  -5.036  0.00  0.00     0.130 A 
ATOM      2  C2  DEN d   1       0.558   5.003  -4.497  0.00  0.00    -0.031 A 
ATOM      3  C3  DEN d   1       0.913   4.191  -3.315  0.00  0.00     0.027 A 
ATOM      4  C4  DEN d   1      -0.352   2.197  -2.277  0.00  0.00     0.027 A 
ATOM      5  C5  DEN d   1      -1.473   1.403  -2.378  0.00  0.00    -0.003 A 
ATOM      6  C6  DEN d   1      -2.424   1.603  -3.344  0.00  0.00     0.001 A 
ATOM      7  C7  DEN d   1      -2.249   2.592  -4.275  0.00  0.00     0.017 A 
ATOM      8  C8  DEN d   1      -1.125   3.401  -4.175  0.00  0.00    -0.094 A 
ATOM      9  C9  DEN d   1      -0.169   3.176  -3.199  0.00  0.00    -0.072 A 
ENDROOT
TORSDOF 0
ENDMDL
