MODEL 1
REMARK minimizedAffinity -4.39029312
REMARK minimizedRMSD -1
REMARK  0 active torsions:
REMARK  status: ('A' for Active; 'I' for Inactive)
ROOT
ATOM      1  C1  DEN d   1      -1.228  -0.197   0.528  0.00  0.00     0.130 A 
ATOM      2  C2  DEN d   1      -1.031   1.166   0.044  0.00  0.00    -0.031 A 
ATOM      3  C3  DEN d   1       0.409   1.352  -0.225  0.00  0.00     0.027 A 
ATOM      4  C4  DEN d   1       2.342  -0.332   0.054  0.00  0.00     0.027 A 
ATOM      5  C5  DEN d   1       2.669  -1.611   0.447  0.00  0.00    -0.003 A 
ATOM      6  C6  DEN d   1       1.732  -2.491   0.922  0.00  0.00     0.001 A 
ATOM      7  C7  DEN d   1       0.415  -2.117   0.974  0.00  0.00     0.017 A 
ATOM      8  C8  DEN d   1       0.079  -0.826   0.587  0.00  0.00    -0.094 A 
ATOM      9  C9  DEN d   1       1.039   0.044   0.098  0.00  0.00    -0.072 A 
ENDROOT
TORSDOF 0
ENDMDL
