MODEL 1
REMARK minimizedAffinity -4.29167032
REMARK minimizedRMSD -1
REMARK  0 active torsions:
REMARK  status: ('A' for Active; 'I' for Inactive)
ROOT
ATOM      1  C1  DEN d   1       0.580   0.917   1.012  0.00  0.00     0.130 A 
ATOM      2  C2  DEN d   1      -0.292   1.577   0.045  0.00  0.00    -0.031 A 
ATOM      3  C3  DEN d   1      -0.787   0.554  -0.898  0.00  0.00     0.027 A 
ATOM      4  C4  DEN d   1      -0.295  -1.977  -0.949  0.00  0.00     0.027 A 
ATOM      5  C5  DEN d   1       0.398  -2.999  -0.338  0.00  0.00    -0.003 A 
ATOM      6  C6  DEN d   1       1.220  -2.783   0.736  0.00  0.00     0.001 A 
ATOM      7  C7  DEN d   1       1.334  -1.523   1.261  0.00  0.00     0.017 A 
ATOM      8  C8  DEN d   1       0.645  -0.487   0.645  0.00  0.00    -0.094 A 
ATOM      9  C9  DEN d   1      -0.190  -0.727  -0.432  0.00  0.00    -0.072 A 
ENDROOT
TORSDOF 0
ENDMDL
