MODEL 1
REMARK minimizedAffinity -1.53650582
REMARK minimizedRMSD -1
REMARK  0 active torsions:
REMARK  status: ('A' for Active; 'I' for Inactive)
ROOT
ATOM      1  C1  DEN d   1       1.045   0.791   0.099  0.00  0.00     0.130 A 
ATOM      2  C2  DEN d   1       2.493   0.694  -0.059  0.00  0.00    -0.031 A 
ATOM      3  C3  DEN d   1       2.879  -0.720   0.116  0.00  0.00     0.027 A 
ATOM      4  C4  DEN d   1       1.380  -2.761   0.609  0.00  0.00     0.027 A 
ATOM      5  C5  DEN d   1       0.087  -3.175   0.839  0.00  0.00    -0.003 A 
ATOM      6  C6  DEN d   1      -0.965  -2.298   0.872  0.00  0.00     0.001 A 
ATOM      7  C7  DEN d   1      -0.748  -0.968   0.627  0.00  0.00     0.017 A 
ATOM      8  C8  DEN d   1       0.555  -0.542   0.401  0.00  0.00    -0.094 A 
ATOM      9  C9  DEN d   1       1.603  -1.446   0.360  0.00  0.00    -0.072 A 
ENDROOT
TORSDOF 0
ENDMDL
