MODEL 1
REMARK minimizedAffinity -5.2307992
REMARK minimizedRMSD -1
REMARK  0 active torsions:
REMARK  status: ('A' for Active; 'I' for Inactive)
ROOT
ATOM      1  C1  DEN d   1      -1.066  -0.768  -0.037  0.00  0.00     0.130 A 
ATOM      2  C2  DEN d   1      -0.946   0.661  -0.316  0.00  0.00    -0.031 A 
ATOM      3  C3  DEN d   1       0.477   1.034  -0.182  0.00  0.00     0.027 A 
ATOM      4  C4  DEN d   1       2.495  -0.454   0.423  0.00  0.00     0.027 A 
ATOM      5  C5  DEN d   1       2.887  -1.731   0.758  0.00  0.00    -0.003 A 
ATOM      6  C6  DEN d   1       1.993  -2.760   0.884  0.00  0.00     0.001 A 
ATOM      7  C7  DEN d   1       0.665  -2.541   0.629  0.00  0.00     0.017 A 
ATOM      8  C8  DEN d   1       0.260  -1.254   0.298  0.00  0.00    -0.094 A 
ATOM      9  C9  DEN d   1       1.182  -0.230   0.164  0.00  0.00    -0.072 A 
ENDROOT
TORSDOF 0
ENDMDL
