MODEL 1
REMARK minimizedAffinity -0.0995942503
REMARK minimizedRMSD -1
REMARK  0 active torsions:
REMARK  status: ('A' for Active; 'I' for Inactive)
ROOT
ATOM      1  C1  DEN d   1      -0.019  -1.862   0.583  0.00  0.00     0.130 A 
ATOM      2  C2  DEN d   1      -1.120  -1.074   0.035  0.00  0.00    -0.031 A 
ATOM      3  C3  DEN d   1      -0.594   0.260  -0.319  0.00  0.00     0.027 A 
ATOM      4  C4  DEN d   1       1.805   1.176  -0.077  0.00  0.00     0.027 A 
ATOM      5  C5  DEN d   1       3.081   0.881   0.349  0.00  0.00    -0.003 A 
ATOM      6  C6  DEN d   1       3.404  -0.327   0.908  0.00  0.00     0.001 A 
ATOM      7  C7  DEN d   1       2.447  -1.302   1.017  0.00  0.00     0.017 A 
ATOM      8  C8  DEN d   1       1.156  -1.009   0.597  0.00  0.00    -0.094 A 
ATOM      9  C9  DEN d   1       0.853   0.213   0.022  0.00  0.00    -0.072 A 
ENDROOT
TORSDOF 0
ENDMDL
