MODEL 1
REMARK minimizedAffinity 1.74151278
REMARK minimizedRMSD -1
REMARK  0 active torsions:
REMARK  status: ('A' for Active; 'I' for Inactive)
ROOT
ATOM      1  C   UNL d   1       0.845   5.999   0.051  0.00  0.00     0.023 A 
ATOM      2  C1  UNL d   1       0.004   4.887   0.007  0.00  0.00     0.003 A 
ATOM      3  C2  UNL d   1       0.305   3.752   0.762  0.00  0.00     0.048 A 
ATOM      4  C3  UNL d   1       1.448   3.736   1.561  0.00  0.00     0.023 A 
ATOM      5  C4  UNL d   1       2.291   4.847   1.610  0.00  0.00     0.048 A 
ATOM      6  C5  UNL d   1       1.987   5.980   0.852  0.00  0.00     0.003 A 
ATOM      7  I   UNL d   1       1.897   2.048   2.687  0.00  0.00    -0.146 I 
ENDROOT
TORSDOF 0
ENDMDL
