MODEL 1
REMARK minimizedAffinity 5.04179525
REMARK minimizedRMSD -1
REMARK  0 active torsions:
REMARK  status: ('A' for Active; 'I' for Inactive)
ROOT
ATOM      1  C   UNL d   1       4.888  -3.988  -4.038  0.00  0.00     0.023 A 
ATOM      2  C1  UNL d   1       4.413  -5.261  -3.722  0.00  0.00     0.003 A 
ATOM      3  C2  UNL d   1       4.730  -5.840  -2.491  0.00  0.00     0.048 A 
ATOM      4  C3  UNL d   1       5.521  -5.140  -1.581  0.00  0.00     0.023 A 
ATOM      5  C4  UNL d   1       5.998  -3.866  -1.893  0.00  0.00     0.048 A 
ATOM      6  C5  UNL d   1       5.679  -3.291  -3.125  0.00  0.00     0.003 A 
ATOM      7  I   UNL d   1       5.993  -5.999   0.252  0.00  0.00    -0.146 I 
ENDROOT
TORSDOF 0
ENDMDL
