MODEL 1
REMARK minimizedAffinity 16.9400768
REMARK minimizedRMSD -1
REMARK  0 active torsions:
REMARK  status: ('A' for Active; 'I' for Inactive)
ROOT
ATOM      1  C   UNL d   1       5.992  -1.607  -1.489  0.00  0.00     0.023 A 
ATOM      2  C1  UNL d   1       5.999  -2.132  -2.781  0.00  0.00     0.003 A 
ATOM      3  C2  UNL d   1       5.396  -3.365  -3.038  0.00  0.00     0.048 A 
ATOM      4  C3  UNL d   1       4.786  -4.067  -1.999  0.00  0.00     0.023 A 
ATOM      5  C4  UNL d   1       4.776  -3.545  -0.704  0.00  0.00     0.048 A 
ATOM      6  C5  UNL d   1       5.382  -2.313  -0.452  0.00  0.00     0.003 A 
ATOM      7  I   UNL d   1       3.887  -5.902  -2.379  0.00  0.00    -0.146 I 
ENDROOT
TORSDOF 0
ENDMDL
