MODEL 1
REMARK minimizedAffinity 9.5684166
REMARK minimizedRMSD -1
REMARK  0 active torsions:
REMARK  status: ('A' for Active; 'I' for Inactive)
ROOT
ATOM      1  C   UNL d   1       2.285  -2.021  -0.253  0.00  0.00     0.023 A 
ATOM      2  C1  UNL d   1       1.312  -2.884  -0.757  0.00  0.00     0.003 A 
ATOM      3  C2  UNL d   1       0.167  -2.367  -1.367  0.00  0.00     0.048 A 
ATOM      4  C3  UNL d   1       0.002  -0.986  -1.470  0.00  0.00     0.023 A 
ATOM      5  C4  UNL d   1       0.973  -0.119  -0.967  0.00  0.00     0.048 A 
ATOM      6  C5  UNL d   1       2.116  -0.640  -0.358  0.00  0.00     0.003 A 
ATOM      7  I   UNL d   1      -1.702  -0.215  -2.377  0.00  0.00    -0.146 I 
ENDROOT
TORSDOF 0
ENDMDL
