MODEL 1
REMARK minimizedAffinity 15.2907362
REMARK minimizedRMSD -1
REMARK  0 active torsions:
REMARK  status: ('A' for Active; 'I' for Inactive)
ROOT
ATOM      1  C   UNL d   1       6.000  -1.754  -2.142  0.00  0.00     0.023 A 
ATOM      2  C1  UNL d   1       5.790  -2.345  -3.388  0.00  0.00     0.003 A 
ATOM      3  C2  UNL d   1       5.111  -3.561  -3.480  0.00  0.00     0.048 A 
ATOM      4  C3  UNL d   1       4.643  -4.182  -2.322  0.00  0.00     0.023 A 
ATOM      5  C4  UNL d   1       4.851  -3.594  -1.073  0.00  0.00     0.048 A 
ATOM      6  C5  UNL d   1       5.531  -2.378  -0.986  0.00  0.00     0.003 A 
ATOM      7  I   UNL d   1       3.632  -5.992  -2.457  0.00  0.00    -0.146 I 
ENDROOT
TORSDOF 0
ENDMDL
