MODEL 1
REMARK minimizedAffinity 8.13762856
REMARK minimizedRMSD -1
REMARK  0 active torsions:
REMARK  status: ('A' for Active; 'I' for Inactive)
ROOT
ATOM      1  C   UNL d   1      -0.566  -2.459  -1.692  0.00  0.00     0.023 A 
ATOM      2  C1  UNL d   1      -0.738  -3.716  -2.271  0.00  0.00     0.003 A 
ATOM      3  C2  UNL d   1       0.369  -4.528  -2.524  0.00  0.00     0.048 A 
ATOM      4  C3  UNL d   1       1.647  -4.077  -2.193  0.00  0.00     0.023 A 
ATOM      5  C4  UNL d   1       1.824  -2.820  -1.612  0.00  0.00     0.048 A 
ATOM      6  C5  UNL d   1       0.713  -2.012  -1.363  0.00  0.00     0.003 A 
ATOM      7  I   UNL d   1       3.297  -5.283  -2.568  0.00  0.00    -0.146 I 
ENDROOT
TORSDOF 0
ENDMDL
