MODEL 1
REMARK minimizedAffinity 15.9798012
REMARK minimizedRMSD -1
REMARK  0 active torsions:
REMARK  status: ('A' for Active; 'I' for Inactive)
ROOT
ATOM      1  C   UNL d   1       0.969  -2.040   4.313  0.00  0.00     0.023 A 
ATOM      2  C1  UNL d   1       0.483  -0.922   4.991  0.00  0.00     0.003 A 
ATOM      3  C2  UNL d   1       1.219   0.264   5.003  0.00  0.00     0.048 A 
ATOM      4  C3  UNL d   1       2.440   0.327   4.333  0.00  0.00     0.023 A 
ATOM      5  C4  UNL d   1       2.931  -0.789   3.652  0.00  0.00     0.048 A 
ATOM      6  C5  UNL d   1       2.192  -1.973   3.644  0.00  0.00     0.003 A 
ATOM      7  I   UNL d   1       3.538   2.092   4.349  0.00  0.00    -0.146 I 
ENDROOT
TORSDOF 0
ENDMDL
