MODEL 1
REMARK minimizedAffinity 16.6870842
REMARK minimizedRMSD -1
REMARK  0 active torsions:
REMARK  status: ('A' for Active; 'I' for Inactive)
ROOT
ATOM      1  C   UNL d   1       0.877   5.014  -0.084  0.00  0.00     0.023 A 
ATOM      2  C1  UNL d   1      -0.500   5.196  -0.214  0.00  0.00     0.003 A 
ATOM      3  C2  UNL d   1      -1.384   4.268   0.340  0.00  0.00     0.048 A 
ATOM      4  C3  UNL d   1      -0.884   3.160   1.024  0.00  0.00     0.023 A 
ATOM      5  C4  UNL d   1       0.493   2.974   1.157  0.00  0.00     0.048 A 
ATOM      6  C5  UNL d   1       1.373   3.904   0.600  0.00  0.00     0.003 A 
ATOM      7  I   UNL d   1      -2.197   1.778   1.850  0.00  0.00    -0.146 I 
ENDROOT
TORSDOF 0
ENDMDL
