MODEL 1
REMARK minimizedAffinity 12.8627806
REMARK minimizedRMSD -1
REMARK  0 active torsions:
REMARK  status: ('A' for Active; 'I' for Inactive)
ROOT
ATOM      1  C   UNL d   1       4.940  -1.100  -0.004  0.00  0.00     0.023 A 
ATOM      2  C1  UNL d   1       3.862  -1.985   0.002  0.00  0.00     0.003 A 
ATOM      3  C2  UNL d   1       3.842  -3.070  -0.877  0.00  0.00     0.048 A 
ATOM      4  C3  UNL d   1       4.904  -3.264  -1.759  0.00  0.00     0.023 A 
ATOM      5  C4  UNL d   1       5.985  -2.381  -1.769  0.00  0.00     0.048 A 
ATOM      6  C5  UNL d   1       6.000  -1.297  -0.889  0.00  0.00     0.003 A 
ATOM      7  I   UNL d   1       4.877  -4.878  -3.068  0.00  0.00    -0.146 I 
ENDROOT
TORSDOF 0
ENDMDL
