MODEL 1
REMARK minimizedAffinity 16.7224045
REMARK minimizedRMSD -1
REMARK  0 active torsions:
REMARK  status: ('A' for Active; 'I' for Inactive)
ROOT
ATOM      1  C   UNL d   1       1.862  -1.360   4.073  0.00  0.00     0.023 A 
ATOM      2  C1  UNL d   1       2.446  -1.037   5.298  0.00  0.00     0.003 A 
ATOM      3  C2  UNL d   1       3.416  -1.875   5.852  0.00  0.00     0.048 A 
ATOM      4  C3  UNL d   1       3.798  -3.033   5.176  0.00  0.00     0.023 A 
ATOM      5  C4  UNL d   1       3.217  -3.360   3.950  0.00  0.00     0.048 A 
ATOM      6  C5  UNL d   1       2.247  -2.519   3.399  0.00  0.00     0.003 A 
ATOM      7  I   UNL d   1       5.241  -4.282   6.000  0.00  0.00    -0.146 I 
ENDROOT
TORSDOF 0
ENDMDL
