MODEL 1
REMARK minimizedAffinity -2.4510324
REMARK minimizedRMSD -1
REMARK  1 active torsions:
REMARK  status: ('A' for Active; 'I' for Inactive)
REMARK    1  A    between atoms: C1_2  and  C2_3 
ROOT
ATOM      1  C2  UNL d   1       0.167   0.539   0.401  0.00  0.00    -0.076 A 
ATOM      2  C3  UNL d   1      -0.065   0.003   1.679  0.00  0.00     0.004 A 
ATOM      3  C4  UNL d   1      -0.687  -1.235   1.836  0.00  0.00    -0.003 A 
ATOM      4  C5  UNL d   1      -1.087  -1.956   0.716  0.00  0.00     0.000 A 
ATOM      5  C6  UNL d   1      -0.848  -1.448  -0.560  0.00  0.00     0.000 A 
ATOM      6  C7  UNL d   1      -0.207  -0.209  -0.736  0.00  0.00    -0.073 A 
ATOM      7  C8  UNL d   1       0.019   0.295  -2.135  0.00  0.00     0.078 C 
ENDROOT
BRANCH   1   8
ATOM      8  C1  UNL d   1       0.821   1.898   0.293  0.00  0.00     0.053 C 
ATOM      9  C   UNL d   1      -0.179   3.037   0.413  0.00  0.00     0.018 C 
ENDBRANCH   1   8
TORSDOF 1
ENDMDL
