MODEL 1
REMARK minimizedAffinity -3.01090908
REMARK minimizedRMSD -1
REMARK  1 active torsions:
REMARK  status: ('A' for Active; 'I' for Inactive)
REMARK    1  A    between atoms: C1_2  and  C2_3 
ROOT
ATOM      1  C2  UNL d   1      -0.106   0.256  -0.098  0.00  0.00    -0.076 A 
ATOM      2  C3  UNL d   1      -0.464   0.208   1.261  0.00  0.00     0.004 A 
ATOM      3  C4  UNL d   1      -0.825  -0.995   1.866  0.00  0.00    -0.003 A 
ATOM      4  C5  UNL d   1      -0.835  -2.169   1.122  0.00  0.00     0.000 A 
ATOM      5  C6  UNL d   1      -0.466  -2.143  -0.222  0.00  0.00     0.000 A 
ATOM      6  C7  UNL d   1      -0.083  -0.942  -0.843  0.00  0.00    -0.073 A 
ATOM      7  C8  UNL d   1       0.299  -0.971  -2.298  0.00  0.00     0.078 C 
ENDROOT
BRANCH   1   8
ATOM      8  C1  UNL d   1       0.250   1.593  -0.706  0.00  0.00     0.053 C 
ATOM      9  C   UNL d   1       0.958   2.511   0.278  0.00  0.00     0.018 C 
ENDBRANCH   1   8
TORSDOF 1
ENDMDL
