MODEL 1
REMARK minimizedAffinity 1.81019759
REMARK minimizedRMSD -1
REMARK  1 active torsions:
REMARK  status: ('A' for Active; 'I' for Inactive)
REMARK    1  A    between atoms: C1_2  and  C2_3 
ROOT
ATOM      1  C2  UNL d   1      -1.515  -0.165   1.419  0.00  0.00    -0.076 A 
ATOM      2  C3  UNL d   1      -0.855   1.039   1.117  0.00  0.00     0.004 A 
ATOM      3  C4  UNL d   1      -0.159   1.195  -0.081  0.00  0.00    -0.003 A 
ATOM      4  C5  UNL d   1      -0.114   0.150  -0.997  0.00  0.00     0.000 A 
ATOM      5  C6  UNL d   1      -0.778  -1.045  -0.722  0.00  0.00     0.000 A 
ATOM      6  C7  UNL d   1      -1.497  -1.213   0.474  0.00  0.00    -0.073 A 
ATOM      7  C8  UNL d   1      -2.189  -2.525   0.721  0.00  0.00     0.078 C 
ENDROOT
BRANCH   1   8
ATOM      8  C1  UNL d   1      -2.230  -0.286   2.746  0.00  0.00     0.053 C 
ATOM      9  C   UNL d   1      -3.401   0.676   2.866  0.00  0.00     0.018 C 
ENDBRANCH   1   8
TORSDOF 1
ENDMDL
