MODEL 1
REMARK minimizedAffinity -4.23763609
REMARK minimizedRMSD -1
REMARK  1 active torsions:
REMARK  status: ('A' for Active; 'I' for Inactive)
REMARK    1  A    between atoms: C1_2  and  C2_3 
ROOT
ATOM      1  C2  UNL d   1       0.561  -0.775  -0.305  0.00  0.00    -0.076 A 
ATOM      2  C3  UNL d   1       0.703  -1.707   0.738  0.00  0.00     0.004 A 
ATOM      3  C4  UNL d   1       0.485  -3.066   0.521  0.00  0.00    -0.003 A 
ATOM      4  C5  UNL d   1       0.120  -3.516  -0.743  0.00  0.00     0.000 A 
ATOM      5  C6  UNL d   1      -0.009  -2.608  -1.793  0.00  0.00     0.000 A 
ATOM      6  C7  UNL d   1       0.224  -1.236  -1.595  0.00  0.00    -0.073 A 
ATOM      7  C8  UNL d   1       0.064  -0.301  -2.762  0.00  0.00     0.078 C 
ENDROOT
BRANCH   1   8
ATOM      8  C1  UNL d   1       0.784   0.689  -0.003  0.00  0.00     0.053 C 
ATOM      9  C   UNL d   1      -0.500   1.408   0.380  0.00  0.00     0.018 C 
ENDBRANCH   1   8
TORSDOF 1
ENDMDL
