MODEL 1
REMARK minimizedAffinity 0.359625638
REMARK minimizedRMSD -1
REMARK  1 active torsions:
REMARK  status: ('A' for Active; 'I' for Inactive)
REMARK    1  A    between atoms: C1_2  and  C2_3 
ROOT
ATOM      1  C2  UNL d   1      -0.348  -0.406  -0.581  0.00  0.00    -0.076 A 
ATOM      2  C3  UNL d   1      -1.170  -1.539  -0.452  0.00  0.00     0.004 A 
ATOM      3  C4  UNL d   1      -1.635  -1.949   0.797  0.00  0.00    -0.003 A 
ATOM      4  C5  UNL d   1      -1.287  -1.232   1.936  0.00  0.00     0.000 A 
ATOM      5  C6  UNL d   1      -0.487  -0.095   1.824  0.00  0.00     0.000 A 
ATOM      6  C7  UNL d   1      -0.023   0.341   0.572  0.00  0.00    -0.073 A 
ATOM      7  C8  UNL d   1       0.842   1.570   0.510  0.00  0.00     0.078 C 
ENDROOT
BRANCH   1   8
ATOM      8  C1  UNL d   1       0.149  -0.025  -1.957  0.00  0.00     0.053 C 
ATOM      9  C   UNL d   1       0.452  -1.238  -2.824  0.00  0.00     0.018 C 
ENDBRANCH   1   8
TORSDOF 1
ENDMDL
