MODEL 1
REMARK minimizedAffinity -0.684887171
REMARK minimizedRMSD -1
REMARK  1 active torsions:
REMARK  status: ('A' for Active; 'I' for Inactive)
REMARK    1  A    between atoms: C1_2  and  C2_3 
ROOT
ATOM      1  C2  UNL d   1       0.592   0.890  -0.168  0.00  0.00    -0.076 A 
ATOM      2  C3  UNL d   1      -0.026   0.532   1.043  0.00  0.00     0.004 A 
ATOM      3  C4  UNL d   1      -0.973  -0.490   1.090  0.00  0.00    -0.003 A 
ATOM      4  C5  UNL d   1      -1.317  -1.170  -0.073  0.00  0.00     0.000 A 
ATOM      5  C6  UNL d   1      -0.701  -0.840  -1.280  0.00  0.00     0.000 A 
ATOM      6  C7  UNL d   1       0.267   0.177  -1.342  0.00  0.00    -0.073 A 
ATOM      7  C8  UNL d   1       0.895   0.496  -2.671  0.00  0.00     0.078 C 
ENDROOT
BRANCH   1   8
ATOM      8  C1  UNL d   1       1.592   2.024  -0.163  0.00  0.00     0.053 C 
ATOM      9  C   UNL d   1       1.181   3.159   0.763  0.00  0.00     0.018 C 
ENDBRANCH   1   8
TORSDOF 1
ENDMDL
