MODEL 1
REMARK minimizedAffinity -1.85099602
REMARK minimizedRMSD -1
REMARK  1 active torsions:
REMARK  status: ('A' for Active; 'I' for Inactive)
REMARK    1  A    between atoms: C1_2  and  C2_3 
ROOT
ATOM      1  C2  UNL d   1      -0.097  -0.925  -0.558  0.00  0.00    -0.076 A 
ATOM      2  C3  UNL d   1      -0.651  -2.123  -0.075  0.00  0.00     0.004 A 
ATOM      3  C4  UNL d   1      -0.949  -2.281   1.278  0.00  0.00    -0.003 A 
ATOM      4  C5  UNL d   1      -0.698  -1.244   2.169  0.00  0.00     0.000 A 
ATOM      5  C6  UNL d   1      -0.164  -0.043   1.704  0.00  0.00     0.000 A 
ATOM      6  C7  UNL d   1       0.126   0.140   0.341  0.00  0.00    -0.073 A 
ATOM      7  C8  UNL d   1       0.706   1.454  -0.104  0.00  0.00     0.078 C 
ENDROOT
BRANCH   1   8
ATOM      8  C1  UNL d   1       0.231  -0.821  -2.030  0.00  0.00     0.053 C 
ATOM      9  C   UNL d   1       0.122  -2.157  -2.748  0.00  0.00     0.018 C 
ENDBRANCH   1   8
TORSDOF 1
ENDMDL
