MODEL 1
REMARK minimizedAffinity -4.01332188
REMARK minimizedRMSD -1
REMARK  1 active torsions:
REMARK  status: ('A' for Active; 'I' for Inactive)
REMARK    1  A    between atoms: C1_2  and  C2_3 
ROOT
ATOM      1  C2  UNL d   1       0.007  -0.143  -0.443  0.00  0.00    -0.076 A 
ATOM      2  C3  UNL d   1       0.329  -0.235  -1.808  0.00  0.00     0.004 A 
ATOM      3  C4  UNL d   1       0.131  -1.421  -2.514  0.00  0.00    -0.003 A 
ATOM      4  C5  UNL d   1      -0.394  -2.534  -1.866  0.00  0.00     0.000 A 
ATOM      5  C6  UNL d   1      -0.735  -2.455  -0.516  0.00  0.00     0.000 A 
ATOM      6  C7  UNL d   1      -0.557  -1.262   0.206  0.00  0.00    -0.073 A 
ATOM      7  C8  UNL d   1      -0.937  -1.236   1.661  0.00  0.00     0.078 C 
ENDROOT
BRANCH   1   8
ATOM      8  C1  UNL d   1       0.269   1.161   0.277  0.00  0.00     0.053 C 
ATOM      9  C   UNL d   1       0.831   2.232  -0.645  0.00  0.00     0.018 C 
ENDBRANCH   1   8
TORSDOF 1
ENDMDL
