MODEL 1
REMARK minimizedAffinity -2.35038519
REMARK minimizedRMSD -1
REMARK  1 active torsions:
REMARK  status: ('A' for Active; 'I' for Inactive)
REMARK    1  A    between atoms: C1_2  and  C2_3 
ROOT
ATOM      1  C2  UNL d   1      -0.481  -1.377  -1.121  0.00  0.00    -0.076 A 
ATOM      2  C3  UNL d   1      -0.662  -2.368  -0.141  0.00  0.00     0.004 A 
ATOM      3  C4  UNL d   1      -0.842  -2.029   1.199  0.00  0.00    -0.003 A 
ATOM      4  C5  UNL d   1      -0.844  -0.691   1.580  0.00  0.00     0.000 A 
ATOM      5  C6  UNL d   1      -0.683   0.306   0.619  0.00  0.00     0.000 A 
ATOM      6  C7  UNL d   1      -0.517  -0.019  -0.738  0.00  0.00    -0.073 A 
ATOM      7  C8  UNL d   1      -0.342   1.097  -1.731  0.00  0.00     0.078 C 
ENDROOT
BRANCH   1   8
ATOM      8  C1  UNL d   1      -0.263  -1.807  -2.554  0.00  0.00     0.053 C 
ATOM      9  C   UNL d   1      -0.447  -3.304  -2.748  0.00  0.00     0.018 C 
ENDBRANCH   1   8
TORSDOF 1
ENDMDL
