MODEL 1
REMARK minimizedAffinity -3.28190398
REMARK minimizedRMSD -1
REMARK  1 active torsions:
REMARK  status: ('A' for Active; 'I' for Inactive)
REMARK    1  A    between atoms: C1_2  and  C2_3 
ROOT
ATOM      1  C2  UNL d   1       0.309   0.181   0.400  0.00  0.00    -0.076 A 
ATOM      2  C3  UNL d   1       0.661   0.315   1.755  0.00  0.00     0.004 A 
ATOM      3  C4  UNL d   1       1.168   1.515   2.249  0.00  0.00    -0.003 A 
ATOM      4  C5  UNL d   1       1.330   2.602   1.397  0.00  0.00     0.000 A 
ATOM      5  C6  UNL d   1       0.969   2.493   0.055  0.00  0.00     0.000 A 
ATOM      6  C7  UNL d   1       0.442   1.295  -0.456  0.00  0.00    -0.073 A 
ATOM      7  C8  UNL d   1       0.075   1.231  -1.914  0.00  0.00     0.078 C 
ENDROOT
BRANCH   1   8
ATOM      8  C1  UNL d   1      -0.211  -1.154  -0.085  0.00  0.00     0.053 C 
ATOM      9  C   UNL d   1      -0.973  -1.909   0.993  0.00  0.00     0.018 C 
ENDBRANCH   1   8
TORSDOF 1
ENDMDL
