MODEL 1
REMARK minimizedAffinity -2.76667762
REMARK minimizedRMSD -1
REMARK  1 active torsions:
REMARK  status: ('A' for Active; 'I' for Inactive)
REMARK    1  A    between atoms: C1_2  and  C2_3 
ROOT
ATOM      1  C2  UNL d   1      -0.225  -0.011  -0.008  0.00  0.00    -0.076 A 
ATOM      2  C3  UNL d   1      -0.514  -0.083   1.366  0.00  0.00     0.004 A 
ATOM      3  C4  UNL d   1      -1.048  -1.241   1.927  0.00  0.00    -0.003 A 
ATOM      4  C5  UNL d   1      -1.302  -2.347   1.124  0.00  0.00     0.000 A 
ATOM      5  C6  UNL d   1      -1.006  -2.300  -0.238  0.00  0.00     0.000 A 
ATOM      6  C7  UNL d   1      -0.452  -1.145  -0.817  0.00  0.00    -0.073 A 
ATOM      7  C8  UNL d   1      -0.158  -1.148  -2.292  0.00  0.00     0.078 C 
ENDROOT
BRANCH   1   8
ATOM      8  C1  UNL d   1       0.328   1.281  -0.566  0.00  0.00     0.053 C 
ATOM      9  C   UNL d   1       1.181   2.033   0.443  0.00  0.00     0.018 C 
ENDBRANCH   1   8
TORSDOF 1
ENDMDL
