MODEL 1
REMARK minimizedAffinity -3.55741978
REMARK minimizedRMSD -1
REMARK  1 active torsions:
REMARK  status: ('A' for Active; 'I' for Inactive)
REMARK    1  A    between atoms: C1_2  and  C2_3 
ROOT
ATOM      1  C2  UNL d   1      -0.292  -0.081  -0.457  0.00  0.00    -0.076 A 
ATOM      2  C3  UNL d   1      -0.755  -0.065   0.871  0.00  0.00     0.004 A 
ATOM      3  C4  UNL d   1      -1.087  -1.248   1.529  0.00  0.00    -0.003 A 
ATOM      4  C5  UNL d   1      -0.959  -2.467   0.871  0.00  0.00     0.000 A 
ATOM      5  C6  UNL d   1      -0.485  -2.503  -0.439  0.00  0.00     0.000 A 
ATOM      6  C7  UNL d   1      -0.131  -1.321  -1.112  0.00  0.00    -0.073 A 
ATOM      7  C8  UNL d   1       0.370  -1.418  -2.527  0.00  0.00     0.078 C 
ENDROOT
BRANCH   1   8
ATOM      8  C1  UNL d   1       0.025   1.235  -1.129  0.00  0.00     0.053 C 
ATOM      9  C   UNL d   1       0.508   2.290  -0.145  0.00  0.00     0.018 C 
ENDBRANCH   1   8
TORSDOF 1
ENDMDL
