MODEL 1
REMARK minimizedAffinity -3.65175009
REMARK minimizedRMSD -1
REMARK  0 active torsions:
REMARK  status: ('A' for Active; 'I' for Inactive)
ROOT
ATOM      1  C1  BNZ d   1       2.280  -1.511   0.964  0.00  0.00     0.000 A 
ATOM      2  C2  BNZ d   1       1.450  -0.935   0.040  0.00  0.00     0.000 A 
ATOM      3  C3  BNZ d   1       0.275  -0.351   0.423  0.00  0.00     0.000 A 
ATOM      4  C4  BNZ d   1      -0.088  -0.380   1.721  0.00  0.00     0.000 A 
ATOM      5  C5  BNZ d   1       0.734  -0.965   2.664  0.00  0.00     0.000 A 
ATOM      6  C6  BNZ d   1       1.935  -1.517   2.280  0.00  0.00     0.000 A 
ENDROOT
TORSDOF 0
ENDMDL
