MODEL 1
REMARK minimizedAffinity -5.18041039
REMARK minimizedRMSD -1
REMARK  0 active torsions:
REMARK  status: ('A' for Active; 'I' for Inactive)
ROOT
ATOM      1  C1  BNZ d   1       2.039  -1.148   1.544  0.00  0.00     0.000 A 
ATOM      2  C2  BNZ d   1       1.085  -0.933   0.585  0.00  0.00     0.000 A 
ATOM      3  C3  BNZ d   1      -0.103  -0.334   0.902  0.00  0.00     0.000 A 
ATOM      4  C4  BNZ d   1      -0.350   0.012   2.182  0.00  0.00     0.000 A 
ATOM      5  C5  BNZ d   1       0.598  -0.206   3.161  0.00  0.00     0.000 A 
ATOM      6  C6  BNZ d   1       1.808  -0.774   2.832  0.00  0.00     0.000 A 
ENDROOT
TORSDOF 0
ENDMDL
