MODEL 1
REMARK minimizedAffinity -4.41158724
REMARK minimizedRMSD -1
REMARK  0 active torsions:
REMARK  status: ('A' for Active; 'I' for Inactive)
ROOT
ATOM      1  C1  BNZ d   1      -1.458  -0.759   1.095  0.00  0.00     0.000 A 
ATOM      2  C2  BNZ d   1      -0.932  -0.498  -0.142  0.00  0.00     0.000 A 
ATOM      3  C3  BNZ d   1       0.421  -0.452  -0.331  0.00  0.00     0.000 A 
ATOM      4  C4  BNZ d   1       1.244  -0.626   0.723  0.00  0.00     0.000 A 
ATOM      5  C5  BNZ d   1       0.728  -0.881   1.978  0.00  0.00     0.000 A 
ATOM      6  C6  BNZ d   1      -0.633  -0.965   2.157  0.00  0.00     0.000 A 
ENDROOT
TORSDOF 0
ENDMDL
