MODEL 1
REMARK minimizedAffinity -4.32652426
REMARK minimizedRMSD -1
REMARK  0 active torsions:
REMARK  status: ('A' for Active; 'I' for Inactive)
ROOT
ATOM      1  C1  BNZ d   1      -0.765   0.215  -0.176  0.00  0.00     0.000 A 
ATOM      2  C2  BNZ d   1      -1.105   0.031   1.137  0.00  0.00     0.000 A 
ATOM      3  C3  BNZ d   1      -0.169  -0.356   2.055  0.00  0.00     0.000 A 
ATOM      4  C4  BNZ d   1       1.095  -0.597   1.651  0.00  0.00     0.000 A 
ATOM      5  C5  BNZ d   1       1.451  -0.425   0.329  0.00  0.00     0.000 A 
ATOM      6  C6  BNZ d   1       0.515   0.003  -0.585  0.00  0.00     0.000 A 
ENDROOT
TORSDOF 0
ENDMDL
