MODEL 1
REMARK minimizedAffinity -3.77909088
REMARK minimizedRMSD -1
REMARK  0 active torsions:
REMARK  status: ('A' for Active; 'I' for Inactive)
ROOT
ATOM      1  C1  BNZ d   1       1.936  -0.577   1.864  0.00  0.00     0.000 A 
ATOM      2  C2  BNZ d   1       1.335  -0.114   0.724  0.00  0.00     0.000 A 
ATOM      3  C3  BNZ d   1      -0.019  -0.206   0.560  0.00  0.00     0.000 A 
ATOM      4  C4  BNZ d   1      -0.764  -0.797   1.516  0.00  0.00     0.000 A 
ATOM      5  C5  BNZ d   1      -0.172  -1.277   2.667  0.00  0.00     0.000 A 
ATOM      6  C6  BNZ d   1       1.187  -1.147   2.846  0.00  0.00     0.000 A 
ENDROOT
TORSDOF 0
ENDMDL
