MODEL 1
REMARK minimizedAffinity -3.82522631
REMARK minimizedRMSD -1
REMARK  0 active torsions:
REMARK  status: ('A' for Active; 'I' for Inactive)
ROOT
ATOM      1  C1  BNZ d   1      -0.526  -0.397   1.643  0.00  0.00     0.000 A 
ATOM      2  C2  BNZ d   1      -1.317  -0.398   0.525  0.00  0.00     0.000 A 
ATOM      3  C3  BNZ d   1      -0.797  -0.091  -0.701  0.00  0.00     0.000 A 
ATOM      4  C4  BNZ d   1       0.503   0.256  -0.802  0.00  0.00     0.000 A 
ATOM      5  C5  BNZ d   1       1.311   0.271   0.317  0.00  0.00     0.000 A 
ATOM      6  C6  BNZ d   1       0.793  -0.077   1.544  0.00  0.00     0.000 A 
ENDROOT
TORSDOF 0
ENDMDL
