MODEL 1
REMARK minimizedAffinity -3.33448434
REMARK minimizedRMSD -1
REMARK  0 active torsions:
REMARK  status: ('A' for Active; 'I' for Inactive)
ROOT
ATOM      1  C1  BNZ d   1      -0.504  -1.216   2.220  0.00  0.00     0.000 A 
ATOM      2  C2  BNZ d   1      -1.217  -0.712   1.165  0.00  0.00     0.000 A 
ATOM      3  C3  BNZ d   1      -0.629   0.124   0.258  0.00  0.00     0.000 A 
ATOM      4  C4  BNZ d   1       0.659   0.487   0.429  0.00  0.00     0.000 A 
ATOM      5  C5  BNZ d   1       1.388  -0.005   1.492  0.00  0.00     0.000 A 
ATOM      6  C6  BNZ d   1       0.804  -0.878   2.381  0.00  0.00     0.000 A 
ENDROOT
TORSDOF 0
ENDMDL
