MODEL 1
REMARK minimizedAffinity -4.19071817
REMARK minimizedRMSD -1
REMARK  0 active torsions:
REMARK  status: ('A' for Active; 'I' for Inactive)
ROOT
ATOM      1  C1  BNZ d   1       1.893  -1.195   3.052  0.00  0.00     0.000 A 
ATOM      2  C2  BNZ d   1       1.701  -0.168   2.166  0.00  0.00     0.000 A 
ATOM      3  C3  BNZ d   1       1.704  -0.397   0.819  0.00  0.00     0.000 A 
ATOM      4  C4  BNZ d   1       1.938  -1.643   0.358  0.00  0.00     0.000 A 
ATOM      5  C5  BNZ d   1       2.143  -2.687   1.238  0.00  0.00     0.000 A 
ATOM      6  C6  BNZ d   1       2.100  -2.460   2.595  0.00  0.00     0.000 A 
ENDROOT
TORSDOF 0
ENDMDL
