MODEL 1
REMARK minimizedAffinity -3.33258533
REMARK minimizedRMSD -1
REMARK  0 active torsions:
REMARK  status: ('A' for Active; 'I' for Inactive)
ROOT
ATOM      1  C1  BNZ d   1       1.176  -0.871   1.237  0.00  0.00     0.000 A 
ATOM      2  C2  BNZ d   1      -0.072  -0.452   1.614  0.00  0.00     0.000 A 
ATOM      3  C3  BNZ d   1      -0.986  -0.049   0.682  0.00  0.00     0.000 A 
ATOM      4  C4  BNZ d   1      -0.638  -0.027  -0.621  0.00  0.00     0.000 A 
ATOM      5  C5  BNZ d   1       0.619  -0.438  -1.016  0.00  0.00     0.000 A 
ATOM      6  C6  BNZ d   1       1.524  -0.880  -0.078  0.00  0.00     0.000 A 
ENDROOT
TORSDOF 0
ENDMDL
