MODEL 1
REMARK minimizedAffinity -4.19857311
REMARK minimizedRMSD -1
REMARK  0 active torsions:
REMARK  status: ('A' for Active; 'I' for Inactive)
ROOT
ATOM      1  C1  BNZ d   1       2.269  -0.745   0.938  0.00  0.00     0.000 A 
ATOM      2  C2  BNZ d   1       1.874  -1.072   2.208  0.00  0.00     0.000 A 
ATOM      3  C3  BNZ d   1       0.548  -1.183   2.522  0.00  0.00     0.000 A 
ATOM      4  C4  BNZ d   1      -0.380  -0.928   1.577  0.00  0.00     0.000 A 
ATOM      5  C5  BNZ d   1       0.002  -0.588   0.295  0.00  0.00     0.000 A 
ATOM      6  C6  BNZ d   1       1.338  -0.516  -0.027  0.00  0.00     0.000 A 
ENDROOT
TORSDOF 0
ENDMDL
