MODEL 1
REMARK minimizedAffinity 1.31002307
REMARK minimizedRMSD -1
REMARK  0 active torsions:
REMARK  status: ('A' for Active; 'I' for Inactive)
ROOT
ATOM      1  C1  BNZ d   1       1.256   2.209   1.539  0.00  0.00     0.000 A 
ATOM      2  C2  BNZ d   1       1.249   3.204   2.480  0.00  0.00     0.000 A 
ATOM      3  C3  BNZ d   1       0.075   3.651   3.018  0.00  0.00     0.000 A 
ATOM      4  C4  BNZ d   1      -1.092   3.132   2.585  0.00  0.00     0.000 A 
ATOM      5  C5  BNZ d   1      -1.103   2.136   1.630  0.00  0.00     0.000 A 
ATOM      6  C6  BNZ d   1       0.083   1.661   1.119  0.00  0.00     0.000 A 
ENDROOT
TORSDOF 0
ENDMDL
