MODEL 1
REMARK minimizedAffinity -2.22454357
REMARK minimizedRMSD -1
REMARK  0 active torsions:
REMARK  status: ('A' for Active; 'I' for Inactive)
ROOT
ATOM      1  C1  BNZ d   1      -0.902   2.250  -5.981  0.00  0.00     0.000 A 
ATOM      2  C2  BNZ d   1       0.423   2.599  -5.991  0.00  0.00     0.000 A 
ATOM      3  C3  BNZ d   1       0.801   3.912  -5.980  0.00  0.00     0.000 A 
ATOM      4  C4  BNZ d   1      -0.144   4.874  -5.999  0.00  0.00     0.000 A 
ATOM      5  C5  BNZ d   1      -1.483   4.539  -5.997  0.00  0.00     0.000 A 
ATOM      6  C6  BNZ d   1      -1.860   3.216  -5.969  0.00  0.00     0.000 A 
ENDROOT
TORSDOF 0
ENDMDL
