MODEL 1
REMARK minimizedAffinity -1.56575918
REMARK minimizedRMSD -1
REMARK  0 active torsions:
REMARK  status: ('A' for Active; 'I' for Inactive)
ROOT
ATOM      1  C1  BNZ d   1      -1.048   4.989  -6.000  0.00  0.00     0.000 A 
ATOM      2  C2  BNZ d   1      -2.368   4.624  -5.999  0.00  0.00     0.000 A 
ATOM      3  C3  BNZ d   1      -2.730   3.306  -5.973  0.00  0.00     0.000 A 
ATOM      4  C4  BNZ d   1      -1.773   2.355  -5.989  0.00  0.00     0.000 A 
ATOM      5  C5  BNZ d   1      -0.438   2.707  -6.000  0.00  0.00     0.000 A 
ATOM      6  C6  BNZ d   1      -0.078   4.035  -5.986  0.00  0.00     0.000 A 
ENDROOT
TORSDOF 0
ENDMDL
