MODEL 1
REMARK minimizedAffinity -2.90169811
REMARK minimizedRMSD -1
REMARK  0 active torsions:
REMARK  status: ('A' for Active; 'I' for Inactive)
ROOT
ATOM      1  C1  BNZ d   1      -1.255   4.622  -5.990  0.00  0.00     0.000 A 
ATOM      2  C2  BNZ d   1      -1.389   3.259  -5.982  0.00  0.00     0.000 A 
ATOM      3  C3  BNZ d   1      -0.289   2.448  -5.958  0.00  0.00     0.000 A 
ATOM      4  C4  BNZ d   1       0.942   2.999  -5.982  0.00  0.00     0.000 A 
ATOM      5  C5  BNZ d   1       1.093   4.371  -6.000  0.00  0.00     0.000 A 
ATOM      6  C6  BNZ d   1      -0.016   5.185  -5.985  0.00  0.00     0.000 A 
ENDROOT
TORSDOF 0
ENDMDL
