MODEL 1
REMARK minimizedAffinity -2.42032576
REMARK minimizedRMSD -1
REMARK  0 active torsions:
REMARK  status: ('A' for Active; 'I' for Inactive)
ROOT
ATOM      1  C1  BNZ d   1      -0.003   4.398  -5.985  0.00  0.00     0.000 A 
ATOM      2  C2  BNZ d   1      -1.095   5.225  -5.999  0.00  0.00     0.000 A 
ATOM      3  C3  BNZ d   1      -2.362   4.711  -5.987  0.00  0.00     0.000 A 
ATOM      4  C4  BNZ d   1      -2.535   3.373  -6.000  0.00  0.00     0.000 A 
ATOM      5  C5  BNZ d   1      -1.444   2.527  -5.995  0.00  0.00     0.000 A 
ATOM      6  C6  BNZ d   1      -0.170   3.048  -5.968  0.00  0.00     0.000 A 
ENDROOT
TORSDOF 0
ENDMDL
