MODEL 1
REMARK minimizedAffinity -2.91067195
REMARK minimizedRMSD -1
REMARK  0 active torsions:
REMARK  status: ('A' for Active; 'I' for Inactive)
ROOT
ATOM      1  C1  BNZ d   1      -0.895   3.379  -5.994  0.00  0.00     0.000 A 
ATOM      2  C2  BNZ d   1      -0.461   4.678  -5.989  0.00  0.00     0.000 A 
ATOM      3  C3  BNZ d   1      -1.353   5.714  -5.962  0.00  0.00     0.000 A 
ATOM      4  C4  BNZ d   1      -2.675   5.450  -5.981  0.00  0.00     0.000 A 
ATOM      5  C5  BNZ d   1      -3.128   4.146  -5.996  0.00  0.00     0.000 A 
ATOM      6  C6  BNZ d   1      -2.228   3.106  -5.984  0.00  0.00     0.000 A 
ENDROOT
TORSDOF 0
ENDMDL
