MODEL 1
REMARK minimizedAffinity -2.10156608
REMARK minimizedRMSD -1
REMARK  0 active torsions:
REMARK  status: ('A' for Active; 'I' for Inactive)
ROOT
ATOM      1  C1  BNZ d   1      -1.909   4.217  -5.992  0.00  0.00     0.000 A 
ATOM      2  C2  BNZ d   1      -1.320   2.981  -6.000  0.00  0.00     0.000 A 
ATOM      3  C3  BNZ d   1       0.041   2.855  -5.983  0.00  0.00     0.000 A 
ATOM      4  C4  BNZ d   1       0.810   3.963  -5.999  0.00  0.00     0.000 A 
ATOM      5  C5  BNZ d   1       0.231   5.216  -6.000  0.00  0.00     0.000 A 
ATOM      6  C6  BNZ d   1      -1.139   5.339  -5.977  0.00  0.00     0.000 A 
ENDROOT
TORSDOF 0
ENDMDL
