MODEL 1
REMARK minimizedAffinity -2.41670179
REMARK minimizedRMSD -1
REMARK  0 active torsions:
REMARK  status: ('A' for Active; 'I' for Inactive)
ROOT
ATOM      1  C1  BNZ d   1      -0.298   4.837  -5.986  0.00  0.00     0.000 A 
ATOM      2  C2  BNZ d   1      -1.599   5.264  -5.996  0.00  0.00     0.000 A 
ATOM      3  C3  BNZ d   1      -2.630   4.367  -5.982  0.00  0.00     0.000 A 
ATOM      4  C4  BNZ d   1      -2.360   3.045  -5.999  0.00  0.00     0.000 A 
ATOM      5  C5  BNZ d   1      -1.053   2.599  -5.999  0.00  0.00     0.000 A 
ATOM      6  C6  BNZ d   1      -0.018   3.505  -5.974  0.00  0.00     0.000 A 
ENDROOT
TORSDOF 0
ENDMDL
