MODEL 1
REMARK minimizedAffinity -1.11716628
REMARK minimizedRMSD -1
REMARK  0 active torsions:
REMARK  status: ('A' for Active; 'I' for Inactive)
ROOT
ATOM      1  C1  BNZ d   1      -0.189   2.987  -6.000  0.00  0.00     0.000 A 
ATOM      2  C2  BNZ d   1      -1.415   2.378  -5.995  0.00  0.00     0.000 A 
ATOM      3  C3  BNZ d   1      -2.565   3.117  -5.999  0.00  0.00     0.000 A 
ATOM      4  C4  BNZ d   1      -2.488   4.463  -5.967  0.00  0.00     0.000 A 
ATOM      5  C5  BNZ d   1      -1.259   5.093  -5.961  0.00  0.00     0.000 A 
ATOM      6  C6  BNZ d   1      -0.104   4.346  -5.997  0.00  0.00     0.000 A 
ENDROOT
TORSDOF 0
ENDMDL
