MODEL 1
REMARK minimizedAffinity -2.53868628
REMARK minimizedRMSD -1
REMARK  0 active torsions:
REMARK  status: ('A' for Active; 'I' for Inactive)
ROOT
ATOM      1  C1  BNZ d   1      -1.511   2.613  -5.979  0.00  0.00     0.000 A 
ATOM      2  C2  BNZ d   1      -2.514   3.546  -5.974  0.00  0.00     0.000 A 
ATOM      3  C3  BNZ d   1      -2.227   4.882  -5.999  0.00  0.00     0.000 A 
ATOM      4  C4  BNZ d   1      -0.939   5.284  -5.989  0.00  0.00     0.000 A 
ATOM      5  C5  BNZ d   1       0.083   4.356  -5.985  0.00  0.00     0.000 A 
ATOM      6  C6  BNZ d   1      -0.210   3.012  -5.999  0.00  0.00     0.000 A 
ENDROOT
TORSDOF 0
ENDMDL
