MODEL 1
REMARK minimizedAffinity -1.13394368
REMARK minimizedRMSD -1
REMARK  0 active torsions:
REMARK  status: ('A' for Active; 'I' for Inactive)
ROOT
ATOM      1  C1  BNZ d   1      -1.126   5.538  -5.994  0.00  0.00     0.000 A 
ATOM      2  C2  BNZ d   1      -2.443   5.162  -5.994  0.00  0.00     0.000 A 
ATOM      3  C3  BNZ d   1      -2.793   3.841  -5.971  0.00  0.00     0.000 A 
ATOM      4  C4  BNZ d   1      -1.828   2.899  -5.989  0.00  0.00     0.000 A 
ATOM      5  C5  BNZ d   1      -0.496   3.262  -5.998  0.00  0.00     0.000 A 
ATOM      6  C6  BNZ d   1      -0.147   4.593  -5.982  0.00  0.00     0.000 A 
ENDROOT
TORSDOF 0
ENDMDL
