MODEL 1
REMARK minimizedAffinity -2.51676416
REMARK minimizedRMSD -1
REMARK  0 active torsions:
REMARK  status: ('A' for Active; 'I' for Inactive)
ROOT
ATOM      1  C1  BNZ d   1      -0.145   3.821  -5.966  0.00  0.00     0.000 A 
ATOM      2  C2  BNZ d   1      -0.787   5.031  -5.977  0.00  0.00     0.000 A 
ATOM      3  C3  BNZ d   1      -2.152   5.099  -5.973  0.00  0.00     0.000 A 
ATOM      4  C4  BNZ d   1      -2.873   3.959  -5.998  0.00  0.00     0.000 A 
ATOM      5  C5  BNZ d   1      -2.240   2.732  -5.996  0.00  0.00     0.000 A 
ATOM      6  C6  BNZ d   1      -0.866   2.667  -5.961  0.00  0.00     0.000 A 
ENDROOT
TORSDOF 0
ENDMDL
