MODEL 1
REMARK minimizedAffinity -2.57687926
REMARK minimizedRMSD -1
REMARK  0 active torsions:
REMARK  status: ('A' for Active; 'I' for Inactive)
ROOT
ATOM      1  C1  BNZ d   1      -0.534   5.259  -5.997  0.00  0.00     0.000 A 
ATOM      2  C2  BNZ d   1      -1.834   4.829  -6.000  0.00  0.00     0.000 A 
ATOM      3  C3  BNZ d   1      -2.130   3.494  -5.972  0.00  0.00     0.000 A 
ATOM      4  C4  BNZ d   1      -1.127   2.593  -5.981  0.00  0.00     0.000 A 
ATOM      5  C5  BNZ d   1       0.189   3.010  -5.988  0.00  0.00     0.000 A 
ATOM      6  C6  BNZ d   1       0.483   4.355  -5.977  0.00  0.00     0.000 A 
ENDROOT
TORSDOF 0
ENDMDL
