MODEL 1
REMARK minimizedAffinity -2.64555955
REMARK minimizedRMSD -1
REMARK  0 active torsions:
REMARK  status: ('A' for Active; 'I' for Inactive)
ROOT
ATOM      1  C1  BNZ d   1      -3.448   5.614  -5.741  0.00  0.00     0.000 A 
ATOM      2  C2  BNZ d   1      -2.133   5.995  -5.731  0.00  0.00     0.000 A 
ATOM      3  C3  BNZ d   1      -1.135   5.072  -5.876  0.00  0.00     0.000 A 
ATOM      4  C4  BNZ d   1      -1.451   3.766  -5.991  0.00  0.00     0.000 A 
ATOM      5  C5  BNZ d   1      -2.772   3.365  -5.993  0.00  0.00     0.000 A 
ATOM      6  C6  BNZ d   1      -3.775   4.301  -5.886  0.00  0.00     0.000 A 
ENDROOT
TORSDOF 0
ENDMDL
