MODEL 1
REMARK minimizedAffinity -1.38432956
REMARK minimizedRMSD -1
REMARK  0 active torsions:
REMARK  status: ('A' for Active; 'I' for Inactive)
ROOT
ATOM      1  C1  BNZ d   1       3.677   3.872  -6.000  0.00  0.00     0.000 A 
ATOM      2  C2  BNZ d   1       3.674   5.241  -5.998  0.00  0.00     0.000 A 
ATOM      3  C3  BNZ d   1       4.832   5.943  -5.809  0.00  0.00     0.000 A 
ATOM      4  C4  BNZ d   1       5.982   5.276  -5.583  0.00  0.00     0.000 A 
ATOM      5  C5  BNZ d   1       6.000   3.896  -5.572  0.00  0.00     0.000 A 
ATOM      6  C6  BNZ d   1       4.839   3.192  -5.802  0.00  0.00     0.000 A 
ENDROOT
TORSDOF 0
ENDMDL
