MODEL 1
REMARK minimizedAffinity -2.75604296
REMARK minimizedRMSD -1
REMARK  0 active torsions:
REMARK  status: ('A' for Active; 'I' for Inactive)
ROOT
ATOM      1  C1  BNZ d   1      -1.603   5.997  -5.229  0.00  0.00     0.000 A 
ATOM      2  C2  BNZ d   1      -0.887   5.101  -4.480  0.00  0.00     0.000 A 
ATOM      3  C3  BNZ d   1      -1.191   3.769  -4.503  0.00  0.00     0.000 A 
ATOM      4  C4  BNZ d   1      -2.234   3.340  -5.241  0.00  0.00     0.000 A 
ATOM      5  C5  BNZ d   1      -2.972   4.232  -5.994  0.00  0.00     0.000 A 
ATOM      6  C6  BNZ d   1      -2.638   5.567  -5.999  0.00  0.00     0.000 A 
ENDROOT
TORSDOF 0
ENDMDL
