MODEL 1
REMARK minimizedAffinity -2.0937252
REMARK minimizedRMSD -1
REMARK  0 active torsions:
REMARK  status: ('A' for Active; 'I' for Inactive)
ROOT
ATOM      1  C   UNL d   1      -2.516   1.144  -4.955  0.00  0.00     0.077 C 
ATOM      2  C1  UNL d   1      -2.282   0.533  -3.606  0.00  0.00    -0.074 A 
ATOM      3  C2  UNL d   1      -2.722   1.172  -2.442  0.00  0.00    -0.005 A 
ATOM      4  C3  UNL d   1      -2.506   0.587  -1.194  0.00  0.00     0.006 A 
ATOM      5  C4  UNL d   1      -1.849  -0.640  -1.098  0.00  0.00    -0.005 A 
ATOM      6  C5  UNL d   1      -1.403  -1.294  -2.251  0.00  0.00    -0.074 A 
ATOM      7  C6  UNL d   1      -0.704  -2.619  -2.166  0.00  0.00     0.077 C 
ATOM      8  C7  UNL d   1      -1.630  -0.703  -3.501  0.00  0.00    -0.001 A 
ENDROOT
TORSDOF 0
ENDMDL
