MODEL 1
REMARK minimizedAffinity 3.87469506
REMARK minimizedRMSD -1
REMARK  0 active torsions:
REMARK  status: ('A' for Active; 'I' for Inactive)
ROOT
ATOM      1  C   UNL d   1       1.178   0.363  -1.384  0.00  0.00     0.077 C 
ATOM      2  C1  UNL d   1       0.495   1.558  -0.788  0.00  0.00    -0.074 A 
ATOM      3  C2  UNL d   1       0.846   2.027   0.482  0.00  0.00    -0.005 A 
ATOM      4  C3  UNL d   1       0.208   3.145   1.019  0.00  0.00     0.006 A 
ATOM      5  C4  UNL d   1      -0.785   3.804   0.294  0.00  0.00    -0.005 A 
ATOM      6  C5  UNL d   1      -1.149   3.350  -0.978  0.00  0.00    -0.074 A 
ATOM      7  C6  UNL d   1      -2.207   4.052  -1.775  0.00  0.00     0.077 C 
ATOM      8  C7  UNL d   1      -0.498   2.230  -1.514  0.00  0.00    -0.001 A 
ENDROOT
TORSDOF 0
ENDMDL
