MODEL 1
REMARK minimizedAffinity -2.94296169
REMARK minimizedRMSD -1
REMARK  0 active torsions:
REMARK  status: ('A' for Active; 'I' for Inactive)
ROOT
ATOM      1  C   UNL d   1      -1.888   0.765  -5.947  0.00  0.00     0.077 C 
ATOM      2  C1  UNL d   1      -3.325   0.811  -5.519  0.00  0.00    -0.074 A 
ATOM      3  C2  UNL d   1      -4.247  -0.126  -5.996  0.00  0.00    -0.005 A 
ATOM      4  C3  UNL d   1      -5.578  -0.077  -5.581  0.00  0.00     0.006 A 
ATOM      5  C4  UNL d   1      -6.000   0.909  -4.688  0.00  0.00    -0.005 A 
ATOM      6  C5  UNL d   1      -5.091   1.854  -4.201  0.00  0.00    -0.074 A 
ATOM      7  C6  UNL d   1      -5.526   2.915  -3.233  0.00  0.00     0.077 C 
ATOM      8  C7  UNL d   1      -3.754   1.794  -4.616  0.00  0.00    -0.001 A 
ENDROOT
TORSDOF 0
ENDMDL
