MODEL 1
REMARK minimizedAffinity 8.94275761
REMARK minimizedRMSD -1
REMARK  0 active torsions:
REMARK  status: ('A' for Active; 'I' for Inactive)
ROOT
ATOM      1  C   UNL d   1       2.248  -2.613  -0.032  0.00  0.00     0.077 C 
ATOM      2  C1  UNL d   1       1.280  -3.663  -0.492  0.00  0.00    -0.074 A 
ATOM      3  C2  UNL d   1       1.573  -5.023  -0.346  0.00  0.00    -0.005 A 
ATOM      4  C3  UNL d   1       0.659  -5.988  -0.770  0.00  0.00     0.006 A 
ATOM      5  C4  UNL d   1      -0.554  -5.603  -1.343  0.00  0.00    -0.005 A 
ATOM      6  C5  UNL d   1      -0.864  -4.248  -1.496  0.00  0.00    -0.074 A 
ATOM      7  C6  UNL d   1      -2.168  -3.818  -2.100  0.00  0.00     0.077 C 
ATOM      8  C7  UNL d   1       0.056  -3.285  -1.061  0.00  0.00    -0.001 A 
ENDROOT
TORSDOF 0
ENDMDL
