MODEL 1
REMARK minimizedAffinity 13.0313234
REMARK minimizedRMSD -1
REMARK  0 active torsions:
REMARK  status: ('A' for Active; 'I' for Inactive)
ROOT
ATOM      1  C   UNL d   1       0.945   4.208  -0.376  0.00  0.00     0.077 C 
ATOM      2  C1  UNL d   1       0.699   3.418   0.875  0.00  0.00    -0.074 A 
ATOM      3  C2  UNL d   1       1.752   3.091   1.736  0.00  0.00    -0.005 A 
ATOM      4  C3  UNL d   1       1.507   2.364   2.901  0.00  0.00     0.006 A 
ATOM      5  C4  UNL d   1       0.210   1.957   3.216  0.00  0.00    -0.005 A 
ATOM      6  C5  UNL d   1      -0.855   2.276   2.367  0.00  0.00    -0.074 A 
ATOM      7  C6  UNL d   1      -2.257   1.855   2.695  0.00  0.00     0.077 C 
ATOM      8  C7  UNL d   1      -0.602   3.013   1.202  0.00  0.00    -0.001 A 
ENDROOT
TORSDOF 0
ENDMDL
