MODEL 1
REMARK minimizedAffinity 5.30734062
REMARK minimizedRMSD -1
REMARK  0 active torsions:
REMARK  status: ('A' for Active; 'I' for Inactive)
ROOT
ATOM      1  C   UNL d   1      -5.993   3.089  -1.240  0.00  0.00     0.077 C 
ATOM      2  C1  UNL d   1      -5.282   3.246  -2.551  0.00  0.00    -0.074 A 
ATOM      3  C2  UNL d   1      -3.982   2.762  -2.727  0.00  0.00    -0.005 A 
ATOM      4  C3  UNL d   1      -3.337   2.907  -3.955  0.00  0.00     0.006 A 
ATOM      5  C4  UNL d   1      -3.985   3.537  -5.019  0.00  0.00    -0.005 A 
ATOM      6  C5  UNL d   1      -5.286   4.027  -4.862  0.00  0.00    -0.074 A 
ATOM      7  C6  UNL d   1      -6.000   4.698  -5.998  0.00  0.00     0.077 C 
ATOM      8  C7  UNL d   1      -5.929   3.871  -3.627  0.00  0.00    -0.001 A 
ENDROOT
TORSDOF 0
ENDMDL
