MODEL 1
REMARK minimizedAffinity 8.13103294
REMARK minimizedRMSD -1
REMARK  3 active torsions:
REMARK  status: ('A' for Active; 'I' for Inactive)
REMARK    1  A    between atoms: C3'_2  and  C2'_3 
REMARK    2  A    between atoms: C2'_3  and  C1'_4 
REMARK    3  A    between atoms: C1'_4  and  C1_5 
ROOT
ATOM      1  C1  N4B d   1       2.515  -1.734   3.001  0.00  0.00    -0.075 A 
ATOM      2  C2  N4B d   1       2.127  -2.315   4.229  0.00  0.00     0.002 A 
ATOM      3  C3  N4B d   1       1.447  -1.566   5.158  0.00  0.00     0.002 A 
ATOM      4  C4  N4B d   1       1.162  -0.236   4.890  0.00  0.00    -0.004 A 
ATOM      5  C5  N4B d   1       1.518   0.311   3.692  0.00  0.00     0.002 A 
ATOM      6  C6  N4B d   1       2.198  -0.431   2.747  0.00  0.00     0.002 A 
ENDROOT
BRANCH   1   7
ATOM      7  C1' N4B d   1       3.335  -2.488   1.990  0.00  0.00     0.057 C 
BRANCH   7   8
ATOM      8  C2' N4B d   1       3.627  -1.576   0.802  0.00  0.00     0.009 C 
BRANCH   8   9
ATOM      9  C3' N4B d   1       4.954  -1.909   0.143  0.00  0.00     0.004 C 
ATOM     10  C4' N4B d   1       5.998  -2.346   1.127  0.00  0.00     0.003 C 
ENDBRANCH   8   9
ENDBRANCH   7   8
ENDBRANCH   1   7
TORSDOF 3
ENDMDL
