MODEL 1
REMARK minimizedAffinity 7.40707302
REMARK minimizedRMSD -1
REMARK  3 active torsions:
REMARK  status: ('A' for Active; 'I' for Inactive)
REMARK    1  A    between atoms: C3'_2  and  C2'_3 
REMARK    2  A    between atoms: C2'_3  and  C1'_4 
REMARK    3  A    between atoms: C1'_4  and  C1_5 
ROOT
ATOM      1  C1  N4B d   1       0.934  -0.156   1.760  0.00  0.00    -0.075 A 
ATOM      2  C2  N4B d   1       1.163   0.238   3.097  0.00  0.00     0.002 A 
ATOM      3  C3  N4B d   1       1.965  -0.525   3.909  0.00  0.00     0.002 A 
ATOM      4  C4  N4B d   1       2.532  -1.690   3.415  0.00  0.00    -0.004 A 
ATOM      5  C5  N4B d   1       2.326  -2.050   2.115  0.00  0.00     0.002 A 
ATOM      6  C6  N4B d   1       1.526  -1.291   1.286  0.00  0.00     0.002 A 
ENDROOT
BRANCH   1   7
ATOM      7  C1' N4B d   1      -0.004   0.600   0.859  0.00  0.00     0.057 C 
BRANCH   7   8
ATOM      8  C2' N4B d   1      -1.251  -0.244   0.613  0.00  0.00     0.009 C 
BRANCH   8   9
ATOM      9  C3' N4B d   1      -2.314   0.523  -0.155  0.00  0.00     0.004 C 
ATOM     10  C4' N4B d   1      -1.976   1.974  -0.322  0.00  0.00     0.003 C 
ENDBRANCH   8   9
ENDBRANCH   7   8
ENDBRANCH   1   7
TORSDOF 3
ENDMDL
