MODEL 1
REMARK minimizedAffinity 13.6126871
REMARK minimizedRMSD -1
REMARK  3 active torsions:
REMARK  status: ('A' for Active; 'I' for Inactive)
REMARK    1  A    between atoms: C3'_2  and  C2'_3 
REMARK    2  A    between atoms: C2'_3  and  C1'_4 
REMARK    3  A    between atoms: C1'_4  and  C1_5 
ROOT
ATOM      1  C1  N4B d   1       1.410  -0.903   2.262  0.00  0.00    -0.075 A 
ATOM      2  C2  N4B d   1       2.262  -0.411   1.249  0.00  0.00     0.002 A 
ATOM      3  C3  N4B d   1       2.732  -1.259   0.276  0.00  0.00     0.002 A 
ATOM      4  C4  N4B d   1       2.382  -2.601   0.308  0.00  0.00    -0.004 A 
ATOM      5  C5  N4B d   1       1.539  -3.062   1.276  0.00  0.00     0.002 A 
ATOM      6  C6  N4B d   1       1.055  -2.221   2.257  0.00  0.00     0.002 A 
ENDROOT
BRANCH   1   7
ATOM      7  C1' N4B d   1       0.939  -0.032   3.395  0.00  0.00     0.057 C 
BRANCH   7   8
ATOM      8  C2' N4B d   1       1.569  -0.520   4.697  0.00  0.00     0.009 C 
BRANCH   8   9
ATOM      9  C3' N4B d   1       0.849  -1.735   5.256  0.00  0.00     0.004 C 
ATOM     10  C4' N4B d   1       1.764  -2.662   5.999  0.00  0.00     0.003 C 
ENDBRANCH   8   9
ENDBRANCH   7   8
ENDBRANCH   1   7
TORSDOF 3
ENDMDL
