MODEL 1
REMARK minimizedAffinity 3.58162093
REMARK minimizedRMSD -1
REMARK  3 active torsions:
REMARK  status: ('A' for Active; 'I' for Inactive)
REMARK    1  A    between atoms: C3'_2  and  C2'_3 
REMARK    2  A    between atoms: C2'_3  and  C1'_4 
REMARK    3  A    between atoms: C1'_4  and  C1_5 
ROOT
ATOM      1  C1  N4B d   1       2.433  -1.957   3.203  0.00  0.00    -0.075 A 
ATOM      2  C2  N4B d   1       1.509  -1.118   3.863  0.00  0.00     0.002 A 
ATOM      3  C3  N4B d   1       1.234  -1.312   5.195  0.00  0.00     0.002 A 
ATOM      4  C4  N4B d   1       1.855  -2.346   5.879  0.00  0.00    -0.004 A 
ATOM      5  C5  N4B d   1       2.766  -3.136   5.241  0.00  0.00     0.002 A 
ATOM      6  C6  N4B d   1       3.055  -2.950   3.904  0.00  0.00     0.002 A 
ENDROOT
BRANCH   1   7
ATOM      7  C1' N4B d   1       2.701  -1.838   1.727  0.00  0.00     0.057 C 
BRANCH   7   8
ATOM      8  C2' N4B d   1       3.034  -3.217   1.166  0.00  0.00     0.009 C 
BRANCH   8   9
ATOM      9  C3' N4B d   1       1.798  -3.933   0.648  0.00  0.00     0.004 C 
ATOM     10  C4' N4B d   1       1.663  -5.324   1.191  0.00  0.00     0.003 C 
ENDBRANCH   8   9
ENDBRANCH   7   8
ENDBRANCH   1   7
TORSDOF 3
ENDMDL
