MODEL 1
REMARK minimizedAffinity -5.11259604
REMARK minimizedRMSD -1
REMARK  1 active torsions:
REMARK  status: ('A' for Active; 'I' for Inactive)
REMARK    1  A    between atoms: C3_4  and  O_7 
ROOT
ATOM      1  C   UNL d   1       0.380  -0.104  -1.407  0.00  0.00    -0.033 A 
ATOM      2  C1  UNL d   1       0.866  -1.308  -1.922  0.00  0.00     0.039 A 
ATOM      3  C2  UNL d   1       0.657  -2.501  -1.228  0.00  0.00    -0.080 A 
ATOM      4  C3  UNL d   1      -0.041  -2.478  -0.023  0.00  0.00     0.150 A 
ATOM      5  C4  UNL d   1      -0.531  -1.283   0.493  0.00  0.00    -0.007 A 
ATOM      6  C5  UNL d   1      -0.320  -0.092  -0.201  0.00  0.00     0.039 A 
ENDROOT
BRANCH   4   7
ATOM      7  O   UNL d   1      -0.266  -3.616   0.692  0.00  0.00    -0.526 OA
ATOM      8  H5  UNL d   1       0.156  -4.359   0.228  0.00  0.00     0.418 HD
ENDBRANCH   4   7
TORSDOF 1
ENDMDL
