MODEL 1
REMARK minimizedAffinity -4.22594118
REMARK minimizedRMSD -1
REMARK  1 active torsions:
REMARK  status: ('A' for Active; 'I' for Inactive)
REMARK    1  A    between atoms: C3_4  and  O_7 
ROOT
ATOM      1  C   UNL d   1       0.621  -0.961  -2.138  0.00  0.00    -0.033 A 
ATOM      2  C1  UNL d   1       0.331  -0.692  -0.799  0.00  0.00     0.039 A 
ATOM      3  C2  UNL d   1      -0.044  -1.728   0.058  0.00  0.00    -0.080 A 
ATOM      4  C3  UNL d   1      -0.124  -3.028  -0.435  0.00  0.00     0.150 A 
ATOM      5  C4  UNL d   1       0.167  -3.303  -1.767  0.00  0.00    -0.007 A 
ATOM      6  C5  UNL d   1       0.540  -2.267  -2.622  0.00  0.00     0.039 A 
ENDROOT
BRANCH   4   7
ATOM      7  O   UNL d   1      -0.490  -4.071   0.362  0.00  0.00    -0.526 OA
ATOM      8  H5  UNL d   1      -0.689  -3.726   1.248  0.00  0.00     0.418 HD
ENDBRANCH   4   7
TORSDOF 1
ENDMDL
