MODEL 1
REMARK minimizedAffinity -5.11470985
REMARK minimizedRMSD -1
REMARK  1 active torsions:
REMARK  status: ('A' for Active; 'I' for Inactive)
REMARK    1  A    between atoms: C3_4  and  O_7 
ROOT
ATOM      1  C   UNL d   1       0.247  -3.081   0.291  0.00  0.00    -0.033 A 
ATOM      2  C1  UNL d   1      -0.181  -2.321   1.382  0.00  0.00     0.039 A 
ATOM      3  C2  UNL d   1      -0.334  -0.939   1.254  0.00  0.00    -0.080 A 
ATOM      4  C3  UNL d   1      -0.058  -0.331   0.033  0.00  0.00     0.150 A 
ATOM      5  C4  UNL d   1       0.364  -1.083  -1.059  0.00  0.00    -0.007 A 
ATOM      6  C5  UNL d   1       0.518  -2.462  -0.929  0.00  0.00     0.039 A 
ENDROOT
BRANCH   4   7
ATOM      7  O   UNL d   1      -0.188   1.015  -0.139  0.00  0.00    -0.526 OA
ATOM      8  H5  UNL d   1      -0.460   1.408   0.708  0.00  0.00     0.418 HD
ENDBRANCH   4   7
TORSDOF 1
ENDMDL
