MODEL 1
REMARK minimizedAffinity -3.24334478
REMARK minimizedRMSD -1
REMARK  1 active torsions:
REMARK  status: ('A' for Active; 'I' for Inactive)
REMARK    1  A    between atoms: C3_4  and  O_7 
ROOT
ATOM      1  C   UNL d   1       0.317   0.763  -0.476  0.00  0.00    -0.033 A 
ATOM      2  C1  UNL d   1      -0.489   0.615   0.654  0.00  0.00     0.039 A 
ATOM      3  C2  UNL d   1      -0.853  -0.660   1.093  0.00  0.00    -0.080 A 
ATOM      4  C3  UNL d   1      -0.403  -1.777   0.394  0.00  0.00     0.150 A 
ATOM      5  C4  UNL d   1       0.404  -1.637  -0.731  0.00  0.00    -0.007 A 
ATOM      6  C5  UNL d   1       0.764  -0.363  -1.168  0.00  0.00     0.039 A 
ENDROOT
BRANCH   4   7
ATOM      7  O   UNL d   1      -0.735  -3.041   0.781  0.00  0.00    -0.526 OA
ATOM      8  H5  UNL d   1      -1.319  -2.982   1.556  0.00  0.00     0.418 HD
ENDBRANCH   4   7
TORSDOF 1
ENDMDL
