MODEL 1
REMARK minimizedAffinity -5.33363438
REMARK minimizedRMSD -1
REMARK  1 active torsions:
REMARK  status: ('A' for Active; 'I' for Inactive)
REMARK    1  A    between atoms: C3_4  and  O_7 
ROOT
ATOM      1  C   UNL d   1      -0.155  -3.168   0.877  0.00  0.00    -0.033 A 
ATOM      2  C1  UNL d   1       0.133  -1.807   0.761  0.00  0.00     0.039 A 
ATOM      3  C2  UNL d   1       0.270  -1.227  -0.502  0.00  0.00    -0.080 A 
ATOM      4  C3  UNL d   1       0.117  -2.017  -1.638  0.00  0.00     0.150 A 
ATOM      5  C4  UNL d   1      -0.174  -3.373  -1.529  0.00  0.00    -0.007 A 
ATOM      6  C5  UNL d   1      -0.310  -3.951  -0.267  0.00  0.00     0.039 A 
ENDROOT
BRANCH   4   7
ATOM      7  O   UNL d   1       0.246  -1.496  -2.891  0.00  0.00    -0.526 OA
ATOM      8  H5  UNL d   1       0.475  -0.555  -2.811  0.00  0.00     0.418 HD
ENDBRANCH   4   7
TORSDOF 1
ENDMDL
