MODEL 1
REMARK minimizedAffinity -4.46508598
REMARK minimizedRMSD -1
REMARK  1 active torsions:
REMARK  status: ('A' for Active; 'I' for Inactive)
REMARK    1  A    between atoms: C3_4  and  O_7 
ROOT
ATOM      1  C   UNL d   1      -0.500   0.121   0.002  0.00  0.00    -0.033 A 
ATOM      2  C1  UNL d   1      -1.191  -0.546   1.015  0.00  0.00     0.039 A 
ATOM      3  C2  UNL d   1      -0.889  -1.877   1.310  0.00  0.00    -0.080 A 
ATOM      4  C3  UNL d   1       0.106  -2.528   0.586  0.00  0.00     0.150 A 
ATOM      5  C4  UNL d   1       0.801  -1.868  -0.423  0.00  0.00    -0.007 A 
ATOM      6  C5  UNL d   1       0.497  -0.540  -0.716  0.00  0.00     0.039 A 
ENDROOT
BRANCH   4   7
ATOM      7  O   UNL d   1       0.433  -3.828   0.834  0.00  0.00    -0.526 OA
ATOM      8  H5  UNL d   1      -0.149  -4.163   1.536  0.00  0.00     0.418 HD
ENDBRANCH   4   7
TORSDOF 1
ENDMDL
