MODEL 1
REMARK minimizedAffinity -4.55607176
REMARK minimizedRMSD -1
REMARK  1 active torsions:
REMARK  status: ('A' for Active; 'I' for Inactive)
REMARK    1  A    between atoms: C3_4  and  O_7 
ROOT
ATOM      1  C   UNL d   1       0.750  -1.406  -1.989  0.00  0.00    -0.033 A 
ATOM      2  C1  UNL d   1       0.751  -0.885  -0.693  0.00  0.00     0.039 A 
ATOM      3  C2  UNL d   1       0.341  -1.678   0.380  0.00  0.00    -0.080 A 
ATOM      4  C3  UNL d   1      -0.066  -2.988   0.145  0.00  0.00     0.150 A 
ATOM      5  C4  UNL d   1      -0.066  -3.515  -1.142  0.00  0.00    -0.007 A 
ATOM      6  C5  UNL d   1       0.342  -2.721  -2.213  0.00  0.00     0.039 A 
ENDROOT
BRANCH   4   7
ATOM      7  O   UNL d   1      -0.479  -3.799   1.161  0.00  0.00    -0.526 OA
ATOM      8  H5  UNL d   1      -0.454  -3.292   1.989  0.00  0.00     0.418 HD
ENDBRANCH   4   7
TORSDOF 1
ENDMDL
