MODEL 1
REMARK minimizedAffinity -4.37033129
REMARK minimizedRMSD -1
REMARK  1 active torsions:
REMARK  status: ('A' for Active; 'I' for Inactive)
REMARK    1  A    between atoms: C3_4  and  O_7 
ROOT
ATOM      1  C   UNL d   1       0.089   0.552  -1.410  0.00  0.00    -0.033 A 
ATOM      2  C1  UNL d   1      -0.362   0.707  -0.098  0.00  0.00     0.039 A 
ATOM      3  C2  UNL d   1      -0.800  -0.403   0.627  0.00  0.00    -0.080 A 
ATOM      4  C3  UNL d   1      -0.781  -1.660   0.029  0.00  0.00     0.150 A 
ATOM      5  C4  UNL d   1      -0.329  -1.823  -1.276  0.00  0.00    -0.007 A 
ATOM      6  C5  UNL d   1       0.107  -0.713  -1.999  0.00  0.00     0.039 A 
ENDROOT
BRANCH   4   7
ATOM      7  O   UNL d   1      -1.203  -2.772   0.696  0.00  0.00    -0.526 OA
ATOM      8  H5  UNL d   1      -1.514  -2.504   1.576  0.00  0.00     0.418 HD
ENDBRANCH   4   7
TORSDOF 1
ENDMDL
