MODEL 1
REMARK minimizedAffinity -5.56136751
REMARK minimizedRMSD -1
REMARK  1 active torsions:
REMARK  status: ('A' for Active; 'I' for Inactive)
REMARK    1  A    between atoms: C3_4  and  O_7 
ROOT
ATOM      1  C   UNL d   1       0.038  -2.754   0.742  0.00  0.00    -0.033 A 
ATOM      2  C1  UNL d   1      -0.048  -3.596  -0.368  0.00  0.00     0.039 A 
ATOM      3  C2  UNL d   1      -0.012  -3.060  -1.657  0.00  0.00    -0.080 A 
ATOM      4  C3  UNL d   1       0.112  -1.683  -1.822  0.00  0.00     0.150 A 
ATOM      5  C4  UNL d   1       0.202  -0.839  -0.720  0.00  0.00    -0.007 A 
ATOM      6  C5  UNL d   1       0.164  -1.376   0.567  0.00  0.00     0.039 A 
ENDROOT
BRANCH   4   7
ATOM      7  O   UNL d   1       0.147  -1.114  -3.060  0.00  0.00    -0.526 OA
ATOM      8  H5  UNL d   1       0.046  -1.816  -3.724  0.00  0.00     0.418 HD
ENDBRANCH   4   7
TORSDOF 1
ENDMDL
