MODEL 1
REMARK minimizedAffinity -2.12190366
REMARK minimizedRMSD -1
REMARK  1 active torsions:
REMARK  status: ('A' for Active; 'I' for Inactive)
REMARK    1  A    between atoms: C3_4  and  O_7 
ROOT
ATOM      1  C   UNL d   1       0.487  -1.727  -2.306  0.00  0.00    -0.033 A 
ATOM      2  C1  UNL d   1       0.159  -3.069  -2.105  0.00  0.00     0.039 A 
ATOM      3  C2  UNL d   1      -0.329  -3.493  -0.868  0.00  0.00    -0.080 A 
ATOM      4  C3  UNL d   1      -0.485  -2.566   0.159  0.00  0.00     0.150 A 
ATOM      5  C4  UNL d   1      -0.164  -1.227  -0.035  0.00  0.00    -0.007 A 
ATOM      6  C5  UNL d   1       0.324  -0.805  -1.271  0.00  0.00     0.039 A 
ENDROOT
BRANCH   4   7
ATOM      7  O   UNL d   1      -0.953  -2.933   1.386  0.00  0.00    -0.526 OA
ATOM      8  H5  UNL d   1      -1.106  -3.893   1.382  0.00  0.00     0.418 HD
ENDBRANCH   4   7
TORSDOF 1
ENDMDL
