MODEL 1
REMARK minimizedAffinity -4.8505187
REMARK minimizedRMSD -1
REMARK  1 active torsions:
REMARK  status: ('A' for Active; 'I' for Inactive)
REMARK    1  A    between atoms: C3_4  and  O_7 
ROOT
ATOM      1  C   UNL d   1      -0.770  -0.857   1.368  0.00  0.00    -0.033 A 
ATOM      2  C1  UNL d   1      -0.665  -2.226   1.118  0.00  0.00     0.039 A 
ATOM      3  C2  UNL d   1      -0.176  -2.678  -0.109  0.00  0.00    -0.080 A 
ATOM      4  C3  UNL d   1       0.203  -1.752  -1.077  0.00  0.00     0.150 A 
ATOM      5  C4  UNL d   1       0.104  -0.386  -0.833  0.00  0.00    -0.007 A 
ATOM      6  C5  UNL d   1      -0.384   0.063   0.393  0.00  0.00     0.039 A 
ENDROOT
BRANCH   4   7
ATOM      7  O   UNL d   1       0.681  -2.146  -2.291  0.00  0.00    -0.526 OA
ATOM      8  H5  UNL d   1       0.666  -3.117  -2.328  0.00  0.00     0.418 HD
ENDBRANCH   4   7
TORSDOF 1
ENDMDL
