MODEL 1
REMARK minimizedAffinity -5.19630003
REMARK minimizedRMSD -1
REMARK  1 active torsions:
REMARK  status: ('A' for Active; 'I' for Inactive)
REMARK    1  A    between atoms: C3_4  and  O_7 
ROOT
ATOM      1  C   UNL d   1      -1.023   0.463   0.699  0.00  0.00    -0.033 A 
ATOM      2  C1  UNL d   1      -0.238  -0.200  -0.247  0.00  0.00     0.039 A 
ATOM      3  C2  UNL d   1       0.259  -1.476   0.026  0.00  0.00    -0.080 A 
ATOM      4  C3  UNL d   1      -0.036  -2.078   1.246  0.00  0.00     0.150 A 
ATOM      5  C4  UNL d   1      -0.821  -1.425   2.191  0.00  0.00    -0.007 A 
ATOM      6  C5  UNL d   1      -1.316  -0.151   1.917  0.00  0.00     0.039 A 
ENDROOT
BRANCH   4   7
ATOM      7  O   UNL d   1       0.430  -3.320   1.559  0.00  0.00    -0.526 OA
ATOM      8  H5  UNL d   1       0.981  -3.636   0.823  0.00  0.00     0.418 HD
ENDBRANCH   4   7
TORSDOF 1
ENDMDL
