MODEL 1
REMARK minimizedAffinity -5.38735867
REMARK minimizedRMSD -1
REMARK  1 active torsions:
REMARK  status: ('A' for Active; 'I' for Inactive)
REMARK    1  A    between atoms: C3_4  and  O_7 
ROOT
ATOM      1  C   UNL d   1      -0.055  -3.164  -0.063  0.00  0.00    -0.033 A 
ATOM      2  C1  UNL d   1       0.143  -2.668  -1.353  0.00  0.00     0.039 A 
ATOM      3  C2  UNL d   1      -0.004  -1.303  -1.608  0.00  0.00    -0.080 A 
ATOM      4  C3  UNL d   1      -0.347  -0.446  -0.566  0.00  0.00     0.150 A 
ATOM      5  C4  UNL d   1      -0.542  -0.933   0.722  0.00  0.00    -0.007 A 
ATOM      6  C5  UNL d   1      -0.396  -2.297   0.975  0.00  0.00     0.039 A 
ENDROOT
BRANCH   4   7
ATOM      7  O   UNL d   1      -0.505   0.893  -0.768  0.00  0.00    -0.526 OA
ATOM      8  H5  UNL d   1      -0.368   1.080  -1.711  0.00  0.00     0.418 HD
ENDBRANCH   4   7
TORSDOF 1
ENDMDL
