MODEL 1
REMARK minimizedAffinity -5.07132626
REMARK minimizedRMSD -1
REMARK  0 active torsions:
REMARK  status: ('A' for Active; 'I' for Inactive)
ROOT
ATOM      1  C   UNL d   1       0.316  -1.088   1.475  0.00  0.00     0.078 C 
ATOM      2  C1  UNL d   1       1.292  -0.768   0.383  0.00  0.00    -0.077 A 
ATOM      3  C2  UNL d   1       1.534   0.556  -0.003  0.00  0.00    -0.001 A 
ATOM      4  C3  UNL d   1       2.438   0.839  -1.028  0.00  0.00     0.003 A 
ATOM      5  C4  UNL d   1       3.107  -0.198  -1.676  0.00  0.00    -0.005 A 
ATOM      6  C5  UNL d   1       2.872  -1.518  -1.301  0.00  0.00     0.003 A 
ATOM      7  C6  UNL d   1       1.968  -1.803  -0.276  0.00  0.00    -0.001 A 
ENDROOT
TORSDOF 0
ENDMDL
