MODEL 1
REMARK minimizedAffinity -6.32484674
REMARK minimizedRMSD -1
REMARK  0 active torsions:
REMARK  status: ('A' for Active; 'I' for Inactive)
ROOT
ATOM      1  C   UNL d   1       4.499  -0.033  -2.449  0.00  0.00     0.078 C 
ATOM      2  C1  UNL d   1       3.331  -0.029  -1.509  0.00  0.00    -0.077 A 
ATOM      3  C2  UNL d   1       2.672   1.162  -1.182  0.00  0.00    -0.001 A 
ATOM      4  C3  UNL d   1       1.592   1.152  -0.298  0.00  0.00     0.003 A 
ATOM      5  C4  UNL d   1       1.163  -0.047   0.268  0.00  0.00    -0.005 A 
ATOM      6  C5  UNL d   1       1.813  -1.237  -0.050  0.00  0.00     0.003 A 
ATOM      7  C6  UNL d   1       2.894  -1.229  -0.934  0.00  0.00    -0.001 A 
ENDROOT
TORSDOF 0
ENDMDL
