MODEL 1
REMARK minimizedAffinity -6.17890358
REMARK minimizedRMSD -1
REMARK  0 active torsions:
REMARK  status: ('A' for Active; 'I' for Inactive)
ROOT
ATOM      1  C   UNL d   1       4.596  -0.741  -1.417  0.00  0.00     0.078 C 
ATOM      2  C1  UNL d   1       3.271  -0.676  -0.717  0.00  0.00    -0.077 A 
ATOM      3  C2  UNL d   1       2.561  -1.842  -0.407  0.00  0.00    -0.001 A 
ATOM      4  C3  UNL d   1       1.324  -1.765   0.235  0.00  0.00     0.003 A 
ATOM      5  C4  UNL d   1       0.786  -0.525   0.572  0.00  0.00    -0.005 A 
ATOM      6  C5  UNL d   1       1.485   0.641   0.266  0.00  0.00     0.003 A 
ATOM      7  C6  UNL d   1       2.722   0.567  -0.377  0.00  0.00    -0.001 A 
ENDROOT
TORSDOF 0
ENDMDL
