MODEL 1
REMARK minimizedAffinity -1.24283111
REMARK minimizedRMSD -1
REMARK  0 active torsions:
REMARK  status: ('A' for Active; 'I' for Inactive)
ROOT
ATOM      1  C   UNL d   1       0.599  -0.468   0.662  0.00  0.00     0.078 C 
ATOM      2  C1  UNL d   1       1.726  -0.328  -0.317  0.00  0.00    -0.077 A 
ATOM      3  C2  UNL d   1       2.518  -1.428  -0.668  0.00  0.00    -0.001 A 
ATOM      4  C3  UNL d   1       3.570  -1.281  -1.573  0.00  0.00     0.003 A 
ATOM      5  C4  UNL d   1       3.840  -0.034  -2.134  0.00  0.00    -0.005 A 
ATOM      6  C5  UNL d   1       3.059   1.067  -1.790  0.00  0.00     0.003 A 
ATOM      7  C6  UNL d   1       2.007   0.921  -0.885  0.00  0.00    -0.001 A 
ENDROOT
TORSDOF 0
ENDMDL
