MODEL 1
REMARK minimizedAffinity -4.04633951
REMARK minimizedRMSD -1
REMARK  0 active torsions:
REMARK  status: ('A' for Active; 'I' for Inactive)
ROOT
ATOM      1  C   UNL d   1       4.523  -0.728  -1.992  0.00  0.00     0.078 C 
ATOM      2  C1  UNL d   1       3.259  -0.611  -1.195  0.00  0.00    -0.077 A 
ATOM      3  C2  UNL d   1       2.525  -1.748  -0.835  0.00  0.00    -0.001 A 
ATOM      4  C3  UNL d   1       1.344  -1.623  -0.101  0.00  0.00     0.003 A 
ATOM      5  C4  UNL d   1       0.886  -0.363   0.278  0.00  0.00    -0.005 A 
ATOM      6  C5  UNL d   1       1.608   0.775  -0.078  0.00  0.00     0.003 A 
ATOM      7  C6  UNL d   1       2.789   0.652  -0.811  0.00  0.00    -0.001 A 
ENDROOT
TORSDOF 0
ENDMDL
