MODEL 1
REMARK minimizedAffinity -3.51114225
REMARK minimizedRMSD -1
REMARK  0 active torsions:
REMARK  status: ('A' for Active; 'I' for Inactive)
ROOT
ATOM      1  C   UNL d   1       3.305   0.698  -1.810  0.00  0.00     0.078 C 
ATOM      2  C1  UNL d   1       2.525   0.081  -0.688  0.00  0.00    -0.077 A 
ATOM      3  C2  UNL d   1       2.968  -1.090  -0.061  0.00  0.00    -0.001 A 
ATOM      4  C3  UNL d   1       2.226  -1.659   0.976  0.00  0.00     0.003 A 
ATOM      5  C4  UNL d   1       1.038  -1.065   1.394  0.00  0.00    -0.005 A 
ATOM      6  C5  UNL d   1       0.588   0.100   0.775  0.00  0.00     0.003 A 
ATOM      7  C6  UNL d   1       1.328   0.670  -0.262  0.00  0.00    -0.001 A 
ENDROOT
TORSDOF 0
ENDMDL
