MODEL 1
REMARK minimizedAffinity -3.97312498
REMARK minimizedRMSD -1
REMARK  0 active torsions:
REMARK  status: ('A' for Active; 'I' for Inactive)
ROOT
ATOM      1  C   UNL d   1       0.147  -1.044   1.843  0.00  0.00     0.078 C 
ATOM      2  C1  UNL d   1       1.156  -0.613   0.821  0.00  0.00    -0.077 A 
ATOM      3  C2  UNL d   1       1.241   0.723   0.410  0.00  0.00    -0.001 A 
ATOM      4  C3  UNL d   1       2.178   1.108  -0.550  0.00  0.00     0.003 A 
ATOM      5  C4  UNL d   1       3.037   0.163  -1.108  0.00  0.00    -0.005 A 
ATOM      6  C5  UNL d   1       2.958  -1.169  -0.707  0.00  0.00     0.003 A 
ATOM      7  C6  UNL d   1       2.021  -1.556   0.253  0.00  0.00    -0.001 A 
ENDROOT
TORSDOF 0
ENDMDL
