MODEL 1
REMARK minimizedAffinity -2.32645941
REMARK minimizedRMSD -1
REMARK  0 active torsions:
REMARK  status: ('A' for Active; 'I' for Inactive)
ROOT
ATOM      1  C   UNL d   1       4.489  -1.151  -1.915  0.00  0.00     0.078 C 
ATOM      2  C1  UNL d   1       3.333  -0.768  -1.041  0.00  0.00    -0.077 A 
ATOM      3  C2  UNL d   1       2.983   0.575  -0.855  0.00  0.00    -0.001 A 
ATOM      4  C3  UNL d   1       1.910   0.918  -0.030  0.00  0.00     0.003 A 
ATOM      5  C4  UNL d   1       1.179  -0.077   0.617  0.00  0.00    -0.005 A 
ATOM      6  C5  UNL d   1       1.521  -1.416   0.439  0.00  0.00     0.003 A 
ATOM      7  C6  UNL d   1       2.593  -1.760  -0.385  0.00  0.00    -0.001 A 
ENDROOT
TORSDOF 0
ENDMDL
