MODEL 1
REMARK minimizedAffinity 0.85929203
REMARK minimizedRMSD -1
REMARK  0 active torsions:
REMARK  status: ('A' for Active; 'I' for Inactive)
ROOT
ATOM      1  C   UNL d   1       3.239  -1.809  -1.278  0.00  0.00     0.078 C 
ATOM      2  C1  UNL d   1       2.262  -1.107  -0.383  0.00  0.00    -0.077 A 
ATOM      3  C2  UNL d   1       2.446   0.235  -0.027  0.00  0.00    -0.001 A 
ATOM      4  C3  UNL d   1       1.534   0.873   0.815  0.00  0.00     0.003 A 
ATOM      5  C4  UNL d   1       0.432   0.178   1.308  0.00  0.00    -0.005 A 
ATOM      6  C5  UNL d   1       0.241  -1.158   0.961  0.00  0.00     0.003 A 
ATOM      7  C6  UNL d   1       1.152  -1.798   0.119  0.00  0.00    -0.001 A 
ENDROOT
TORSDOF 0
ENDMDL
