MODEL 1
REMARK minimizedAffinity -2.67605591
REMARK minimizedRMSD -1
REMARK  0 active torsions:
REMARK  status: ('A' for Active; 'I' for Inactive)
ROOT
ATOM      1  C   UNL d   1       4.206  -0.811  -1.940  0.00  0.00     0.078 C 
ATOM      2  C1  UNL d   1       3.047  -0.656  -1.001  0.00  0.00    -0.077 A 
ATOM      3  C2  UNL d   1       2.098   0.357  -1.188  0.00  0.00    -0.001 A 
ATOM      4  C3  UNL d   1       1.030   0.496  -0.301  0.00  0.00     0.003 A 
ATOM      5  C4  UNL d   1       0.901  -0.373   0.781  0.00  0.00    -0.005 A 
ATOM      6  C5  UNL d   1       1.841  -1.382   0.977  0.00  0.00     0.003 A 
ATOM      7  C6  UNL d   1       2.910  -1.523   0.090  0.00  0.00    -0.001 A 
ENDROOT
TORSDOF 0
ENDMDL
