MODEL 1
REMARK minimizedAffinity -2.16205215
REMARK minimizedRMSD -1
REMARK  0 active torsions:
REMARK  status: ('A' for Active; 'I' for Inactive)
ROOT
ATOM      1  C   UNL d   1       1.217  -1.269   0.686  0.00  0.00     0.078 C 
ATOM      2  C1  UNL d   1       2.226  -0.838  -0.337  0.00  0.00    -0.077 A 
ATOM      3  C2  UNL d   1       2.302   0.495  -0.757  0.00  0.00    -0.001 A 
ATOM      4  C3  UNL d   1       3.240   0.880  -1.717  0.00  0.00     0.003 A 
ATOM      5  C4  UNL d   1       4.107  -0.063  -2.265  0.00  0.00    -0.005 A 
ATOM      6  C5  UNL d   1       4.037  -1.392  -1.855  0.00  0.00     0.003 A 
ATOM      7  C6  UNL d   1       3.100  -1.779  -0.895  0.00  0.00    -0.001 A 
ENDROOT
TORSDOF 0
ENDMDL
