MODEL 1
REMARK minimizedAffinity -5.03749037
REMARK minimizedRMSD -1
REMARK  0 active torsions:
REMARK  status: ('A' for Active; 'I' for Inactive)
ROOT
ATOM      1  C   UNL d   1       4.876  -0.390  -2.149  0.00  0.00     0.078 C 
ATOM      2  C1  UNL d   1       3.589  -0.416  -1.379  0.00  0.00    -0.077 A 
ATOM      3  C2  UNL d   1       3.024  -1.626  -0.959  0.00  0.00    -0.001 A 
ATOM      4  C3  UNL d   1       1.821  -1.636  -0.252  0.00  0.00     0.003 A 
ATOM      5  C4  UNL d   1       1.173  -0.438   0.042  0.00  0.00    -0.005 A 
ATOM      6  C5  UNL d   1       1.726   0.771  -0.374  0.00  0.00     0.003 A 
ATOM      7  C6  UNL d   1       2.929   0.783  -1.081  0.00  0.00    -0.001 A 
ENDROOT
TORSDOF 0
ENDMDL
