MODEL 1
REMARK minimizedAffinity -3.1214962
REMARK minimizedRMSD -1
REMARK  0 active torsions:
REMARK  status: ('A' for Active; 'I' for Inactive)
ROOT
ATOM      1  C   UNL d   1       5.023  -0.380  -1.837  0.00  0.00     0.078 C 
ATOM      2  C1  UNL d   1       3.750  -0.276  -1.050  0.00  0.00    -0.077 A 
ATOM      3  C2  UNL d   1       3.110  -1.421  -0.559  0.00  0.00    -0.001 A 
ATOM      4  C3  UNL d   1       1.921  -1.309   0.163  0.00  0.00     0.003 A 
ATOM      5  C4  UNL d   1       1.360  -0.056   0.399  0.00  0.00    -0.005 A 
ATOM      6  C5  UNL d   1       1.989   1.089  -0.087  0.00  0.00     0.003 A 
ATOM      7  C6  UNL d   1       3.178   0.980  -0.809  0.00  0.00    -0.001 A 
ENDROOT
TORSDOF 0
ENDMDL
