MODEL 1
REMARK minimizedAffinity -1.09842169
REMARK minimizedRMSD -1
REMARK  0 active torsions:
REMARK  status: ('A' for Active; 'I' for Inactive)
ROOT
ATOM      1  C1  BNZ d   1       1.996   4.122  -4.650  0.00  0.00     0.000 A 
ATOM      2  C2  BNZ d   1       1.648   5.073  -5.573  0.00  0.00     0.000 A 
ATOM      3  C3  BNZ d   1       2.557   6.000  -6.000  0.00  0.00     0.000 A 
ATOM      4  C4  BNZ d   1       3.800   6.000  -5.475  0.00  0.00     0.000 A 
ATOM      5  C5  BNZ d   1       4.163   5.054  -4.538  0.00  0.00     0.000 A 
ATOM      6  C6  BNZ d   1       3.256   4.098  -4.139  0.00  0.00     0.000 A 
ENDROOT
TORSDOF 0
ENDMDL
