MODEL 1
REMARK minimizedAffinity -2.04276752
REMARK minimizedRMSD -1
REMARK  0 active torsions:
REMARK  status: ('A' for Active; 'I' for Inactive)
ROOT
ATOM      1  C1  BNZ d   1       3.883   5.913  -5.863  0.00  0.00     0.000 A 
ATOM      2  C2  BNZ d   1       5.246   5.917  -6.000  0.00  0.00     0.000 A 
ATOM      3  C3  BNZ d   1       6.000   4.878  -5.530  0.00  0.00     0.000 A 
ATOM      4  C4  BNZ d   1       5.395   3.857  -4.889  0.00  0.00     0.000 A 
ATOM      5  C5  BNZ d   1       4.024   3.843  -4.735  0.00  0.00     0.000 A 
ATOM      6  C6  BNZ d   1       3.264   4.871  -5.244  0.00  0.00     0.000 A 
ENDROOT
TORSDOF 0
ENDMDL
