MODEL 1
REMARK minimizedAffinity 0.172572345
REMARK minimizedRMSD -1
REMARK  0 active torsions:
REMARK  status: ('A' for Active; 'I' for Inactive)
ROOT
ATOM      1  C1  BNZ d   1       0.319   5.997  -3.639  0.00  0.00     0.000 A 
ATOM      2  C2  BNZ d   1       1.689   5.996  -3.612  0.00  0.00     0.000 A 
ATOM      3  C3  BNZ d   1       2.412   5.973  -4.771  0.00  0.00     0.000 A 
ATOM      4  C4  BNZ d   1       1.766   5.912  -5.954  0.00  0.00     0.000 A 
ATOM      5  C5  BNZ d   1       0.386   5.903  -5.997  0.00  0.00     0.000 A 
ATOM      6  C6  BNZ d   1      -0.339   5.965  -4.829  0.00  0.00     0.000 A 
ENDROOT
TORSDOF 0
ENDMDL
