MODEL 1
REMARK minimizedAffinity -1.19883132
REMARK minimizedRMSD -1
REMARK  0 active torsions:
REMARK  status: ('A' for Active; 'I' for Inactive)
ROOT
ATOM      1  C1  BNZ d   1       2.870   4.058  -4.683  0.00  0.00     0.000 A 
ATOM      2  C2  BNZ d   1       1.556   4.088  -4.299  0.00  0.00     0.000 A 
ATOM      3  C3  BNZ d   1       0.709   5.047  -4.779  0.00  0.00     0.000 A 
ATOM      4  C4  BNZ d   1       1.184   5.997  -5.609  0.00  0.00     0.000 A 
ATOM      5  C5  BNZ d   1       2.509   5.986  -5.999  0.00  0.00     0.000 A 
ATOM      6  C6  BNZ d   1       3.350   4.996  -5.545  0.00  0.00     0.000 A 
ENDROOT
TORSDOF 0
ENDMDL
