MODEL 1
REMARK minimizedAffinity 3.13418984
REMARK minimizedRMSD -1
REMARK  0 active torsions:
REMARK  status: ('A' for Active; 'I' for Inactive)
ROOT
ATOM      1  C1  BNZ d   1      -3.073   5.890  -0.622  0.00  0.00     0.000 A 
ATOM      2  C2  BNZ d   1      -1.711   5.881  -0.757  0.00  0.00     0.000 A 
ATOM      3  C3  BNZ d   1      -1.130   5.956  -1.992  0.00  0.00     0.000 A 
ATOM      4  C4  BNZ d   1      -1.911   5.999  -3.091  0.00  0.00     0.000 A 
ATOM      5  C5  BNZ d   1      -3.286   5.999  -2.971  0.00  0.00     0.000 A 
ATOM      6  C6  BNZ d   1      -3.867   5.963  -1.724  0.00  0.00     0.000 A 
ENDROOT
TORSDOF 0
ENDMDL
