MODEL 1
REMARK minimizedAffinity -0.817113101
REMARK minimizedRMSD -1
REMARK  0 active torsions:
REMARK  status: ('A' for Active; 'I' for Inactive)
ROOT
ATOM      1  C1  BNZ d   1       1.128   0.753   0.852  0.00  0.00     0.000 A 
ATOM      2  C2  BNZ d   1       1.064   2.114   0.719  0.00  0.00     0.000 A 
ATOM      3  C3  BNZ d   1       1.268   2.709  -0.494  0.00  0.00     0.000 A 
ATOM      4  C4  BNZ d   1       1.575   1.947  -1.563  0.00  0.00     0.000 A 
ATOM      5  C5  BNZ d   1       1.653   0.573  -1.443  0.00  0.00     0.000 A 
ATOM      6  C6  BNZ d   1       1.408  -0.025  -0.228  0.00  0.00     0.000 A 
ENDROOT
TORSDOF 0
ENDMDL
