MODEL 1
REMARK minimizedAffinity 0.692821026
REMARK minimizedRMSD -1
REMARK  0 active torsions:
REMARK  status: ('A' for Active; 'I' for Inactive)
ROOT
ATOM      1  C1  BNZ d   1       0.775   2.315   0.019  0.00  0.00     0.000 A 
ATOM      2  C2  BNZ d   1      -0.242   1.477  -0.355  0.00  0.00     0.000 A 
ATOM      3  C3  BNZ d   1      -0.505   0.337   0.352  0.00  0.00     0.000 A 
ATOM      4  C4  BNZ d   1       0.274   0.015   1.406  0.00  0.00     0.000 A 
ATOM      5  C5  BNZ d   1       1.309   0.845   1.789  0.00  0.00     0.000 A 
ATOM      6  C6  BNZ d   1       1.546   2.012   1.099  0.00  0.00     0.000 A 
ENDROOT
TORSDOF 0
ENDMDL
