MODEL 1
REMARK minimizedAffinity 0.956454873
REMARK minimizedRMSD -1
REMARK  0 active torsions:
REMARK  status: ('A' for Active; 'I' for Inactive)
ROOT
ATOM      1  C1  BNZ d   1       0.701   5.895  -4.374  0.00  0.00     0.000 A 
ATOM      2  C2  BNZ d   1      -0.231   5.914  -3.372  0.00  0.00     0.000 A 
ATOM      3  C3  BNZ d   1      -1.567   5.943  -3.660  0.00  0.00     0.000 A 
ATOM      4  C4  BNZ d   1      -1.968   5.993  -4.947  0.00  0.00     0.000 A 
ATOM      5  C5  BNZ d   1      -1.039   5.984  -5.968  0.00  0.00     0.000 A 
ATOM      6  C6  BNZ d   1       0.304   5.916  -5.676  0.00  0.00     0.000 A 
ENDROOT
TORSDOF 0
ENDMDL
