MODEL 1
REMARK minimizedAffinity -1.54053712
REMARK minimizedRMSD -1
REMARK  0 active torsions:
REMARK  status: ('A' for Active; 'I' for Inactive)
ROOT
ATOM      1  C1  BNZ d   1       0.683   0.789   1.320  0.00  0.00     0.000 A 
ATOM      2  C2  BNZ d   1       1.179   2.038   1.056  0.00  0.00     0.000 A 
ATOM      3  C3  BNZ d   1       1.344   2.468  -0.231  0.00  0.00     0.000 A 
ATOM      4  C4  BNZ d   1       1.051   1.636  -1.250  0.00  0.00     0.000 A 
ATOM      5  C5  BNZ d   1       0.558   0.370  -1.001  0.00  0.00     0.000 A 
ATOM      6  C6  BNZ d   1       0.357  -0.045   0.296  0.00  0.00     0.000 A 
ENDROOT
TORSDOF 0
ENDMDL
