MODEL 1
REMARK minimizedAffinity -2.23983598
REMARK minimizedRMSD -1
REMARK  0 active torsions:
REMARK  status: ('A' for Active; 'I' for Inactive)
ROOT
ATOM      1  C1  BNZ d   1       3.939   3.794  -4.435  0.00  0.00     0.000 A 
ATOM      2  C2  BNZ d   1       5.309   3.806  -4.431  0.00  0.00     0.000 A 
ATOM      3  C3  BNZ d   1       6.000   4.918  -4.825  0.00  0.00     0.000 A 
ATOM      4  C4  BNZ d   1       5.323   6.000  -5.259  0.00  0.00     0.000 A 
ATOM      5  C5  BNZ d   1       3.942   6.000  -5.278  0.00  0.00     0.000 A 
ATOM      6  C6  BNZ d   1       3.249   4.893  -4.844  0.00  0.00     0.000 A 
ENDROOT
TORSDOF 0
ENDMDL
