MODEL 1
REMARK minimizedAffinity -0.232061788
REMARK minimizedRMSD -1
REMARK  0 active torsions:
REMARK  status: ('A' for Active; 'I' for Inactive)
ROOT
ATOM      1  C1  BNZ d   1      -1.664   5.986  -1.016  0.00  0.00     0.000 A 
ATOM      2  C2  BNZ d   1      -1.434   5.983  -2.366  0.00  0.00     0.000 A 
ATOM      3  C3  BNZ d   1      -2.474   6.000  -3.253  0.00  0.00     0.000 A 
ATOM      4  C4  BNZ d   1      -3.740   5.980  -2.790  0.00  0.00     0.000 A 
ATOM      5  C5  BNZ d   1      -3.988   5.974  -1.432  0.00  0.00     0.000 A 
ATOM      6  C6  BNZ d   1      -2.939   5.996  -0.542  0.00  0.00     0.000 A 
ENDROOT
TORSDOF 0
ENDMDL
