MODEL 1
REMARK minimizedAffinity -0.403591692
REMARK minimizedRMSD -1
REMARK  0 active torsions:
REMARK  status: ('A' for Active; 'I' for Inactive)
ROOT
ATOM      1  C1  BNZ d   1       3.776   4.079  -4.560  0.00  0.00     0.000 A 
ATOM      2  C2  BNZ d   1       2.410   4.146  -4.497  0.00  0.00     0.000 A 
ATOM      3  C3  BNZ d   1       1.722   5.095  -5.200  0.00  0.00     0.000 A 
ATOM      4  C4  BNZ d   1       2.403   6.000  -5.933  0.00  0.00     0.000 A 
ATOM      5  C5  BNZ d   1       3.781   5.951  -6.000  0.00  0.00     0.000 A 
ATOM      6  C6  BNZ d   1       4.467   4.970  -5.322  0.00  0.00     0.000 A 
ENDROOT
TORSDOF 0
ENDMDL
