MODEL 1
REMARK minimizedAffinity 6.9082489
REMARK minimizedRMSD -1
REMARK  0 active torsions:
REMARK  status: ('A' for Active; 'I' for Inactive)
ROOT
ATOM      1  C2' OXE d   1      -1.902   2.753  -0.705  0.00  0.00     0.078 C 
ATOM      2  C1' OXE d   1       0.709   2.132   0.119  0.00  0.00     0.078 C 
ATOM      3  C1  OXE d   1       0.460   3.505  -0.452  0.00  0.00    -0.078 A 
ATOM      4  C2  OXE d   1      -0.810   3.785  -0.896  0.00  0.00    -0.078 A 
ATOM      5  C3  OXE d   1      -1.107   5.055  -1.381  0.00  0.00     0.003 A 
ATOM      6  C4  OXE d   1      -0.090   6.000  -1.564  0.00  0.00    -0.002 A 
ATOM      7  C5  OXE d   1       1.219   5.721  -1.156  0.00  0.00    -0.002 A 
ATOM      8  C6  OXE d   1       1.501   4.497  -0.560  0.00  0.00     0.003 A 
ENDROOT
TORSDOF 0
ENDMDL
