MODEL 1
REMARK minimizedAffinity 7.90094185
REMARK minimizedRMSD -1
REMARK  0 active torsions:
REMARK  status: ('A' for Active; 'I' for Inactive)
ROOT
ATOM      1  C2' OXE d   1       0.122   2.722  -0.471  0.00  0.00     0.078 C 
ATOM      2  C1' OXE d   1       0.229   0.588  -2.292  0.00  0.00     0.078 C 
ATOM      3  C1  OXE d   1       0.789   0.362  -0.910  0.00  0.00    -0.078 A 
ATOM      4  C2  OXE d   1       0.775   1.426  -0.040  0.00  0.00    -0.078 A 
ATOM      5  C3  OXE d   1       1.229   1.255   1.265  0.00  0.00     0.003 A 
ATOM      6  C4  OXE d   1       1.840   0.057   1.652  0.00  0.00    -0.002 A 
ATOM      7  C5  OXE d   1       1.900  -1.027   0.769  0.00  0.00    -0.002 A 
ATOM      8  C6  OXE d   1       1.342  -0.905  -0.499  0.00  0.00     0.003 A 
ENDROOT
TORSDOF 0
ENDMDL
