MODEL 1
REMARK minimizedAffinity 3.15541101
REMARK minimizedRMSD -1
REMARK  0 active torsions:
REMARK  status: ('A' for Active; 'I' for Inactive)
ROOT
ATOM      1  C2' OXE d   1       0.246  -0.203  -2.565  0.00  0.00     0.078 C 
ATOM      2  C1' OXE d   1       1.637  -1.408  -0.445  0.00  0.00     0.078 C 
ATOM      3  C1  OXE d   1       1.198   0.024  -0.274  0.00  0.00    -0.078 A 
ATOM      4  C2  OXE d   1       0.559   0.621  -1.334  0.00  0.00    -0.078 A 
ATOM      5  C3  OXE d   1       0.084   1.923  -1.209  0.00  0.00     0.003 A 
ATOM      6  C4  OXE d   1       0.386   2.681  -0.071  0.00  0.00    -0.002 A 
ATOM      7  C5  OXE d   1       1.070   2.105   1.004  0.00  0.00    -0.002 A 
ATOM      8  C6  OXE d   1       1.445   0.768   0.936  0.00  0.00     0.003 A 
ENDROOT
TORSDOF 0
ENDMDL
