MODEL 1
REMARK minimizedAffinity 8.56052971
REMARK minimizedRMSD -1
REMARK  0 active torsions:
REMARK  status: ('A' for Active; 'I' for Inactive)
ROOT
ATOM      1  C2' OXE d   1      -1.123   1.501  -4.896  0.00  0.00     0.078 C 
ATOM      2  C1' OXE d   1      -3.788   0.937  -4.219  0.00  0.00     0.078 C 
ATOM      3  C1  OXE d   1      -3.425   2.372  -4.511  0.00  0.00    -0.078 A 
ATOM      4  C2  OXE d   1      -2.109   2.645  -4.795  0.00  0.00    -0.078 A 
ATOM      5  C3  OXE d   1      -1.730   3.944  -5.125  0.00  0.00     0.003 A 
ATOM      6  C4  OXE d   1      -2.646   4.997  -5.020  0.00  0.00    -0.002 A 
ATOM      7  C5  OXE d   1      -3.983   4.746  -4.693  0.00  0.00    -0.002 A 
ATOM      8  C6  OXE d   1      -4.397   3.437  -4.477  0.00  0.00     0.003 A 
ENDROOT
TORSDOF 0
ENDMDL
