MODEL 1
REMARK minimizedAffinity 6.52605391
REMARK minimizedRMSD -1
REMARK  0 active torsions:
REMARK  status: ('A' for Active; 'I' for Inactive)
ROOT
ATOM      1  C2' OXE d   1       1.760  -1.111   0.537  0.00  0.00     0.078 C 
ATOM      2  C1' OXE d   1       1.127  -0.624  -2.154  0.00  0.00     0.078 C 
ATOM      3  C1  OXE d   1       0.787   0.446  -1.147  0.00  0.00    -0.078 A 
ATOM      4  C2  OXE d   1       1.058   0.180   0.174  0.00  0.00    -0.078 A 
ATOM      5  C3  OXE d   1       0.815   1.155   1.137  0.00  0.00     0.003 A 
ATOM      6  C4  OXE d   1       0.156   2.341   0.794  0.00  0.00    -0.002 A 
ATOM      7  C5  OXE d   1      -0.164   2.615  -0.540  0.00  0.00    -0.002 A 
ATOM      8  C6  OXE d   1       0.182   1.698  -1.526  0.00  0.00     0.003 A 
ENDROOT
TORSDOF 0
ENDMDL
