MODEL 1
REMARK minimizedAffinity 0.152246431
REMARK minimizedRMSD -1
REMARK  0 active torsions:
REMARK  status: ('A' for Active; 'I' for Inactive)
ROOT
ATOM      1  C2' OXE d   1      -2.614   2.384   0.333  0.00  0.00     0.078 C 
ATOM      2  C1' OXE d   1      -5.305   1.593   0.431  0.00  0.00     0.078 C 
ATOM      3  C1  OXE d   1      -4.980   3.026   0.773  0.00  0.00    -0.078 A 
ATOM      4  C2  OXE d   1      -3.656   3.392   0.768  0.00  0.00    -0.078 A 
ATOM      5  C3  OXE d   1      -3.306   4.715   1.022  0.00  0.00     0.003 A 
ATOM      6  C4  OXE d   1      -4.275   5.638   1.433  0.00  0.00    -0.002 A 
ATOM      7  C5  OXE d   1      -5.625   5.276   1.484  0.00  0.00    -0.002 A 
ATOM      8  C6  OXE d   1      -5.998   3.988   1.116  0.00  0.00     0.003 A 
ENDROOT
TORSDOF 0
ENDMDL
