MODEL 1
REMARK minimizedAffinity 7.12023306
REMARK minimizedRMSD -1
REMARK  0 active torsions:
REMARK  status: ('A' for Active; 'I' for Inactive)
ROOT
ATOM      1  C2' OXE d   1      -0.879   0.678  -2.431  0.00  0.00     0.078 C 
ATOM      2  C1' OXE d   1       0.109   0.304  -5.032  0.00  0.00     0.078 C 
ATOM      3  C1  OXE d   1      -0.873   1.427  -4.807  0.00  0.00    -0.078 A 
ATOM      4  C2  OXE d   1      -1.386   1.574  -3.541  0.00  0.00    -0.078 A 
ATOM      5  C3  OXE d   1      -2.253   2.628  -3.267  0.00  0.00     0.003 A 
ATOM      6  C4  OXE d   1      -2.725   3.445  -4.301  0.00  0.00    -0.002 A 
ATOM      7  C5  OXE d   1      -2.245   3.288  -5.605  0.00  0.00    -0.002 A 
ATOM      8  C6  OXE d   1      -1.288   2.313  -5.867  0.00  0.00     0.003 A 
ENDROOT
TORSDOF 0
ENDMDL
