MODEL 1
REMARK minimizedAffinity 10.2009716
REMARK minimizedRMSD -1
REMARK  0 active torsions:
REMARK  status: ('A' for Active; 'I' for Inactive)
ROOT
ATOM      1  C2' OXE d   1      -1.182   1.918  -5.301  0.00  0.00     0.078 C 
ATOM      2  C1' OXE d   1      -3.774   1.092  -5.995  0.00  0.00     0.078 C 
ATOM      3  C1  OXE d   1      -3.566   2.547  -5.659  0.00  0.00    -0.078 A 
ATOM      4  C2  OXE d   1      -2.304   2.934  -5.275  0.00  0.00    -0.078 A 
ATOM      5  C3  OXE d   1      -2.046   4.275  -5.007  0.00  0.00     0.003 A 
ATOM      6  C4  OXE d   1      -3.091   5.206  -4.975  0.00  0.00    -0.002 A 
ATOM      7  C5  OXE d   1      -4.391   4.825  -5.324  0.00  0.00    -0.002 A 
ATOM      8  C6  OXE d   1      -4.637   3.512  -5.709  0.00  0.00     0.003 A 
ENDROOT
TORSDOF 0
ENDMDL
