MODEL 1
REMARK minimizedAffinity -0.329594284
REMARK minimizedRMSD -1
REMARK  0 active torsions:
REMARK  status: ('A' for Active; 'I' for Inactive)
ROOT
ATOM      1  C2' OXE d   1      -2.263   2.650  -3.761  0.00  0.00     0.078 C 
ATOM      2  C1' OXE d   1      -2.222   4.518  -5.856  0.00  0.00     0.078 C 
ATOM      3  C1  OXE d   1      -3.563   3.992  -5.409  0.00  0.00    -0.078 A 
ATOM      4  C2  OXE d   1      -3.570   3.043  -4.415  0.00  0.00    -0.078 A 
ATOM      5  C3  OXE d   1      -4.783   2.565  -3.927  0.00  0.00     0.003 A 
ATOM      6  C4  OXE d   1      -5.987   2.926  -4.544  0.00  0.00    -0.002 A 
ATOM      7  C5  OXE d   1      -5.999   3.861  -5.584  0.00  0.00    -0.002 A 
ATOM      8  C6  OXE d   1      -4.802   4.434  -5.999  0.00  0.00     0.003 A 
ENDROOT
TORSDOF 0
ENDMDL
