MODEL 1
REMARK minimizedAffinity -4.5644455
REMARK minimizedRMSD -1
REMARK  0 active torsions:
REMARK  status: ('A' for Active; 'I' for Inactive)
ROOT
ATOM      1  O1  BZF d   1       2.719   3.559   1.750  0.00  0.00    -0.204 OA
ATOM      2  C2  BZF d   1       3.584   2.520   1.465  0.00  0.00     0.174 A 
ATOM      3  C3  BZF d   1       3.181   1.850   0.366  0.00  0.00    -0.012 A 
ATOM      4  C3A BZF d   1       2.041   2.568  -0.116  0.00  0.00    -0.107 A 
ATOM      5  C4  BZF d   1       1.210   2.401  -1.187  0.00  0.00     0.055 A 
ATOM      6  C5  BZF d   1       0.146   3.234  -1.333  0.00  0.00    -0.016 A 
ATOM      7  C6  BZF d   1      -0.119   4.239  -0.426  0.00  0.00     0.022 A 
ATOM      8  C7  BZF d   1       0.679   4.446   0.649  0.00  0.00     0.029 A 
ATOM      9  C7A BZF d   1       1.774   3.627   0.782  0.00  0.00     0.058 A 
ENDROOT
TORSDOF 0
ENDMDL
