MODEL 1
REMARK minimizedAffinity 1.9001739
REMARK minimizedRMSD -1
REMARK  0 active torsions:
REMARK  status: ('A' for Active; 'I' for Inactive)
ROOT
ATOM      1  O1  BZF d   1       2.799   0.699   1.063  0.00  0.00    -0.204 OA
ATOM      2  C2  BZF d   1       2.842   0.159  -0.208  0.00  0.00     0.174 A 
ATOM      3  C3  BZF d   1       1.930   0.746  -1.008  0.00  0.00    -0.012 A 
ATOM      4  C3A BZF d   1       1.339   1.778  -0.212  0.00  0.00    -0.107 A 
ATOM      5  C4  BZF d   1       0.378   2.717  -0.455  0.00  0.00     0.055 A 
ATOM      6  C5  BZF d   1      -0.024   3.528   0.559  0.00  0.00    -0.016 A 
ATOM      7  C6  BZF d   1       0.510   3.424   1.827  0.00  0.00     0.022 A 
ATOM      8  C7  BZF d   1       1.469   2.512   2.115  0.00  0.00     0.029 A 
ATOM      9  C7A BZF d   1       1.901   1.712   1.084  0.00  0.00     0.058 A 
ENDROOT
TORSDOF 0
ENDMDL
