MODEL 1
REMARK minimizedAffinity 7.04816961
REMARK minimizedRMSD -1
REMARK  0 active torsions:
REMARK  status: ('A' for Active; 'I' for Inactive)
ROOT
ATOM      1  O1  BZF d   1       0.250  -0.303   0.964  0.00  0.00    -0.204 OA
ATOM      2  C2  BZF d   1       1.441  -0.769   0.440  0.00  0.00     0.174 A 
ATOM      3  C3  BZF d   1       2.090   0.212  -0.219  0.00  0.00    -0.012 A 
ATOM      4  C3A BZF d   1       1.297   1.387  -0.021  0.00  0.00    -0.107 A 
ATOM      5  C4  BZF d   1       1.429   2.687  -0.418  0.00  0.00     0.055 A 
ATOM      6  C5  BZF d   1       0.442   3.572  -0.120  0.00  0.00    -0.016 A 
ATOM      7  C6  BZF d   1      -0.691   3.191   0.568  0.00  0.00     0.022 A 
ATOM      8  C7  BZF d   1      -0.865   1.914   0.988  0.00  0.00     0.029 A 
ATOM      9  C7A BZF d   1       0.146   1.024   0.717  0.00  0.00     0.058 A 
ENDROOT
TORSDOF 0
ENDMDL
