MODEL 1
REMARK minimizedAffinity 11.6601095
REMARK minimizedRMSD -1
REMARK  0 active torsions:
REMARK  status: ('A' for Active; 'I' for Inactive)
ROOT
ATOM      1  O1  BZF d   1      -3.499   0.536   1.498  0.00  0.00    -0.204 OA
ATOM      2  C2  BZF d   1      -4.406   1.298   0.787  0.00  0.00     0.174 A 
ATOM      3  C3  BZF d   1      -3.846   2.459   0.388  0.00  0.00    -0.012 A 
ATOM      4  C3A BZF d   1      -2.478   2.378   0.801  0.00  0.00    -0.107 A 
ATOM      5  C4  BZF d   1      -1.409   3.218   0.676  0.00  0.00     0.055 A 
ATOM      6  C5  BZF d   1      -0.228   2.874   1.254  0.00  0.00    -0.016 A 
ATOM      7  C6  BZF d   1      -0.082   1.702   1.966  0.00  0.00     0.022 A 
ATOM      8  C7  BZF d   1      -1.113   0.834   2.112  0.00  0.00     0.029 A 
ATOM      9  C7A BZF d   1      -2.299   1.163   1.502  0.00  0.00     0.058 A 
ENDROOT
TORSDOF 0
ENDMDL
