MODEL 1
REMARK minimizedAffinity 1.87983644
REMARK minimizedRMSD -1
REMARK  0 active torsions:
REMARK  status: ('A' for Active; 'I' for Inactive)
ROOT
ATOM      1  O1  BZF d   1       0.447   3.756   0.138  0.00  0.00    -0.204 OA
ATOM      2  C2  BZF d   1      -0.508   2.761   0.057  0.00  0.00     0.174 A 
ATOM      3  C3  BZF d   1       0.042   1.551   0.283  0.00  0.00    -0.012 A 
ATOM      4  C3A BZF d   1       1.410   1.815   0.612  0.00  0.00    -0.107 A 
ATOM      5  C4  BZF d   1       2.464   1.016   0.952  0.00  0.00     0.055 A 
ATOM      6  C5  BZF d   1       3.686   1.581   1.140  0.00  0.00    -0.016 A 
ATOM      7  C6  BZF d   1       3.890   2.937   0.991  0.00  0.00     0.022 A 
ATOM      8  C7  BZF d   1       2.874   3.770   0.659  0.00  0.00     0.029 A 
ATOM      9  C7A BZF d   1       1.631   3.207   0.501  0.00  0.00     0.058 A 
ENDROOT
TORSDOF 0
ENDMDL
