MODEL 1
REMARK minimizedAffinity -2.10565758
REMARK minimizedRMSD -1
REMARK  0 active torsions:
REMARK  status: ('A' for Active; 'I' for Inactive)
ROOT
ATOM      1  O1  BZF d   1      -1.094   3.524   0.280  0.00  0.00    -0.204 OA
ATOM      2  C2  BZF d   1      -2.162   2.648   0.285  0.00  0.00     0.174 A 
ATOM      3  C3  BZF d   1      -1.732   1.370   0.334  0.00  0.00    -0.012 A 
ATOM      4  C3A BZF d   1      -0.309   1.457   0.455  0.00  0.00    -0.107 A 
ATOM      5  C4  BZF d   1       0.683   0.524   0.564  0.00  0.00     0.055 A 
ATOM      6  C5  BZF d   1       1.977   0.936   0.591  0.00  0.00    -0.016 A 
ATOM      7  C6  BZF d   1       2.317   2.270   0.506  0.00  0.00     0.022 A 
ATOM      8  C7  BZF d   1       1.368   3.233   0.403  0.00  0.00     0.029 A 
ATOM      9  C7A BZF d   1       0.057   2.822   0.408  0.00  0.00     0.058 A 
ENDROOT
TORSDOF 0
ENDMDL
