MODEL 1
REMARK minimizedAffinity 3.31840801
REMARK minimizedRMSD -1
REMARK  0 active torsions:
REMARK  status: ('A' for Active; 'I' for Inactive)
ROOT
ATOM      1  O1  BZF d   1       2.828   0.807   0.853  0.00  0.00    -0.204 OA
ATOM      2  C2  BZF d   1       3.725   1.855   0.927  0.00  0.00     0.174 A 
ATOM      3  C3  BZF d   1       3.091   3.038   0.791  0.00  0.00    -0.012 A 
ATOM      4  C3A BZF d   1       1.700   2.712   0.715  0.00  0.00    -0.107 A 
ATOM      5  C4  BZF d   1       0.566   3.463   0.591  0.00  0.00     0.055 A 
ATOM      6  C5  BZF d   1      -0.633   2.833   0.472  0.00  0.00    -0.016 A 
ATOM      7  C6  BZF d   1      -0.733   1.458   0.468  0.00  0.00     0.022 A 
ATOM      8  C7  BZF d   1       0.364   0.671   0.593  0.00  0.00     0.029 A 
ATOM      9  C7A BZF d   1       1.573   1.305   0.747  0.00  0.00     0.058 A 
ENDROOT
TORSDOF 0
ENDMDL
