MODEL 1
REMARK minimizedAffinity 4.69387817
REMARK minimizedRMSD -1
REMARK  0 active torsions:
REMARK  status: ('A' for Active; 'I' for Inactive)
ROOT
ATOM      1  O1  BZF d   1      -5.998   4.228  -3.586  0.00  0.00    -0.204 OA
ATOM      2  C2  BZF d   1      -5.993   5.606  -3.488  0.00  0.00     0.174 A 
ATOM      3  C3  BZF d   1      -5.997   5.993  -2.196  0.00  0.00    -0.012 A 
ATOM      4  C3A BZF d   1      -5.912   4.782  -1.440  0.00  0.00    -0.107 A 
ATOM      5  C4  BZF d   1      -5.862   4.512  -0.102  0.00  0.00     0.055 A 
ATOM      6  C5  BZF d   1      -5.857   3.217   0.311  0.00  0.00    -0.016 A 
ATOM      7  C6  BZF d   1      -5.908   2.169  -0.585  0.00  0.00     0.022 A 
ATOM      8  C7  BZF d   1      -5.954   2.387  -1.922  0.00  0.00     0.029 A 
ATOM      9  C7A BZF d   1      -5.925   3.694  -2.343  0.00  0.00     0.058 A 
ENDROOT
TORSDOF 0
ENDMDL
