MODEL 1
REMARK minimizedAffinity 3.85033703
REMARK minimizedRMSD -1
REMARK  0 active torsions:
REMARK  status: ('A' for Active; 'I' for Inactive)
ROOT
ATOM      1  O1  BZF d   1      -1.439   3.756   0.333  0.00  0.00    -0.204 OA
ATOM      2  C2  BZF d   1      -2.620   3.059   0.171  0.00  0.00     0.174 A 
ATOM      3  C3  BZF d   1      -2.411   1.731   0.275  0.00  0.00    -0.012 A 
ATOM      4  C3A BZF d   1      -1.026   1.593   0.610  0.00  0.00    -0.107 A 
ATOM      5  C4  BZF d   1      -0.223   0.518   0.860  0.00  0.00     0.055 A 
ATOM      6  C5  BZF d   1       1.101   0.721   1.085  0.00  0.00    -0.016 A 
ATOM      7  C6  BZF d   1       1.657   1.983   1.062  0.00  0.00     0.022 A 
ATOM      8  C7  BZF d   1       0.899   3.081   0.823  0.00  0.00     0.029 A 
ATOM      9  C7A BZF d   1      -0.446   2.883   0.628  0.00  0.00     0.058 A 
ENDROOT
TORSDOF 0
ENDMDL
