MODEL 1
REMARK minimizedAffinity 8.76738358
REMARK minimizedRMSD -1
REMARK  0 active torsions:
REMARK  status: ('A' for Active; 'I' for Inactive)
ROOT
ATOM      1  O1  BZF d   1       1.938   1.333   0.163  0.00  0.00    -0.204 OA
ATOM      2  C2  BZF d   1       2.281   2.649  -0.080  0.00  0.00     0.174 A 
ATOM      3  C3  BZF d   1       1.351   3.486   0.423  0.00  0.00    -0.012 A 
ATOM      4  C3A BZF d   1       0.412   2.644   1.098  0.00  0.00    -0.107 A 
ATOM      5  C4  BZF d   1      -0.727   2.890   1.810  0.00  0.00     0.055 A 
ATOM      6  C5  BZF d   1      -1.453   1.841   2.277  0.00  0.00    -0.016 A 
ATOM      7  C6  BZF d   1      -1.073   0.535   2.048  0.00  0.00     0.022 A 
ATOM      8  C7  BZF d   1       0.053   0.241   1.352  0.00  0.00     0.029 A 
ATOM      9  C7A BZF d   1       0.806   1.299   0.907  0.00  0.00     0.058 A 
ENDROOT
TORSDOF 0
ENDMDL
