MODEL 1
REMARK minimizedAffinity 1.04092789
REMARK minimizedRMSD -1
REMARK  0 active torsions:
REMARK  status: ('A' for Active; 'I' for Inactive)
ROOT
ATOM      1  O1  BZF d   1       1.300   0.314   1.000  0.00  0.00    -0.204 OA
ATOM      2  C2  BZF d   1       2.515  -0.176   0.563  0.00  0.00     0.174 A 
ATOM      3  C3  BZF d   1       3.113   0.702  -0.269  0.00  0.00    -0.012 A 
ATOM      4  C3A BZF d   1       2.257   1.848  -0.284  0.00  0.00    -0.107 A 
ATOM      5  C4  BZF d   1       2.321   3.059  -0.914  0.00  0.00     0.055 A 
ATOM      6  C5  BZF d   1       1.286   3.929  -0.776  0.00  0.00    -0.016 A 
ATOM      7  C6  BZF d   1       0.173   3.621  -0.023  0.00  0.00     0.022 A 
ATOM      8  C7  BZF d   1       0.067   2.435   0.624  0.00  0.00     0.029 A 
ATOM      9  C7A BZF d   1       1.125   1.566   0.514  0.00  0.00     0.058 A 
ENDROOT
TORSDOF 0
ENDMDL
