MODEL 1
REMARK minimizedAffinity 9.15628147
REMARK minimizedRMSD -1
REMARK  0 active torsions:
REMARK  status: ('A' for Active; 'I' for Inactive)
ROOT
ATOM      1  O1  BZF d   1       1.856   0.000   0.619  0.00  0.00    -0.204 OA
ATOM      2  C2  BZF d   1       1.356   1.272   0.825  0.00  0.00     0.174 A 
ATOM      3  C3  BZF d   1       1.081   1.873  -0.350  0.00  0.00    -0.012 A 
ATOM      4  C3A BZF d   1       1.344   0.885  -1.350  0.00  0.00    -0.107 A 
ATOM      5  C4  BZF d   1       1.243   0.876  -2.712  0.00  0.00     0.055 A 
ATOM      6  C5  BZF d   1       1.648  -0.225  -3.398  0.00  0.00    -0.016 A 
ATOM      7  C6  BZF d   1       2.162  -1.332  -2.756  0.00  0.00     0.022 A 
ATOM      8  C7  BZF d   1       2.277  -1.372  -1.406  0.00  0.00     0.029 A 
ATOM      9  C7A BZF d   1       1.838  -0.274  -0.708  0.00  0.00     0.058 A 
ENDROOT
TORSDOF 0
ENDMDL
