MODEL 1
REMARK minimizedAffinity 8.19746208
REMARK minimizedRMSD -1
REMARK  0 active torsions:
REMARK  status: ('A' for Active; 'I' for Inactive)
ROOT
ATOM      1  O1  BZF d   1       2.646   1.409  -0.450  0.00  0.00    -0.204 OA
ATOM      2  C2  BZF d   1       2.552   0.816   0.794  0.00  0.00     0.174 A 
ATOM      3  C3  BZF d   1       2.052  -0.432   0.693  0.00  0.00    -0.012 A 
ATOM      4  C3A BZF d   1       1.906  -0.666  -0.711  0.00  0.00    -0.107 A 
ATOM      5  C4  BZF d   1       1.471  -1.732  -1.445  0.00  0.00     0.055 A 
ATOM      6  C5  BZF d   1       1.382  -1.612  -2.796  0.00  0.00    -0.016 A 
ATOM      7  C6  BZF d   1       1.715  -0.441  -3.444  0.00  0.00     0.022 A 
ATOM      8  C7  BZF d   1       2.156   0.642  -2.759  0.00  0.00     0.029 A 
ATOM      9  C7A BZF d   1       2.279   0.513  -1.397  0.00  0.00     0.058 A 
ENDROOT
TORSDOF 0
ENDMDL
