MODEL 1
REMARK minimizedAffinity 5.84816217
REMARK minimizedRMSD -1
REMARK  0 active torsions:
REMARK  status: ('A' for Active; 'I' for Inactive)
ROOT
ATOM      1  O1  BZF d   1       0.785   2.938   1.031  0.00  0.00    -0.204 OA
ATOM      2  C2  BZF d   1      -0.556   2.608   1.028  0.00  0.00     0.174 A 
ATOM      3  C3  BZF d   1      -0.725   1.294   0.773  0.00  0.00    -0.012 A 
ATOM      4  C3A BZF d   1       0.597   0.752   0.697  0.00  0.00    -0.107 A 
ATOM      5  C4  BZF d   1       1.086  -0.504   0.482  0.00  0.00     0.055 A 
ATOM      6  C5  BZF d   1       2.430  -0.684   0.395  0.00  0.00    -0.016 A 
ATOM      7  C6  BZF d   1       3.312   0.369   0.513  0.00  0.00     0.022 A 
ATOM      8  C7  BZF d   1       2.875   1.633   0.732  0.00  0.00     0.029 A 
ATOM      9  C7A BZF d   1       1.519   1.813   0.854  0.00  0.00     0.058 A 
ENDROOT
TORSDOF 0
ENDMDL
