MODEL 1
REMARK minimizedAffinity 6.12133312
REMARK minimizedRMSD -1
REMARK  0 active torsions:
REMARK  status: ('A' for Active; 'I' for Inactive)
ROOT
ATOM      1  O1  BZF d   1       0.480  -0.066   0.754  0.00  0.00    -0.204 OA
ATOM      2  C2  BZF d   1       1.716   0.391   0.339  0.00  0.00     0.174 A 
ATOM      3  C3  BZF d   1       1.674   1.714   0.081  0.00  0.00    -0.012 A 
ATOM      4  C3A BZF d   1       0.351   2.126   0.440  0.00  0.00    -0.107 A 
ATOM      5  C4  BZF d   1      -0.294   3.330   0.425  0.00  0.00     0.055 A 
ATOM      6  C5  BZF d   1      -1.607   3.379   0.769  0.00  0.00    -0.016 A 
ATOM      7  C6  BZF d   1      -2.307   2.246   1.129  0.00  0.00     0.022 A 
ATOM      8  C7  BZF d   1      -1.708   1.031   1.164  0.00  0.00     0.029 A 
ATOM      9  C7A BZF d   1      -0.373   0.982   0.848  0.00  0.00     0.058 A 
ENDROOT
TORSDOF 0
ENDMDL
