MODEL 1
REMARK minimizedAffinity 3.64504576
REMARK minimizedRMSD -1
REMARK  0 active torsions:
REMARK  status: ('A' for Active; 'I' for Inactive)
ROOT
ATOM      1  O1  BZF d   1       2.968   3.520  -0.408  0.00  0.00    -0.204 OA
ATOM      2  C2  BZF d   1       3.591   2.696   0.509  0.00  0.00     0.174 A 
ATOM      3  C3  BZF d   1       2.692   2.169   1.366  0.00  0.00    -0.012 A 
ATOM      4  C3A BZF d   1       1.418   2.624   0.902  0.00  0.00    -0.107 A 
ATOM      5  C4  BZF d   1       0.137   2.423   1.329  0.00  0.00     0.055 A 
ATOM      6  C5  BZF d   1      -0.879   3.069   0.698  0.00  0.00    -0.016 A 
ATOM      7  C6  BZF d   1      -0.649   3.927  -0.357  0.00  0.00     0.022 A 
ATOM      8  C7  BZF d   1       0.604   4.154  -0.820  0.00  0.00     0.029 A 
ATOM      9  C7A BZF d   1       1.630   3.477  -0.206  0.00  0.00     0.058 A 
ENDROOT
TORSDOF 0
ENDMDL
