MODEL 1
REMARK minimizedAffinity 14.0905342
REMARK minimizedRMSD -1
REMARK  0 active torsions:
REMARK  status: ('A' for Active; 'I' for Inactive)
ROOT
ATOM      1  O1  BZF d   1       1.689  -0.066   0.748  0.00  0.00    -0.204 OA
ATOM      2  C2  BZF d   1       2.839   0.450   0.182  0.00  0.00     0.174 A 
ATOM      3  C3  BZF d   1       2.765   1.794   0.089  0.00  0.00    -0.012 A 
ATOM      4  C3A BZF d   1       1.528   2.147   0.715  0.00  0.00    -0.107 A 
ATOM      5  C4  BZF d   1       0.901   3.337   0.949  0.00  0.00     0.055 A 
ATOM      6  C5  BZF d   1      -0.334   3.333   1.517  0.00  0.00    -0.016 A 
ATOM      7  C6  BZF d   1      -0.971   2.158   1.859  0.00  0.00     0.022 A 
ATOM      8  C7  BZF d   1      -0.387   0.953   1.651  0.00  0.00     0.029 A 
ATOM      9  C7A BZF d   1       0.874   0.956   1.107  0.00  0.00     0.058 A 
ENDROOT
TORSDOF 0
ENDMDL
