MODEL 1
REMARK minimizedAffinity 8.0888586
REMARK minimizedRMSD -1
REMARK  0 active torsions:
REMARK  status: ('A' for Active; 'I' for Inactive)
ROOT
ATOM      1  O1  BZF d   1       0.306  -1.171   1.166  0.00  0.00    -0.204 OA
ATOM      2  C2  BZF d   1       1.556  -1.265   0.585  0.00  0.00     0.174 A 
ATOM      3  C3  BZF d   1       2.003  -0.048   0.212  0.00  0.00    -0.012 A 
ATOM      4  C3A BZF d   1       1.007   0.874   0.667  0.00  0.00    -0.107 A 
ATOM      5  C4  BZF d   1       0.889   2.233   0.608  0.00  0.00     0.055 A 
ATOM      6  C5  BZF d   1      -0.242   2.819   1.081  0.00  0.00    -0.016 A 
ATOM      7  C6  BZF d   1      -1.276   2.077   1.614  0.00  0.00     0.022 A 
ATOM      8  C7  BZF d   1      -1.202   0.726   1.698  0.00  0.00     0.029 A 
ATOM      9  C7A BZF d   1      -0.047   0.134   1.251  0.00  0.00     0.058 A 
ENDROOT
TORSDOF 0
ENDMDL
