MODEL 1
REMARK minimizedAffinity 11.2945404
REMARK minimizedRMSD -1
REMARK  0 active torsions:
REMARK  status: ('A' for Active; 'I' for Inactive)
ROOT
ATOM      1  O1  BZF d   1      -0.977   3.505   0.173  0.00  0.00    -0.204 OA
ATOM      2  C2  BZF d   1      -1.491   2.574   1.055  0.00  0.00     0.174 A 
ATOM      3  C3  BZF d   1      -0.517   1.762   1.515  0.00  0.00    -0.012 A 
ATOM      4  C3A BZF d   1       0.695   2.272   0.951  0.00  0.00    -0.107 A 
ATOM      5  C4  BZF d   1       2.006   1.901   1.050  0.00  0.00     0.055 A 
ATOM      6  C5  BZF d   1       2.937   2.564   0.315  0.00  0.00    -0.016 A 
ATOM      7  C6  BZF d   1       2.593   3.597  -0.531  0.00  0.00     0.022 A 
ATOM      8  C7  BZF d   1       1.307   4.005  -0.659  0.00  0.00     0.029 A 
ATOM      9  C7A BZF d   1       0.368   3.359   0.107  0.00  0.00     0.058 A 
ENDROOT
TORSDOF 0
ENDMDL
