MODEL 1
REMARK minimizedAffinity -4.12035322
REMARK minimizedRMSD -1
REMARK  1 active torsions:
REMARK  status: ('A' for Active; 'I' for Inactive)
REMARK    1  A    between atoms: C3_4  and  O_7 
ROOT
ATOM      1  C   UNL d   1       0.537   0.134  -0.299  0.00  0.00    -0.033 A 
ATOM      2  C1  UNL d   1      -0.825   0.370  -0.104  0.00  0.00     0.039 A 
ATOM      3  C2  UNL d   1      -1.656  -0.656   0.349  0.00  0.00    -0.080 A 
ATOM      4  C3  UNL d   1      -1.113  -1.912   0.605  0.00  0.00     0.150 A 
ATOM      5  C4  UNL d   1       0.244  -2.153   0.417  0.00  0.00    -0.007 A 
ATOM      6  C5  UNL d   1       1.072  -1.128  -0.037  0.00  0.00     0.039 A 
ENDROOT
BRANCH   4   7
ATOM      7  O   UNL d   1      -1.885  -2.946   1.045  0.00  0.00    -0.526 OA
ATOM      8  H5  UNL d   1      -2.805  -2.641   1.102  0.00  0.00     0.418 HD
ENDBRANCH   4   7
TORSDOF 1
ENDMDL
