MODEL 1
REMARK minimizedAffinity -4.95345688
REMARK minimizedRMSD -1
REMARK  1 active torsions:
REMARK  status: ('A' for Active; 'I' for Inactive)
REMARK    1  A    between atoms: C3_4  and  O_7 
ROOT
ATOM      1  C   UNL d   1      -1.440  -2.476   1.427  0.00  0.00    -0.033 A 
ATOM      2  C1  UNL d   1      -0.056  -2.478   1.239  0.00  0.00     0.039 A 
ATOM      3  C2  UNL d   1       0.566  -1.400   0.606  0.00  0.00    -0.080 A 
ATOM      4  C3  UNL d   1      -0.206  -0.327   0.167  0.00  0.00     0.150 A 
ATOM      5  C4  UNL d   1      -1.584  -0.317   0.355  0.00  0.00    -0.007 A 
ATOM      6  C5  UNL d   1      -2.204  -1.395   0.986  0.00  0.00     0.039 A 
ENDROOT
BRANCH   4   7
ATOM      7  O   UNL d   1       0.355   0.745  -0.460  0.00  0.00    -0.526 OA
ATOM      8  H5  UNL d   1       1.310   0.587  -0.545  0.00  0.00     0.418 HD
ENDBRANCH   4   7
TORSDOF 1
ENDMDL
