MODEL 1
REMARK minimizedAffinity -1.67353272
REMARK minimizedRMSD -1
REMARK  1 active torsions:
REMARK  status: ('A' for Active; 'I' for Inactive)
REMARK    1  A    between atoms: C3_4  and  O_7 
ROOT
ATOM      1  C   UNL d   1       0.319   0.974  -0.435  0.00  0.00    -0.033 A 
ATOM      2  C1  UNL d   1       1.125  -0.161  -0.548  0.00  0.00     0.039 A 
ATOM      3  C2  UNL d   1       0.794  -1.327   0.145  0.00  0.00    -0.080 A 
ATOM      4  C3  UNL d   1      -0.345  -1.346   0.946  0.00  0.00     0.150 A 
ATOM      5  C4  UNL d   1      -1.154  -0.220   1.060  0.00  0.00    -0.007 A 
ATOM      6  C5  UNL d   1      -0.821   0.944   0.368  0.00  0.00     0.039 A 
ENDROOT
BRANCH   4   7
ATOM      7  O   UNL d   1      -0.706  -2.459   1.645  0.00  0.00    -0.526 OA
ATOM      8  H5  UNL d   1      -0.039  -3.148   1.492  0.00  0.00     0.418 HD
ENDBRANCH   4   7
TORSDOF 1
ENDMDL
