MODEL 1
REMARK minimizedAffinity -3.9956131
REMARK minimizedRMSD -1
REMARK  1 active torsions:
REMARK  status: ('A' for Active; 'I' for Inactive)
REMARK    1  A    between atoms: C3_4  and  O_7 
ROOT
ATOM      1  C   UNL d   1       0.642   1.040  -0.290  0.00  0.00    -0.033 A 
ATOM      2  C1  UNL d   1       1.451  -0.095  -0.380  0.00  0.00     0.039 A 
ATOM      3  C2  UNL d   1       0.930  -1.352  -0.068  0.00  0.00    -0.080 A 
ATOM      4  C3  UNL d   1      -0.399  -1.461   0.331  0.00  0.00     0.150 A 
ATOM      5  C4  UNL d   1      -1.212  -0.336   0.419  0.00  0.00    -0.007 A 
ATOM      6  C5  UNL d   1      -0.690   0.919   0.108  0.00  0.00     0.039 A 
ENDROOT
BRANCH   4   7
ATOM      7  O   UNL d   1      -0.950  -2.667   0.650  0.00  0.00    -0.526 OA
ATOM      8  H5  UNL d   1      -0.264  -3.350   0.571  0.00  0.00     0.418 HD
ENDBRANCH   4   7
TORSDOF 1
ENDMDL
