MODEL 1
REMARK minimizedAffinity -5.18102789
REMARK minimizedRMSD -1
REMARK  1 active torsions:
REMARK  status: ('A' for Active; 'I' for Inactive)
REMARK    1  A    between atoms: C3_4  and  O_7 
ROOT
ATOM      1  C   UNL d   1      -2.402  -2.458   1.806  0.00  0.00    -0.033 A 
ATOM      2  C1  UNL d   1      -2.953  -1.180   1.911  0.00  0.00     0.039 A 
ATOM      3  C2  UNL d   1      -2.300  -0.087   1.338  0.00  0.00    -0.080 A 
ATOM      4  C3  UNL d   1      -1.099  -0.286   0.663  0.00  0.00     0.150 A 
ATOM      5  C4  UNL d   1      -0.546  -1.558   0.551  0.00  0.00    -0.007 A 
ATOM      6  C5  UNL d   1      -1.200  -2.648   1.125  0.00  0.00     0.039 A 
ENDROOT
BRANCH   4   7
ATOM      7  O   UNL d   1      -0.422   0.750   0.091  0.00  0.00    -0.526 OA
ATOM      8  H5  UNL d   1      -0.907   1.572   0.273  0.00  0.00     0.418 HD
ENDBRANCH   4   7
TORSDOF 1
ENDMDL
