MODEL 1
REMARK minimizedAffinity -3.97898006
REMARK minimizedRMSD -1
REMARK  1 active torsions:
REMARK  status: ('A' for Active; 'I' for Inactive)
REMARK    1  A    between atoms: C3_4  and  O_7 
ROOT
ATOM      1  C   UNL d   1       0.884  -0.068   0.419  0.00  0.00    -0.033 A 
ATOM      2  C1  UNL d   1       1.303  -1.294   0.941  0.00  0.00     0.039 A 
ATOM      3  C2  UNL d   1       0.364  -2.275   1.264  0.00  0.00    -0.080 A 
ATOM      4  C3  UNL d   1      -0.989  -2.019   1.058  0.00  0.00     0.150 A 
ATOM      5  C4  UNL d   1      -1.413  -0.802   0.535  0.00  0.00    -0.007 A 
ATOM      6  C5  UNL d   1      -0.474   0.177   0.214  0.00  0.00     0.039 A 
ENDROOT
BRANCH   4   7
ATOM      7  O   UNL d   1      -1.943  -2.944   1.362  0.00  0.00    -0.526 OA
ATOM      8  H5  UNL d   1      -1.506  -3.725   1.742  0.00  0.00     0.418 HD
ENDBRANCH   4   7
TORSDOF 1
ENDMDL
