MODEL 1
REMARK minimizedAffinity -4.04913282
REMARK minimizedRMSD -1
REMARK  1 active torsions:
REMARK  status: ('A' for Active; 'I' for Inactive)
REMARK    1  A    between atoms: C3_4  and  O_7 
ROOT
ATOM      1  C   UNL d   1      -0.888  -1.906   1.374  0.00  0.00    -0.033 A 
ATOM      2  C1  UNL d   1       0.500  -1.771   1.435  0.00  0.00     0.039 A 
ATOM      3  C2  UNL d   1       1.142  -0.793   0.673  0.00  0.00    -0.080 A 
ATOM      4  C3  UNL d   1       0.386   0.043  -0.144  0.00  0.00     0.150 A 
ATOM      5  C4  UNL d   1      -0.998  -0.083  -0.207  0.00  0.00    -0.007 A 
ATOM      6  C5  UNL d   1      -1.637  -1.061   0.554  0.00  0.00     0.039 A 
ENDROOT
BRANCH   4   7
ATOM      7  O   UNL d   1       0.969   1.009  -0.909  0.00  0.00    -0.526 OA
ATOM      8  H5  UNL d   1       1.932   0.960  -0.786  0.00  0.00     0.418 HD
ENDBRANCH   4   7
TORSDOF 1
ENDMDL
