MODEL 1
REMARK minimizedAffinity -4.78972197
REMARK minimizedRMSD -1
REMARK  1 active torsions:
REMARK  status: ('A' for Active; 'I' for Inactive)
REMARK    1  A    between atoms: C3_4  and  O_7 
ROOT
ATOM      1  C   UNL d   1       1.047  -0.306   0.150  0.00  0.00    -0.033 A 
ATOM      2  C1  UNL d   1       1.189  -1.370   1.044  0.00  0.00     0.039 A 
ATOM      3  C2  UNL d   1       0.151  -2.289   1.209  0.00  0.00    -0.080 A 
ATOM      4  C3  UNL d   1      -1.022  -2.134   0.475  0.00  0.00     0.150 A 
ATOM      5  C4  UNL d   1      -1.169  -1.079  -0.420  0.00  0.00    -0.007 A 
ATOM      6  C5  UNL d   1      -0.132  -0.162  -0.583  0.00  0.00     0.039 A 
ENDROOT
BRANCH   4   7
ATOM      7  O   UNL d   1      -2.064  -3.003   0.606  0.00  0.00    -0.526 OA
ATOM      8  H5  UNL d   1      -1.832  -3.663   1.279  0.00  0.00     0.418 HD
ENDBRANCH   4   7
TORSDOF 1
ENDMDL
