MODEL 1
REMARK minimizedAffinity -1.80264318
REMARK minimizedRMSD -1
REMARK  1 active torsions:
REMARK  status: ('A' for Active; 'I' for Inactive)
REMARK    1  A    between atoms: C3_4  and  O_7 
ROOT
ATOM      1  C   UNL d   1       0.360   1.153  -0.269  0.00  0.00    -0.033 A 
ATOM      2  C1  UNL d   1       0.895  -0.137  -0.281  0.00  0.00     0.039 A 
ATOM      3  C2  UNL d   1       0.103  -1.226   0.087  0.00  0.00    -0.080 A 
ATOM      4  C3  UNL d   1      -1.220  -1.013   0.463  0.00  0.00     0.150 A 
ATOM      5  C4  UNL d   1      -1.761   0.269   0.473  0.00  0.00    -0.007 A 
ATOM      6  C5  UNL d   1      -0.968   1.356   0.107  0.00  0.00     0.039 A 
ENDROOT
BRANCH   4   7
ATOM      7  O   UNL d   1      -2.031  -2.044   0.834  0.00  0.00    -0.526 OA
ATOM      8  H5  UNL d   1      -1.514  -2.867   0.806  0.00  0.00     0.418 HD
ENDBRANCH   4   7
TORSDOF 1
ENDMDL
