MODEL 1
REMARK minimizedAffinity -4.3474431
REMARK minimizedRMSD -1
REMARK  1 active torsions:
REMARK  status: ('A' for Active; 'I' for Inactive)
REMARK    1  A    between atoms: C3_4  and  O_7 
ROOT
ATOM      1  C   UNL d   1       0.607  -0.092  -0.124  0.00  0.00    -0.033 A 
ATOM      2  C1  UNL d   1      -0.574  -0.257  -0.850  0.00  0.00     0.039 A 
ATOM      3  C2  UNL d   1      -1.465  -1.278  -0.515  0.00  0.00    -0.080 A 
ATOM      4  C3  UNL d   1      -1.164  -2.126   0.547  0.00  0.00     0.150 A 
ATOM      5  C4  UNL d   1       0.009  -1.966   1.277  0.00  0.00    -0.007 A 
ATOM      6  C5  UNL d   1       0.898  -0.946   0.941  0.00  0.00     0.039 A 
ENDROOT
BRANCH   4   7
ATOM      7  O   UNL d   1      -2.000  -3.141   0.908  0.00  0.00    -0.526 OA
ATOM      8  H5  UNL d   1      -2.756  -3.149   0.297  0.00  0.00     0.418 HD
ENDBRANCH   4   7
TORSDOF 1
ENDMDL
