MODEL 1
REMARK minimizedAffinity -5.80172205
REMARK minimizedRMSD -1
REMARK  1 active torsions:
REMARK  status: ('A' for Active; 'I' for Inactive)
REMARK    1  A    between atoms: C3_4  and  O_7 
ROOT
ATOM      1  C   UNL d   1      -1.943  -2.114   1.934  0.00  0.00    -0.033 A 
ATOM      2  C1  UNL d   1      -0.806  -2.445   1.194  0.00  0.00     0.039 A 
ATOM      3  C2  UNL d   1      -0.120  -1.457   0.486  0.00  0.00    -0.080 A 
ATOM      4  C3  UNL d   1      -0.579  -0.143   0.527  0.00  0.00     0.150 A 
ATOM      5  C4  UNL d   1      -1.708   0.195   1.265  0.00  0.00    -0.007 A 
ATOM      6  C5  UNL d   1      -2.393  -0.793   1.971  0.00  0.00     0.039 A 
ENDROOT
BRANCH   4   7
ATOM      7  O   UNL d   1       0.056   0.854  -0.152  0.00  0.00    -0.526 OA
ATOM      8  H5  UNL d   1       0.802   0.468  -0.640  0.00  0.00     0.418 HD
ENDBRANCH   4   7
TORSDOF 1
ENDMDL
