MODEL 1
REMARK minimizedAffinity -4.18666315
REMARK minimizedRMSD -1
REMARK  1 active torsions:
REMARK  status: ('A' for Active; 'I' for Inactive)
REMARK    1  A    between atoms: C3_4  and  O_7 
ROOT
ATOM      1  C   UNL d   1       0.694   0.256   0.625  0.00  0.00    -0.033 A 
ATOM      2  C1  UNL d   1      -0.671   0.543   0.574  0.00  0.00     0.039 A 
ATOM      3  C2  UNL d   1      -1.607  -0.487   0.686  0.00  0.00    -0.080 A 
ATOM      4  C3  UNL d   1      -1.166  -1.797   0.849  0.00  0.00     0.150 A 
ATOM      5  C4  UNL d   1       0.193  -2.089   0.904  0.00  0.00    -0.007 A 
ATOM      6  C5  UNL d   1       1.126  -1.060   0.791  0.00  0.00     0.039 A 
ENDROOT
BRANCH   4   7
ATOM      7  O   UNL d   1      -2.042  -2.836   0.958  0.00  0.00    -0.526 OA
ATOM      8  H5  UNL d   1      -2.945  -2.487   0.874  0.00  0.00     0.418 HD
ENDBRANCH   4   7
TORSDOF 1
ENDMDL
