MODEL 1
REMARK minimizedAffinity 0.365380079
REMARK minimizedRMSD -1
REMARK  0 active torsions:
REMARK  status: ('A' for Active; 'I' for Inactive)
ROOT
ATOM      1  C   UNL d   1       2.652  -1.111   0.618  0.00  0.00     0.020 A 
ATOM      2  C1  UNL d   1       3.173  -0.181   1.516  0.00  0.00     0.020 A 
ATOM      3  C2  UNL d   1       2.537   1.050   1.695  0.00  0.00     0.034 A 
ATOM      4  C3  UNL d   1       1.376   1.353   0.974  0.00  0.00     0.017 A 
ATOM      5  C4  UNL d   1       0.854   0.419   0.073  0.00  0.00     0.017 A 
ATOM      6  C5  UNL d   1       1.494  -0.812  -0.102  0.00  0.00     0.034 A 
ATOM      7 Cl   UNL d   1      -0.575   0.721  -0.852  0.00  0.00    -0.070 Cl
ATOM      8 Cl1  UNL d   1       0.642   2.894   1.245  0.00  0.00    -0.070 Cl
ENDROOT
TORSDOF 0
ENDMDL
