MODEL 1
REMARK minimizedAffinity 1.79850411
REMARK minimizedRMSD -1
REMARK  0 active torsions:
REMARK  status: ('A' for Active; 'I' for Inactive)
ROOT
ATOM      1  C   UNL d   1       0.962   1.424   0.176  0.00  0.00     0.020 A 
ATOM      2  C1  UNL d   1      -0.353   1.349  -0.280  0.00  0.00     0.020 A 
ATOM      3  C2  UNL d   1      -0.835   0.158  -0.829  0.00  0.00     0.034 A 
ATOM      4  C3  UNL d   1      -0.001  -0.962  -0.922  0.00  0.00     0.017 A 
ATOM      5  C4  UNL d   1       1.319  -0.886  -0.464  0.00  0.00     0.017 A 
ATOM      6  C5  UNL d   1       1.796   0.309   0.084  0.00  0.00     0.034 A 
ATOM      7 Cl   UNL d   1       2.407  -2.226  -0.546  0.00  0.00    -0.070 Cl
ATOM      8 Cl1  UNL d   1      -0.664  -2.402  -1.611  0.00  0.00    -0.070 Cl
ENDROOT
TORSDOF 0
ENDMDL
