MODEL 1
REMARK minimizedAffinity 3.17714548
REMARK minimizedRMSD -1
REMARK  0 active torsions:
REMARK  status: ('A' for Active; 'I' for Inactive)
ROOT
ATOM      1  C   UNL d   1      -0.750   0.315  -0.602  0.00  0.00     0.020 A 
ATOM      2  C1  UNL d   1       0.559   0.686  -0.295  0.00  0.00     0.020 A 
ATOM      3  C2  UNL d   1       1.525  -0.294  -0.059  0.00  0.00     0.034 A 
ATOM      4  C3  UNL d   1       1.185  -1.650  -0.129  0.00  0.00     0.017 A 
ATOM      5  C4  UNL d   1      -0.129  -2.021  -0.437  0.00  0.00     0.017 A 
ATOM      6  C5  UNL d   1      -1.092  -1.036  -0.673  0.00  0.00     0.034 A 
ATOM      7 Cl   UNL d   1      -0.624  -3.674  -0.541  0.00  0.00    -0.070 Cl
ATOM      8 Cl1  UNL d   1       2.431  -2.808   0.175  0.00  0.00    -0.070 Cl
ENDROOT
TORSDOF 0
ENDMDL
