MODEL 1
REMARK minimizedAffinity -2.48029685
REMARK minimizedRMSD -1
REMARK  0 active torsions:
REMARK  status: ('A' for Active; 'I' for Inactive)
ROOT
ATOM      1  C   UNL d   1       1.976  -2.041  -0.788  0.00  0.00     0.020 A 
ATOM      2  C1  UNL d   1       3.217  -1.616  -1.261  0.00  0.00     0.020 A 
ATOM      3  C2  UNL d   1       3.694  -0.347  -0.927  0.00  0.00     0.034 A 
ATOM      4  C3  UNL d   1       2.930   0.502  -0.117  0.00  0.00     0.017 A 
ATOM      5  C4  UNL d   1       1.685   0.074   0.357  0.00  0.00     0.017 A 
ATOM      6  C5  UNL d   1       1.212  -1.198   0.019  0.00  0.00     0.034 A 
ATOM      7 Cl   UNL d   1       0.685   1.065   1.361  0.00  0.00    -0.070 Cl
ATOM      8 Cl1  UNL d   1       3.582   2.057   0.257  0.00  0.00    -0.070 Cl
ENDROOT
TORSDOF 0
ENDMDL
