MODEL 1
REMARK minimizedAffinity 4.87591314
REMARK minimizedRMSD -1
REMARK  0 active torsions:
REMARK  status: ('A' for Active; 'I' for Inactive)
ROOT
ATOM      1  C   UNL d   1       0.374  -1.821   1.142  0.00  0.00     0.020 A 
ATOM      2  C1  UNL d   1       0.546  -2.978   0.384  0.00  0.00     0.020 A 
ATOM      3  C2  UNL d   1       0.144  -3.002  -0.953  0.00  0.00     0.034 A 
ATOM      4  C3  UNL d   1      -0.431  -1.868  -1.536  0.00  0.00     0.017 A 
ATOM      5  C4  UNL d   1      -0.603  -0.706  -0.774  0.00  0.00     0.017 A 
ATOM      6  C5  UNL d   1      -0.200  -0.687   0.564  0.00  0.00     0.034 A 
ATOM      7 Cl   UNL d   1      -1.306   0.733  -1.424  0.00  0.00    -0.070 Cl
ATOM      8 Cl1  UNL d   1      -0.904  -1.969  -3.195  0.00  0.00    -0.070 Cl
ENDROOT
TORSDOF 0
ENDMDL
