MODEL 1
REMARK minimizedAffinity 6.67281961
REMARK minimizedRMSD -1
REMARK  0 active torsions:
REMARK  status: ('A' for Active; 'I' for Inactive)
ROOT
ATOM      1  C   UNL d   1       1.248  -2.603   0.024  0.00  0.00     0.020 A 
ATOM      2  C1  UNL d   1       0.996  -1.391   0.665  0.00  0.00     0.020 A 
ATOM      3  C2  UNL d   1       0.025  -0.523   0.160  0.00  0.00     0.034 A 
ATOM      4  C3  UNL d   1      -0.697  -0.866  -0.988  0.00  0.00     0.017 A 
ATOM      5  C4  UNL d   1      -0.444  -2.083  -1.631  0.00  0.00     0.017 A 
ATOM      6  C5  UNL d   1       0.529  -2.948  -1.121  0.00  0.00     0.034 A 
ATOM      7 Cl   UNL d   1      -1.295  -2.575  -3.052  0.00  0.00    -0.070 Cl
ATOM      8 Cl1  UNL d   1      -1.883   0.255  -1.556  0.00  0.00    -0.070 Cl
ENDROOT
TORSDOF 0
ENDMDL
