MODEL 1
REMARK minimizedAffinity -1.4372015
REMARK minimizedRMSD -1
REMARK  0 active torsions:
REMARK  status: ('A' for Active; 'I' for Inactive)
ROOT
ATOM      1  C   UNL d   1       3.287  -2.543  -1.535  0.00  0.00     0.020 A 
ATOM      2  C1  UNL d   1       4.031  -1.506  -2.096  0.00  0.00     0.020 A 
ATOM      3  C2  UNL d   1       4.006  -0.236  -1.516  0.00  0.00     0.034 A 
ATOM      4  C3  UNL d   1       3.236   0.000  -0.371  0.00  0.00     0.017 A 
ATOM      5  C4  UNL d   1       2.490  -1.042   0.191  0.00  0.00     0.017 A 
ATOM      6  C5  UNL d   1       2.518  -2.312  -0.394  0.00  0.00     0.034 A 
ATOM      7 Cl   UNL d   1       1.516  -0.828   1.603  0.00  0.00    -0.070 Cl
ATOM      8 Cl1  UNL d   1       3.252   1.595   0.294  0.00  0.00    -0.070 Cl
ENDROOT
TORSDOF 0
ENDMDL
