MODEL 1
REMARK minimizedAffinity 9.28465462
REMARK minimizedRMSD -1
REMARK  0 active torsions:
REMARK  status: ('A' for Active; 'I' for Inactive)
ROOT
ATOM      1  C   UNL d   1       1.315   0.453   4.493  0.00  0.00     0.020 A 
ATOM      2  C1  UNL d   1       1.395  -0.934   4.376  0.00  0.00     0.020 A 
ATOM      3  C2  UNL d   1       1.280  -1.537   3.122  0.00  0.00     0.034 A 
ATOM      4  C3  UNL d   1       1.083  -0.753   1.979  0.00  0.00     0.017 A 
ATOM      5  C4  UNL d   1       1.002   0.639   2.098  0.00  0.00     0.017 A 
ATOM      6  C5  UNL d   1       1.118   1.238   3.356  0.00  0.00     0.034 A 
ATOM      7 Cl   UNL d   1       0.760   1.673   0.734  0.00  0.00    -0.070 Cl
ATOM      8 Cl1  UNL d   1       0.949  -1.566   0.461  0.00  0.00    -0.070 Cl
ENDROOT
TORSDOF 0
ENDMDL
