MODEL 1
REMARK minimizedAffinity 5.18562269
REMARK minimizedRMSD -1
REMARK  0 active torsions:
REMARK  status: ('A' for Active; 'I' for Inactive)
ROOT
ATOM      1  C   UNL d   1      -1.498  -1.035  -1.611  0.00  0.00     0.020 A 
ATOM      2  C1  UNL d   1      -1.043  -2.353  -1.647  0.00  0.00     0.020 A 
ATOM      3  C2  UNL d   1       0.247  -2.659  -1.208  0.00  0.00     0.034 A 
ATOM      4  C3  UNL d   1       1.086  -1.646  -0.730  0.00  0.00     0.017 A 
ATOM      5  C4  UNL d   1       0.629  -0.324  -0.693  0.00  0.00     0.017 A 
ATOM      6  C5  UNL d   1      -0.664  -0.023  -1.134  0.00  0.00     0.034 A 
ATOM      7 Cl   UNL d   1       1.606   0.980  -0.117  0.00  0.00    -0.070 Cl
ATOM      8 Cl1  UNL d   1       2.669  -2.096  -0.202  0.00  0.00    -0.070 Cl
ENDROOT
TORSDOF 0
ENDMDL
