MODEL 1
REMARK minimizedAffinity -2.95099044
REMARK minimizedRMSD -1
REMARK  0 active torsions:
REMARK  status: ('A' for Active; 'I' for Inactive)
ROOT
ATOM      1  C   UNL d   1       3.041  -1.750  -0.354  0.00  0.00     0.020 A 
ATOM      2  C1  UNL d   1       3.979  -0.719  -0.362  0.00  0.00     0.020 A 
ATOM      3  C2  UNL d   1       3.558   0.608  -0.256  0.00  0.00     0.034 A 
ATOM      4  C3  UNL d   1       2.195   0.908  -0.141  0.00  0.00     0.017 A 
ATOM      5  C4  UNL d   1       1.255  -0.129  -0.133  0.00  0.00     0.017 A 
ATOM      6  C5  UNL d   1       1.682  -1.456  -0.239  0.00  0.00     0.034 A 
ATOM      7 Cl   UNL d   1      -0.444   0.162   0.006  0.00  0.00    -0.070 Cl
ATOM      8 Cl1  UNL d   1       1.746   2.571  -0.014  0.00  0.00    -0.070 Cl
ENDROOT
TORSDOF 0
ENDMDL
