MODEL 1
REMARK minimizedAffinity 1.85641909
REMARK minimizedRMSD -1
REMARK  0 active torsions:
REMARK  status: ('A' for Active; 'I' for Inactive)
ROOT
ATOM      1  C   UNL d   1      -0.481  -1.494  -0.594  0.00  0.00     0.020 A 
ATOM      2  C1  UNL d   1      -0.851  -2.145  -1.770  0.00  0.00     0.020 A 
ATOM      3  C2  UNL d   1       0.122  -2.743  -2.574  0.00  0.00     0.034 A 
ATOM      4  C3  UNL d   1       1.471  -2.691  -2.202  0.00  0.00     0.017 A 
ATOM      5  C4  UNL d   1       1.842  -2.038  -1.021  0.00  0.00     0.017 A 
ATOM      6  C5  UNL d   1       0.863  -1.441  -0.221  0.00  0.00     0.034 A 
ATOM      7 Cl   UNL d   1       3.485  -1.933  -0.497  0.00  0.00    -0.070 Cl
ATOM      8 Cl1  UNL d   1       2.621  -3.453  -3.243  0.00  0.00    -0.070 Cl
ENDROOT
TORSDOF 0
ENDMDL
