MODEL 1
REMARK minimizedAffinity -1.19603682
REMARK minimizedRMSD -1
REMARK  0 active torsions:
REMARK  status: ('A' for Active; 'I' for Inactive)
ROOT
ATOM      1  C   UNL d   1       0.315  -0.272  -0.904  0.00  0.00     0.020 A 
ATOM      2  C1  UNL d   1       0.935   0.774  -0.223  0.00  0.00     0.020 A 
ATOM      3  C2  UNL d   1       2.329   0.844  -0.170  0.00  0.00     0.034 A 
ATOM      4  C3  UNL d   1       3.107  -0.135  -0.800  0.00  0.00     0.017 A 
ATOM      5  C4  UNL d   1       2.483  -1.184  -1.484  0.00  0.00     0.017 A 
ATOM      6  C5  UNL d   1       1.087  -1.249  -1.534  0.00  0.00     0.034 A 
ATOM      7 Cl   UNL d   1       3.376  -2.428  -2.286  0.00  0.00    -0.070 Cl
ATOM      8 Cl1  UNL d   1       4.825   0.014  -0.695  0.00  0.00    -0.070 Cl
ENDROOT
TORSDOF 0
ENDMDL
