MODEL 1
REMARK minimizedAffinity 0.0412809253
REMARK minimizedRMSD -1
REMARK  1 active torsions:
REMARK  status: ('A' for Active; 'I' for Inactive)
REMARK    1  A    between atoms: N_2  and  C1_3 
ROOT
ATOM      1  C1  UNL d   1       1.282   2.641  -0.949  0.00  0.00     0.143 A 
ATOM      2  C2  UNL d   1       0.675   1.533  -1.550  0.00  0.00    -0.057 A 
ATOM      3  C3  UNL d   1       1.044   1.110  -2.833  0.00  0.00     0.033 A 
ATOM      4  C4  UNL d   1       2.010   1.807  -3.551  0.00  0.00    -0.042 A 
ATOM      5  C5  UNL d   1       2.609   2.926  -2.983  0.00  0.00     0.033 A 
ATOM      6  C6  UNL d   1       2.241   3.340  -1.700  0.00  0.00    -0.057 A 
ENDROOT
BRANCH   1   7
ATOM      7  N   UNL d   1       0.890   3.170   0.283  0.00  0.00    -0.732 N 
ATOM      8  C   UNL d   1       1.774   3.108   1.427  0.00  0.00     0.284 C 
ATOM      9  H3  UNL d   1       0.397   4.055   0.186  0.00  0.00     0.395 HD
ENDBRANCH   1   7
TORSDOF 1
ENDMDL
