MODEL 1
REMARK minimizedAffinity 4.28666258
REMARK minimizedRMSD -1
REMARK  1 active torsions:
REMARK  status: ('A' for Active; 'I' for Inactive)
REMARK    1  A    between atoms: N_2  and  C1_3 
ROOT
ATOM      1  C1  UNL d   1       3.549   2.333   1.950  0.00  0.00     0.143 A 
ATOM      2  C2  UNL d   1       3.854   3.533   1.299  0.00  0.00    -0.057 A 
ATOM      3  C3  UNL d   1       2.896   4.206   0.531  0.00  0.00     0.033 A 
ATOM      4  C4  UNL d   1       1.621   3.674   0.376  0.00  0.00    -0.042 A 
ATOM      5  C5  UNL d   1       1.303   2.469   0.993  0.00  0.00     0.033 A 
ATOM      6  C6  UNL d   1       2.262   1.805   1.765  0.00  0.00    -0.057 A 
ENDROOT
BRANCH   1   7
ATOM      7  N   UNL d   1       4.486   1.567   2.647  0.00  0.00    -0.732 N 
ATOM      8  C   UNL d   1       4.105   0.310   3.255  0.00  0.00     0.284 C 
ATOM      9  H3  UNL d   1       5.393   1.546   2.185  0.00  0.00     0.395 HD
ENDBRANCH   1   7
TORSDOF 1
ENDMDL
