MODEL 1
REMARK minimizedAffinity 8.65896511
REMARK minimizedRMSD -1
REMARK  1 active torsions:
REMARK  status: ('A' for Active; 'I' for Inactive)
REMARK    1  A    between atoms: N_2  and  C1_3 
ROOT
ATOM      1  C1  UNL d   1       1.483   1.032  -3.425  0.00  0.00     0.143 A 
ATOM      2  C2  UNL d   1       1.052   1.484  -4.677  0.00  0.00    -0.057 A 
ATOM      3  C3  UNL d   1       1.963   1.755  -5.705  0.00  0.00     0.033 A 
ATOM      4  C4  UNL d   1       3.329   1.606  -5.489  0.00  0.00    -0.042 A 
ATOM      5  C5  UNL d   1       3.782   1.182  -4.245  0.00  0.00     0.033 A 
ATOM      6  C6  UNL d   1       2.867   0.906  -3.224  0.00  0.00    -0.057 A 
ENDROOT
BRANCH   1   7
ATOM      7  N   UNL d   1       0.635   0.840  -2.332  0.00  0.00    -0.732 N 
ATOM      8  C   UNL d   1       0.752  -0.343  -1.507  0.00  0.00     0.284 C 
ATOM      9  H3  UNL d   1       0.474   1.698  -1.809  0.00  0.00     0.395 HD
ENDBRANCH   1   7
TORSDOF 1
ENDMDL
