MODEL 1
REMARK minimizedAffinity 9.22563362
REMARK minimizedRMSD -1
REMARK  1 active torsions:
REMARK  status: ('A' for Active; 'I' for Inactive)
REMARK    1  A    between atoms: N_2  and  C1_3 
ROOT
ATOM      1  C1  UNL d   1      -4.134   3.554   4.926  0.00  0.00     0.143 A 
ATOM      2  C2  UNL d   1      -4.046   4.449   5.998  0.00  0.00    -0.057 A 
ATOM      3  C3  UNL d   1      -4.758   5.654   5.998  0.00  0.00     0.033 A 
ATOM      4  C4  UNL d   1      -5.552   6.000   4.910  0.00  0.00    -0.042 A 
ATOM      5  C5  UNL d   1      -5.635   5.137   3.822  0.00  0.00     0.033 A 
ATOM      6  C6  UNL d   1      -4.927   3.932   3.831  0.00  0.00    -0.057 A 
ENDROOT
BRANCH   1   7
ATOM      7  N   UNL d   1      -3.374   2.386   4.823  0.00  0.00    -0.732 N 
ATOM      8  C   UNL d   1      -3.769   1.327   3.920  0.00  0.00     0.284 C 
ATOM      9  H3  UNL d   1      -2.374   2.572   4.834  0.00  0.00     0.395 HD
ENDBRANCH   1   7
TORSDOF 1
ENDMDL
