MODEL 1
REMARK minimizedAffinity 6.98554039
REMARK minimizedRMSD -1
REMARK  1 active torsions:
REMARK  status: ('A' for Active; 'I' for Inactive)
REMARK    1  A    between atoms: N_2  and  C1_3 
ROOT
ATOM      1  C1  UNL d   1       0.421  -0.502  -1.024  0.00  0.00     0.143 A 
ATOM      2  C2  UNL d   1       1.467  -1.369  -1.357  0.00  0.00    -0.057 A 
ATOM      3  C3  UNL d   1       1.453  -2.710  -0.955  0.00  0.00     0.033 A 
ATOM      4  C4  UNL d   1       0.404  -3.202  -0.186  0.00  0.00    -0.042 A 
ATOM      5  C5  UNL d   1      -0.634  -2.351   0.178  0.00  0.00     0.033 A 
ATOM      6  C6  UNL d   1      -0.619  -1.015  -0.232  0.00  0.00    -0.057 A 
ENDROOT
BRANCH   1   7
ATOM      7  N   UNL d   1       0.424   0.866  -1.310  0.00  0.00    -0.732 N 
ATOM      8  C   UNL d   1       0.907   1.821  -0.336  0.00  0.00     0.284 C 
ATOM      9  H3  UNL d   1       0.715   1.062  -2.265  0.00  0.00     0.395 HD
ENDBRANCH   1   7
TORSDOF 1
ENDMDL
