MODEL 1
REMARK minimizedAffinity 3.82656169
REMARK minimizedRMSD -1
REMARK  1 active torsions:
REMARK  status: ('A' for Active; 'I' for Inactive)
REMARK    1  A    between atoms: N_2  and  C1_3 
ROOT
ATOM      1  C1  UNL d   1       1.856  -2.017  -2.564  0.00  0.00     0.143 A 
ATOM      2  C2  UNL d   1       1.383  -3.069  -3.356  0.00  0.00    -0.057 A 
ATOM      3  C3  UNL d   1       1.035  -2.867  -4.697  0.00  0.00     0.033 A 
ATOM      4  C4  UNL d   1       1.127  -1.600  -5.263  0.00  0.00    -0.042 A 
ATOM      5  C5  UNL d   1       1.571  -0.535  -4.488  0.00  0.00     0.033 A 
ATOM      6  C6  UNL d   1       1.924  -0.744  -3.151  0.00  0.00    -0.057 A 
ENDROOT
BRANCH   1   7
ATOM      7  N   UNL d   1       2.125  -2.133  -1.197  0.00  0.00    -0.732 N 
ATOM      8  C   UNL d   1       1.067  -1.979  -0.223  0.00  0.00     0.284 C 
ATOM      9  H3  UNL d   1       2.773  -2.890  -0.992  0.00  0.00     0.395 HD
ENDBRANCH   1   7
TORSDOF 1
ENDMDL
