MODEL 1
REMARK minimizedAffinity 2.27661633
REMARK minimizedRMSD -1
REMARK  1 active torsions:
REMARK  status: ('A' for Active; 'I' for Inactive)
REMARK    1  A    between atoms: N_2  and  C1_3 
ROOT
ATOM      1  C1  UNL d   1       1.391  -1.199  -1.795  0.00  0.00     0.143 A 
ATOM      2  C2  UNL d   1       0.610  -0.162  -1.272  0.00  0.00    -0.057 A 
ATOM      3  C3  UNL d   1      -0.295  -0.390  -0.229  0.00  0.00     0.033 A 
ATOM      4  C4  UNL d   1      -0.457  -1.669   0.293  0.00  0.00    -0.042 A 
ATOM      5  C5  UNL d   1       0.290  -2.719  -0.228  0.00  0.00     0.033 A 
ATOM      6  C6  UNL d   1       1.197  -2.484  -1.266  0.00  0.00    -0.057 A 
ENDROOT
BRANCH   1   7
ATOM      7  N   UNL d   1       2.236  -1.056  -2.898  0.00  0.00    -0.732 N 
ATOM      8  C   UNL d   1       1.901  -0.144  -3.970  0.00  0.00     0.284 C 
ATOM      9  H3  UNL d   1       3.219  -1.046  -2.635  0.00  0.00     0.395 HD
ENDBRANCH   1   7
TORSDOF 1
ENDMDL
