MODEL 1
REMARK minimizedAffinity 0.747956455
REMARK minimizedRMSD -1
REMARK  1 active torsions:
REMARK  status: ('A' for Active; 'I' for Inactive)
REMARK    1  A    between atoms: N_2  and  C1_3 
ROOT
ATOM      1  C1  UNL d   1       0.847  -0.470  -1.476  0.00  0.00     0.143 A 
ATOM      2  C2  UNL d   1      -0.270  -0.417  -0.636  0.00  0.00    -0.057 A 
ATOM      3  C3  UNL d   1      -0.531  -1.433   0.291  0.00  0.00     0.033 A 
ATOM      4  C4  UNL d   1       0.308  -2.539   0.374  0.00  0.00    -0.042 A 
ATOM      5  C5  UNL d   1       1.411  -2.625  -0.468  0.00  0.00     0.033 A 
ATOM      6  C6  UNL d   1       1.670  -1.604  -1.387  0.00  0.00    -0.057 A 
ENDROOT
BRANCH   1   7
ATOM      7  N   UNL d   1       1.107   0.461  -2.485  0.00  0.00    -0.732 N 
ATOM      8  C   UNL d   1       1.705   0.044  -3.735  0.00  0.00     0.284 C 
ATOM      9  H3  UNL d   1       0.356   1.140  -2.589  0.00  0.00     0.395 HD
ENDBRANCH   1   7
TORSDOF 1
ENDMDL
