MODEL 1
REMARK minimizedAffinity 8.25902653
REMARK minimizedRMSD -1
REMARK  1 active torsions:
REMARK  status: ('A' for Active; 'I' for Inactive)
REMARK    1  A    between atoms: N_2  and  C1_3 
ROOT
ATOM      1  C1  UNL d   1      -3.894  -0.577   3.768  0.00  0.00     0.143 A 
ATOM      2  C2  UNL d   1      -3.705   0.743   4.191  0.00  0.00    -0.057 A 
ATOM      3  C3  UNL d   1      -2.516   1.430   3.918  0.00  0.00     0.033 A 
ATOM      4  C4  UNL d   1      -1.480   0.797   3.239  0.00  0.00    -0.042 A 
ATOM      5  C5  UNL d   1      -1.636  -0.523   2.830  0.00  0.00     0.033 A 
ATOM      6  C6  UNL d   1      -2.828  -1.201   3.101  0.00  0.00    -0.057 A 
ENDROOT
BRANCH   1   7
ATOM      7  N   UNL d   1      -5.013  -1.346   4.094  0.00  0.00    -0.732 N 
ATOM      8  C   UNL d   1      -5.050  -2.760   3.790  0.00  0.00     0.284 C 
ATOM      9  H3  UNL d   1      -5.396  -1.107   5.006  0.00  0.00     0.395 HD
ENDBRANCH   1   7
TORSDOF 1
ENDMDL
