MODEL 1
REMARK minimizedAffinity -2.79008818
REMARK minimizedRMSD -1
REMARK  1 active torsions:
REMARK  status: ('A' for Active; 'I' for Inactive)
REMARK    1  A    between atoms: N_2  and  C1_3 
ROOT
ATOM      1  C1  UNL d   1       5.149   1.466   4.926  0.00  0.00     0.143 A 
ATOM      2  C2  UNL d   1       5.879   0.841   5.942  0.00  0.00    -0.057 A 
ATOM      3  C3  UNL d   1       5.997  -0.553   6.000  0.00  0.00     0.033 A 
ATOM      4  C4  UNL d   1       5.361  -1.350   5.054  0.00  0.00    -0.042 A 
ATOM      5  C5  UNL d   1       4.610  -0.752   4.049  0.00  0.00     0.033 A 
ATOM      6  C6  UNL d   1       4.501   0.641   3.993  0.00  0.00    -0.057 A 
ENDROOT
BRANCH   1   7
ATOM      7  N   UNL d   1       4.912   2.842   4.871  0.00  0.00    -0.732 N 
ATOM      8  C   UNL d   1       5.985   3.784   5.105  0.00  0.00     0.284 C 
ATOM      9  H3  UNL d   1       4.292   3.099   4.106  0.00  0.00     0.395 HD
ENDBRANCH   1   7
TORSDOF 1
ENDMDL
