MODEL 1
REMARK minimizedAffinity -0.499659806
REMARK minimizedRMSD -1
REMARK  0 active torsions:
REMARK  status: ('A' for Active; 'I' for Inactive)
ROOT
ATOM      1  C   UNL d   1      -0.200   0.083   1.546  0.00  0.00     0.078 C 
ATOM      2  C1  UNL d   1       0.666  -0.982   0.942  0.00  0.00    -0.077 A 
ATOM      3  C2  UNL d   1       0.340  -2.337   1.075  0.00  0.00    -0.001 A 
ATOM      4  C3  UNL d   1       1.161  -3.318   0.516  0.00  0.00     0.003 A 
ATOM      5  C4  UNL d   1       2.313  -2.954  -0.178  0.00  0.00    -0.005 A 
ATOM      6  C5  UNL d   1       2.647  -1.608  -0.313  0.00  0.00     0.003 A 
ATOM      7  C6  UNL d   1       1.828  -0.626   0.245  0.00  0.00    -0.001 A 
ENDROOT
TORSDOF 0
ENDMDL
