MODEL 1
REMARK minimizedAffinity -1.28344154
REMARK minimizedRMSD -1
REMARK  0 active torsions:
REMARK  status: ('A' for Active; 'I' for Inactive)
ROOT
ATOM      1  C   UNL d   1       2.234  -4.390   1.015  0.00  0.00     0.078 C 
ATOM      2  C1  UNL d   1       1.481  -3.103   0.855  0.00  0.00    -0.077 A 
ATOM      3  C2  UNL d   1       0.563  -2.679   1.824  0.00  0.00    -0.001 A 
ATOM      4  C3  UNL d   1      -0.138  -1.483   1.657  0.00  0.00     0.003 A 
ATOM      5  C4  UNL d   1       0.071  -0.703   0.522  0.00  0.00    -0.005 A 
ATOM      6  C5  UNL d   1       0.980  -1.118  -0.449  0.00  0.00     0.003 A 
ATOM      7  C6  UNL d   1       1.682  -2.313  -0.284  0.00  0.00    -0.001 A 
ENDROOT
TORSDOF 0
ENDMDL
