MODEL 1
REMARK minimizedAffinity 12.2693272
REMARK minimizedRMSD -1
REMARK  0 active torsions:
REMARK  status: ('A' for Active; 'I' for Inactive)
ROOT
ATOM      1  C   UNL d   1       1.527   2.725  -5.980  0.00  0.00     0.078 C 
ATOM      2  C1  UNL d   1       1.509   1.324  -5.448  0.00  0.00    -0.077 A 
ATOM      3  C2  UNL d   1       2.699   0.616  -5.240  0.00  0.00    -0.001 A 
ATOM      4  C3  UNL d   1       2.667  -0.692  -4.753  0.00  0.00     0.003 A 
ATOM      5  C4  UNL d   1       1.447  -1.303  -4.470  0.00  0.00    -0.005 A 
ATOM      6  C5  UNL d   1       0.258  -0.607  -4.675  0.00  0.00     0.003 A 
ATOM      7  C6  UNL d   1       0.288   0.700  -5.163  0.00  0.00    -0.001 A 
ENDROOT
TORSDOF 0
ENDMDL
