MODEL 1
REMARK minimizedAffinity 0.196199313
REMARK minimizedRMSD -1
REMARK  0 active torsions:
REMARK  status: ('A' for Active; 'I' for Inactive)
ROOT
ATOM      1  C   UNL d   1       2.405  -4.361   0.564  0.00  0.00     0.078 C 
ATOM      2  C1  UNL d   1       1.242  -3.654   1.192  0.00  0.00    -0.077 A 
ATOM      3  C2  UNL d   1       1.257  -2.266   1.378  0.00  0.00    -0.001 A 
ATOM      4  C3  UNL d   1       0.171  -1.622   1.973  0.00  0.00     0.003 A 
ATOM      5  C4  UNL d   1      -0.938  -2.357   2.387  0.00  0.00    -0.005 A 
ATOM      6  C5  UNL d   1      -0.961  -3.739   2.208  0.00  0.00     0.003 A 
ATOM      7  C6  UNL d   1       0.124  -4.385   1.613  0.00  0.00    -0.001 A 
ENDROOT
TORSDOF 0
ENDMDL
