MODEL 1
REMARK minimizedAffinity -2.36328149
REMARK minimizedRMSD -1
REMARK  0 active torsions:
REMARK  status: ('A' for Active; 'I' for Inactive)
ROOT
ATOM      1  C   UNL d   1      -3.737   5.908   5.999  0.00  0.00     0.078 C 
ATOM      2  C1  UNL d   1      -4.216   4.537   5.626  0.00  0.00    -0.077 A 
ATOM      3  C2  UNL d   1      -5.489   4.092   6.000  0.00  0.00    -0.001 A 
ATOM      4  C3  UNL d   1      -5.918   2.809   5.655  0.00  0.00     0.003 A 
ATOM      5  C4  UNL d   1      -5.079   1.961   4.935  0.00  0.00    -0.005 A 
ATOM      6  C5  UNL d   1      -3.809   2.394   4.561  0.00  0.00     0.003 A 
ATOM      7  C6  UNL d   1      -3.378   3.677   4.905  0.00  0.00    -0.001 A 
ENDROOT
TORSDOF 0
ENDMDL
