MODEL 1
REMARK minimizedAffinity 0.206753388
REMARK minimizedRMSD -1
REMARK  0 active torsions:
REMARK  status: ('A' for Active; 'I' for Inactive)
ROOT
ATOM      1  C   UNL d   1       2.105  -3.432   0.397  0.00  0.00     0.078 C 
ATOM      2  C1  UNL d   1       1.142  -2.396   0.896  0.00  0.00    -0.077 A 
ATOM      3  C2  UNL d   1       1.422  -1.030   0.770  0.00  0.00    -0.001 A 
ATOM      4  C3  UNL d   1       0.521  -0.077   1.248  0.00  0.00     0.003 A 
ATOM      5  C4  UNL d   1      -0.666  -0.480   1.856  0.00  0.00    -0.005 A 
ATOM      6  C5  UNL d   1      -0.953  -1.837   1.988  0.00  0.00     0.003 A 
ATOM      7  C6  UNL d   1      -0.053  -2.791   1.511  0.00  0.00    -0.001 A 
ENDROOT
TORSDOF 0
ENDMDL
