MODEL 1
REMARK minimizedAffinity 2.13176084
REMARK minimizedRMSD -1
REMARK  0 active torsions:
REMARK  status: ('A' for Active; 'I' for Inactive)
ROOT
ATOM      1  C   UNL d   1      -5.131   1.305   2.740  0.00  0.00     0.078 C 
ATOM      2  C1  UNL d   1      -5.043   2.271   3.884  0.00  0.00    -0.077 A 
ATOM      3  C2  UNL d   1      -6.000   2.268   4.906  0.00  0.00    -0.001 A 
ATOM      4  C3  UNL d   1      -5.911   3.179   5.959  0.00  0.00     0.003 A 
ATOM      5  C4  UNL d   1      -4.867   4.102   6.000  0.00  0.00    -0.005 A 
ATOM      6  C5  UNL d   1      -3.911   4.114   4.986  0.00  0.00     0.003 A 
ATOM      7  C6  UNL d   1      -3.999   3.203   3.932  0.00  0.00    -0.001 A 
ENDROOT
TORSDOF 0
ENDMDL
