MODEL 1
REMARK minimizedAffinity 13.9193201
REMARK minimizedRMSD -1
REMARK  0 active torsions:
REMARK  status: ('A' for Active; 'I' for Inactive)
ROOT
ATOM      1  C   UNL d   1      -5.503   2.218  -5.684  0.00  0.00     0.023 A 
ATOM      2  C1  UNL d   1      -6.000   0.974  -5.295  0.00  0.00     0.003 A 
ATOM      3  C2  UNL d   1      -5.146  -0.129  -5.223  0.00  0.00     0.048 A 
ATOM      4  C3  UNL d   1      -3.796   0.020  -5.540  0.00  0.00     0.023 A 
ATOM      5  C4  UNL d   1      -3.294   1.263  -5.928  0.00  0.00     0.048 A 
ATOM      6  C5  UNL d   1      -4.152   2.363  -6.000  0.00  0.00     0.003 A 
ATOM      7  I   UNL d   1      -2.524  -1.619  -5.433  0.00  0.00    -0.146 I 
ENDROOT
TORSDOF 0
ENDMDL
