MODEL 1
REMARK minimizedAffinity 2.28904605
REMARK minimizedRMSD -1
REMARK  0 active torsions:
REMARK  status: ('A' for Active; 'I' for Inactive)
ROOT
ATOM      1  C   UNL d   1      -4.380  -1.306  -5.836  0.00  0.00     0.023 A 
ATOM      2  C1  UNL d   1      -4.717  -2.057  -4.710  0.00  0.00     0.003 A 
ATOM      3  C2  UNL d   1      -4.435  -1.567  -3.433  0.00  0.00     0.048 A 
ATOM      4  C3  UNL d   1      -3.816  -0.326  -3.289  0.00  0.00     0.023 A 
ATOM      5  C4  UNL d   1      -3.477   0.429  -4.413  0.00  0.00     0.048 A 
ATOM      6  C5  UNL d   1      -3.760  -0.065  -5.688  0.00  0.00     0.003 A 
ATOM      7  I   UNL d   1      -3.395   0.405  -1.390  0.00  0.00    -0.146 I 
ENDROOT
TORSDOF 0
ENDMDL
