MODEL 1
REMARK minimizedAffinity 7.05273867
REMARK minimizedRMSD -1
REMARK  0 active torsions:
REMARK  status: ('A' for Active; 'I' for Inactive)
ROOT
ATOM      1  C   UNL d   1      -0.469   4.704  -5.875  0.00  0.00     0.023 A 
ATOM      2  C1  UNL d   1       0.181   5.938  -5.823  0.00  0.00     0.003 A 
ATOM      3  C2  UNL d   1       1.576   5.996  -5.857  0.00  0.00     0.048 A 
ATOM      4  C3  UNL d   1       2.315   4.816  -5.945  0.00  0.00     0.023 A 
ATOM      5  C4  UNL d   1       1.669   3.580  -5.999  0.00  0.00     0.048 A 
ATOM      6  C5  UNL d   1       0.274   3.527  -5.963  0.00  0.00     0.003 A 
ATOM      7  I   UNL d   1       4.391   4.900  -5.996  0.00  0.00    -0.146 I 
ENDROOT
TORSDOF 0
ENDMDL
