MODEL 1
REMARK minimizedAffinity 3.79927325
REMARK minimizedRMSD -1
REMARK  0 active torsions:
REMARK  status: ('A' for Active; 'I' for Inactive)
ROOT
ATOM      1  C   UNL d   1      -3.951  -1.841  -5.657  0.00  0.00     0.023 A 
ATOM      2  C1  UNL d   1      -3.107  -0.731  -5.630  0.00  0.00     0.003 A 
ATOM      3  C2  UNL d   1      -2.987   0.028  -4.464  0.00  0.00     0.048 A 
ATOM      4  C3  UNL d   1      -3.712  -0.330  -3.328  0.00  0.00     0.023 A 
ATOM      5  C4  UNL d   1      -4.557  -1.441  -3.351  0.00  0.00     0.048 A 
ATOM      6  C5  UNL d   1      -4.675  -2.196  -4.519  0.00  0.00     0.003 A 
ATOM      7  I   UNL d   1      -3.534   0.797  -1.591  0.00  0.00    -0.146 I 
ENDROOT
TORSDOF 0
ENDMDL
