MODEL 1
REMARK minimizedAffinity 5.30295849
REMARK minimizedRMSD -1
REMARK  0 active torsions:
REMARK  status: ('A' for Active; 'I' for Inactive)
ROOT
ATOM      1  C   UNL d   1      -5.253   2.470  -5.389  0.00  0.00     0.023 A 
ATOM      2  C1  UNL d   1      -3.994   2.607  -4.804  0.00  0.00     0.003 A 
ATOM      3  C2  UNL d   1      -3.153   1.499  -4.686  0.00  0.00     0.048 A 
ATOM      4  C3  UNL d   1      -3.577   0.256  -5.157  0.00  0.00     0.023 A 
ATOM      5  C4  UNL d   1      -4.835   0.115  -5.745  0.00  0.00     0.048 A 
ATOM      6  C5  UNL d   1      -5.673   1.226  -5.859  0.00  0.00     0.003 A 
ATOM      7  I   UNL d   1      -2.327  -1.395  -4.984  0.00  0.00    -0.146 I 
ENDROOT
TORSDOF 0
ENDMDL
