MODEL 1
REMARK minimizedAffinity -2.95284653
REMARK minimizedRMSD -1
REMARK  0 active torsions:
REMARK  status: ('A' for Active; 'I' for Inactive)
ROOT
ATOM      1  C   UNL d   1      -4.271  -1.053  -4.392  0.00  0.00     0.023 A 
ATOM      2  C1  UNL d   1      -3.204  -1.045  -3.493  0.00  0.00     0.003 A 
ATOM      3  C2  UNL d   1      -2.266  -0.011  -3.531  0.00  0.00     0.048 A 
ATOM      4  C3  UNL d   1      -2.402   1.012  -4.468  0.00  0.00     0.023 A 
ATOM      5  C4  UNL d   1      -3.469   1.009  -5.369  0.00  0.00     0.048 A 
ATOM      6  C5  UNL d   1      -4.404  -0.027  -5.328  0.00  0.00     0.003 A 
ATOM      7  I   UNL d   1      -1.008   2.553  -4.526  0.00  0.00    -0.146 I 
ENDROOT
TORSDOF 0
ENDMDL
