MODEL 1
REMARK minimizedAffinity 1.72547102
REMARK minimizedRMSD -1
REMARK  0 active torsions:
REMARK  status: ('A' for Active; 'I' for Inactive)
ROOT
ATOM      1  C   UNL d   1      -2.245  -1.451  -4.383  0.00  0.00     0.023 A 
ATOM      2  C1  UNL d   1      -3.050  -1.152  -3.283  0.00  0.00     0.003 A 
ATOM      3  C2  UNL d   1      -4.128  -0.276  -3.423  0.00  0.00     0.048 A 
ATOM      4  C3  UNL d   1      -4.396   0.298  -4.666  0.00  0.00     0.023 A 
ATOM      5  C4  UNL d   1      -3.593   0.001  -5.769  0.00  0.00     0.048 A 
ATOM      6  C5  UNL d   1      -2.516  -0.875  -5.624  0.00  0.00     0.003 A 
ATOM      7  I   UNL d   1      -6.000   1.602  -4.877  0.00  0.00    -0.146 I 
ENDROOT
TORSDOF 0
ENDMDL
