MODEL 1
REMARK minimizedAffinity 0.779622912
REMARK minimizedRMSD -1
REMARK  0 active torsions:
REMARK  status: ('A' for Active; 'I' for Inactive)
ROOT
ATOM      1  C   UNL d   1      -3.374   5.206  -5.971  0.00  0.00     0.023 A 
ATOM      2  C1  UNL d   1      -4.336   5.272  -4.963  0.00  0.00     0.003 A 
ATOM      3  C2  UNL d   1      -4.391   4.280  -3.982  0.00  0.00     0.048 A 
ATOM      4  C3  UNL d   1      -3.479   3.225  -4.014  0.00  0.00     0.023 A 
ATOM      5  C4  UNL d   1      -2.514   3.155  -5.020  0.00  0.00     0.048 A 
ATOM      6  C5  UNL d   1      -2.464   4.149  -5.999  0.00  0.00     0.003 A 
ATOM      7  I   UNL d   1      -3.558   1.747  -2.555  0.00  0.00    -0.146 I 
ENDROOT
TORSDOF 0
ENDMDL
