MODEL 1
REMARK minimizedAffinity 1.81174111
REMARK minimizedRMSD -1
REMARK  0 active torsions:
REMARK  status: ('A' for Active; 'I' for Inactive)
ROOT
ATOM      1  C   UNL d   1      -3.135  -1.873  -4.447  0.00  0.00     0.023 A 
ATOM      2  C1  UNL d   1      -2.985  -1.165  -5.639  0.00  0.00     0.003 A 
ATOM      3  C2  UNL d   1      -3.807  -0.069  -5.910  0.00  0.00     0.048 A 
ATOM      4  C3  UNL d   1      -4.776   0.314  -4.983  0.00  0.00     0.023 A 
ATOM      5  C4  UNL d   1      -4.928  -0.390  -3.788  0.00  0.00     0.048 A 
ATOM      6  C5  UNL d   1      -4.105  -1.486  -3.522  0.00  0.00     0.003 A 
ATOM      7  I   UNL d   1      -6.000   1.945  -5.384  0.00  0.00    -0.146 I 
ENDROOT
TORSDOF 0
ENDMDL
