MODEL 1
REMARK minimizedAffinity 8.1424799
REMARK minimizedRMSD -1
REMARK  0 active torsions:
REMARK  status: ('A' for Active; 'I' for Inactive)
ROOT
ATOM      1  C   UNL d   1       1.235   3.006   0.206  0.00  0.00    -0.002 A 
ATOM      2  C1  UNL d   1       0.710   4.229   0.601  0.00  0.00     0.010 A 
ATOM      3  C2  UNL d   1      -0.572   4.308   1.149  0.00  0.00     0.041 A 
ATOM      4  C3  UNL d   1      -1.324   3.126   1.296  0.00  0.00    -0.075 A 
ATOM      5  S   UNL d   1      -2.916   2.980   1.942  0.00  0.00     0.015 SA
ATOM      6  C4  UNL d   1      -2.937   1.292   1.709  0.00  0.00     0.022 A 
ATOM      7  C5  UNL d   1      -1.766   0.834   1.153  0.00  0.00     0.026 A 
ATOM      8  C6  UNL d   1      -0.817   1.883   0.906  0.00  0.00    -0.082 A 
ATOM      9  C7  UNL d   1       0.485   1.836   0.353  0.00  0.00     0.045 A 
ENDROOT
TORSDOF 0
ENDMDL
