MODEL 1
REMARK minimizedAffinity -1.29351318
REMARK minimizedRMSD -1
REMARK  0 active torsions:
REMARK  status: ('A' for Active; 'I' for Inactive)
ROOT
ATOM      1  C   UNL d   1       0.045   1.718  -0.053  0.00  0.00    -0.002 A 
ATOM      2  C1  UNL d   1      -0.169   2.384   1.145  0.00  0.00     0.010 A 
ATOM      3  C2  UNL d   1      -1.453   2.484   1.683  0.00  0.00     0.041 A 
ATOM      4  C3  UNL d   1      -2.530   1.894   0.991  0.00  0.00    -0.075 A 
ATOM      5  S   UNL d   1      -4.189   1.888   1.461  0.00  0.00     0.015 SA
ATOM      6  C4  UNL d   1      -4.653   0.999   0.083  0.00  0.00     0.022 A 
ATOM      7  C5  UNL d   1      -3.581   0.706  -0.727  0.00  0.00     0.026 A 
ATOM      8  C6  UNL d   1      -2.340   1.216  -0.216  0.00  0.00    -0.082 A 
ATOM      9  C7  UNL d   1      -1.026   1.134  -0.737  0.00  0.00     0.045 A 
ENDROOT
TORSDOF 0
ENDMDL
