MODEL 1
REMARK minimizedAffinity 9.99554729
REMARK minimizedRMSD -1
REMARK  0 active torsions:
REMARK  status: ('A' for Active; 'I' for Inactive)
ROOT
ATOM      1  C   UNL d   1      -2.191   2.099   3.098  0.00  0.00    -0.002 A 
ATOM      2  C1  UNL d   1      -2.653   2.985   2.135  0.00  0.00     0.010 A 
ATOM      3  C2  UNL d   1      -1.830   3.379   1.079  0.00  0.00     0.041 A 
ATOM      4  C3  UNL d   1      -0.522   2.861   1.004  0.00  0.00    -0.075 A 
ATOM      5  S   UNL d   1       0.664   3.202  -0.200  0.00  0.00     0.015 SA
ATOM      6  C4  UNL d   1       1.812   2.178   0.535  0.00  0.00     0.022 A 
ATOM      7  C5  UNL d   1       1.320   1.584   1.672  0.00  0.00     0.026 A 
ATOM      8  C6  UNL d   1      -0.034   1.967   1.961  0.00  0.00    -0.082 A 
ATOM      9  C7  UNL d   1      -0.893   1.587   3.021  0.00  0.00     0.045 A 
ENDROOT
TORSDOF 0
ENDMDL
