MODEL 1
REMARK minimizedAffinity 6.48617649
REMARK minimizedRMSD -1
REMARK  0 active torsions:
REMARK  status: ('A' for Active; 'I' for Inactive)
ROOT
ATOM      1  C   UNL d   1      -1.262   1.231   3.609  0.00  0.00    -0.002 A 
ATOM      2  C1  UNL d   1      -2.159   1.877   2.770  0.00  0.00     0.010 A 
ATOM      3  C2  UNL d   1      -1.793   2.223   1.468  0.00  0.00     0.041 A 
ATOM      4  C3  UNL d   1      -0.497   1.903   1.018  0.00  0.00    -0.075 A 
ATOM      5  S   UNL d   1       0.173   2.228  -0.538  0.00  0.00     0.015 SA
ATOM      6  C4  UNL d   1       1.665   1.515  -0.127  0.00  0.00     0.022 A 
ATOM      7  C5  UNL d   1       1.671   1.036   1.162  0.00  0.00     0.026 A 
ATOM      8  C6  UNL d   1       0.424   1.251   1.843  0.00  0.00    -0.082 A 
ATOM      9  C7  UNL d   1       0.023   0.915   3.158  0.00  0.00     0.045 A 
ENDROOT
TORSDOF 0
ENDMDL
