MODEL 1
REMARK minimizedAffinity 5.33284092
REMARK minimizedRMSD -1
REMARK  0 active torsions:
REMARK  status: ('A' for Active; 'I' for Inactive)
ROOT
ATOM      1  C   UNL d   1       2.238  -2.636   0.057  0.00  0.00    -0.002 A 
ATOM      2  C1  UNL d   1       1.089  -2.861  -0.688  0.00  0.00     0.010 A 
ATOM      3  C2  UNL d   1       0.285  -1.793  -1.092  0.00  0.00     0.041 A 
ATOM      4  C3  UNL d   1       0.661  -0.483  -0.733  0.00  0.00    -0.075 A 
ATOM      5  S   UNL d   1      -0.170   0.978  -1.118  0.00  0.00     0.015 SA
ATOM      6  C4  UNL d   1       0.982   1.934  -0.304  0.00  0.00     0.022 A 
ATOM      7  C5  UNL d   1       1.982   1.174   0.254  0.00  0.00     0.026 A 
ATOM      8  C6  UNL d   1       1.814  -0.232   0.015  0.00  0.00    -0.082 A 
ATOM      9  C7  UNL d   1       2.607  -1.336   0.411  0.00  0.00     0.045 A 
ENDROOT
TORSDOF 0
ENDMDL
