MODEL 1
REMARK minimizedAffinity 7.2036376
REMARK minimizedRMSD -1
REMARK  0 active torsions:
REMARK  status: ('A' for Active; 'I' for Inactive)
ROOT
ATOM      1  C   UNL d   1       2.752  -2.044  -0.164  0.00  0.00    -0.002 A 
ATOM      2  C1  UNL d   1       1.385  -2.253  -0.277  0.00  0.00     0.010 A 
ATOM      3  C2  UNL d   1       0.500  -1.173  -0.288  0.00  0.00     0.041 A 
ATOM      4  C3  UNL d   1       1.017   0.133  -0.183  0.00  0.00    -0.075 A 
ATOM      5  S   UNL d   1       0.123   1.607  -0.175  0.00  0.00     0.015 SA
ATOM      6  C4  UNL d   1       1.535   2.549  -0.022  0.00  0.00     0.022 A 
ATOM      7  C5  UNL d   1       2.670   1.774   0.024  0.00  0.00     0.026 A 
ATOM      8  C6  UNL d   1       2.390   0.369  -0.069  0.00  0.00    -0.082 A 
ATOM      9  C7  UNL d   1       3.261  -0.747  -0.060  0.00  0.00     0.045 A 
ENDROOT
TORSDOF 0
ENDMDL
