MODEL 1
REMARK minimizedAffinity 7.75646067
REMARK minimizedRMSD -1
REMARK  0 active torsions:
REMARK  status: ('A' for Active; 'I' for Inactive)
ROOT
ATOM      1  C   UNL d   1      -0.062   2.813   1.634  0.00  0.00    -0.002 A 
ATOM      2  C1  UNL d   1      -0.053   2.125   0.428  0.00  0.00     0.010 A 
ATOM      3  C2  UNL d   1      -1.251   1.759  -0.189  0.00  0.00     0.041 A 
ATOM      4  C3  UNL d   1      -2.469   2.101   0.430  0.00  0.00    -0.075 A 
ATOM      5  S   UNL d   1      -4.059   1.758  -0.143  0.00  0.00     0.015 SA
ATOM      6  C4  UNL d   1      -4.787   2.517   1.198  0.00  0.00     0.022 A 
ATOM      7  C5  UNL d   1      -3.855   3.026   2.072  0.00  0.00     0.026 A 
ATOM      8  C6  UNL d   1      -2.504   2.795   1.643  0.00  0.00    -0.082 A 
ATOM      9  C7  UNL d   1      -1.272   3.151   2.245  0.00  0.00     0.045 A 
ENDROOT
TORSDOF 0
ENDMDL
