MODEL 1
REMARK minimizedAffinity -2.48651028
REMARK minimizedRMSD -1
REMARK  0 active torsions:
REMARK  status: ('A' for Active; 'I' for Inactive)
ROOT
ATOM      1  C   UNL d   1      -3.161  -5.183   3.169  0.00  0.00     0.172 C 
ATOM      2  N   UNL d   1      -2.679  -4.997   1.820  0.00  0.00    -0.070 N 
ATOM      3  C1  UNL d   1      -2.620  -5.963   0.852  0.00  0.00    -0.004 A 
ATOM      4  C2  UNL d   1      -2.104  -5.388  -0.288  0.00  0.00    -0.047 A 
ATOM      5  C3  UNL d   1      -1.842  -4.029   0.004  0.00  0.00    -0.047 A 
ATOM      6  C4  UNL d   1      -2.207  -3.813   1.316  0.00  0.00    -0.004 A 
ENDROOT
TORSDOF 0
ENDMDL
