MODEL 1
REMARK minimizedAffinity -2.23103952
REMARK minimizedRMSD -1
REMARK  0 active torsions:
REMARK  status: ('A' for Active; 'I' for Inactive)
ROOT
ATOM      1  C   UNL d   1       3.521  -5.903   5.910  0.00  0.00     0.172 C 
ATOM      2  N   UNL d   1       2.530  -4.978   5.414  0.00  0.00    -0.070 N 
ATOM      3  C1  UNL d   1       2.732  -4.038   4.440  0.00  0.00    -0.004 A 
ATOM      4  C2  UNL d   1       1.547  -3.359   4.255  0.00  0.00    -0.047 A 
ATOM      5  C3  UNL d   1       0.600  -3.910   5.150  0.00  0.00    -0.047 A 
ATOM      6  C4  UNL d   1       1.235  -4.910   5.856  0.00  0.00    -0.004 A 
ENDROOT
TORSDOF 0
ENDMDL
