MODEL 1
REMARK minimizedAffinity -3.22826695
REMARK minimizedRMSD -1
REMARK  0 active torsions:
REMARK  status: ('A' for Active; 'I' for Inactive)
ROOT
ATOM      1  C   UNL d   1       1.163  -0.935   1.640  0.00  0.00     0.172 C 
ATOM      2  N   UNL d   1       1.248  -1.903   2.709  0.00  0.00    -0.070 N 
ATOM      3  C1  UNL d   1       0.412  -2.972   2.886  0.00  0.00    -0.004 A 
ATOM      4  C2  UNL d   1       0.825  -3.649   4.013  0.00  0.00    -0.047 A 
ATOM      5  C3  UNL d   1       1.948  -2.962   4.532  0.00  0.00    -0.047 A 
ATOM      6  C4  UNL d   1       2.188  -1.885   3.705  0.00  0.00    -0.004 A 
ENDROOT
TORSDOF 0
ENDMDL
