MODEL 1
REMARK minimizedAffinity -3.15626788
REMARK minimizedRMSD -1
REMARK  0 active torsions:
REMARK  status: ('A' for Active; 'I' for Inactive)
ROOT
ATOM      1  C   UNL d   1      -1.089  -6.000  -6.000  0.00  0.00     0.172 C 
ATOM      2  N   UNL d   1       0.073  -5.643  -5.221  0.00  0.00    -0.070 N 
ATOM      3  C1  UNL d   1       1.229  -5.099  -5.714  0.00  0.00    -0.004 A 
ATOM      4  C2  UNL d   1       2.090  -4.905  -4.655  0.00  0.00    -0.047 A 
ATOM      5  C3  UNL d   1       1.429  -5.348  -3.485  0.00  0.00    -0.047 A 
ATOM      6  C4  UNL d   1       0.182  -5.800  -3.864  0.00  0.00    -0.004 A 
ENDROOT
TORSDOF 0
ENDMDL
