MODEL 1
REMARK minimizedAffinity -3.98105645
REMARK minimizedRMSD -1
REMARK  0 active torsions:
REMARK  status: ('A' for Active; 'I' for Inactive)
ROOT
ATOM      1  C   UNL d   1       0.293  -3.128   0.765  0.00  0.00     0.172 C 
ATOM      2  N   UNL d   1       1.009  -2.818   1.980  0.00  0.00    -0.070 N 
ATOM      3  C1  UNL d   1       1.767  -1.698   2.197  0.00  0.00    -0.004 A 
ATOM      4  C2  UNL d   1       2.279  -1.776   3.474  0.00  0.00    -0.047 A 
ATOM      5  C3  UNL d   1       1.814  -2.985   4.044  0.00  0.00    -0.047 A 
ATOM      6  C4  UNL d   1       1.030  -3.610   3.097  0.00  0.00    -0.004 A 
ENDROOT
TORSDOF 0
ENDMDL
