MODEL 1
REMARK minimizedAffinity -2.75831962
REMARK minimizedRMSD -1
REMARK  0 active torsions:
REMARK  status: ('A' for Active; 'I' for Inactive)
ROOT
ATOM      1  C   UNL d   1      -3.377  -5.979   0.473  0.00  0.00     0.172 C 
ATOM      2  N   UNL d   1      -3.234  -5.984  -0.964  0.00  0.00    -0.070 N 
ATOM      3  C1  UNL d   1      -2.047  -5.995  -1.648  0.00  0.00    -0.004 A 
ATOM      4  C2  UNL d   1      -2.337  -5.997  -2.996  0.00  0.00    -0.047 A 
ATOM      5  C3  UNL d   1      -3.746  -5.986  -3.126  0.00  0.00    -0.047 A 
ATOM      6  C4  UNL d   1      -4.276  -5.978  -1.853  0.00  0.00    -0.004 A 
ENDROOT
TORSDOF 0
ENDMDL
