MODEL 1
REMARK minimizedAffinity -2.87708497
REMARK minimizedRMSD -1
REMARK  0 active torsions:
REMARK  status: ('A' for Active; 'I' for Inactive)
ROOT
ATOM      1  C   UNL d   1      -1.694  -5.991  -5.190  0.00  0.00     0.172 C 
ATOM      2  N   UNL d   1      -2.028  -5.993  -3.785  0.00  0.00    -0.070 N 
ATOM      3  C1  UNL d   1      -1.130  -5.990  -2.751  0.00  0.00    -0.004 A 
ATOM      4  C2  UNL d   1      -1.844  -5.994  -1.572  0.00  0.00    -0.047 A 
ATOM      5  C3  UNL d   1      -3.218  -6.000  -1.909  0.00  0.00    -0.047 A 
ATOM      6  C4  UNL d   1      -3.303  -5.999  -3.286  0.00  0.00    -0.004 A 
ENDROOT
TORSDOF 0
ENDMDL
