MODEL 1
REMARK minimizedAffinity -3.12027049
REMARK minimizedRMSD -1
REMARK  0 active torsions:
REMARK  status: ('A' for Active; 'I' for Inactive)
ROOT
ATOM      1  C   UNL d   1      -1.462  -5.625  -3.738  0.00  0.00     0.172 C 
ATOM      2  N   UNL d   1      -0.039  -5.513  -3.959  0.00  0.00    -0.070 N 
ATOM      3  C1  UNL d   1       0.938  -5.980  -3.122  0.00  0.00    -0.004 A 
ATOM      4  C2  UNL d   1       2.158  -5.678  -3.687  0.00  0.00    -0.047 A 
ATOM      5  C3  UNL d   1       1.906  -5.005  -4.905  0.00  0.00    -0.047 A 
ATOM      6  C4  UNL d   1       0.537  -4.916  -5.049  0.00  0.00    -0.004 A 
ENDROOT
TORSDOF 0
ENDMDL
