MODEL 1
REMARK minimizedAffinity -2.2900486
REMARK minimizedRMSD -1
REMARK  0 active torsions:
REMARK  status: ('A' for Active; 'I' for Inactive)
ROOT
ATOM      1  C   UNL d   1      -3.520   1.565  -3.241  0.00  0.00     0.172 C 
ATOM      2  N   UNL d   1      -3.936   0.497  -2.364  0.00  0.00    -0.070 N 
ATOM      3  C1  UNL d   1      -4.189   0.617  -1.024  0.00  0.00    -0.004 A 
ATOM      4  C2  UNL d   1      -4.559  -0.624  -0.551  0.00  0.00    -0.047 A 
ATOM      5  C3  UNL d   1      -4.527  -1.521  -1.646  0.00  0.00    -0.047 A 
ATOM      6  C4  UNL d   1      -4.138  -0.801  -2.755  0.00  0.00    -0.004 A 
ENDROOT
TORSDOF 0
ENDMDL
