MODEL 1
REMARK minimizedAffinity -2.63043523
REMARK minimizedRMSD -1
REMARK  0 active torsions:
REMARK  status: ('A' for Active; 'I' for Inactive)
ROOT
ATOM      1  C   UNL d   1      -1.233  -5.777  -4.889  0.00  0.00     0.172 C 
ATOM      2  N   UNL d   1       0.191  -5.554  -4.978  0.00  0.00    -0.070 N 
ATOM      3  C1  UNL d   1       0.951  -4.873  -4.066  0.00  0.00    -0.004 A 
ATOM      4  C2  UNL d   1       2.255  -4.883  -4.512  0.00  0.00    -0.047 A 
ATOM      5  C3  UNL d   1       2.279  -5.595  -5.735  0.00  0.00    -0.047 A 
ATOM      6  C4  UNL d   1       0.988  -5.999  -6.000  0.00  0.00    -0.004 A 
ENDROOT
TORSDOF 0
ENDMDL
