MODEL 1
REMARK minimizedAffinity 2.5735569
REMARK minimizedRMSD -1
REMARK  0 active torsions:
REMARK  status: ('A' for Active; 'I' for Inactive)
ROOT
ATOM      1  C   UNL d   1      -2.755  -4.500  -4.525  0.00  0.00     0.172 C 
ATOM      2  N   UNL d   1      -1.442  -4.949  -4.925  0.00  0.00    -0.070 N 
ATOM      3  C1  UNL d   1      -1.174  -5.833  -5.936  0.00  0.00    -0.004 A 
ATOM      4  C2  UNL d   1       0.192  -6.000  -5.999  0.00  0.00    -0.047 A 
ATOM      5  C3  UNL d   1       0.765  -5.189  -4.991  0.00  0.00    -0.047 A 
ATOM      6  C4  UNL d   1      -0.269  -4.550  -4.341  0.00  0.00    -0.004 A 
ENDROOT
TORSDOF 0
ENDMDL
