MODEL 1
REMARK minimizedAffinity -5.25363207
REMARK minimizedRMSD -1
REMARK  2 active torsions:
REMARK  status: ('A' for Active; 'I' for Inactive)
REMARK    1  A    between atoms: C2'_3  and  C1'_4 
REMARK    2  A    between atoms: C1'_4  and  C1_5 
ROOT
ATOM      1  C1  I4B d   1       0.053   0.189   0.027  0.00  0.00    -0.075 A 
ATOM      2  C2  I4B d   1       1.157   0.831  -0.475  0.00  0.00     0.003 A 
ATOM      3  C3  I4B d   1       1.166   2.242  -0.599  0.00  0.00     0.002 A 
ATOM      4  C4  I4B d   1       0.039   2.961  -0.259  0.00  0.00    -0.004 A 
ATOM      5  C5  I4B d   1      -1.071   2.311   0.271  0.00  0.00     0.002 A 
ATOM      6  C6  I4B d   1      -1.060   0.917   0.428  0.00  0.00     0.003 A 
ENDROOT
BRANCH   1   7
ATOM      7  C1' I4B d   1       0.065  -1.304   0.114  0.00  0.00     0.060 C 
BRANCH   7   8
ATOM      8  C2' I4B d   1      -0.565  -1.851  -1.151  0.00  0.00    -0.013 C 
ATOM      9  C4' I4B d   1       0.473  -2.104  -2.212  0.00  0.00     0.013 C 
ATOM     10  C3' I4B d   1      -1.296  -3.111  -0.796  0.00  0.00     0.013 C 
ENDBRANCH   7   8
ENDBRANCH   1   7
TORSDOF 2
ENDMDL
