MODEL 1
REMARK minimizedAffinity -5.01682711
REMARK minimizedRMSD -1
REMARK  2 active torsions:
REMARK  status: ('A' for Active; 'I' for Inactive)
REMARK    1  A    between atoms: C2'_3  and  C1'_4 
REMARK    2  A    between atoms: C1'_4  and  C1_5 
ROOT
ATOM      1  C1  I4B d   1       0.349  -0.028   0.264  0.00  0.00    -0.075 A 
ATOM      2  C2  I4B d   1       1.561   0.542   0.560  0.00  0.00     0.003 A 
ATOM      3  C3  I4B d   1       1.731   1.945   0.465  0.00  0.00     0.002 A 
ATOM      4  C4  I4B d   1       0.684   2.728   0.024  0.00  0.00    -0.004 A 
ATOM      5  C5  I4B d   1      -0.552   2.150  -0.253  0.00  0.00     0.002 A 
ATOM      6  C6  I4B d   1      -0.724   0.765  -0.121  0.00  0.00     0.003 A 
ENDROOT
BRANCH   1   7
ATOM      7  C1' I4B d   1       0.214  -1.516   0.344  0.00  0.00     0.060 C 
BRANCH   7   8
ATOM      8  C2' I4B d   1      -0.543  -1.982  -0.883  0.00  0.00    -0.013 C 
ATOM      9  C4' I4B d   1       0.395  -2.261  -2.028  0.00  0.00     0.013 C 
ATOM     10  C3' I4B d   1      -1.321  -3.209  -0.509  0.00  0.00     0.013 C 
ENDBRANCH   7   8
ENDBRANCH   1   7
TORSDOF 2
ENDMDL
