MODEL 1
REMARK minimizedAffinity -1.56842816
REMARK minimizedRMSD -1
REMARK  2 active torsions:
REMARK  status: ('A' for Active; 'I' for Inactive)
REMARK    1  A    between atoms: C2'_3  and  C1'_4 
REMARK    2  A    between atoms: C1'_4  and  C1_5 
ROOT
ATOM      1  C1  I4B d   1      -0.578  -0.621   0.072  0.00  0.00    -0.075 A 
ATOM      2  C2  I4B d   1      -1.644   0.179   0.401  0.00  0.00     0.003 A 
ATOM      3  C3  I4B d   1      -1.510   1.589   0.379  0.00  0.00     0.002 A 
ATOM      4  C4  I4B d   1      -0.288   2.151   0.074  0.00  0.00    -0.004 A 
ATOM      5  C5  I4B d   1       0.785   1.338  -0.282  0.00  0.00     0.002 A 
ATOM      6  C6  I4B d   1       0.636  -0.056  -0.295  0.00  0.00     0.003 A 
ENDROOT
BRANCH   1   7
ATOM      7  C1' I4B d   1      -0.745  -2.106   0.138  0.00  0.00     0.060 C 
BRANCH   7   8
ATOM      8  C2' I4B d   1      -1.413  -2.558  -1.145  0.00  0.00    -0.013 C 
ATOM      9  C4' I4B d   1      -0.406  -3.107  -2.120  0.00  0.00     0.013 C 
ATOM     10  C3' I4B d   1      -2.443  -3.590  -0.792  0.00  0.00     0.013 C 
ENDBRANCH   7   8
ENDBRANCH   1   7
TORSDOF 2
ENDMDL
