MODEL 1
REMARK minimizedAffinity -3.78472495
REMARK minimizedRMSD -1
REMARK  2 active torsions:
REMARK  status: ('A' for Active; 'I' for Inactive)
REMARK    1  A    between atoms: C2'_3  and  C1'_4 
REMARK    2  A    between atoms: C1'_4  and  C1_5 
ROOT
ATOM      1  C1  I4B d   1       0.130   0.242   0.106  0.00  0.00    -0.075 A 
ATOM      2  C2  I4B d   1       1.370   0.830   0.136  0.00  0.00     0.003 A 
ATOM      3  C3  I4B d   1       1.490   2.240   0.165  0.00  0.00     0.002 A 
ATOM      4  C4  I4B d   1       0.353   3.020   0.112  0.00  0.00    -0.004 A 
ATOM      5  C5  I4B d   1      -0.904   2.422   0.105  0.00  0.00     0.002 A 
ATOM      6  C6  I4B d   1      -1.017   1.024   0.114  0.00  0.00     0.003 A 
ENDROOT
BRANCH   1   7
ATOM      7  C1' I4B d   1       0.041  -1.250   0.043  0.00  0.00     0.060 C 
BRANCH   7   8
ATOM      8  C2' I4B d   1      -0.495  -1.628  -1.323  0.00  0.00    -0.013 C 
ATOM      9  C4' I4B d   1       0.615  -1.724  -2.336  0.00  0.00     0.013 C 
ATOM     10  C3' I4B d   1      -1.221  -2.933  -1.190  0.00  0.00     0.013 C 
ENDBRANCH   7   8
ENDBRANCH   1   7
TORSDOF 2
ENDMDL
