MODEL 1
REMARK minimizedAffinity -0.795605361
REMARK minimizedRMSD -1
REMARK  2 active torsions:
REMARK  status: ('A' for Active; 'I' for Inactive)
REMARK    1  A    between atoms: C2'_3  and  C1'_4 
REMARK    2  A    between atoms: C1'_4  and  C1_5 
ROOT
ATOM      1  C1  I4B d   1      -0.606  -0.808   0.192  0.00  0.00    -0.075 A 
ATOM      2  C2  I4B d   1       0.529  -0.129  -0.175  0.00  0.00     0.003 A 
ATOM      3  C3  I4B d   1       0.586   1.281  -0.057  0.00  0.00     0.002 A 
ATOM      4  C4  I4B d   1      -0.526   1.972   0.381  0.00  0.00    -0.004 A 
ATOM      5  C5  I4B d   1      -1.668   1.280   0.774  0.00  0.00     0.002 A 
ATOM      6  C6  I4B d   1      -1.704  -0.120   0.691  0.00  0.00     0.003 A 
ENDROOT
BRANCH   1   7
ATOM      7  C1' I4B d   1      -0.643  -2.294   0.024  0.00  0.00     0.060 C 
BRANCH   7   8
ATOM      8  C2' I4B d   1      -1.556  -2.609  -1.143  0.00  0.00    -0.013 C 
ATOM      9  C4' I4B d   1      -0.780  -3.164  -2.308  0.00  0.00     0.013 C 
ATOM     10  C3' I4B d   1      -2.593  -3.584  -0.669  0.00  0.00     0.013 C 
ENDBRANCH   7   8
ENDBRANCH   1   7
TORSDOF 2
ENDMDL
