MODEL 1
REMARK minimizedAffinity -4.559093
REMARK minimizedRMSD -1
REMARK  2 active torsions:
REMARK  status: ('A' for Active; 'I' for Inactive)
REMARK    1  A    between atoms: C2'_3  and  C1'_4 
REMARK    2  A    between atoms: C1'_4  and  C1_5 
ROOT
ATOM      1  C1  I4B d   1       0.107  -0.304   0.130  0.00  0.00    -0.075 A 
ATOM      2  C2  I4B d   1      -1.137   0.036   0.601  0.00  0.00     0.003 A 
ATOM      3  C3  I4B d   1      -1.465   1.394   0.832  0.00  0.00     0.002 A 
ATOM      4  C4  I4B d   1      -0.509   2.368   0.629  0.00  0.00    -0.004 A 
ATOM      5  C5  I4B d   1       0.744   2.024   0.130  0.00  0.00     0.002 A 
ATOM      6  C6  I4B d   1       1.050   0.681  -0.133  0.00  0.00     0.003 A 
ENDROOT
BRANCH   1   7
ATOM      7  C1' I4B d   1       0.430  -1.750  -0.072  0.00  0.00     0.060 C 
BRANCH   7   8
ATOM      8  C2' I4B d   1      -0.557  -2.314  -1.074  0.00  0.00    -0.013 C 
ATOM      9  C4' I4B d   1       0.071  -2.462  -2.435  0.00  0.00     0.013 C 
ATOM     10  C3' I4B d   1      -1.040  -3.635  -0.554  0.00  0.00     0.013 C 
ENDBRANCH   7   8
ENDBRANCH   1   7
TORSDOF 2
ENDMDL
