MODEL 1
REMARK minimizedAffinity -3.3219409
REMARK minimizedRMSD -1
REMARK  2 active torsions:
REMARK  status: ('A' for Active; 'I' for Inactive)
REMARK    1  A    between atoms: C2'_3  and  C1'_4 
REMARK    2  A    between atoms: C1'_4  and  C1_5 
ROOT
ATOM      1  C1  I4B d   1       0.086   0.288   0.143  0.00  0.00    -0.075 A 
ATOM      2  C2  I4B d   1       1.191   1.025  -0.205  0.00  0.00     0.003 A 
ATOM      3  C3  I4B d   1       1.084   2.424  -0.392  0.00  0.00     0.002 A 
ATOM      4  C4  I4B d   1      -0.149   3.034  -0.272  0.00  0.00    -0.004 A 
ATOM      5  C5  I4B d   1      -1.263   2.288   0.102  0.00  0.00     0.002 A 
ATOM      6  C6  I4B d   1      -1.143   0.909   0.323  0.00  0.00     0.003 A 
ENDROOT
BRANCH   1   7
ATOM      7  C1' I4B d   1       0.228  -1.193   0.300  0.00  0.00     0.060 C 
BRANCH   7   8
ATOM      8  C2' I4B d   1      -0.706  -1.860  -0.689  0.00  0.00    -0.013 C 
ATOM      9  C4' I4B d   1      -0.044  -2.036  -2.030  0.00  0.00     0.013 C 
ATOM     10  C3' I4B d   1      -1.124  -3.180  -0.113  0.00  0.00     0.013 C 
ENDBRANCH   7   8
ENDBRANCH   1   7
TORSDOF 2
ENDMDL
