MODEL 1
REMARK minimizedAffinity -2.44052196
REMARK minimizedRMSD -1
REMARK  2 active torsions:
REMARK  status: ('A' for Active; 'I' for Inactive)
REMARK    1  A    between atoms: C2'_3  and  C1'_4 
REMARK    2  A    between atoms: C1'_4  and  C1_5 
ROOT
ATOM      1  C1  I4B d   1      -0.311  -2.176  -0.694  0.00  0.00    -0.075 A 
ATOM      2  C2  I4B d   1      -1.418  -2.987  -0.681  0.00  0.00     0.003 A 
ATOM      3  C3  I4B d   1      -1.691  -3.837  -1.781  0.00  0.00     0.002 A 
ATOM      4  C4  I4B d   1      -0.865  -3.806  -2.885  0.00  0.00    -0.004 A 
ATOM      5  C5  I4B d   1       0.270  -3.000  -2.886  0.00  0.00     0.002 A 
ATOM      6  C6  I4B d   1       0.556  -2.189  -1.779  0.00  0.00     0.003 A 
ENDROOT
BRANCH   1   7
ATOM      7  C1' I4B d   1      -0.070  -1.267   0.469  0.00  0.00     0.060 C 
BRANCH   7   8
ATOM      8  C2' I4B d   1      -0.495   0.131   0.065  0.00  0.00    -0.013 C 
ATOM      9  C4' I4B d   1      -1.830   0.489   0.663  0.00  0.00     0.013 C 
ATOM     10  C3' I4B d   1       0.572   1.086   0.511  0.00  0.00     0.013 C 
ENDBRANCH   7   8
ENDBRANCH   1   7
TORSDOF 2
ENDMDL
