MODEL 1
REMARK minimizedAffinity -4.16545439
REMARK minimizedRMSD -1
REMARK  2 active torsions:
REMARK  status: ('A' for Active; 'I' for Inactive)
REMARK    1  A    between atoms: C2'_3  and  C1'_4 
REMARK    2  A    between atoms: C1'_4  and  C1_5 
ROOT
ATOM      1  C1  I4B d   1      -0.003  -0.167   0.133  0.00  0.00    -0.075 A 
ATOM      2  C2  I4B d   1       1.081   0.670   0.035  0.00  0.00     0.003 A 
ATOM      3  C3  I4B d   1       0.924   2.064   0.226  0.00  0.00     0.002 A 
ATOM      4  C4  I4B d   1      -0.333   2.581   0.462  0.00  0.00    -0.004 A 
ATOM      5  C5  I4B d   1      -1.427   1.729   0.583  0.00  0.00     0.002 A 
ATOM      6  C6  I4B d   1      -1.259   0.345   0.431  0.00  0.00     0.003 A 
ENDROOT
BRANCH   1   7
ATOM      7  C1' I4B d   1       0.192  -1.630  -0.107  0.00  0.00     0.060 C 
BRANCH   7   8
ATOM      8  C2' I4B d   1      -0.400  -1.964  -1.461  0.00  0.00    -0.013 C 
ATOM      9  C4' I4B d   1       0.659  -2.453  -2.414  0.00  0.00     0.013 C 
ATOM     10  C3' I4B d   1      -1.465  -3.000  -1.258  0.00  0.00     0.013 C 
ENDBRANCH   7   8
ENDBRANCH   1   7
TORSDOF 2
ENDMDL
