MODEL 1
REMARK minimizedAffinity -0.233965918
REMARK minimizedRMSD -1
REMARK  2 active torsions:
REMARK  status: ('A' for Active; 'I' for Inactive)
REMARK    1  A    between atoms: C2'_3  and  C1'_4 
REMARK    2  A    between atoms: C1'_4  and  C1_5 
ROOT
ATOM      1  C1  I4B d   1      -0.173   0.113  -0.311  0.00  0.00    -0.075 A 
ATOM      2  C2  I4B d   1      -0.800   0.660   0.780  0.00  0.00     0.003 A 
ATOM      3  C3  I4B d   1      -0.854   2.066   0.940  0.00  0.00     0.002 A 
ATOM      4  C4  I4B d   1      -0.228   2.880   0.017  0.00  0.00    -0.004 A 
ATOM      5  C5  I4B d   1       0.387   2.324  -1.101  0.00  0.00     0.002 A 
ATOM      6  C6  I4B d   1       0.405   0.932  -1.273  0.00  0.00     0.003 A 
ENDROOT
BRANCH   1   7
ATOM      7  C1' I4B d   1      -0.106  -1.377  -0.432  0.00  0.00     0.060 C 
BRANCH   7   8
ATOM      8  C2' I4B d   1      -0.438  -1.745  -1.864  0.00  0.00    -0.013 C 
ATOM      9  C4' I4B d   1       0.802  -2.114  -2.634  0.00  0.00     0.013 C 
ATOM     10  C3' I4B d   1      -1.416  -2.881  -1.834  0.00  0.00     0.013 C 
ENDBRANCH   7   8
ENDBRANCH   1   7
TORSDOF 2
ENDMDL
