MODEL 1
REMARK minimizedAffinity -3.79807353
REMARK minimizedRMSD -1
REMARK  2 active torsions:
REMARK  status: ('A' for Active; 'I' for Inactive)
REMARK    1  A    between atoms: C2'_3  and  C1'_4 
REMARK    2  A    between atoms: C1'_4  and  C1_5 
ROOT
ATOM      1  C1  I4B d   1      -0.893   0.949   0.014  0.00  0.00    -0.075 A 
ATOM      2  C2  I4B d   1      -1.057   1.577   1.223  0.00  0.00     0.003 A 
ATOM      3  C3  I4B d   1      -0.674   2.931   1.381  0.00  0.00     0.002 A 
ATOM      4  C4  I4B d   1      -0.087   3.598   0.326  0.00  0.00    -0.004 A 
ATOM      5  C5  I4B d   1       0.057   2.967  -0.906  0.00  0.00     0.002 A 
ATOM      6  C6  I4B d   1      -0.359   1.638  -1.067  0.00  0.00     0.003 A 
ENDROOT
BRANCH   1   7
ATOM      7  C1' I4B d   1      -1.279  -0.491  -0.108  0.00  0.00     0.060 C 
BRANCH   7   8
ATOM      8  C2' I4B d   1      -0.073  -1.256  -0.615  0.00  0.00    -0.013 C 
ATOM      9  C4' I4B d   1       1.082  -1.153   0.347  0.00  0.00     0.013 C 
ATOM     10  C3' I4B d   1      -0.482  -2.684  -0.819  0.00  0.00     0.013 C 
ENDBRANCH   7   8
ENDBRANCH   1   7
TORSDOF 2
ENDMDL
