MODEL 1
REMARK minimizedAffinity 6.46518087
REMARK minimizedRMSD -1
REMARK  3 active torsions:
REMARK  status: ('A' for Active; 'I' for Inactive)
REMARK    1  A    between atoms: C3'_2  and  C2'_3 
REMARK    2  A    between atoms: C2'_3  and  C1'_4 
REMARK    3  A    between atoms: C1'_4  and  C1_5 
ROOT
ATOM      1  C1  N4B d   1      -0.284  -0.188   1.305  0.00  0.00    -0.075 A 
ATOM      2  C2  N4B d   1      -1.650   0.023   1.599  0.00  0.00     0.002 A 
ATOM      3  C3  N4B d   1      -2.132  -0.251   2.855  0.00  0.00     0.002 A 
ATOM      4  C4  N4B d   1      -1.276  -0.753   3.824  0.00  0.00    -0.004 A 
ATOM      5  C5  N4B d   1       0.046  -0.929   3.540  0.00  0.00     0.002 A 
ATOM      6  C6  N4B d   1       0.546  -0.654   2.283  0.00  0.00     0.002 A 
ENDROOT
BRANCH   1   7
ATOM      7  C1' N4B d   1       0.272   0.016  -0.078  0.00  0.00     0.057 C 
BRANCH   7   8
ATOM      8  C2' N4B d   1       1.686  -0.553  -0.138  0.00  0.00     0.009 C 
BRANCH   8   9
ATOM      9  C3' N4B d   1       2.531   0.135  -1.197  0.00  0.00     0.004 C 
ATOM     10  C4' N4B d   1       3.685   0.894  -0.615  0.00  0.00     0.003 C 
ENDBRANCH   8   9
ENDBRANCH   7   8
ENDBRANCH   1   7
TORSDOF 3
ENDMDL
