MODEL 1
REMARK minimizedAffinity 5.53282642
REMARK minimizedRMSD -1
REMARK  3 active torsions:
REMARK  status: ('A' for Active; 'I' for Inactive)
REMARK    1  A    between atoms: C3'_2  and  C2'_3 
REMARK    2  A    between atoms: C2'_3  and  C1'_4 
REMARK    3  A    between atoms: C1'_4  and  C1_5 
ROOT
ATOM      1  C1  N4B d   1       1.057   0.867  -0.990  0.00  0.00    -0.075 A 
ATOM      2  C2  N4B d   1       1.386   1.283  -2.299  0.00  0.00     0.002 A 
ATOM      3  C3  N4B d   1       0.709   0.762  -3.375  0.00  0.00     0.002 A 
ATOM      4  C4  N4B d   1      -0.283  -0.185  -3.169  0.00  0.00    -0.004 A 
ATOM      5  C5  N4B d   1      -0.611  -0.562  -1.900  0.00  0.00     0.002 A 
ATOM      6  C6  N4B d   1       0.058  -0.045  -0.809  0.00  0.00     0.002 A 
ENDROOT
BRANCH   1   7
ATOM      7  C1' N4B d   1       1.827   1.343   0.211  0.00  0.00     0.057 C 
BRANCH   7   8
ATOM      8  C2' N4B d   1       3.003   2.197  -0.254  0.00  0.00     0.009 C 
BRANCH   8   9
ATOM      9  C3' N4B d   1       2.893   3.631   0.234  0.00  0.00     0.004 C 
ATOM     10  C4' N4B d   1       3.075   4.634  -0.865  0.00  0.00     0.003 C 
ENDBRANCH   8   9
ENDBRANCH   7   8
ENDBRANCH   1   7
TORSDOF 3
ENDMDL
