MODEL 1
REMARK minimizedAffinity 0.831270278
REMARK minimizedRMSD -1
REMARK  3 active torsions:
REMARK  status: ('A' for Active; 'I' for Inactive)
REMARK    1  A    between atoms: C3'_2  and  C2'_3 
REMARK    2  A    between atoms: C2'_3  and  C1'_4 
REMARK    3  A    between atoms: C1'_4  and  C1_5 
ROOT
ATOM      1  C1  N4B d   1      -1.207   0.412   1.476  0.00  0.00    -0.075 A 
ATOM      2  C2  N4B d   1      -0.004   0.021   0.849  0.00  0.00     0.002 A 
ATOM      3  C3  N4B d   1       0.031  -0.171  -0.511  0.00  0.00     0.002 A 
ATOM      4  C4  N4B d   1      -1.124   0.004  -1.258  0.00  0.00    -0.004 A 
ATOM      5  C5  N4B d   1      -2.276   0.406  -0.648  0.00  0.00     0.002 A 
ATOM      6  C6  N4B d   1      -2.325   0.607   0.717  0.00  0.00     0.002 A 
ENDROOT
BRANCH   1   7
ATOM      7  C1' N4B d   1      -1.316   0.550   2.970  0.00  0.00     0.057 C 
BRANCH   7   8
ATOM      8  C2' N4B d   1      -0.778  -0.716   3.630  0.00  0.00     0.009 C 
BRANCH   8   9
ATOM      9  C3' N4B d   1      -1.663  -1.920   3.355  0.00  0.00     0.004 C 
ATOM     10  C4' N4B d   1      -3.125  -1.592   3.418  0.00  0.00     0.003 C 
ENDBRANCH   8   9
ENDBRANCH   7   8
ENDBRANCH   1   7
TORSDOF 3
ENDMDL
