MODEL 1
REMARK minimizedAffinity 3.31034875
REMARK minimizedRMSD -1
REMARK  3 active torsions:
REMARK  status: ('A' for Active; 'I' for Inactive)
REMARK    1  A    between atoms: C3'_2  and  C2'_3 
REMARK    2  A    between atoms: C2'_3  and  C1'_4 
REMARK    3  A    between atoms: C1'_4  and  C1_5 
ROOT
ATOM      1  C1  N4B d   1      -0.752  -0.085   2.761  0.00  0.00    -0.075 A 
ATOM      2  C2  N4B d   1      -1.576   0.203   1.651  0.00  0.00     0.002 A 
ATOM      3  C3  N4B d   1      -1.044   0.209   0.385  0.00  0.00     0.002 A 
ATOM      4  C4  N4B d   1       0.307  -0.051   0.207  0.00  0.00    -0.004 A 
ATOM      5  C5  N4B d   1       1.090  -0.353   1.282  0.00  0.00     0.002 A 
ATOM      6  C6  N4B d   1       0.568  -0.366   2.560  0.00  0.00     0.002 A 
ENDROOT
BRANCH   1   7
ATOM      7  C1' N4B d   1      -1.269  -0.019   4.172  0.00  0.00     0.057 C 
BRANCH   7   8
ATOM      8  C2' N4B d   1      -1.785  -1.395   4.582  0.00  0.00     0.009 C 
BRANCH   8   9
ATOM      9  C3' N4B d   1      -2.731  -1.978   3.546  0.00  0.00     0.004 C 
ATOM     10  C4' N4B d   1      -4.099  -1.365   3.598  0.00  0.00     0.003 C 
ENDBRANCH   8   9
ENDBRANCH   7   8
ENDBRANCH   1   7
TORSDOF 3
ENDMDL
