MODEL 1
REMARK minimizedAffinity 7.61197901
REMARK minimizedRMSD -1
REMARK  3 active torsions:
REMARK  status: ('A' for Active; 'I' for Inactive)
REMARK    1  A    between atoms: C3'_2  and  C2'_3 
REMARK    2  A    between atoms: C2'_3  and  C1'_4 
REMARK    3  A    between atoms: C1'_4  and  C1_5 
ROOT
ATOM      1  C1  N4B d   1      -0.558  -0.891   3.065  0.00  0.00    -0.075 A 
ATOM      2  C2  N4B d   1      -1.913  -0.631   3.367  0.00  0.00     0.002 A 
ATOM      3  C3  N4B d   1      -2.688   0.083   2.486  0.00  0.00     0.002 A 
ATOM      4  C4  N4B d   1      -2.127   0.563   1.312  0.00  0.00    -0.004 A 
ATOM      5  C5  N4B d   1      -0.825   0.286   1.016  0.00  0.00     0.002 A 
ATOM      6  C6  N4B d   1      -0.035  -0.435   1.889  0.00  0.00     0.002 A 
ENDROOT
BRANCH   1   7
ATOM      7  C1' N4B d   1       0.351  -1.594   4.035  0.00  0.00     0.057 C 
BRANCH   7   8
ATOM      8  C2' N4B d   1       1.789  -1.149   3.786  0.00  0.00     0.009 C 
BRANCH   8   9
ATOM      9  C3' N4B d   1       2.693  -1.461   4.966  0.00  0.00     0.004 C 
ATOM     10  C4' N4B d   1       3.264  -0.228   5.602  0.00  0.00     0.003 C 
ENDBRANCH   8   9
ENDBRANCH   7   8
ENDBRANCH   1   7
TORSDOF 3
ENDMDL
