MODEL 1
REMARK minimizedAffinity -0.417323977
REMARK minimizedRMSD -1
REMARK  3 active torsions:
REMARK  status: ('A' for Active; 'I' for Inactive)
REMARK    1  A    between atoms: C3'_2  and  C2'_3 
REMARK    2  A    between atoms: C2'_3  and  C1'_4 
REMARK    3  A    between atoms: C1'_4  and  C1_5 
ROOT
ATOM      1  C1  N4B d   1      -1.048  -0.542   2.959  0.00  0.00    -0.075 A 
ATOM      2  C2  N4B d   1      -2.430  -0.505   2.670  0.00  0.00     0.002 A 
ATOM      3  C3  N4B d   1      -3.300  -1.295   3.380  0.00  0.00     0.002 A 
ATOM      4  C4  N4B d   1      -2.812  -2.141   4.364  0.00  0.00    -0.004 A 
ATOM      5  C5  N4B d   1      -1.479  -2.152   4.654  0.00  0.00     0.002 A 
ATOM      6  C6  N4B d   1      -0.593  -1.360   3.952  0.00  0.00     0.002 A 
ENDROOT
BRANCH   1   7
ATOM      7  C1' N4B d   1      -0.047   0.241   2.152  0.00  0.00     0.057 C 
BRANCH   7   8
ATOM      8  C2' N4B d   1       0.135  -0.430   0.794  0.00  0.00     0.009 C 
BRANCH   8   9
ATOM      9  C3' N4B d   1      -0.753   0.192  -0.270  0.00  0.00     0.004 C 
ATOM     10  C4' N4B d   1      -1.820  -0.744  -0.755  0.00  0.00     0.003 C 
ENDBRANCH   8   9
ENDBRANCH   7   8
ENDBRANCH   1   7
TORSDOF 3
ENDMDL
