MODEL 1
REMARK minimizedAffinity 12.6764412
REMARK minimizedRMSD -1
REMARK  0 active torsions:
REMARK  status: ('A' for Active; 'I' for Inactive)
ROOT
ATOM      1  C1  DEN d   1      -0.035  -4.177   6.000  0.00  0.00     0.130 A 
ATOM      2  C2  DEN d   1       0.354  -5.580   5.889  0.00  0.00    -0.031 A 
ATOM      3  C3  DEN d   1       0.961  -5.782   4.558  0.00  0.00     0.027 A 
ATOM      4  C4  DEN d   1       1.339  -4.065   2.670  0.00  0.00     0.027 A 
ATOM      5  C5  DEN d   1       1.163  -2.751   2.296  0.00  0.00    -0.003 A 
ATOM      6  C6  DEN d   1       0.551  -1.836   3.110  0.00  0.00     0.001 A 
ATOM      7  C7  DEN d   1       0.131  -2.212   4.359  0.00  0.00     0.017 A 
ATOM      8  C8  DEN d   1       0.298  -3.536   4.740  0.00  0.00    -0.094 A 
ATOM      9  C9  DEN d   1       0.931  -4.444   3.908  0.00  0.00    -0.072 A 
ENDROOT
TORSDOF 0
ENDMDL
