MODEL 1
REMARK minimizedAffinity 13.1593704
REMARK minimizedRMSD -1
REMARK  0 active torsions:
REMARK  status: ('A' for Active; 'I' for Inactive)
ROOT
ATOM      1  C1  DEN d   1       3.789   5.404  -5.441  0.00  0.00     0.130 A 
ATOM      2  C2  DEN d   1       5.066   5.922  -5.922  0.00  0.00    -0.031 A 
ATOM      3  C3  DEN d   1       5.999   5.971  -4.778  0.00  0.00     0.027 A 
ATOM      4  C4  DEN d   1       5.592   5.294  -2.323  0.00  0.00     0.027 A 
ATOM      5  C5  DEN d   1       4.661   4.809  -1.432  0.00  0.00    -0.003 A 
ATOM      6  C6  DEN d   1       3.374   4.523  -1.804  0.00  0.00     0.001 A 
ATOM      7  C7  DEN d   1       2.995   4.677  -3.112  0.00  0.00     0.017 A 
ATOM      8  C8  DEN d   1       3.927   5.172  -4.014  0.00  0.00    -0.094 A 
ATOM      9  C9  DEN d   1       5.227   5.444  -3.621  0.00  0.00    -0.072 A 
ENDROOT
TORSDOF 0
ENDMDL
