MODEL 1
REMARK minimizedAffinity 12.9265347
REMARK minimizedRMSD -1
REMARK  0 active torsions:
REMARK  status: ('A' for Active; 'I' for Inactive)
ROOT
ATOM      1  C1  DEN d   1      -6.000   4.164  -2.549  0.00  0.00     0.130 A 
ATOM      2  C2  DEN d   1      -6.000   4.572  -1.147  0.00  0.00    -0.031 A 
ATOM      3  C3  DEN d   1      -4.960   3.793  -0.445  0.00  0.00     0.027 A 
ATOM      4  C4  DEN d   1      -3.356   2.007  -1.389  0.00  0.00     0.027 A 
ATOM      5  C5  DEN d   1      -2.989   1.315  -2.522  0.00  0.00    -0.003 A 
ATOM      6  C6  DEN d   1      -3.617   1.497  -3.725  0.00  0.00     0.001 A 
ATOM      7  C7  DEN d   1      -4.617   2.427  -3.835  0.00  0.00     0.017 A 
ATOM      8  C8  DEN d   1      -4.998   3.124  -2.696  0.00  0.00    -0.094 A 
ATOM      9  C9  DEN d   1      -4.342   2.934  -1.491  0.00  0.00    -0.072 A 
ENDROOT
TORSDOF 0
ENDMDL
