MODEL 1
REMARK minimizedAffinity 8.95653915
REMARK minimizedRMSD -1
REMARK  0 active torsions:
REMARK  status: ('A' for Active; 'I' for Inactive)
ROOT
ATOM      1  C1  DEN d   1      -3.838  -2.382  -4.248  0.00  0.00     0.130 A 
ATOM      2  C2  DEN d   1      -4.956  -1.503  -4.579  0.00  0.00    -0.031 A 
ATOM      3  C3  DEN d   1      -5.971  -2.304  -5.293  0.00  0.00     0.027 A 
ATOM      4  C4  DEN d   1      -5.921  -4.808  -5.910  0.00  0.00     0.027 A 
ATOM      5  C5  DEN d   1      -5.175  -5.964  -5.849  0.00  0.00    -0.003 A 
ATOM      6  C6  DEN d   1      -3.927  -6.000  -5.286  0.00  0.00     0.001 A 
ATOM      7  C7  DEN d   1      -3.406  -4.867  -4.719  0.00  0.00     0.017 A 
ATOM      8  C8  DEN d   1      -4.149  -3.695  -4.783  0.00  0.00    -0.094 A 
ATOM      9  C9  DEN d   1      -5.414  -3.683  -5.346  0.00  0.00    -0.072 A 
ENDROOT
TORSDOF 0
ENDMDL
