MODEL 1
REMARK minimizedAffinity 9.62891102
REMARK minimizedRMSD -1
REMARK  0 active torsions:
REMARK  status: ('A' for Active; 'I' for Inactive)
ROOT
ATOM      1  C1  DEN d   1      -5.623  -2.171  -4.676  0.00  0.00     0.130 A 
ATOM      2  C2  DEN d   1      -4.722  -1.684  -3.635  0.00  0.00    -0.031 A 
ATOM      3  C3  DEN d   1      -3.764  -2.763  -3.319  0.00  0.00     0.027 A 
ATOM      4  C4  DEN d   1      -3.586  -5.125  -4.340  0.00  0.00     0.027 A 
ATOM      5  C5  DEN d   1      -4.139  -6.000  -5.249  0.00  0.00    -0.003 A 
ATOM      6  C6  DEN d   1      -5.237  -5.675  -6.000  0.00  0.00     0.001 A 
ATOM      7  C7  DEN d   1      -5.790  -4.426  -5.888  0.00  0.00     0.017 A 
ATOM      8  C8  DEN d   1      -5.243  -3.542  -4.968  0.00  0.00    -0.094 A 
ATOM      9  C9  DEN d   1      -4.125  -3.885  -4.227  0.00  0.00    -0.072 A 
ENDROOT
TORSDOF 0
ENDMDL
