MODEL 1
REMARK minimizedAffinity 17.2354012
REMARK minimizedRMSD -1
REMARK  0 active torsions:
REMARK  status: ('A' for Active; 'I' for Inactive)
ROOT
ATOM      1  C1  DEN d   1       2.110  -2.091   1.179  0.00  0.00     0.130 A 
ATOM      2  C2  DEN d   1       1.011  -2.360   2.102  0.00  0.00    -0.031 A 
ATOM      3  C3  DEN d   1       0.582  -1.074   2.688  0.00  0.00     0.027 A 
ATOM      4  C4  DEN d   1       1.507   1.295   2.256  0.00  0.00     0.027 A 
ATOM      5  C5  DEN d   1       2.448   2.023   1.563  0.00  0.00    -0.003 A 
ATOM      6  C6  DEN d   1       3.357   1.432   0.726  0.00  0.00     0.001 A 
ATOM      7  C7  DEN d   1       3.315   0.078   0.526  0.00  0.00     0.017 A 
ATOM      8  C8  DEN d   1       2.374  -0.664   1.227  0.00  0.00    -0.094 A 
ATOM      9  C9  DEN d   1       1.456  -0.047   2.060  0.00  0.00    -0.072 A 
ENDROOT
TORSDOF 0
ENDMDL
