MODEL 1
REMARK minimizedAffinity 15.7099829
REMARK minimizedRMSD -1
REMARK  0 active torsions:
REMARK  status: ('A' for Active; 'I' for Inactive)
ROOT
ATOM      1  C1  DEN d   1       2.011  -0.860   0.858  0.00  0.00     0.130 A 
ATOM      2  C2  DEN d   1       1.212  -1.633   1.805  0.00  0.00    -0.031 A 
ATOM      3  C3  DEN d   1       0.850  -0.745   2.928  0.00  0.00     0.027 A 
ATOM      4  C4  DEN d   1       1.442   1.740   3.287  0.00  0.00     0.027 A 
ATOM      5  C5  DEN d   1       2.111   2.822   2.760  0.00  0.00    -0.003 A 
ATOM      6  C6  DEN d   1       2.817   2.744   1.588  0.00  0.00     0.001 A 
ATOM      7  C7  DEN d   1       2.832   1.570   0.882  0.00  0.00     0.017 A 
ATOM      8  C8  DEN d   1       2.165   0.473   1.411  0.00  0.00    -0.094 A 
ATOM      9  C9  DEN d   1       1.448   0.575   2.590  0.00  0.00    -0.072 A 
ENDROOT
TORSDOF 0
ENDMDL
