MODEL 1
REMARK minimizedAffinity 21.1939011
REMARK minimizedRMSD -1
REMARK  0 active torsions:
REMARK  status: ('A' for Active; 'I' for Inactive)
ROOT
ATOM      1  C1  DEN d   1       2.668   4.802  -2.197  0.00  0.00     0.130 A 
ATOM      2  C2  DEN d   1       3.183   4.889  -0.834  0.00  0.00    -0.031 A 
ATOM      3  C3  DEN d   1       4.585   5.346  -0.903  0.00  0.00     0.027 A 
ATOM      4  C4  DEN d   1       6.000   5.930  -2.980  0.00  0.00     0.027 A 
ATOM      5  C5  DEN d   1       5.999   5.999  -4.355  0.00  0.00    -0.003 A 
ATOM      6  C6  DEN d   1       4.908   5.644  -5.103  0.00  0.00     0.001 A 
ATOM      7  C7  DEN d   1       3.756   5.247  -4.478  0.00  0.00     0.017 A 
ATOM      8  C8  DEN d   1       3.751   5.168  -3.091  0.00  0.00    -0.094 A 
ATOM      9  C9  DEN d   1       4.861   5.542  -2.352  0.00  0.00    -0.072 A 
ENDROOT
TORSDOF 0
ENDMDL
