MODEL 1
REMARK minimizedAffinity 9.14895916
REMARK minimizedRMSD -1
REMARK  0 active torsions:
REMARK  status: ('A' for Active; 'I' for Inactive)
ROOT
ATOM      1  C1  DEN d   1      -4.365  -3.041  -2.546  0.00  0.00     0.130 A 
ATOM      2  C2  DEN d   1      -4.442  -1.687  -3.086  0.00  0.00    -0.031 A 
ATOM      3  C3  DEN d   1      -4.675  -1.788  -4.541  0.00  0.00     0.027 A 
ATOM      4  C4  DEN d   1      -4.927  -3.900  -6.000  0.00  0.00     0.027 A 
ATOM      5  C5  DEN d   1      -4.924  -5.278  -5.991  0.00  0.00    -0.003 A 
ATOM      6  C6  DEN d   1      -4.702  -6.000  -4.849  0.00  0.00     0.001 A 
ATOM      7  C7  DEN d   1      -4.519  -5.348  -3.658  0.00  0.00     0.017 A 
ATOM      8  C8  DEN d   1      -4.513  -3.959  -3.660  0.00  0.00    -0.094 A 
ATOM      9  C9  DEN d   1      -4.752  -3.247  -4.823  0.00  0.00    -0.072 A 
ENDROOT
TORSDOF 0
ENDMDL
