MODEL 1
REMARK minimizedAffinity 9.0799284
REMARK minimizedRMSD -1
REMARK  0 active torsions:
REMARK  status: ('A' for Active; 'I' for Inactive)
ROOT
ATOM      1  C1  DEN d   1       0.908  -0.258   1.528  0.00  0.00     0.130 A 
ATOM      2  C2  DEN d   1      -0.503   0.101   1.645  0.00  0.00    -0.031 A 
ATOM      3  C3  DEN d   1      -1.261  -1.125   1.967  0.00  0.00     0.027 A 
ATOM      4  C4  DEN d   1      -0.390  -3.530   2.300  0.00  0.00     0.027 A 
ATOM      5  C5  DEN d   1       0.732  -4.329   2.290  0.00  0.00    -0.003 A 
ATOM      6  C6  DEN d   1       1.976  -3.838   1.994  0.00  0.00     0.001 A 
ATOM      7  C7  DEN d   1       2.135  -2.501   1.741  0.00  0.00     0.017 A 
ATOM      8  C8  DEN d   1       1.007  -1.690   1.742  0.00  0.00    -0.094 A 
ATOM      9  C9  DEN d   1      -0.240  -2.204   2.055  0.00  0.00    -0.072 A 
ENDROOT
TORSDOF 0
ENDMDL
