MODEL 1
REMARK minimizedAffinity -1.83085704
REMARK minimizedRMSD -1
REMARK  0 active torsions:
REMARK  status: ('A' for Active; 'I' for Inactive)
ROOT
ATOM      1  C   UNL d   1      -0.208   0.109   2.373  0.00  0.00     0.020 A 
ATOM      2  C1  UNL d   1       1.054  -0.312   1.954  0.00  0.00     0.020 A 
ATOM      3  C2  UNL d   1       1.380  -0.293   0.596  0.00  0.00     0.034 A 
ATOM      4  C3  UNL d   1       0.444   0.146  -0.347  0.00  0.00     0.017 A 
ATOM      5  C4  UNL d   1      -0.822   0.568   0.075  0.00  0.00     0.017 A 
ATOM      6  C5  UNL d   1      -1.144   0.548   1.435  0.00  0.00     0.034 A 
ATOM      7 Cl   UNL d   1      -2.030   1.123  -1.030  0.00  0.00    -0.070 Cl
ATOM      8 Cl1  UNL d   1       0.916   0.142  -2.009  0.00  0.00    -0.070 Cl
ENDROOT
TORSDOF 0
ENDMDL
