MODEL 1
REMARK minimizedAffinity -4.88107586
REMARK minimizedRMSD -1
REMARK  0 active torsions:
REMARK  status: ('A' for Active; 'I' for Inactive)
ROOT
ATOM      1  C   UNL d   1      -2.702   0.031   1.887  0.00  0.00     0.020 A 
ATOM      2  C1  UNL d   1      -1.915  -0.071   3.033  0.00  0.00     0.020 A 
ATOM      3  C2  UNL d   1      -0.527   0.053   2.941  0.00  0.00     0.034 A 
ATOM      4  C3  UNL d   1       0.078   0.281   1.700  0.00  0.00     0.017 A 
ATOM      5  C4  UNL d   1      -0.712   0.383   0.549  0.00  0.00     0.017 A 
ATOM      6  C5  UNL d   1      -2.102   0.258   0.647  0.00  0.00     0.034 A 
ATOM      7 Cl   UNL d   1      -0.038   0.663  -1.017  0.00  0.00    -0.070 Cl
ATOM      8 Cl1  UNL d   1       1.800   0.425   1.659  0.00  0.00    -0.070 Cl
ENDROOT
TORSDOF 0
ENDMDL
