MODEL 1
REMARK minimizedAffinity -3.74548602
REMARK minimizedRMSD -1
REMARK  0 active torsions:
REMARK  status: ('A' for Active; 'I' for Inactive)
ROOT
ATOM      1  C   UNL d   1      -0.245   0.617   0.848  0.00  0.00     0.020 A 
ATOM      2  C1  UNL d   1      -0.808  -0.659   0.831  0.00  0.00     0.020 A 
ATOM      3  C2  UNL d   1      -0.701  -1.454  -0.312  0.00  0.00     0.034 A 
ATOM      4  C3  UNL d   1      -0.031  -0.974  -1.443  0.00  0.00     0.017 A 
ATOM      5  C4  UNL d   1       0.534   0.307  -1.425  0.00  0.00     0.017 A 
ATOM      6  C5  UNL d   1       0.425   1.098  -0.278  0.00  0.00     0.034 A 
ATOM      7 Cl   UNL d   1       1.376   0.968  -2.782  0.00  0.00    -0.070 Cl
ATOM      8 Cl1  UNL d   1       0.063  -2.011  -2.822  0.00  0.00    -0.070 Cl
ENDROOT
TORSDOF 0
ENDMDL
