MODEL 1
REMARK minimizedAffinity -4.71480989
REMARK minimizedRMSD -1
REMARK  0 active torsions:
REMARK  status: ('A' for Active; 'I' for Inactive)
ROOT
ATOM      1  C   UNL d   1      -2.407  -0.239   2.573  0.00  0.00     0.020 A 
ATOM      2  C1  UNL d   1      -1.136  -0.364   3.132  0.00  0.00     0.020 A 
ATOM      3  C2  UNL d   1      -0.018   0.100   2.436  0.00  0.00     0.034 A 
ATOM      4  C3  UNL d   1      -0.169   0.692   1.177  0.00  0.00     0.017 A 
ATOM      5  C4  UNL d   1      -1.445   0.817   0.616  0.00  0.00     0.017 A 
ATOM      6  C5  UNL d   1      -2.561   0.350   1.317  0.00  0.00     0.034 A 
ATOM      7 Cl   UNL d   1      -1.711   1.536  -0.933  0.00  0.00    -0.070 Cl
ATOM      8 Cl1  UNL d   1       1.257   1.245   0.373  0.00  0.00    -0.070 Cl
ENDROOT
TORSDOF 0
ENDMDL
