MODEL 1
REMARK minimizedAffinity -1.74728334
REMARK minimizedRMSD -1
REMARK  0 active torsions:
REMARK  status: ('A' for Active; 'I' for Inactive)
ROOT
ATOM      1  C   UNL d   1       1.354  -0.126   0.118  0.00  0.00     0.020 A 
ATOM      2  C1  UNL d   1       0.434   0.197  -0.878  0.00  0.00     0.020 A 
ATOM      3  C2  UNL d   1      -0.927   0.279  -0.573  0.00  0.00     0.034 A 
ATOM      4  C3  UNL d   1      -1.371   0.037   0.732  0.00  0.00     0.017 A 
ATOM      5  C4  UNL d   1      -0.447  -0.288   1.731  0.00  0.00     0.017 A 
ATOM      6  C5  UNL d   1       0.914  -0.368   1.420  0.00  0.00     0.034 A 
ATOM      7 Cl   UNL d   1      -0.920  -0.600   3.364  0.00  0.00    -0.070 Cl
ATOM      8 Cl1  UNL d   1      -3.067   0.155   1.038  0.00  0.00    -0.070 Cl
ENDROOT
TORSDOF 0
ENDMDL
