MODEL 1
REMARK minimizedAffinity -2.03910089
REMARK minimizedRMSD -1
REMARK  0 active torsions:
REMARK  status: ('A' for Active; 'I' for Inactive)
ROOT
ATOM      1  C   UNL d   1       1.183  -0.106   1.983  0.00  0.00     0.020 A 
ATOM      2  C1  UNL d   1       0.007   0.067   2.712  0.00  0.00     0.020 A 
ATOM      3  C2  UNL d   1      -1.187   0.366   2.051  0.00  0.00     0.034 A 
ATOM      4  C3  UNL d   1      -1.207   0.493   0.658  0.00  0.00     0.017 A 
ATOM      5  C4  UNL d   1      -0.026   0.318  -0.073  0.00  0.00     0.017 A 
ATOM      6  C5  UNL d   1       1.166   0.019   0.593  0.00  0.00     0.034 A 
ATOM      7 Cl   UNL d   1       0.027   0.459  -1.795  0.00  0.00    -0.070 Cl
ATOM      8 Cl1  UNL d   1      -2.718   0.863  -0.094  0.00  0.00    -0.070 Cl
ENDROOT
TORSDOF 0
ENDMDL
