MODEL 1
REMARK minimizedAffinity -4.73794985
REMARK minimizedRMSD -1
REMARK  0 active torsions:
REMARK  status: ('A' for Active; 'I' for Inactive)
ROOT
ATOM      1  C   UNL d   1      -0.790  -0.805   3.236  0.00  0.00     0.020 A 
ATOM      2  C1  UNL d   1       0.510  -0.830   2.731  0.00  0.00     0.020 A 
ATOM      3  C2  UNL d   1       0.768  -0.351   1.445  0.00  0.00     0.034 A 
ATOM      4  C3  UNL d   1      -0.275   0.155   0.660  0.00  0.00     0.017 A 
ATOM      5  C4  UNL d   1      -1.579   0.179   1.168  0.00  0.00     0.017 A 
ATOM      6  C5  UNL d   1      -1.831  -0.302   2.456  0.00  0.00     0.034 A 
ATOM      7 Cl   UNL d   1      -2.916   0.788   0.258  0.00  0.00    -0.070 Cl
ATOM      8 Cl1  UNL d   1       0.117   0.731  -0.921  0.00  0.00    -0.070 Cl
ENDROOT
TORSDOF 0
ENDMDL
