MODEL 1
REMARK minimizedAffinity -1.92806077
REMARK minimizedRMSD -1
REMARK  0 active torsions:
REMARK  status: ('A' for Active; 'I' for Inactive)
ROOT
ATOM      1  C   UNL d   1       0.523   0.668   2.513  0.00  0.00     0.020 A 
ATOM      2  C1  UNL d   1       1.596   0.420   1.658  0.00  0.00     0.020 A 
ATOM      3  C2  UNL d   1       1.365   0.164   0.304  0.00  0.00     0.034 A 
ATOM      4  C3  UNL d   1       0.059   0.156  -0.198  0.00  0.00     0.017 A 
ATOM      5  C4  UNL d   1      -1.018   0.406   0.661  0.00  0.00     0.017 A 
ATOM      6  C5  UNL d   1      -0.781   0.661   2.015  0.00  0.00     0.034 A 
ATOM      7 Cl   UNL d   1      -2.657   0.413   0.115  0.00  0.00    -0.070 Cl
ATOM      8 Cl1  UNL d   1      -0.152  -0.166  -1.882  0.00  0.00    -0.070 Cl
ENDROOT
TORSDOF 0
ENDMDL
