MODEL 1
REMARK minimizedAffinity -2.90517187
REMARK minimizedRMSD -1
REMARK  0 active torsions:
REMARK  status: ('A' for Active; 'I' for Inactive)
ROOT
ATOM      1  C   UNL d   1      -0.846  -0.403   3.026  0.00  0.00     0.020 A 
ATOM      2  C1  UNL d   1      -1.681  -0.748   1.963  0.00  0.00     0.020 A 
ATOM      3  C2  UNL d   1      -1.175  -0.788   0.663  0.00  0.00     0.034 A 
ATOM      4  C3  UNL d   1       0.170  -0.484   0.421  0.00  0.00     0.017 A 
ATOM      5  C4  UNL d   1       1.007  -0.138   1.488  0.00  0.00     0.017 A 
ATOM      6  C5  UNL d   1       0.495  -0.099   2.788  0.00  0.00     0.034 A 
ATOM      7 Cl   UNL d   1       2.677   0.250   1.268  0.00  0.00    -0.070 Cl
ATOM      8 Cl1  UNL d   1       0.728  -0.555  -1.213  0.00  0.00    -0.070 Cl
ENDROOT
TORSDOF 0
ENDMDL
