MODEL 1
REMARK minimizedAffinity -3.29094505
REMARK minimizedRMSD -1
REMARK  0 active torsions:
REMARK  status: ('A' for Active; 'I' for Inactive)
ROOT
ATOM      1  C   UNL d   1       1.295  -0.107   2.224  0.00  0.00     0.020 A 
ATOM      2  C1  UNL d   1       0.145  -0.369   2.968  0.00  0.00     0.020 A 
ATOM      3  C2  UNL d   1      -1.098  -0.431   2.334  0.00  0.00     0.034 A 
ATOM      4  C3  UNL d   1      -1.194  -0.230   0.952  0.00  0.00     0.017 A 
ATOM      5  C4  UNL d   1      -0.039   0.033   0.207  0.00  0.00     0.017 A 
ATOM      6  C5  UNL d   1       1.203   0.094   0.847  0.00  0.00     0.034 A 
ATOM      7 Cl   UNL d   1      -0.078   0.292  -1.502  0.00  0.00    -0.070 Cl
ATOM      8 Cl1  UNL d   1      -2.762  -0.321   0.234  0.00  0.00    -0.070 Cl
ENDROOT
TORSDOF 0
ENDMDL
