MODEL 1
REMARK minimizedAffinity -4.53172302
REMARK minimizedRMSD -1
REMARK  0 active torsions:
REMARK  status: ('A' for Active; 'I' for Inactive)
ROOT
ATOM      1  C   UNL d   1      -0.878  -0.445   2.582  0.00  0.00     0.020 A 
ATOM      2  C1  UNL d   1      -1.729  -0.524   1.481  0.00  0.00     0.020 A 
ATOM      3  C2  UNL d   1      -1.224  -0.337   0.193  0.00  0.00     0.034 A 
ATOM      4  C3  UNL d   1       0.137  -0.070   0.002  0.00  0.00     0.017 A 
ATOM      5  C4  UNL d   1       0.991   0.008   1.108  0.00  0.00     0.017 A 
ATOM      6  C5  UNL d   1       0.480  -0.180   2.396  0.00  0.00     0.034 A 
ATOM      7 Cl   UNL d   1       2.681   0.334   0.952  0.00  0.00    -0.070 Cl
ATOM      8 Cl1  UNL d   1       0.693   0.150  -1.619  0.00  0.00    -0.070 Cl
ENDROOT
TORSDOF 0
ENDMDL
