MODEL 1
REMARK minimizedAffinity -5.53915977
REMARK minimizedRMSD -1
REMARK  0 active torsions:
REMARK  status: ('A' for Active; 'I' for Inactive)
ROOT
ATOM      1  C   UNL d   1      -1.836   0.007   3.254  0.00  0.00     0.020 A 
ATOM      2  C1  UNL d   1      -2.751   0.369   2.266  0.00  0.00     0.020 A 
ATOM      3  C2  UNL d   1      -2.317   0.574   0.955  0.00  0.00     0.034 A 
ATOM      4  C3  UNL d   1      -0.965   0.417   0.628  0.00  0.00     0.017 A 
ATOM      5  C4  UNL d   1      -0.048   0.054   1.620  0.00  0.00     0.017 A 
ATOM      6  C5  UNL d   1      -0.487  -0.151   2.932  0.00  0.00     0.034 A 
ATOM      7 Cl   UNL d   1       1.636  -0.159   1.293  0.00  0.00    -0.070 Cl
ATOM      8 Cl1  UNL d   1      -0.499   0.687  -1.014  0.00  0.00    -0.070 Cl
ENDROOT
TORSDOF 0
ENDMDL
