MODEL 1
REMARK minimizedAffinity -4.35855579
REMARK minimizedRMSD -1
REMARK  0 active torsions:
REMARK  status: ('A' for Active; 'I' for Inactive)
ROOT
ATOM      1  C   UNL d   1       1.545   0.187   1.836  0.00  0.00     0.020 A 
ATOM      2  C1  UNL d   1       0.567  -0.188   2.757  0.00  0.00     0.020 A 
ATOM      3  C2  UNL d   1      -0.758  -0.345   2.343  0.00  0.00     0.034 A 
ATOM      4  C3  UNL d   1      -1.108  -0.126   1.006  0.00  0.00     0.017 A 
ATOM      5  C4  UNL d   1      -0.125   0.250   0.083  0.00  0.00     0.017 A 
ATOM      6  C5  UNL d   1       1.199   0.405   0.502  0.00  0.00     0.034 A 
ATOM      7 Cl   UNL d   1      -0.481   0.537  -1.584  0.00  0.00    -0.070 Cl
ATOM      8 Cl1  UNL d   1      -2.765  -0.339   0.564  0.00  0.00    -0.070 Cl
ENDROOT
TORSDOF 0
ENDMDL
