MODEL 1
REMARK minimizedAffinity -4.98099279
REMARK minimizedRMSD -1
REMARK  0 active torsions:
REMARK  status: ('A' for Active; 'I' for Inactive)
ROOT
ATOM      1  C   UNL d   1       1.019  -0.399  -0.059  0.00  0.00     0.020 A 
ATOM      2  C1  UNL d   1       1.499  -0.586   1.237  0.00  0.00     0.020 A 
ATOM      3  C2  UNL d   1       0.615  -0.570   2.318  0.00  0.00     0.034 A 
ATOM      4  C3  UNL d   1      -0.753  -0.366   2.106  0.00  0.00     0.017 A 
ATOM      5  C4  UNL d   1      -1.234  -0.179   0.805  0.00  0.00     0.017 A 
ATOM      6  C5  UNL d   1      -0.345  -0.196  -0.274  0.00  0.00     0.034 A 
ATOM      7 Cl   UNL d   1      -2.909   0.079   0.463  0.00  0.00    -0.070 Cl
ATOM      8 Cl1  UNL d   1      -1.789  -0.358   3.489  0.00  0.00    -0.070 Cl
ENDROOT
TORSDOF 0
ENDMDL
