MODEL 1
REMARK minimizedAffinity 0.120991014
REMARK minimizedRMSD -1
REMARK  0 active torsions:
REMARK  status: ('A' for Active; 'I' for Inactive)
ROOT
ATOM      1  C   UNL d   1       1.203   0.092   0.438  0.00  0.00     0.020 A 
ATOM      2  C1  UNL d   1       1.384   0.249   1.812  0.00  0.00     0.020 A 
ATOM      3  C2  UNL d   1       0.281   0.458   2.642  0.00  0.00     0.034 A 
ATOM      4  C3  UNL d   1      -1.008   0.511   2.099  0.00  0.00     0.017 A 
ATOM      5  C4  UNL d   1      -1.189   0.353   0.721  0.00  0.00     0.017 A 
ATOM      6  C5  UNL d   1      -0.080   0.144  -0.106  0.00  0.00     0.034 A 
ATOM      7 Cl   UNL d   1      -2.748   0.406  -0.022  0.00  0.00    -0.070 Cl
ATOM      8 Cl1  UNL d   1      -2.327   0.772   3.185  0.00  0.00    -0.070 Cl
ENDROOT
TORSDOF 0
ENDMDL
