MODEL 1
REMARK minimizedAffinity -2.95595837
REMARK minimizedRMSD -1
REMARK  0 active torsions:
REMARK  status: ('A' for Active; 'I' for Inactive)
ROOT
ATOM      1  C   UNL d   1      -0.162  -0.490  -0.776  0.00  0.00     0.020 A 
ATOM      2  C1  UNL d   1       0.570   0.690  -0.655  0.00  0.00     0.020 A 
ATOM      3  C2  UNL d   1       0.847   1.213   0.610  0.00  0.00     0.034 A 
ATOM      4  C3  UNL d   1       0.392   0.556   1.759  0.00  0.00     0.017 A 
ATOM      5  C4  UNL d   1      -0.343  -0.629   1.636  0.00  0.00     0.017 A 
ATOM      6  C5  UNL d   1      -0.617  -1.149   0.367  0.00  0.00     0.034 A 
ATOM      7 Cl   UNL d   1      -0.937  -1.497   3.007  0.00  0.00    -0.070 Cl
ATOM      8 Cl1  UNL d   1       0.772   1.259   3.290  0.00  0.00    -0.070 Cl
ENDROOT
TORSDOF 0
ENDMDL
