MODEL 1
REMARK minimizedAffinity -2.87389684
REMARK minimizedRMSD -1
REMARK  0 active torsions:
REMARK  status: ('A' for Active; 'I' for Inactive)
ROOT
ATOM      1  C   UNL d   1       5.999  -5.541   5.740  0.00  0.00     0.172 C 
ATOM      2  N   UNL d   1       5.805  -4.773   4.532  0.00  0.00    -0.070 N 
ATOM      3  C1  UNL d   1       5.999  -5.229   3.256  0.00  0.00    -0.004 A 
ATOM      4  C2  UNL d   1       5.708  -4.198   2.390  0.00  0.00    -0.047 A 
ATOM      5  C3  UNL d   1       5.326  -3.083   3.173  0.00  0.00    -0.047 A 
ATOM      6  C4  UNL d   1       5.395  -3.466   4.495  0.00  0.00    -0.004 A 
ENDROOT
TORSDOF 0
ENDMDL
