MODEL 1
REMARK minimizedAffinity -2.48016405
REMARK minimizedRMSD -1
REMARK  0 active torsions:
REMARK  status: ('A' for Active; 'I' for Inactive)
ROOT
ATOM      1  C   UNL d   1       4.889  -5.616   5.002  0.00  0.00     0.172 C 
ATOM      2  N   UNL d   1       5.185  -4.363   4.349  0.00  0.00    -0.070 N 
ATOM      3  C1  UNL d   1       5.521  -4.209   3.030  0.00  0.00    -0.004 A 
ATOM      4  C2  UNL d   1       5.723  -2.866   2.800  0.00  0.00    -0.047 A 
ATOM      5  C3  UNL d   1       5.502  -2.188   4.022  0.00  0.00    -0.047 A 
ATOM      6  C4  UNL d   1       5.170  -3.139   4.964  0.00  0.00    -0.004 A 
ENDROOT
TORSDOF 0
ENDMDL
