MODEL 1
REMARK minimizedAffinity -2.62219191
REMARK minimizedRMSD -1
REMARK  0 active torsions:
REMARK  status: ('A' for Active; 'I' for Inactive)
ROOT
ATOM      1  C   UNL d   1       5.393  -5.767   3.542  0.00  0.00     0.172 C 
ATOM      2  N   UNL d   1       5.172  -4.567   4.314  0.00  0.00    -0.070 N 
ATOM      3  C1  UNL d   1       4.590  -4.510   5.552  0.00  0.00    -0.004 A 
ATOM      4  C2  UNL d   1       4.564  -3.189   5.945  0.00  0.00    -0.047 A 
ATOM      5  C3  UNL d   1       5.149  -2.426   4.907  0.00  0.00    -0.047 A 
ATOM      6  C4  UNL d   1       5.516  -3.304   3.909  0.00  0.00    -0.004 A 
ENDROOT
TORSDOF 0
ENDMDL
