MODEL 1
REMARK minimizedAffinity -1.82986796
REMARK minimizedRMSD -1
REMARK  0 active torsions:
REMARK  status: ('A' for Active; 'I' for Inactive)
ROOT
ATOM      1  C   UNL d   1       3.691  -5.283   4.535  0.00  0.00     0.172 C 
ATOM      2  N   UNL d   1       4.486  -4.340   3.782  0.00  0.00    -0.070 N 
ATOM      3  C1  UNL d   1       5.491  -4.661   2.910  0.00  0.00    -0.004 A 
ATOM      4  C2  UNL d   1       5.998  -3.485   2.400  0.00  0.00    -0.047 A 
ATOM      5  C3  UNL d   1       5.272  -2.421   2.986  0.00  0.00    -0.047 A 
ATOM      6  C4  UNL d   1       4.342  -2.979   3.838  0.00  0.00    -0.004 A 
ENDROOT
TORSDOF 0
ENDMDL
