MODEL 1
REMARK minimizedAffinity -2.40539289
REMARK minimizedRMSD -1
REMARK  0 active torsions:
REMARK  status: ('A' for Active; 'I' for Inactive)
ROOT
ATOM      1  C   UNL d   1       5.926  -5.873   5.893  0.00  0.00     0.172 C 
ATOM      2  N   UNL d   1       4.632  -5.232   5.936  0.00  0.00    -0.070 N 
ATOM      3  C1  UNL d   1       3.423  -5.875   5.957  0.00  0.00    -0.004 A 
ATOM      4  C2  UNL d   1       2.436  -4.914   5.997  0.00  0.00    -0.047 A 
ATOM      5  C3  UNL d   1       3.073  -3.651   5.999  0.00  0.00    -0.047 A 
ATOM      6  C4  UNL d   1       4.433  -3.877   5.961  0.00  0.00    -0.004 A 
ENDROOT
TORSDOF 0
ENDMDL
