MODEL 1
REMARK minimizedAffinity -2.47352219
REMARK minimizedRMSD -1
REMARK  0 active torsions:
REMARK  status: ('A' for Active; 'I' for Inactive)
ROOT
ATOM      1  C   UNL d   1       4.515  -5.943   6.000  0.00  0.00     0.172 C 
ATOM      2  N   UNL d   1       4.875  -4.727   5.308  0.00  0.00    -0.070 N 
ATOM      3  C1  UNL d   1       4.886  -3.471   5.854  0.00  0.00    -0.004 A 
ATOM      4  C2  UNL d   1       5.285  -2.589   4.874  0.00  0.00    -0.047 A 
ATOM      5  C3  UNL d   1       5.521  -3.340   3.698  0.00  0.00    -0.047 A 
ATOM      6  C4  UNL d   1       5.260  -4.661   3.995  0.00  0.00    -0.004 A 
ENDROOT
TORSDOF 0
ENDMDL
