MODEL 1
REMARK minimizedAffinity -2.57337451
REMARK minimizedRMSD -1
REMARK  0 active torsions:
REMARK  status: ('A' for Active; 'I' for Inactive)
ROOT
ATOM      1  C   UNL d   1       5.721  -2.774   2.753  0.00  0.00     0.172 C 
ATOM      2  N   UNL d   1       5.312  -3.530   3.913  0.00  0.00    -0.070 N 
ATOM      3  C1  UNL d   1       5.069  -4.877   3.944  0.00  0.00    -0.004 A 
ATOM      4  C2  UNL d   1       4.704  -5.212   5.230  0.00  0.00    -0.047 A 
ATOM      5  C3  UNL d   1       4.727  -4.024   5.999  0.00  0.00    -0.047 A 
ATOM      6  C4  UNL d   1       5.107  -2.998   5.159  0.00  0.00    -0.004 A 
ENDROOT
TORSDOF 0
ENDMDL
