MODEL 1
REMARK minimizedAffinity -2.52292943
REMARK minimizedRMSD -1
REMARK  0 active torsions:
REMARK  status: ('A' for Active; 'I' for Inactive)
ROOT
ATOM      1  C   UNL d   1       4.870  -5.406   5.614  0.00  0.00     0.172 C 
ATOM      2  N   UNL d   1       5.197  -4.251   4.812  0.00  0.00    -0.070 N 
ATOM      3  C1  UNL d   1       5.536  -4.270   3.485  0.00  0.00    -0.004 A 
ATOM      4  C2  UNL d   1       5.772  -2.971   3.091  0.00  0.00    -0.047 A 
ATOM      5  C3  UNL d   1       5.569  -2.142   4.220  0.00  0.00    -0.047 A 
ATOM      6  C4  UNL d   1       5.213  -2.960   5.271  0.00  0.00    -0.004 A 
ENDROOT
TORSDOF 0
ENDMDL
