MODEL 1
REMARK minimizedAffinity -2.2753756
REMARK minimizedRMSD -1
REMARK  0 active torsions:
REMARK  status: ('A' for Active; 'I' for Inactive)
ROOT
ATOM      1  C   UNL d   1       5.946  -2.953   3.996  0.00  0.00     0.172 C 
ATOM      2  N   UNL d   1       5.861  -4.002   3.007  0.00  0.00    -0.070 N 
ATOM      3  C1  UNL d   1       5.657  -5.330   3.268  0.00  0.00    -0.004 A 
ATOM      4  C2  UNL d   1       5.640  -5.999   2.063  0.00  0.00    -0.047 A 
ATOM      5  C3  UNL d   1       5.842  -5.040   1.043  0.00  0.00    -0.047 A 
ATOM      6  C4  UNL d   1       5.976  -3.811   1.655  0.00  0.00    -0.004 A 
ENDROOT
TORSDOF 0
ENDMDL
