MODEL 1
REMARK minimizedAffinity -2.7104032
REMARK minimizedRMSD -1
REMARK  0 active torsions:
REMARK  status: ('A' for Active; 'I' for Inactive)
ROOT
ATOM      1  C   UNL d   1       6.000  -5.339   2.687  0.00  0.00     0.172 C 
ATOM      2  N   UNL d   1       5.378  -4.218   3.354  0.00  0.00    -0.070 N 
ATOM      3  C1  UNL d   1       5.998  -3.045   3.690  0.00  0.00    -0.004 A 
ATOM      4  C2  UNL d   1       5.068  -2.237   4.307  0.00  0.00    -0.047 A 
ATOM      5  C3  UNL d   1       3.846  -2.950   4.344  0.00  0.00    -0.047 A 
ATOM      6  C4  UNL d   1       4.067  -4.174   3.747  0.00  0.00    -0.004 A 
ENDROOT
TORSDOF 0
ENDMDL
