MODEL 1
REMARK minimizedAffinity -2.66897058
REMARK minimizedRMSD -1
REMARK  0 active torsions:
REMARK  status: ('A' for Active; 'I' for Inactive)
ROOT
ATOM      1  C   UNL d   1       5.897  -2.426   2.130  0.00  0.00     0.172 C 
ATOM      2  N   UNL d   1       5.504  -3.184   3.295  0.00  0.00    -0.070 N 
ATOM      3  C1  UNL d   1       5.206  -2.661   4.525  0.00  0.00    -0.004 A 
ATOM      4  C2  UNL d   1       4.879  -3.707   5.360  0.00  0.00    -0.047 A 
ATOM      5  C3  UNL d   1       4.986  -4.900   4.607  0.00  0.00    -0.047 A 
ATOM      6  C4  UNL d   1       5.374  -4.547   3.332  0.00  0.00    -0.004 A 
ENDROOT
TORSDOF 0
ENDMDL
