MODEL 1
REMARK minimizedAffinity -2.66567039
REMARK minimizedRMSD -1
REMARK  0 active torsions:
REMARK  status: ('A' for Active; 'I' for Inactive)
ROOT
ATOM      1  C   UNL d   1       5.855  -5.463   2.863  0.00  0.00     0.172 C 
ATOM      2  N   UNL d   1       5.355  -4.589   3.898  0.00  0.00    -0.070 N 
ATOM      3  C1  UNL d   1       4.837  -4.989   5.100  0.00  0.00    -0.004 A 
ATOM      4  C2  UNL d   1       4.476  -3.859   5.802  0.00  0.00    -0.047 A 
ATOM      5  C3  UNL d   1       4.787  -2.741   4.992  0.00  0.00    -0.047 A 
ATOM      6  C4  UNL d   1       5.330  -3.221   3.819  0.00  0.00    -0.004 A 
ENDROOT
TORSDOF 0
ENDMDL
