MODEL 1
REMARK minimizedAffinity -3.67049313
REMARK minimizedRMSD -1
REMARK  1 active torsions:
REMARK  status: ('A' for Active; 'I' for Inactive)
REMARK    1  A    between atoms: C3_4  and  O_7 
ROOT
ATOM      1  C   UNL d   1      -1.804   0.530  -0.361  0.00  0.00    -0.033 A 
ATOM      2  C1  UNL d   1      -1.880  -0.706  -1.005  0.00  0.00     0.039 A 
ATOM      3  C2  UNL d   1      -1.006  -1.736  -0.651  0.00  0.00    -0.080 A 
ATOM      4  C3  UNL d   1      -0.063  -1.517   0.349  0.00  0.00     0.150 A 
ATOM      5  C4  UNL d   1       0.016  -0.289   0.999  0.00  0.00    -0.007 A 
ATOM      6  C5  UNL d   1      -0.857   0.738   0.642  0.00  0.00     0.039 A 
ENDROOT
BRANCH   4   7
ATOM      7  O   UNL d   1       0.814  -2.490   0.727  0.00  0.00    -0.526 OA
ATOM      8  H5  UNL d   1       0.661  -3.274   0.173  0.00  0.00     0.418 HD
ENDBRANCH   4   7
TORSDOF 1
ENDMDL
