MODEL 1
REMARK minimizedAffinity 3.86882973
REMARK minimizedRMSD -1
REMARK  1 active torsions:
REMARK  status: ('A' for Active; 'I' for Inactive)
REMARK    1  A    between atoms: C3_4  and  O_7 
ROOT
ATOM      1  C   UNL d   1      -2.763  -2.685   0.169  0.00  0.00    -0.033 A 
ATOM      2  C1  UNL d   1      -1.389  -2.743   0.410  0.00  0.00     0.039 A 
ATOM      3  C2  UNL d   1      -0.599  -3.675  -0.265  0.00  0.00    -0.080 A 
ATOM      4  C3  UNL d   1      -1.193  -4.541  -1.178  0.00  0.00     0.150 A 
ATOM      5  C4  UNL d   1      -2.561  -4.486  -1.427  0.00  0.00    -0.007 A 
ATOM      6  C5  UNL d   1      -3.349  -3.556  -0.751  0.00  0.00     0.039 A 
ENDROOT
BRANCH   4   7
ATOM      7  O   UNL d   1      -0.463  -5.470  -1.858  0.00  0.00    -0.526 OA
ATOM      8  H5  UNL d   1       0.461  -5.411  -1.564  0.00  0.00     0.418 HD
ENDBRANCH   4   7
TORSDOF 1
ENDMDL
