MODEL 1
REMARK minimizedAffinity 5.28364229
REMARK minimizedRMSD -1
REMARK  1 active torsions:
REMARK  status: ('A' for Active; 'I' for Inactive)
REMARK    1  A    between atoms: C3_4  and  O_7 
ROOT
ATOM      1  C   UNL d   1      -6.000  -6.000   4.014  0.00  0.00    -0.033 A 
ATOM      2  C1  UNL d   1      -5.780  -5.605   5.335  0.00  0.00     0.039 A 
ATOM      3  C2  UNL d   1      -4.636  -4.877   5.667  0.00  0.00    -0.080 A 
ATOM      4  C3  UNL d   1      -3.722  -4.549   4.670  0.00  0.00     0.150 A 
ATOM      5  C4  UNL d   1      -3.936  -4.936   3.351  0.00  0.00    -0.007 A 
ATOM      6  C5  UNL d   1      -5.079  -5.664   3.021  0.00  0.00     0.039 A 
ENDROOT
BRANCH   4   7
ATOM      7  O   UNL d   1      -2.588  -3.844   4.946  0.00  0.00    -0.526 OA
ATOM      8  H5  UNL d   1      -2.559  -3.670   5.902  0.00  0.00     0.418 HD
ENDBRANCH   4   7
TORSDOF 1
ENDMDL
