MODEL 1
REMARK minimizedAffinity -0.210906819
REMARK minimizedRMSD -1
REMARK  1 active torsions:
REMARK  status: ('A' for Active; 'I' for Inactive)
REMARK    1  A    between atoms: C3_4  and  O_7 
ROOT
ATOM      1  C   UNL d   1       1.754   3.293  -1.400  0.00  0.00    -0.033 A 
ATOM      2  C1  UNL d   1       2.665   2.243  -1.266  0.00  0.00     0.039 A 
ATOM      3  C2  UNL d   1       2.308   1.091  -0.564  0.00  0.00    -0.080 A 
ATOM      4  C3  UNL d   1       1.037   1.000  -0.001  0.00  0.00     0.150 A 
ATOM      5  C4  UNL d   1       0.123   2.040  -0.134  0.00  0.00    -0.007 A 
ATOM      6  C5  UNL d   1       0.483   3.191  -0.835  0.00  0.00     0.039 A 
ENDROOT
BRANCH   4   7
ATOM      7  O   UNL d   1       0.644  -0.102   0.697  0.00  0.00    -0.526 OA
ATOM      8  H5  UNL d   1       1.389  -0.727   0.731  0.00  0.00     0.418 HD
ENDBRANCH   4   7
TORSDOF 1
ENDMDL
