MODEL 1
REMARK minimizedAffinity 4.25313663
REMARK minimizedRMSD -1
REMARK  1 active torsions:
REMARK  status: ('A' for Active; 'I' for Inactive)
REMARK    1  A    between atoms: C3_4  and  O_7 
ROOT
ATOM      1  C   UNL d   1      -0.851  -0.192   1.846  0.00  0.00    -0.033 A 
ATOM      2  C1  UNL d   1       0.528  -0.272   2.048  0.00  0.00     0.039 A 
ATOM      3  C2  UNL d   1       1.200  -1.475   1.820  0.00  0.00    -0.080 A 
ATOM      4  C3  UNL d   1       0.482  -2.587   1.389  0.00  0.00     0.150 A 
ATOM      5  C4  UNL d   1      -0.891  -2.513   1.182  0.00  0.00    -0.007 A 
ATOM      6  C5  UNL d   1      -1.560  -1.312   1.411  0.00  0.00     0.039 A 
ENDROOT
BRANCH   4   7
ATOM      7  O   UNL d   1       1.094  -3.783   1.158  0.00  0.00    -0.526 OA
ATOM      8  H5  UNL d   1       2.037  -3.693   1.371  0.00  0.00     0.418 HD
ENDBRANCH   4   7
TORSDOF 1
ENDMDL
