MODEL 1
REMARK minimizedAffinity 8.60078239
REMARK minimizedRMSD -1
REMARK  1 active torsions:
REMARK  status: ('A' for Active; 'I' for Inactive)
REMARK    1  A    between atoms: C3_4  and  O_7 
ROOT
ATOM      1  C   UNL d   1      -0.000  -0.740   2.402  0.00  0.00    -0.033 A 
ATOM      2  C1  UNL d   1      -0.696  -1.951   2.374  0.00  0.00     0.039 A 
ATOM      3  C2  UNL d   1      -0.435  -2.884   1.369  0.00  0.00    -0.080 A 
ATOM      4  C3  UNL d   1       0.522  -2.596   0.400  0.00  0.00     0.150 A 
ATOM      5  C4  UNL d   1       1.221  -1.394   0.424  0.00  0.00    -0.007 A 
ATOM      6  C5  UNL d   1       0.959  -0.463   1.428  0.00  0.00     0.039 A 
ENDROOT
BRANCH   4   7
ATOM      7  O   UNL d   1       0.807  -3.474  -0.603  0.00  0.00    -0.526 OA
ATOM      8  H5  UNL d   1       0.226  -4.248  -0.509  0.00  0.00     0.418 HD
ENDBRANCH   4   7
TORSDOF 1
ENDMDL
