MODEL 1
REMARK minimizedAffinity 3.88933134
REMARK minimizedRMSD -1
REMARK  1 active torsions:
REMARK  status: ('A' for Active; 'I' for Inactive)
REMARK    1  A    between atoms: C3_4  and  O_7 
ROOT
ATOM      1  C   UNL d   1       0.737   3.914  -1.735  0.00  0.00    -0.033 A 
ATOM      2  C1  UNL d   1       1.765   3.134  -1.201  0.00  0.00     0.039 A 
ATOM      3  C2  UNL d   1       1.461   2.021  -0.414  0.00  0.00    -0.080 A 
ATOM      4  C3  UNL d   1       0.129   1.700  -0.170  0.00  0.00     0.150 A 
ATOM      5  C4  UNL d   1      -0.899   2.470  -0.702  0.00  0.00    -0.007 A 
ATOM      6  C5  UNL d   1      -0.595   3.581  -1.487  0.00  0.00     0.039 A 
ENDROOT
BRANCH   4   7
ATOM      7  O   UNL d   1      -0.216   0.626   0.597  0.00  0.00    -0.526 OA
ATOM      8  H5  UNL d   1       0.598   0.205   0.920  0.00  0.00     0.418 HD
ENDBRANCH   4   7
TORSDOF 1
ENDMDL
