MODEL 1
REMARK minimizedAffinity 0.89567256
REMARK minimizedRMSD -1
REMARK  1 active torsions:
REMARK  status: ('A' for Active; 'I' for Inactive)
REMARK    1  A    between atoms: C3_4  and  O_7 
ROOT
ATOM      1  C   UNL d   1      -1.848  -4.454  -2.253  0.00  0.00    -0.033 A 
ATOM      2  C1  UNL d   1      -2.770  -3.781  -3.057  0.00  0.00     0.039 A 
ATOM      3  C2  UNL d   1      -4.094  -4.218  -3.119  0.00  0.00    -0.080 A 
ATOM      4  C3  UNL d   1      -4.484  -5.327  -2.372  0.00  0.00     0.150 A 
ATOM      5  C4  UNL d   1      -3.571  -6.000  -1.566  0.00  0.00    -0.007 A 
ATOM      6  C5  UNL d   1      -2.249  -5.563  -1.506  0.00  0.00     0.039 A 
ENDROOT
BRANCH   4   7
ATOM      7  O   UNL d   1      -5.764  -5.793  -2.404  0.00  0.00    -0.526 OA
ATOM      8  H5  UNL d   1      -6.275  -5.248  -3.025  0.00  0.00     0.418 HD
ENDBRANCH   4   7
TORSDOF 1
ENDMDL
