MODEL 1
REMARK minimizedAffinity 4.16416693
REMARK minimizedRMSD -1
REMARK  1 active torsions:
REMARK  status: ('A' for Active; 'I' for Inactive)
REMARK    1  A    between atoms: C3_4  and  O_7 
ROOT
ATOM      1  C   UNL d   1      -2.362  -5.921  -2.253  0.00  0.00    -0.033 A 
ATOM      2  C1  UNL d   1      -2.726  -4.681  -1.726  0.00  0.00     0.039 A 
ATOM      3  C2  UNL d   1      -2.108  -3.516  -2.185  0.00  0.00    -0.080 A 
ATOM      4  C3  UNL d   1      -1.128  -3.606  -3.170  0.00  0.00     0.150 A 
ATOM      5  C4  UNL d   1      -0.763  -4.838  -3.702  0.00  0.00    -0.007 A 
ATOM      6  C5  UNL d   1      -1.381  -6.000  -3.242  0.00  0.00     0.039 A 
ENDROOT
BRANCH   4   7
ATOM      7  O   UNL d   1      -0.494  -2.497  -3.647  0.00  0.00    -0.526 OA
ATOM      8  H5  UNL d   1      -0.828  -1.721  -3.167  0.00  0.00     0.418 HD
ENDBRANCH   4   7
TORSDOF 1
ENDMDL
