MODEL 1
REMARK minimizedAffinity 6.84898138
REMARK minimizedRMSD -1
REMARK  1 active torsions:
REMARK  status: ('A' for Active; 'I' for Inactive)
REMARK    1  A    between atoms: C3_4  and  O_7 
ROOT
ATOM      1  C   UNL d   1      -5.996   3.908  -1.657  0.00  0.00    -0.033 A 
ATOM      2  C1  UNL d   1      -5.990   2.733  -2.412  0.00  0.00     0.039 A 
ATOM      3  C2  UNL d   1      -5.989   2.796  -3.806  0.00  0.00    -0.080 A 
ATOM      4  C3  UNL d   1      -5.993   4.039  -4.434  0.00  0.00     0.150 A 
ATOM      5  C4  UNL d   1      -5.995   5.214  -3.689  0.00  0.00    -0.007 A 
ATOM      6  C5  UNL d   1      -5.997   5.148  -2.296  0.00  0.00     0.039 A 
ENDROOT
BRANCH   4   7
ATOM      7  O   UNL d   1      -5.997   4.152  -5.792  0.00  0.00    -0.526 OA
ATOM      8  H5  UNL d   1      -6.024   3.259  -6.175  0.00  0.00     0.418 HD
ENDBRANCH   4   7
TORSDOF 1
ENDMDL
