MODEL 1
REMARK minimizedAffinity -2.20927858
REMARK minimizedRMSD -1
REMARK  1 active torsions:
REMARK  status: ('A' for Active; 'I' for Inactive)
REMARK    1  A    between atoms: C3_4  and  O_7 
ROOT
ATOM      1  C   UNL d   1      -0.093  -2.087   0.597  0.00  0.00    -0.033 A 
ATOM      2  C1  UNL d   1       0.796  -3.130   0.334  0.00  0.00     0.039 A 
ATOM      3  C2  UNL d   1       2.163  -2.872   0.217  0.00  0.00    -0.080 A 
ATOM      4  C3  UNL d   1       2.627  -1.569   0.366  0.00  0.00     0.150 A 
ATOM      5  C4  UNL d   1       1.748  -0.525   0.632  0.00  0.00    -0.007 A 
ATOM      6  C5  UNL d   1       0.383  -0.784   0.748  0.00  0.00     0.039 A 
ENDROOT
BRANCH   4   7
ATOM      7  O   UNL d   1       3.952  -1.267   0.255  0.00  0.00    -0.526 OA
ATOM      8  H5  UNL d   1       4.437  -2.082   0.042  0.00  0.00     0.418 HD
ENDBRANCH   4   7
TORSDOF 1
ENDMDL
