MODEL 1
REMARK minimizedAffinity 8.31954002
REMARK minimizedRMSD -1
REMARK  1 active torsions:
REMARK  status: ('A' for Active; 'I' for Inactive)
REMARK    1  A    between atoms: C3_4  and  O_7 
ROOT
ATOM      1  C   UNL d   1       3.033   0.014   1.127  0.00  0.00    -0.033 A 
ATOM      2  C1  UNL d   1       2.747   0.082   2.492  0.00  0.00     0.039 A 
ATOM      3  C2  UNL d   1       1.434  -0.075   2.941  0.00  0.00    -0.080 A 
ATOM      4  C3  UNL d   1       0.418  -0.301   2.016  0.00  0.00     0.150 A 
ATOM      5  C4  UNL d   1       0.697  -0.375   0.655  0.00  0.00    -0.007 A 
ATOM      6  C5  UNL d   1       2.008  -0.216   0.209  0.00  0.00     0.039 A 
ENDROOT
BRANCH   4   7
ATOM      7  O   UNL d   1      -0.879  -0.456   2.406  0.00  0.00    -0.526 OA
ATOM      8  H5  UNL d   1      -0.925  -0.353   3.371  0.00  0.00     0.418 HD
ENDBRANCH   4   7
TORSDOF 1
ENDMDL
