MODEL 1
REMARK minimizedAffinity 5.69256306
REMARK minimizedRMSD -1
REMARK  1 active torsions:
REMARK  status: ('A' for Active; 'I' for Inactive)
REMARK    1  A    between atoms: C3_4  and  O_7 
ROOT
ATOM      1  C   UNL d   1      -1.243  -1.459   1.624  0.00  0.00    -0.033 A 
ATOM      2  C1  UNL d   1      -0.664  -0.232   1.953  0.00  0.00     0.039 A 
ATOM      3  C2  UNL d   1       0.645   0.053   1.559  0.00  0.00    -0.080 A 
ATOM      4  C3  UNL d   1       1.362  -0.896   0.836  0.00  0.00     0.150 A 
ATOM      5  C4  UNL d   1       0.790  -2.119   0.501  0.00  0.00    -0.007 A 
ATOM      6  C5  UNL d   1      -0.517  -2.402   0.896  0.00  0.00     0.039 A 
ENDROOT
BRANCH   4   7
ATOM      7  O   UNL d   1       2.644  -0.666   0.434  0.00  0.00    -0.526 OA
ATOM      8  H5  UNL d   1       2.917   0.207   0.761  0.00  0.00     0.418 HD
ENDBRANCH   4   7
TORSDOF 1
ENDMDL
