MODEL 1
REMARK minimizedAffinity 9.10590744
REMARK minimizedRMSD -1
REMARK  1 active torsions:
REMARK  status: ('A' for Active; 'I' for Inactive)
REMARK    1  A    between atoms: C3_4  and  O_7 
ROOT
ATOM      1  C   UNL d   1       1.548   0.437  -0.337  0.00  0.00    -0.033 A 
ATOM      2  C1  UNL d   1       1.605  -0.484   0.711  0.00  0.00     0.039 A 
ATOM      3  C2  UNL d   1       2.789  -0.651   1.431  0.00  0.00    -0.080 A 
ATOM      4  C3  UNL d   1       3.907   0.107   1.094  0.00  0.00     0.150 A 
ATOM      5  C4  UNL d   1       3.856   1.029   0.053  0.00  0.00    -0.007 A 
ATOM      6  C5  UNL d   1       2.673   1.194  -0.665  0.00  0.00     0.039 A 
ENDROOT
BRANCH   4   7
ATOM      7  O   UNL d   1       5.086  -0.025   1.765  0.00  0.00    -0.526 OA
ATOM      8  H5  UNL d   1       4.982  -0.717   2.438  0.00  0.00     0.418 HD
ENDBRANCH   4   7
TORSDOF 1
ENDMDL
