MODEL 1
REMARK minimizedAffinity -0.384546071
REMARK minimizedRMSD -1
REMARK  1 active torsions:
REMARK  status: ('A' for Active; 'I' for Inactive)
REMARK    1  A    between atoms: C3_4  and  O_7 
ROOT
ATOM      1  C   UNL d   1      -3.150   2.123  -0.346  0.00  0.00    -0.033 A 
ATOM      2  C1  UNL d   1      -3.567   2.230  -1.674  0.00  0.00     0.039 A 
ATOM      3  C2  UNL d   1      -3.293   1.202  -2.579  0.00  0.00    -0.080 A 
ATOM      4  C3  UNL d   1      -2.604   0.074  -2.143  0.00  0.00     0.150 A 
ATOM      5  C4  UNL d   1      -2.190  -0.042  -0.820  0.00  0.00    -0.007 A 
ATOM      6  C5  UNL d   1      -2.463   0.986   0.081  0.00  0.00     0.039 A 
ENDROOT
BRANCH   4   7
ATOM      7  O   UNL d   1      -2.310  -0.953  -2.990  0.00  0.00    -0.526 OA
ATOM      8  H5  UNL d   1      -2.633  -0.722  -3.877  0.00  0.00     0.418 HD
ENDBRANCH   4   7
TORSDOF 1
ENDMDL
