MODEL 1
REMARK minimizedAffinity -1.02791131
REMARK minimizedRMSD -1
REMARK  1 active torsions:
REMARK  status: ('A' for Active; 'I' for Inactive)
REMARK    1  A    between atoms: C3_4  and  O_7 
ROOT
ATOM      1  C   UNL d   1       3.378  -5.923  -5.997  0.00  0.00    -0.033 A 
ATOM      2  C1  UNL d   1       4.708  -5.903  -5.572  0.00  0.00     0.039 A 
ATOM      3  C2  UNL d   1       5.007  -5.927  -4.208  0.00  0.00    -0.080 A 
ATOM      4  C3  UNL d   1       3.969  -5.973  -3.281  0.00  0.00     0.150 A 
ATOM      5  C4  UNL d   1       2.642  -5.998  -3.698  0.00  0.00    -0.007 A 
ATOM      6  C5  UNL d   1       2.345  -5.972  -5.060  0.00  0.00     0.039 A 
ENDROOT
BRANCH   4   7
ATOM      7  O   UNL d   1       4.211  -5.994  -1.940  0.00  0.00    -0.526 OA
ATOM      8  H5  UNL d   1       5.172  -5.943  -1.800  0.00  0.00     0.418 HD
ENDBRANCH   4   7
TORSDOF 1
ENDMDL
