MODEL 1
REMARK minimizedAffinity -0.189341515
REMARK minimizedRMSD -1
REMARK  1 active torsions:
REMARK  status: ('A' for Active; 'I' for Inactive)
REMARK    1  A    between atoms: C3_4  and  O_7 
ROOT
ATOM      1  C   UNL d   1       4.533  -5.989  -1.801  0.00  0.00    -0.033 A 
ATOM      2  C1  UNL d   1       3.136  -5.995  -1.805  0.00  0.00     0.039 A 
ATOM      3  C2  UNL d   1       2.440  -6.000  -3.016  0.00  0.00    -0.080 A 
ATOM      4  C3  UNL d   1       3.151  -6.000  -4.213  0.00  0.00     0.150 A 
ATOM      5  C4  UNL d   1       4.542  -5.998  -4.216  0.00  0.00    -0.007 A 
ATOM      6  C5  UNL d   1       5.236  -5.992  -3.006  0.00  0.00     0.039 A 
ENDROOT
BRANCH   4   7
ATOM      7  O   UNL d   1       2.516  -6.000  -5.419  0.00  0.00    -0.526 OA
ATOM      8  H5  UNL d   1       1.557  -5.972  -5.262  0.00  0.00     0.418 HD
ENDBRANCH   4   7
TORSDOF 1
ENDMDL
