MODEL 1
REMARK minimizedAffinity -1.41874909
REMARK minimizedRMSD -1
REMARK  1 active torsions:
REMARK  status: ('A' for Active; 'I' for Inactive)
REMARK    1  A    between atoms: C3_4  and  O_7 
ROOT
ATOM      1  C   UNL d   1       4.388  -5.995  -5.842  0.00  0.00    -0.033 A 
ATOM      2  C1  UNL d   1       3.341  -5.990  -4.919  0.00  0.00     0.039 A 
ATOM      3  C2  UNL d   1       3.616  -5.987  -3.550  0.00  0.00    -0.080 A 
ATOM      4  C3  UNL d   1       4.939  -5.988  -3.118  0.00  0.00     0.150 A 
ATOM      5  C4  UNL d   1       5.987  -5.988  -4.033  0.00  0.00    -0.007 A 
ATOM      6  C5  UNL d   1       5.711  -5.992  -5.399  0.00  0.00     0.039 A 
ENDROOT
BRANCH   4   7
ATOM      7  O   UNL d   1       5.257  -5.990  -1.792  0.00  0.00    -0.526 OA
ATOM      8  H5  UNL d   1       4.432  -6.018  -1.279  0.00  0.00     0.418 HD
ENDBRANCH   4   7
TORSDOF 1
ENDMDL
