MODEL 1
REMARK minimizedAffinity -2.71473575
REMARK minimizedRMSD -1
REMARK  1 active torsions:
REMARK  status: ('A' for Active; 'I' for Inactive)
REMARK    1  A    between atoms: C3_4  and  O_7 
ROOT
ATOM      1  C   UNL d   1       4.442  -5.991  -2.806  0.00  0.00    -0.033 A 
ATOM      2  C1  UNL d   1       4.883  -6.000  -4.131  0.00  0.00     0.039 A 
ATOM      3  C2  UNL d   1       3.958  -5.992  -5.176  0.00  0.00    -0.080 A 
ATOM      4  C3  UNL d   1       2.596  -5.975  -4.884  0.00  0.00     0.150 A 
ATOM      5  C4  UNL d   1       2.150  -5.963  -3.567  0.00  0.00    -0.007 A 
ATOM      6  C5  UNL d   1       3.076  -5.971  -2.524  0.00  0.00     0.039 A 
ENDROOT
BRANCH   4   7
ATOM      7  O   UNL d   1       1.656  -5.972  -5.871  0.00  0.00    -0.526 OA
ATOM      8  H5  UNL d   1       2.110  -6.011  -6.729  0.00  0.00     0.418 HD
ENDBRANCH   4   7
TORSDOF 1
ENDMDL
