MODEL 1
REMARK minimizedAffinity -0.804282665
REMARK minimizedRMSD -1
REMARK  1 active torsions:
REMARK  status: ('A' for Active; 'I' for Inactive)
REMARK    1  A    between atoms: C3_4  and  O_7 
ROOT
ATOM      1  C   UNL d   1       5.008  -5.995  -3.335  0.00  0.00    -0.033 A 
ATOM      2  C1  UNL d   1       3.707  -5.998  -2.829  0.00  0.00     0.039 A 
ATOM      3  C2  UNL d   1       2.617  -5.999  -3.701  0.00  0.00    -0.080 A 
ATOM      4  C3  UNL d   1       2.841  -5.998  -5.075  0.00  0.00     0.150 A 
ATOM      5  C4  UNL d   1       4.134  -6.000  -5.586  0.00  0.00    -0.007 A 
ATOM      6  C5  UNL d   1       5.222  -5.998  -4.713  0.00  0.00     0.039 A 
ENDROOT
BRANCH   4   7
ATOM      7  O   UNL d   1       1.809  -5.995  -5.965  0.00  0.00    -0.526 OA
ATOM      8  H5  UNL d   1       0.974  -5.965  -5.468  0.00  0.00     0.418 HD
ENDBRANCH   4   7
TORSDOF 1
ENDMDL
