MODEL 1
REMARK minimizedAffinity 5.60148716
REMARK minimizedRMSD -1
REMARK  1 active torsions:
REMARK  status: ('A' for Active; 'I' for Inactive)
REMARK    1  A    between atoms: C3_4  and  O_7 
ROOT
ATOM      1  C   UNL d   1       2.335  -4.573   3.611  0.00  0.00    -0.033 A 
ATOM      2  C1  UNL d   1       3.082  -3.559   3.007  0.00  0.00     0.039 A 
ATOM      3  C2  UNL d   1       2.639  -2.236   3.062  0.00  0.00    -0.080 A 
ATOM      4  C3  UNL d   1       1.451  -1.940   3.724  0.00  0.00     0.150 A 
ATOM      5  C4  UNL d   1       0.704  -2.944   4.332  0.00  0.00    -0.007 A 
ATOM      6  C5  UNL d   1       1.147  -4.265   4.275  0.00  0.00     0.039 A 
ENDROOT
BRANCH   4   7
ATOM      7  O   UNL d   1       0.976  -0.665   3.800  0.00  0.00    -0.526 OA
ATOM      8  H5  UNL d   1       1.580  -0.082   3.311  0.00  0.00     0.418 HD
ENDBRANCH   4   7
TORSDOF 1
ENDMDL
