MODEL 1
REMARK minimizedAffinity 2.26714444
REMARK minimizedRMSD -1
REMARK  1 active torsions:
REMARK  status: ('A' for Active; 'I' for Inactive)
REMARK    1  A    between atoms: C3_4  and  O_7 
ROOT
ATOM      1  C   UNL d   1       5.546  -5.998  -0.316  0.00  0.00    -0.033 A 
ATOM      2  C1  UNL d   1       4.351  -5.735   0.356  0.00  0.00     0.039 A 
ATOM      3  C2  UNL d   1       3.579  -4.625   0.006  0.00  0.00    -0.080 A 
ATOM      4  C3  UNL d   1       4.013  -3.788  -1.019  0.00  0.00     0.150 A 
ATOM      5  C4  UNL d   1       5.200  -4.046  -1.696  0.00  0.00    -0.007 A 
ATOM      6  C5  UNL d   1       5.970  -5.154  -1.343  0.00  0.00     0.039 A 
ENDROOT
BRANCH   4   7
ATOM      7  O   UNL d   1       3.297  -2.690  -1.393  0.00  0.00    -0.526 OA
ATOM      8  H5  UNL d   1       2.515  -2.622  -0.819  0.00  0.00     0.418 HD
ENDBRANCH   4   7
TORSDOF 1
ENDMDL
