MODEL 1
REMARK minimizedAffinity 4.65243006
REMARK minimizedRMSD -1
REMARK  1 active torsions:
REMARK  status: ('A' for Active; 'I' for Inactive)
REMARK    1  A    between atoms: C3_4  and  O_7 
ROOT
ATOM      1  C   UNL d   1      -5.622   4.514   0.374  0.00  0.00    -0.033 A 
ATOM      2  C1  UNL d   1      -5.243   4.176   1.675  0.00  0.00     0.039 A 
ATOM      3  C2  UNL d   1      -5.244   2.840   2.079  0.00  0.00    -0.080 A 
ATOM      4  C3  UNL d   1      -5.625   1.853   1.175  0.00  0.00     0.150 A 
ATOM      5  C4  UNL d   1      -6.000   2.182  -0.124  0.00  0.00    -0.007 A 
ATOM      6  C5  UNL d   1      -5.999   3.517  -0.525  0.00  0.00     0.039 A 
ENDROOT
BRANCH   4   7
ATOM      7  O   UNL d   1      -5.647   0.535   1.525  0.00  0.00    -0.526 OA
ATOM      8  H5  UNL d   1      -5.391   0.461   2.459  0.00  0.00     0.418 HD
ENDBRANCH   4   7
TORSDOF 1
ENDMDL
