MODEL 1
REMARK minimizedAffinity 4.81444359
REMARK minimizedRMSD -1
REMARK  1 active torsions:
REMARK  status: ('A' for Active; 'I' for Inactive)
REMARK    1  A    between atoms: C3_4  and  O_7 
ROOT
ATOM      1  C   UNL d   1      -4.228   2.047   0.629  0.00  0.00    -0.033 A 
ATOM      2  C1  UNL d   1      -5.543   1.944   0.174  0.00  0.00     0.039 A 
ATOM      3  C2  UNL d   1      -5.804   1.836  -1.194  0.00  0.00    -0.080 A 
ATOM      4  C3  UNL d   1      -4.742   1.831  -2.094  0.00  0.00     0.150 A 
ATOM      5  C4  UNL d   1      -3.428   1.929  -1.646  0.00  0.00    -0.007 A 
ATOM      6  C5  UNL d   1      -3.170   2.037  -0.280  0.00  0.00     0.039 A 
ENDROOT
BRANCH   4   7
ATOM      7  O   UNL d   1      -4.947   1.733  -3.438  0.00  0.00    -0.526 OA
ATOM      8  H5  UNL d   1      -5.904   1.701  -3.601  0.00  0.00     0.418 HD
ENDBRANCH   4   7
TORSDOF 1
ENDMDL
