MODEL 1
REMARK minimizedAffinity 6.27941847
REMARK minimizedRMSD -1
REMARK  1 active torsions:
REMARK  status: ('A' for Active; 'I' for Inactive)
REMARK    1  A    between atoms: C1_2  and  C2_3 
ROOT
ATOM      1  C2  UNL d   1       4.857  -4.672   3.548  0.00  0.00    -0.077 A 
ATOM      2  C3  UNL d   1       5.232  -3.323   3.624  0.00  0.00     0.002 A 
ATOM      3  C4  UNL d   1       5.609  -2.764   4.847  0.00  0.00     0.002 A 
ATOM      4  C5  UNL d   1       5.619  -3.546   6.000  0.00  0.00    -0.004 A 
ATOM      5  C6  UNL d   1       5.246  -4.888   5.934  0.00  0.00     0.002 A 
ATOM      6  C7  UNL d   1       4.868  -5.449   4.713  0.00  0.00     0.002 A 
ENDROOT
BRANCH   1   7
ATOM      7  C1  UNL d   1       4.498  -5.290   2.222  0.00  0.00     0.055 C 
ATOM      8  C   UNL d   1       4.065  -4.233   1.217  0.00  0.00     0.019 C 
ENDBRANCH   1   7
TORSDOF 1
ENDMDL
