MODEL 1
REMARK minimizedAffinity 4.3769784
REMARK minimizedRMSD -1
REMARK  1 active torsions:
REMARK  status: ('A' for Active; 'I' for Inactive)
REMARK    1  A    between atoms: C1_2  and  C2_3 
ROOT
ATOM      1  C2  UNL d   1       4.254  -3.825   2.717  0.00  0.00    -0.077 A 
ATOM      2  C3  UNL d   1       3.050  -3.146   2.481  0.00  0.00     0.002 A 
ATOM      3  C4  UNL d   1       2.678  -2.798   1.181  0.00  0.00     0.002 A 
ATOM      4  C5  UNL d   1       3.501  -3.129   0.107  0.00  0.00    -0.004 A 
ATOM      5  C6  UNL d   1       4.701  -3.802   0.331  0.00  0.00     0.002 A 
ATOM      6  C7  UNL d   1       5.075  -4.150   1.630  0.00  0.00     0.002 A 
ENDROOT
BRANCH   1   7
ATOM      7  C1  UNL d   1       4.633  -4.245   4.113  0.00  0.00     0.055 C 
ATOM      8  C   UNL d   1       4.957  -3.040   4.984  0.00  0.00     0.019 C 
ENDBRANCH   1   7
TORSDOF 1
ENDMDL
