MODEL 1
REMARK minimizedAffinity 5.0008831
REMARK minimizedRMSD -1
REMARK  1 active torsions:
REMARK  status: ('A' for Active; 'I' for Inactive)
REMARK    1  A    between atoms: C1_2  and  C2_3 
ROOT
ATOM      1  C2  UNL d   1      -0.077   5.952   4.463  0.00  0.00    -0.077 A 
ATOM      2  C3  UNL d   1       0.817   5.813   3.392  0.00  0.00     0.002 A 
ATOM      3  C4  UNL d   1       2.191   5.725   3.625  0.00  0.00     0.002 A 
ATOM      4  C5  UNL d   1       2.682   5.770   4.928  0.00  0.00    -0.004 A 
ATOM      5  C6  UNL d   1       1.802   5.910   6.000  0.00  0.00     0.002 A 
ATOM      6  C7  UNL d   1       0.428   6.000   5.768  0.00  0.00     0.002 A 
ENDROOT
BRANCH   1   7
ATOM      7  C1  UNL d   1      -1.562   5.998   4.217  0.00  0.00     0.055 C 
ATOM      8  C   UNL d   1      -2.340   6.000   5.525  0.00  0.00     0.019 C 
ENDBRANCH   1   7
TORSDOF 1
ENDMDL
