MODEL 1
REMARK minimizedAffinity 1.10945261
REMARK minimizedRMSD -1
REMARK  1 active torsions:
REMARK  status: ('A' for Active; 'I' for Inactive)
REMARK    1  A    between atoms: C1_2  and  C2_3 
ROOT
ATOM      1  C2  UNL d   1       4.596  -4.286   3.385  0.00  0.00    -0.077 A 
ATOM      2  C3  UNL d   1       4.928  -3.003   3.844  0.00  0.00     0.002 A 
ATOM      3  C4  UNL d   1       5.399  -2.819   5.146  0.00  0.00     0.002 A 
ATOM      4  C5  UNL d   1       5.546  -3.913   5.997  0.00  0.00    -0.004 A 
ATOM      5  C6  UNL d   1       5.217  -5.192   5.550  0.00  0.00     0.002 A 
ATOM      6  C7  UNL d   1       4.745  -5.378   4.250  0.00  0.00     0.002 A 
ENDROOT
BRANCH   1   7
ATOM      7  C1  UNL d   1       4.135  -4.493   1.966  0.00  0.00     0.055 C 
ATOM      8  C   UNL d   1       4.556  -3.335   1.073  0.00  0.00     0.019 C 
ENDBRANCH   1   7
TORSDOF 1
ENDMDL
