MODEL 1
REMARK minimizedAffinity -2.00998378
REMARK minimizedRMSD -1
REMARK  1 active torsions:
REMARK  status: ('A' for Active; 'I' for Inactive)
REMARK    1  A    between atoms: C1_2  and  C2_3 
ROOT
ATOM      1  C2  UNL d   1       3.431   3.933  -5.969  0.00  0.00    -0.077 A 
ATOM      2  C3  UNL d   1       4.564   3.107  -5.946  0.00  0.00     0.002 A 
ATOM      3  C4  UNL d   1       5.842   3.663  -5.873  0.00  0.00     0.002 A 
ATOM      4  C5  UNL d   1       6.000   5.046  -5.817  0.00  0.00    -0.004 A 
ATOM      5  C6  UNL d   1       4.880   5.876  -5.840  0.00  0.00     0.002 A 
ATOM      6  C7  UNL d   1       3.601   5.322  -5.915  0.00  0.00     0.002 A 
ENDROOT
BRANCH   1   7
ATOM      7  C1  UNL d   1       2.049   3.334  -5.998  0.00  0.00     0.055 C 
ATOM      8  C   UNL d   1       0.977   4.414  -6.000  0.00  0.00     0.019 C 
ENDBRANCH   1   7
TORSDOF 1
ENDMDL
