MODEL 1
REMARK minimizedAffinity -3.82136106
REMARK minimizedRMSD -1
REMARK  0 active torsions:
REMARK  status: ('A' for Active; 'I' for Inactive)
ROOT
ATOM      1  C   UNL d   1       0.082  -0.100  -0.170  0.00  0.00     0.078 C 
ATOM      2  C1  UNL d   1       0.520  -0.606  -1.511  0.00  0.00    -0.077 A 
ATOM      3  C2  UNL d   1       0.424   0.200  -2.653  0.00  0.00    -0.001 A 
ATOM      4  C3  UNL d   1       0.826  -0.288  -3.897  0.00  0.00     0.003 A 
ATOM      5  C4  UNL d   1       1.325  -1.583  -4.013  0.00  0.00    -0.005 A 
ATOM      6  C5  UNL d   1       1.423  -2.393  -2.883  0.00  0.00     0.003 A 
ATOM      7  C6  UNL d   1       1.021  -1.907  -1.638  0.00  0.00    -0.001 A 
ENDROOT
TORSDOF 0
ENDMDL
