MODEL 1
REMARK minimizedAffinity -2.69499063
REMARK minimizedRMSD -1
REMARK  0 active torsions:
REMARK  status: ('A' for Active; 'I' for Inactive)
ROOT
ATOM      1  C   UNL d   1       0.601  -0.158  -1.341  0.00  0.00     0.078 C 
ATOM      2  C1  UNL d   1       0.084   0.160   0.030  0.00  0.00    -0.077 A 
ATOM      3  C2  UNL d   1       0.909   0.052   1.156  0.00  0.00    -0.001 A 
ATOM      4  C3  UNL d   1       0.411   0.342   2.427  0.00  0.00     0.003 A 
ATOM      5  C4  UNL d   1      -0.915   0.741   2.585  0.00  0.00    -0.005 A 
ATOM      6  C5  UNL d   1      -1.744   0.849   1.471  0.00  0.00     0.003 A 
ATOM      7  C6  UNL d   1      -1.248   0.560   0.199  0.00  0.00    -0.001 A 
ENDROOT
TORSDOF 0
ENDMDL
