MODEL 1
REMARK minimizedAffinity -3.69037223
REMARK minimizedRMSD -1
REMARK  0 active torsions:
REMARK  status: ('A' for Active; 'I' for Inactive)
ROOT
ATOM      1  C   UNL d   1       0.036   0.603  -0.444  0.00  0.00     0.078 C 
ATOM      2  C1  UNL d   1       0.405  -0.148  -1.688  0.00  0.00    -0.077 A 
ATOM      3  C2  UNL d   1      -0.367  -1.227  -2.135  0.00  0.00    -0.001 A 
ATOM      4  C3  UNL d   1      -0.006  -1.923  -3.290  0.00  0.00     0.003 A 
ATOM      5  C4  UNL d   1       1.129  -1.548  -4.007  0.00  0.00    -0.005 A 
ATOM      6  C5  UNL d   1       1.904  -0.476  -3.569  0.00  0.00     0.003 A 
ATOM      7  C6  UNL d   1       1.545   0.221  -2.414  0.00  0.00    -0.001 A 
ENDROOT
TORSDOF 0
ENDMDL
