MODEL 1
REMARK minimizedAffinity -2.81710863
REMARK minimizedRMSD -1
REMARK  0 active torsions:
REMARK  status: ('A' for Active; 'I' for Inactive)
ROOT
ATOM      1  C   UNL d   1       0.562   0.317  -1.780  0.00  0.00     0.078 C 
ATOM      2  C1  UNL d   1       0.402   0.272  -0.290  0.00  0.00    -0.077 A 
ATOM      3  C2  UNL d   1      -0.763   0.748   0.325  0.00  0.00    -0.001 A 
ATOM      4  C3  UNL d   1      -0.894   0.709   1.714  0.00  0.00     0.003 A 
ATOM      5  C4  UNL d   1       0.135   0.195   2.500  0.00  0.00    -0.005 A 
ATOM      6  C5  UNL d   1       1.298  -0.279   1.897  0.00  0.00     0.003 A 
ATOM      7  C6  UNL d   1       1.432  -0.241   0.509  0.00  0.00    -0.001 A 
ENDROOT
TORSDOF 0
ENDMDL
