MODEL 1
REMARK minimizedAffinity -5.93793964
REMARK minimizedRMSD -1
REMARK  0 active torsions:
REMARK  status: ('A' for Active; 'I' for Inactive)
ROOT
ATOM      1  C   UNL d   1       0.010   0.102  -1.388  0.00  0.00     0.078 C 
ATOM      2  C1  UNL d   1      -0.394   0.003   0.053  0.00  0.00    -0.077 A 
ATOM      3  C2  UNL d   1       0.554   0.116   1.078  0.00  0.00    -0.001 A 
ATOM      4  C3  UNL d   1       0.164   0.012   2.414  0.00  0.00     0.003 A 
ATOM      5  C4  UNL d   1      -1.173  -0.207   2.738  0.00  0.00    -0.005 A 
ATOM      6  C5  UNL d   1      -2.123  -0.323   1.725  0.00  0.00     0.003 A 
ATOM      7  C6  UNL d   1      -1.736  -0.219   0.388  0.00  0.00    -0.001 A 
ENDROOT
TORSDOF 0
ENDMDL
