MODEL 1
REMARK minimizedAffinity -1.02262545
REMARK minimizedRMSD -1
REMARK  0 active torsions:
REMARK  status: ('A' for Active; 'I' for Inactive)
ROOT
ATOM      1  C   UNL d   1       1.208   0.182   2.045  0.00  0.00     0.078 C 
ATOM      2  C1  UNL d   1       0.502   0.225   0.723  0.00  0.00    -0.077 A 
ATOM      3  C2  UNL d   1      -0.895   0.162   0.648  0.00  0.00    -0.001 A 
ATOM      4  C3  UNL d   1      -1.539   0.193  -0.590  0.00  0.00     0.003 A 
ATOM      5  C4  UNL d   1      -0.793   0.286  -1.763  0.00  0.00    -0.005 A 
ATOM      6  C5  UNL d   1       0.597   0.347  -1.700  0.00  0.00     0.003 A 
ATOM      7  C6  UNL d   1       1.242   0.316  -0.462  0.00  0.00    -0.001 A 
ENDROOT
TORSDOF 0
ENDMDL
