MODEL 1
REMARK minimizedAffinity -0.528021872
REMARK minimizedRMSD -1
REMARK  0 active torsions:
REMARK  status: ('A' for Active; 'I' for Inactive)
ROOT
ATOM      1  C   UNL d   1       0.794   0.079   0.781  0.00  0.00     0.078 C 
ATOM      2  C1  UNL d   1       0.745  -0.188  -0.693  0.00  0.00    -0.077 A 
ATOM      3  C2  UNL d   1      -0.027   0.611  -1.546  0.00  0.00    -0.001 A 
ATOM      4  C3  UNL d   1      -0.070   0.345  -2.915  0.00  0.00     0.003 A 
ATOM      5  C4  UNL d   1       0.655  -0.721  -3.444  0.00  0.00    -0.005 A 
ATOM      6  C5  UNL d   1       1.424  -1.523  -2.603  0.00  0.00     0.003 A 
ATOM      7  C6  UNL d   1       1.469  -1.258  -1.234  0.00  0.00    -0.001 A 
ENDROOT
TORSDOF 0
ENDMDL
