MODEL 1
REMARK minimizedAffinity -3.41085672
REMARK minimizedRMSD -1
REMARK  0 active torsions:
REMARK  status: ('A' for Active; 'I' for Inactive)
ROOT
ATOM      1  C   UNL d   1       1.257  -1.946  -3.756  0.00  0.00     0.078 C 
ATOM      2  C1  UNL d   1       0.529  -1.211  -2.671  0.00  0.00    -0.077 A 
ATOM      3  C2  UNL d   1       1.079  -0.067  -2.080  0.00  0.00    -0.001 A 
ATOM      4  C3  UNL d   1       0.394   0.602  -1.065  0.00  0.00     0.003 A 
ATOM      5  C4  UNL d   1      -0.845   0.135  -0.631  0.00  0.00    -0.005 A 
ATOM      6  C5  UNL d   1      -1.400  -1.003  -1.212  0.00  0.00     0.003 A 
ATOM      7  C6  UNL d   1      -0.716  -1.674  -2.228  0.00  0.00    -0.001 A 
ENDROOT
TORSDOF 0
ENDMDL
