MODEL 1
REMARK minimizedAffinity -1.35662973
REMARK minimizedRMSD -1
REMARK  0 active torsions:
REMARK  status: ('A' for Active; 'I' for Inactive)
ROOT
ATOM      1  C   UNL d   1       0.674   0.254  -1.945  0.00  0.00     0.078 C 
ATOM      2  C1  UNL d   1       0.619   0.292  -0.446  0.00  0.00    -0.077 A 
ATOM      3  C2  UNL d   1       1.746   0.639   0.308  0.00  0.00    -0.001 A 
ATOM      4  C3  UNL d   1       1.683   0.660   1.702  0.00  0.00     0.003 A 
ATOM      5  C4  UNL d   1       0.495   0.334   2.354  0.00  0.00    -0.005 A 
ATOM      6  C5  UNL d   1      -0.631  -0.015   1.612  0.00  0.00     0.003 A 
ATOM      7  C6  UNL d   1      -0.570  -0.037   0.217  0.00  0.00    -0.001 A 
ENDROOT
TORSDOF 0
ENDMDL
