MODEL 1
REMARK minimizedAffinity -4.16824961
REMARK minimizedRMSD -1
REMARK  0 active torsions:
REMARK  status: ('A' for Active; 'I' for Inactive)
ROOT
ATOM      1  C   UNL d   1      -2.922   1.002   2.161  0.00  0.00     0.078 C 
ATOM      2  C1  UNL d   1      -1.583   0.683   1.565  0.00  0.00    -0.077 A 
ATOM      3  C2  UNL d   1      -0.506   0.301   2.375  0.00  0.00    -0.001 A 
ATOM      4  C3  UNL d   1       0.737   0.016   1.808  0.00  0.00     0.003 A 
ATOM      5  C4  UNL d   1       0.915   0.111   0.429  0.00  0.00    -0.005 A 
ATOM      6  C5  UNL d   1      -0.150   0.492  -0.384  0.00  0.00     0.003 A 
ATOM      7  C6  UNL d   1      -1.394   0.778   0.181  0.00  0.00    -0.001 A 
ENDROOT
TORSDOF 0
ENDMDL
