MODEL 1
REMARK minimizedAffinity -4.94981289
REMARK minimizedRMSD -1
REMARK  0 active torsions:
REMARK  status: ('A' for Active; 'I' for Inactive)
ROOT
ATOM      1  C   UNL d   1      -3.657   0.942   2.380  0.00  0.00     0.078 C 
ATOM      2  C1  UNL d   1      -2.253   0.641   1.948  0.00  0.00    -0.077 A 
ATOM      3  C2  UNL d   1      -1.231   0.460   2.889  0.00  0.00    -0.001 A 
ATOM      4  C3  UNL d   1       0.073   0.190   2.472  0.00  0.00     0.003 A 
ATOM      5  C4  UNL d   1       0.369   0.100   1.113  0.00  0.00    -0.005 A 
ATOM      6  C5  UNL d   1      -0.640   0.281   0.170  0.00  0.00     0.003 A 
ATOM      7  C6  UNL d   1      -1.945   0.551   0.585  0.00  0.00    -0.001 A 
ENDROOT
TORSDOF 0
ENDMDL
