MODEL 1
REMARK minimizedAffinity 9.89859676
REMARK minimizedRMSD -1
REMARK  0 active torsions:
REMARK  status: ('A' for Active; 'I' for Inactive)
ROOT
ATOM      1  O1  BZF d   1       0.259  -0.085   4.118  0.00  0.00    -0.204 OA
ATOM      2  C2  BZF d   1      -0.750  -0.650   3.362  0.00  0.00     0.174 A 
ATOM      3  C3  BZF d   1      -0.261  -1.153   2.211  0.00  0.00    -0.012 A 
ATOM      4  C3A BZF d   1       1.156  -0.968   2.291  0.00  0.00    -0.107 A 
ATOM      5  C4  BZF d   1       2.192  -1.278   1.457  0.00  0.00     0.055 A 
ATOM      6  C5  BZF d   1       3.451  -0.895   1.797  0.00  0.00    -0.016 A 
ATOM      7  C6  BZF d   1       3.709  -0.198   2.959  0.00  0.00     0.022 A 
ATOM      8  C7  BZF d   1       2.714   0.128   3.820  0.00  0.00     0.029 A 
ATOM      9  C7A BZF d   1       1.445  -0.286   3.495  0.00  0.00     0.058 A 
ENDROOT
TORSDOF 0
ENDMDL
