MODEL 1
REMARK minimizedAffinity 25.8556881
REMARK minimizedRMSD -1
REMARK  0 active torsions:
REMARK  status: ('A' for Active; 'I' for Inactive)
ROOT
ATOM      1  O1  BZF d   1       3.744   1.341   2.981  0.00  0.00    -0.204 OA
ATOM      2  C2  BZF d   1       4.326   1.211   1.735  0.00  0.00     0.174 A 
ATOM      3  C3  BZF d   1       3.571   0.433   0.934  0.00  0.00    -0.012 A 
ATOM      4  C3A BZF d   1       2.401   0.128   1.698  0.00  0.00    -0.107 A 
ATOM      5  C4  BZF d   1       1.272  -0.595   1.439  0.00  0.00     0.055 A 
ATOM      6  C5  BZF d   1       0.351  -0.759   2.425  0.00  0.00    -0.016 A 
ATOM      7  C6  BZF d   1       0.530  -0.219   3.682  0.00  0.00     0.022 A 
ATOM      8  C7  BZF d   1       1.631   0.511   3.985  0.00  0.00     0.029 A 
ATOM      9  C7A BZF d   1       2.548   0.706   2.981  0.00  0.00     0.058 A 
ENDROOT
TORSDOF 0
ENDMDL
