MODEL 1
REMARK minimizedAffinity 13.1987104
REMARK minimizedRMSD -1
REMARK  0 active torsions:
REMARK  status: ('A' for Active; 'I' for Inactive)
ROOT
ATOM      1  O1  BZF d   1       5.998  -3.214  -4.377  0.00  0.00    -0.204 OA
ATOM      2  C2  BZF d   1       5.984  -2.968  -5.736  0.00  0.00     0.174 A 
ATOM      3  C3  BZF d   1       5.440  -1.763  -5.999  0.00  0.00    -0.012 A 
ATOM      4  C3A BZF d   1       5.177  -1.181  -4.718  0.00  0.00    -0.107 A 
ATOM      5  C4  BZF d   1       4.654   0.016  -4.320  0.00  0.00     0.055 A 
ATOM      6  C5  BZF d   1       4.462   0.245  -2.994  0.00  0.00    -0.016 A 
ATOM      7  C6  BZF d   1       4.778  -0.701  -2.041  0.00  0.00     0.022 A 
ATOM      8  C7  BZF d   1       5.305  -1.901  -2.387  0.00  0.00     0.029 A 
ATOM      9  C7A BZF d   1       5.530  -2.123  -3.724  0.00  0.00     0.058 A 
ENDROOT
TORSDOF 0
ENDMDL
