MODEL 1
REMARK minimizedAffinity 18.1173973
REMARK minimizedRMSD -1
REMARK  0 active torsions:
REMARK  status: ('A' for Active; 'I' for Inactive)
ROOT
ATOM      1  O1  BZF d   1       3.216  -5.592   2.406  0.00  0.00    -0.204 OA
ATOM      2  C2  BZF d   1       1.926  -5.280   2.791  0.00  0.00     0.174 A 
ATOM      3  C3  BZF d   1       1.830  -5.213   4.134  0.00  0.00    -0.012 A 
ATOM      4  C3A BZF d   1       3.162  -5.410   4.617  0.00  0.00    -0.107 A 
ATOM      5  C4  BZF d   1       3.714  -5.436   5.866  0.00  0.00     0.055 A 
ATOM      6  C5  BZF d   1       5.036  -5.725   5.998  0.00  0.00    -0.016 A 
ATOM      7  C6  BZF d   1       5.832  -5.998   4.905  0.00  0.00     0.022 A 
ATOM      8  C7  BZF d   1       5.331  -5.979   3.646  0.00  0.00     0.029 A 
ATOM      9  C7A BZF d   1       4.003  -5.655   3.507  0.00  0.00     0.058 A 
ENDROOT
TORSDOF 0
ENDMDL
