MODEL 1
REMARK minimizedAffinity 18.4903622
REMARK minimizedRMSD -1
REMARK  0 active torsions:
REMARK  status: ('A' for Active; 'I' for Inactive)
ROOT
ATOM      1  O1  BZF d   1      -3.213   2.762  -4.481  0.00  0.00    -0.204 OA
ATOM      2  C2  BZF d   1      -2.992   3.247  -5.755  0.00  0.00     0.174 A 
ATOM      3  C3  BZF d   1      -2.619   4.543  -5.716  0.00  0.00    -0.012 A 
ATOM      4  C3A BZF d   1      -2.517   4.863  -4.325  0.00  0.00    -0.107 A 
ATOM      5  C4  BZF d   1      -2.171   5.996  -3.646  0.00  0.00     0.055 A 
ATOM      6  C5  BZF d   1      -2.243   6.000  -2.289  0.00  0.00    -0.016 A 
ATOM      7  C6  BZF d   1      -2.661   4.892  -1.580  0.00  0.00     0.022 A 
ATOM      8  C7  BZF d   1      -3.009   3.744  -2.210  0.00  0.00     0.029 A 
ATOM      9  C7A BZF d   1      -2.906   3.726  -3.580  0.00  0.00     0.058 A 
ENDROOT
TORSDOF 0
ENDMDL
