MODEL 1
REMARK minimizedAffinity 18.4004383
REMARK minimizedRMSD -1
REMARK  0 active torsions:
REMARK  status: ('A' for Active; 'I' for Inactive)
ROOT
ATOM      1  O1  BZF d   1      -1.920   3.755  -5.340  0.00  0.00    -0.204 OA
ATOM      2  C2  BZF d   1      -1.643   4.937  -6.000  0.00  0.00     0.174 A 
ATOM      3  C3  BZF d   1      -1.962   5.999  -5.232  0.00  0.00    -0.012 A 
ATOM      4  C3A BZF d   1      -2.384   5.447  -3.982  0.00  0.00    -0.107 A 
ATOM      5  C4  BZF d   1      -2.810   5.999  -2.808  0.00  0.00     0.055 A 
ATOM      6  C5  BZF d   1      -3.217   5.181  -1.802  0.00  0.00    -0.016 A 
ATOM      7  C6  BZF d   1      -3.216   3.808  -1.938  0.00  0.00     0.022 A 
ATOM      8  C7  BZF d   1      -2.798   3.214  -3.082  0.00  0.00     0.029 A 
ATOM      9  C7A BZF d   1      -2.354   4.037  -4.088  0.00  0.00     0.058 A 
ENDROOT
TORSDOF 0
ENDMDL
