MODEL 1
REMARK minimizedAffinity 16.3187046
REMARK minimizedRMSD -1
REMARK  0 active torsions:
REMARK  status: ('A' for Active; 'I' for Inactive)
ROOT
ATOM      1  O1  BZF d   1      -1.701   2.255  -3.465  0.00  0.00    -0.204 OA
ATOM      2  C2  BZF d   1      -1.103   2.522  -2.249  0.00  0.00     0.174 A 
ATOM      3  C3  BZF d   1      -0.916   3.848  -2.089  0.00  0.00    -0.012 A 
ATOM      4  C3A BZF d   1      -1.514   4.454  -3.239  0.00  0.00    -0.107 A 
ATOM      5  C4  BZF d   1      -1.664   5.748  -3.647  0.00  0.00     0.055 A 
ATOM      6  C5  BZF d   1      -2.230   5.998  -4.857  0.00  0.00    -0.016 A 
ATOM      7  C6  BZF d   1      -2.651   4.979  -5.685  0.00  0.00     0.022 A 
ATOM      8  C7  BZF d   1      -2.528   3.679  -5.322  0.00  0.00     0.029 A 
ATOM      9  C7A BZF d   1      -1.987   3.425  -4.085  0.00  0.00     0.058 A 
ENDROOT
TORSDOF 0
ENDMDL
