MODEL 1
REMARK minimizedAffinity 16.2615719
REMARK minimizedRMSD -1
REMARK  0 active torsions:
REMARK  status: ('A' for Active; 'I' for Inactive)
ROOT
ATOM      1  O1  BZF d   1       2.408  -1.911   0.926  0.00  0.00    -0.204 OA
ATOM      2  C2  BZF d   1       3.283  -0.881   1.213  0.00  0.00     0.174 A 
ATOM      3  C3  BZF d   1       2.752  -0.042   2.126  0.00  0.00    -0.012 A 
ATOM      4  C3A BZF d   1       1.503  -0.633   2.498  0.00  0.00    -0.107 A 
ATOM      5  C4  BZF d   1       0.522  -0.277   3.379  0.00  0.00     0.055 A 
ATOM      6  C5  BZF d   1      -0.606  -1.032   3.452  0.00  0.00    -0.016 A 
ATOM      7  C6  BZF d   1      -0.787  -2.145   2.656  0.00  0.00     0.022 A 
ATOM      8  C7  BZF d   1       0.160  -2.540   1.772  0.00  0.00     0.029 A 
ATOM      9  C7A BZF d   1       1.315  -1.798   1.719  0.00  0.00     0.058 A 
ENDROOT
TORSDOF 0
ENDMDL
