MODEL 1
REMARK minimizedAffinity 14.5580645
REMARK minimizedRMSD -1
REMARK  0 active torsions:
REMARK  status: ('A' for Active; 'I' for Inactive)
ROOT
ATOM      1  O1  BZF d   1       4.438  -2.017  -5.991  0.00  0.00    -0.204 OA
ATOM      2  C2  BZF d   1       5.240  -3.142  -6.000  0.00  0.00     0.174 A 
ATOM      3  C3  BZF d   1       6.000  -3.196  -4.887  0.00  0.00    -0.012 A 
ATOM      4  C3A BZF d   1       5.584  -2.081  -4.092  0.00  0.00    -0.107 A 
ATOM      5  C4  BZF d   1       5.958  -1.610  -2.866  0.00  0.00     0.055 A 
ATOM      6  C5  BZF d   1       5.408  -0.455  -2.407  0.00  0.00    -0.016 A 
ATOM      7  C6  BZF d   1       4.488   0.256  -3.148  0.00  0.00     0.022 A 
ATOM      8  C7  BZF d   1       4.082  -0.174  -4.367  0.00  0.00     0.029 A 
ATOM      9  C7A BZF d   1       4.610  -1.358  -4.820  0.00  0.00     0.058 A 
ENDROOT
TORSDOF 0
ENDMDL
