MODEL 1
REMARK minimizedAffinity 24.0241318
REMARK minimizedRMSD -1
REMARK  0 active torsions:
REMARK  status: ('A' for Active; 'I' for Inactive)
ROOT
ATOM      1  O1  BZF d   1       3.155  -1.465   1.660  0.00  0.00    -0.204 OA
ATOM      2  C2  BZF d   1       3.537  -0.284   2.267  0.00  0.00     0.174 A 
ATOM      3  C3  BZF d   1       2.464   0.377   2.746  0.00  0.00    -0.012 A 
ATOM      4  C3A BZF d   1       1.350  -0.486   2.500  0.00  0.00    -0.107 A 
ATOM      5  C4  BZF d   1       0.013  -0.391   2.763  0.00  0.00     0.055 A 
ATOM      6  C5  BZF d   1      -0.817  -1.375   2.328  0.00  0.00    -0.016 A 
ATOM      7  C6  BZF d   1      -0.346  -2.463   1.622  0.00  0.00     0.022 A 
ATOM      8  C7  BZF d   1       0.972  -2.603   1.341  0.00  0.00     0.029 A 
ATOM      9  C7A BZF d   1       1.818  -1.627   1.809  0.00  0.00     0.058 A 
ENDROOT
TORSDOF 0
ENDMDL
