MODEL 1
REMARK minimizedAffinity 14.787302
REMARK minimizedRMSD -1
REMARK  0 active torsions:
REMARK  status: ('A' for Active; 'I' for Inactive)
ROOT
ATOM      1  O1  BZF d   1       4.014   0.131   3.413  0.00  0.00    -0.204 OA
ATOM      2  C2  BZF d   1       4.543  -0.283   2.206  0.00  0.00     0.174 A 
ATOM      3  C3  BZF d   1       3.620  -0.953   1.485  0.00  0.00    -0.012 A 
ATOM      4  C3A BZF d   1       2.415  -0.878   2.253  0.00  0.00    -0.107 A 
ATOM      5  C4  BZF d   1       1.146  -1.341   2.055  0.00  0.00     0.055 A 
ATOM      6  C5  BZF d   1       0.218  -1.163   3.032  0.00  0.00    -0.016 A 
ATOM      7  C6  BZF d   1       0.526  -0.531   4.219  0.00  0.00     0.022 A 
ATOM      8  C7  BZF d   1       1.771  -0.050   4.459  0.00  0.00     0.029 A 
ATOM      9  C7A BZF d   1       2.702  -0.200   3.460  0.00  0.00     0.058 A 
ENDROOT
TORSDOF 0
ENDMDL
