MODEL 1
REMARK minimizedAffinity 7.48991489
REMARK minimizedRMSD -1
REMARK  0 active torsions:
REMARK  status: ('A' for Active; 'I' for Inactive)
ROOT
ATOM      1  O1  BZF d   1      -1.243  -1.664   3.632  0.00  0.00    -0.204 OA
ATOM      2  C2  BZF d   1      -1.843  -2.845   3.240  0.00  0.00     0.174 A 
ATOM      3  C3  BZF d   1      -1.137  -3.437   2.255  0.00  0.00    -0.012 A 
ATOM      4  C3A BZF d   1       0.024  -2.618   2.080  0.00  0.00    -0.107 A 
ATOM      5  C4  BZF d   1       1.112  -2.695   1.259  0.00  0.00     0.055 A 
ATOM      6  C5  BZF d   1       2.032  -1.695   1.286  0.00  0.00    -0.016 A 
ATOM      7  C6  BZF d   1       1.893  -0.603   2.118  0.00  0.00     0.022 A 
ATOM      8  C7  BZF d   1       0.833  -0.485   2.954  0.00  0.00     0.029 A 
ATOM      9  C7A BZF d   1      -0.081  -1.510   2.953  0.00  0.00     0.058 A 
ENDROOT
TORSDOF 0
ENDMDL
