MODEL 1
REMARK minimizedAffinity 20.660574
REMARK minimizedRMSD -1
REMARK  0 active torsions:
REMARK  status: ('A' for Active; 'I' for Inactive)
ROOT
ATOM      1  O1  BZF d   1      -1.922   5.998  -5.032  0.00  0.00    -0.204 OA
ATOM      2  C2  BZF d   1      -1.760   5.013  -5.987  0.00  0.00     0.174 A 
ATOM      3  C3  BZF d   1      -2.084   3.803  -5.486  0.00  0.00    -0.012 A 
ATOM      4  C3A BZF d   1      -2.561   4.060  -4.162  0.00  0.00    -0.107 A 
ATOM      5  C4  BZF d   1      -3.045   3.259  -3.166  0.00  0.00     0.055 A 
ATOM      6  C5  BZF d   1      -3.356   3.814  -1.965  0.00  0.00    -0.016 A 
ATOM      7  C6  BZF d   1      -3.192   5.162  -1.724  0.00  0.00     0.022 A 
ATOM      8  C7  BZF d   1      -2.721   5.997  -2.681  0.00  0.00     0.029 A 
ATOM      9  C7A BZF d   1      -2.436   5.445  -3.907  0.00  0.00     0.058 A 
ENDROOT
TORSDOF 0
ENDMDL
