MODEL 1
REMARK minimizedAffinity 9.08504486
REMARK minimizedRMSD -1
REMARK  0 active torsions:
REMARK  status: ('A' for Active; 'I' for Inactive)
ROOT
ATOM      1  O1  BZF d   1       3.906   0.633   3.722  0.00  0.00    -0.204 OA
ATOM      2  C2  BZF d   1       4.261   0.443   2.400  0.00  0.00     0.174 A 
ATOM      3  C3  BZF d   1       3.268  -0.168   1.722  0.00  0.00    -0.012 A 
ATOM      4  C3A BZF d   1       2.191  -0.287   2.657  0.00  0.00    -0.107 A 
ATOM      5  C4  BZF d   1       0.926  -0.795   2.572  0.00  0.00     0.055 A 
ATOM      6  C5  BZF d   1       0.152  -0.827   3.688  0.00  0.00    -0.016 A 
ATOM      7  C6  BZF d   1       0.611  -0.365   4.904  0.00  0.00     0.022 A 
ATOM      8  C7  BZF d   1       1.856   0.152   5.037  0.00  0.00     0.029 A 
ATOM      9  C7A BZF d   1       2.630   0.216   3.903  0.00  0.00     0.058 A 
ENDROOT
TORSDOF 0
ENDMDL
