MODEL 1
REMARK minimizedAffinity 23.9059353
REMARK minimizedRMSD -1
REMARK  0 active torsions:
REMARK  status: ('A' for Active; 'I' for Inactive)
ROOT
ATOM      1  O1  BZF d   1       3.846   1.299   3.013  0.00  0.00    -0.204 OA
ATOM      2  C2  BZF d   1       4.293   1.202   1.709  0.00  0.00     0.174 A 
ATOM      3  C3  BZF d   1       3.396   0.548   0.943  0.00  0.00    -0.012 A 
ATOM      4  C3A BZF d   1       2.281   0.296   1.803  0.00  0.00    -0.107 A 
ATOM      5  C4  BZF d   1       1.070  -0.308   1.617  0.00  0.00     0.055 A 
ATOM      6  C5  BZF d   1       0.236  -0.457   2.680  0.00  0.00    -0.016 A 
ATOM      7  C6  BZF d   1       0.582  -0.019   3.941  0.00  0.00     0.022 A 
ATOM      8  C7  BZF d   1       1.771   0.590   4.174  0.00  0.00     0.029 A 
ATOM      9  C7A BZF d   1       2.601   0.772   3.095  0.00  0.00     0.058 A 
ENDROOT
TORSDOF 0
ENDMDL
