MODEL 1
REMARK minimizedAffinity 15.3833342
REMARK minimizedRMSD -1
REMARK  0 active torsions:
REMARK  status: ('A' for Active; 'I' for Inactive)
ROOT
ATOM      1  O1  BZF d   1       1.129  -2.265   1.190  0.00  0.00    -0.204 OA
ATOM      2  C2  BZF d   1       1.956  -1.158   1.170  0.00  0.00     0.174 A 
ATOM      3  C3  BZF d   1       1.562  -0.250   2.085  0.00  0.00    -0.012 A 
ATOM      4  C3A BZF d   1       0.472  -0.864   2.780  0.00  0.00    -0.107 A 
ATOM      5  C4  BZF d   1      -0.328  -0.464   3.812  0.00  0.00     0.055 A 
ATOM      6  C5  BZF d   1      -1.348  -1.270   4.208  0.00  0.00    -0.016 A 
ATOM      7  C6  BZF d   1      -1.600  -2.479   3.591  0.00  0.00     0.022 A 
ATOM      8  C7  BZF d   1      -0.830  -2.920   2.566  0.00  0.00     0.029 A 
ATOM      9  C7A BZF d   1       0.222  -2.123   2.186  0.00  0.00     0.058 A 
ENDROOT
TORSDOF 0
ENDMDL
