MODEL 1
REMARK minimizedAffinity 6.25577307
REMARK minimizedRMSD -1
REMARK  0 active torsions:
REMARK  status: ('A' for Active; 'I' for Inactive)
ROOT
ATOM      1  O1  BZF d   1       1.286  -0.457   2.888  0.00  0.00    -0.204 OA
ATOM      2  C2  BZF d   1       1.596  -0.905   1.618  0.00  0.00     0.174 A 
ATOM      3  C3  BZF d   1       0.836  -1.969   1.288  0.00  0.00    -0.012 A 
ATOM      4  C3A BZF d   1      -0.065  -2.143   2.386  0.00  0.00    -0.107 A 
ATOM      5  C4  BZF d   1      -1.075  -3.027   2.640  0.00  0.00     0.055 A 
ATOM      6  C5  BZF d   1      -1.712  -2.974   3.839  0.00  0.00    -0.016 A 
ATOM      7  C6  BZF d   1      -1.363  -2.055   4.807  0.00  0.00     0.022 A 
ATOM      8  C7  BZF d   1      -0.371  -1.155   4.599  0.00  0.00     0.029 A 
ATOM      9  C7A BZF d   1       0.253  -1.185   3.375  0.00  0.00     0.058 A 
ENDROOT
TORSDOF 0
ENDMDL
