MODEL 1
REMARK minimizedAffinity 9.47771263
REMARK minimizedRMSD -1
REMARK  0 active torsions:
REMARK  status: ('A' for Active; 'I' for Inactive)
ROOT
ATOM      1  O1  BZF d   1       2.136  -2.220   1.298  0.00  0.00    -0.204 OA
ATOM      2  C2  BZF d   1       2.956  -1.131   1.518  0.00  0.00     0.174 A 
ATOM      3  C3  BZF d   1       2.365  -0.246   2.346  0.00  0.00    -0.012 A 
ATOM      4  C3A BZF d   1       1.134  -0.862   2.738  0.00  0.00    -0.107 A 
ATOM      5  C4  BZF d   1       0.115  -0.482   3.564  0.00  0.00     0.055 A 
ATOM      6  C5  BZF d   1      -0.979  -1.280   3.674  0.00  0.00    -0.016 A 
ATOM      7  C6  BZF d   1      -1.090  -2.461   2.969  0.00  0.00     0.022 A 
ATOM      8  C7  BZF d   1      -0.103  -2.882   2.142  0.00  0.00     0.029 A 
ATOM      9  C7A BZF d   1       1.018  -2.094   2.054  0.00  0.00     0.058 A 
ENDROOT
TORSDOF 0
ENDMDL
