MODEL 1
REMARK minimizedAffinity 9.48186398
REMARK minimizedRMSD -1
REMARK  0 active torsions:
REMARK  status: ('A' for Active; 'I' for Inactive)
ROOT
ATOM      1  O1  BZF d   1      -3.363  -3.870   0.265  0.00  0.00    -0.204 OA
ATOM      2  C2  BZF d   1      -3.274  -4.977  -0.556  0.00  0.00     0.174 A 
ATOM      3  C3  BZF d   1      -4.000  -6.000  -0.060  0.00  0.00    -0.012 A 
ATOM      4  C3A BZF d   1      -4.653  -5.471   1.098  0.00  0.00    -0.107 A 
ATOM      5  C4  BZF d   1      -5.522  -6.000   2.009  0.00  0.00     0.055 A 
ATOM      6  C5  BZF d   1      -5.916  -5.240   3.065  0.00  0.00    -0.016 A 
ATOM      7  C6  BZF d   1      -5.457  -3.951   3.243  0.00  0.00     0.022 A 
ATOM      8  C7  BZF d   1      -4.597  -3.382   2.363  0.00  0.00     0.029 A 
ATOM      9  C7A BZF d   1      -4.223  -4.136   1.278  0.00  0.00     0.058 A 
ENDROOT
TORSDOF 0
ENDMDL
