MODEL 1
REMARK minimizedAffinity 0.827951729
REMARK minimizedRMSD -1
REMARK  1 active torsions:
REMARK  status: ('A' for Active; 'I' for Inactive)
REMARK    1  A    between atoms: C1_2  and  C2_3 
ROOT
ATOM      1  C2  UNL d   1       5.209   1.407  -5.987  0.00  0.00    -0.073 A 
ATOM      2  C3  UNL d   1       3.809   1.385  -5.985  0.00  0.00    -0.002 A 
ATOM      3  C4  UNL d   1       3.085   2.577  -5.979  0.00  0.00     0.004 A 
ATOM      4  C5  UNL d   1       3.751   3.803  -5.983  0.00  0.00    -0.004 A 
ATOM      5  C6  UNL d   1       5.148   3.846  -5.997  0.00  0.00    -0.075 A 
ATOM      6  C7  UNL d   1       5.880   5.157  -5.998  0.00  0.00     0.076 C 
ATOM      7  C8  UNL d   1       5.869   2.644  -6.000  0.00  0.00     0.001 A 
ENDROOT
BRANCH   1   8
ATOM      8  C1  UNL d   1       5.995   0.122  -6.000  0.00  0.00     0.053 C 
ATOM      9  C   UNL d   1       5.854  -0.645  -4.695  0.00  0.00     0.018 C 
ENDBRANCH   1   8
TORSDOF 1
ENDMDL
