MODEL 1
REMARK minimizedAffinity -1.850227
REMARK minimizedRMSD -1
REMARK  1 active torsions:
REMARK  status: ('A' for Active; 'I' for Inactive)
REMARK    1  A    between atoms: C1_2  and  C2_3 
ROOT
ATOM      1  C2  UNL d   1       5.347   2.030  -4.699  0.00  0.00    -0.073 A 
ATOM      2  C3  UNL d   1       5.519   1.400  -5.937  0.00  0.00    -0.002 A 
ATOM      3  C4  UNL d   1       5.847   0.045  -6.000  0.00  0.00     0.004 A 
ATOM      4  C5  UNL d   1       6.000  -0.695  -4.827  0.00  0.00    -0.004 A 
ATOM      5  C6  UNL d   1       5.820  -0.087  -3.581  0.00  0.00    -0.075 A 
ATOM      6  C7  UNL d   1       5.982  -0.868  -2.310  0.00  0.00     0.076 C 
ATOM      7  C8  UNL d   1       5.494   1.275  -3.526  0.00  0.00     0.001 A 
ENDROOT
BRANCH   1   8
ATOM      8  C1  UNL d   1       4.987   3.491  -4.627  0.00  0.00     0.053 C 
ATOM      9  C   UNL d   1       4.362   3.989  -5.921  0.00  0.00     0.018 C 
ENDBRANCH   1   8
TORSDOF 1
ENDMDL
