MODEL 1
REMARK minimizedAffinity 2.62924385
REMARK minimizedRMSD -1
REMARK  1 active torsions:
REMARK  status: ('A' for Active; 'I' for Inactive)
REMARK    1  A    between atoms: C1_2  and  C2_3 
ROOT
ATOM      1  C2  UNL d   1      -2.686   2.861   0.557  0.00  0.00    -0.073 A 
ATOM      2  C3  UNL d   1      -2.216   3.934  -0.208  0.00  0.00    -0.002 A 
ATOM      3  C4  UNL d   1      -0.892   4.359  -0.089  0.00  0.00     0.004 A 
ATOM      4  C5  UNL d   1      -0.023   3.711   0.788  0.00  0.00    -0.004 A 
ATOM      5  C6  UNL d   1      -0.470   2.628   1.553  0.00  0.00    -0.075 A 
ATOM      6  C7  UNL d   1       0.451   1.922   2.503  0.00  0.00     0.076 C 
ATOM      7  C8  UNL d   1      -1.802   2.210   1.430  0.00  0.00     0.001 A 
ENDROOT
BRANCH   1   8
ATOM      8  C1  UNL d   1      -4.113   2.395   0.428  0.00  0.00     0.053 C 
ATOM      9  C   UNL d   1      -4.298   0.976   0.941  0.00  0.00     0.018 C 
ENDBRANCH   1   8
TORSDOF 1
ENDMDL
