MODEL 1
REMARK minimizedAffinity 4.77710152
REMARK minimizedRMSD -1
REMARK  1 active torsions:
REMARK  status: ('A' for Active; 'I' for Inactive)
REMARK    1  A    between atoms: C1_2  and  C2_3 
ROOT
ATOM      1  C2  UNL d   1       1.165  -4.227  -3.892  0.00  0.00    -0.073 A 
ATOM      2  C3  UNL d   1       2.255  -4.191  -3.015  0.00  0.00    -0.002 A 
ATOM      3  C4  UNL d   1       2.052  -4.016  -1.645  0.00  0.00     0.004 A 
ATOM      4  C5  UNL d   1       0.760  -3.882  -1.138  0.00  0.00    -0.004 A 
ATOM      5  C6  UNL d   1      -0.343  -3.928  -1.998  0.00  0.00    -0.075 A 
ATOM      6  C7  UNL d   1      -1.740  -3.783  -1.468  0.00  0.00     0.076 C 
ATOM      7  C8  UNL d   1      -0.131  -4.101  -3.372  0.00  0.00     0.001 A 
ENDROOT
BRANCH   1   8
ATOM      8  C1  UNL d   1       1.379  -4.422  -5.371  0.00  0.00     0.053 C 
ATOM      9  C   UNL d   1       1.414  -5.893  -5.752  0.00  0.00     0.018 C 
ENDBRANCH   1   8
TORSDOF 1
ENDMDL
