MODEL 1
REMARK minimizedAffinity 11.9908676
REMARK minimizedRMSD -1
REMARK  1 active torsions:
REMARK  status: ('A' for Active; 'I' for Inactive)
REMARK    1  A    between atoms: C1_2  and  C2_3 
ROOT
ATOM      1  C2  UNL d   1      -1.383  -2.554   0.616  0.00  0.00    -0.073 A 
ATOM      2  C3  UNL d   1      -0.394  -1.876  -0.105  0.00  0.00    -0.002 A 
ATOM      3  C4  UNL d   1      -0.051  -2.290  -1.393  0.00  0.00     0.004 A 
ATOM      4  C5  UNL d   1      -0.697  -3.380  -1.975  0.00  0.00    -0.004 A 
ATOM      5  C6  UNL d   1      -1.697  -4.063  -1.275  0.00  0.00    -0.075 A 
ATOM      6  C7  UNL d   1      -2.401  -5.239  -1.886  0.00  0.00     0.076 C 
ATOM      7  C8  UNL d   1      -2.034  -3.643   0.019  0.00  0.00     0.001 A 
ENDROOT
BRANCH   1   8
ATOM      8  C1  UNL d   1      -1.761  -2.106   2.004  0.00  0.00     0.053 C 
ATOM      9  C   UNL d   1      -1.967  -3.282   2.946  0.00  0.00     0.018 C 
ENDBRANCH   1   8
TORSDOF 1
ENDMDL
