MODEL 1
REMARK minimizedAffinity 11.323081
REMARK minimizedRMSD -1
REMARK  1 active torsions:
REMARK  status: ('A' for Active; 'I' for Inactive)
REMARK    1  A    between atoms: C1_2  and  C2_3 
ROOT
ATOM      1  C2  UNL d   1      -1.897   4.076  -3.759  0.00  0.00    -0.073 A 
ATOM      2  C3  UNL d   1      -1.514   5.323  -4.267  0.00  0.00    -0.002 A 
ATOM      3  C4  UNL d   1      -2.209   5.891  -5.336  0.00  0.00     0.004 A 
ATOM      4  C5  UNL d   1      -3.295   5.224  -5.902  0.00  0.00    -0.004 A 
ATOM      5  C6  UNL d   1      -3.700   3.983  -5.400  0.00  0.00    -0.075 A 
ATOM      6  C7  UNL d   1      -4.864   3.251  -6.000  0.00  0.00     0.076 C 
ATOM      7  C8  UNL d   1      -2.996   3.417  -4.329  0.00  0.00     0.001 A 
ENDROOT
BRANCH   1   8
ATOM      8  C1  UNL d   1      -1.154   3.461  -2.601  0.00  0.00     0.053 C 
ATOM      9  C   UNL d   1      -1.505   4.127  -1.280  0.00  0.00     0.018 C 
ENDBRANCH   1   8
TORSDOF 1
ENDMDL
