MODEL 1
REMARK minimizedAffinity 3.18856239
REMARK minimizedRMSD -1
REMARK  1 active torsions:
REMARK  status: ('A' for Active; 'I' for Inactive)
REMARK    1  A    between atoms: C1_2  and  C2_3 
ROOT
ATOM      1  C2  UNL d   1       1.006  -5.176  -3.488  0.00  0.00    -0.073 A 
ATOM      2  C3  UNL d   1       0.217  -5.717  -4.509  0.00  0.00    -0.002 A 
ATOM      3  C4  UNL d   1       0.775  -5.998  -5.757  0.00  0.00     0.004 A 
ATOM      4  C5  UNL d   1       2.126  -5.748  -5.994  0.00  0.00    -0.004 A 
ATOM      5  C6  UNL d   1       2.934  -5.219  -4.983  0.00  0.00    -0.075 A 
ATOM      6  C7  UNL d   1       4.389  -4.942  -5.222  0.00  0.00     0.076 C 
ATOM      7  C8  UNL d   1       2.366  -4.937  -3.733  0.00  0.00     0.001 A 
ENDROOT
BRANCH   1   8
ATOM      8  C1  UNL d   1       0.409  -4.877  -2.137  0.00  0.00     0.053 C 
ATOM      9  C   UNL d   1      -1.053  -4.473  -2.236  0.00  0.00     0.018 C 
ENDBRANCH   1   8
TORSDOF 1
ENDMDL
