MODEL 1
REMARK minimizedAffinity 4.62209797
REMARK minimizedRMSD -1
REMARK  1 active torsions:
REMARK  status: ('A' for Active; 'I' for Inactive)
REMARK    1  A    between atoms: C1_2  and  C2_3 
ROOT
ATOM      1  C2  UNL d   1       1.126   2.498   1.465  0.00  0.00    -0.073 A 
ATOM      2  C3  UNL d   1       0.559   3.334   0.496  0.00  0.00    -0.002 A 
ATOM      3  C4  UNL d   1      -0.822   3.531   0.456  0.00  0.00     0.004 A 
ATOM      4  C5  UNL d   1      -1.649   2.900   1.385  0.00  0.00    -0.004 A 
ATOM      5  C6  UNL d   1      -1.100   2.070   2.368  0.00  0.00    -0.075 A 
ATOM      6  C7  UNL d   1      -1.975   1.382   3.374  0.00  0.00     0.076 C 
ATOM      7  C8  UNL d   1       0.288   1.876   2.401  0.00  0.00     0.001 A 
ENDROOT
BRANCH   1   8
ATOM      8  C1  UNL d   1       2.617   2.288   1.517  0.00  0.00     0.053 C 
ATOM      9  C   UNL d   1       3.091   1.904   2.909  0.00  0.00     0.018 C 
ENDBRANCH   1   8
TORSDOF 1
ENDMDL
