MODEL 1
REMARK minimizedAffinity 11.314353
REMARK minimizedRMSD -1
REMARK  1 active torsions:
REMARK  status: ('A' for Active; 'I' for Inactive)
REMARK    1  A    between atoms: C1_2  and  C2_3 
ROOT
ATOM      1  C2  UNL d   1      -0.836  -2.618  -0.436  0.00  0.00    -0.073 A 
ATOM      2  C3  UNL d   1      -1.647  -2.857   0.680  0.00  0.00    -0.002 A 
ATOM      3  C4  UNL d   1      -1.572  -2.023   1.797  0.00  0.00     0.004 A 
ATOM      4  C5  UNL d   1      -0.693  -0.940   1.807  0.00  0.00    -0.004 A 
ATOM      5  C6  UNL d   1       0.116  -0.678   0.697  0.00  0.00    -0.075 A 
ATOM      6  C7  UNL d   1       1.068   0.482   0.693  0.00  0.00     0.076 C 
ATOM      7  C8  UNL d   1       0.037  -1.521  -0.419  0.00  0.00     0.001 A 
ENDROOT
BRANCH   1   8
ATOM      8  C1  UNL d   1      -0.918  -3.511  -1.646  0.00  0.00     0.053 C 
ATOM      9  C   UNL d   1       0.140  -3.166  -2.682  0.00  0.00     0.018 C 
ENDBRANCH   1   8
TORSDOF 1
ENDMDL
