MODEL 1
REMARK minimizedAffinity -0.83242166
REMARK minimizedRMSD -1
REMARK  1 active torsions:
REMARK  status: ('A' for Active; 'I' for Inactive)
REMARK    1  A    between atoms: C1_2  and  C2_3 
ROOT
ATOM      1  C2  UNL d   1       4.903   2.178  -5.930  0.00  0.00    -0.073 A 
ATOM      2  C3  UNL d   1       5.997   3.050  -5.939  0.00  0.00    -0.002 A 
ATOM      3  C4  UNL d   1       5.797   4.431  -5.976  0.00  0.00     0.004 A 
ATOM      4  C5  UNL d   1       4.504   4.953  -5.996  0.00  0.00    -0.004 A 
ATOM      5  C6  UNL d   1       3.397   4.097  -5.975  0.00  0.00    -0.075 A 
ATOM      6  C7  UNL d   1       2.000   4.642  -5.999  0.00  0.00     0.076 C 
ATOM      7  C8  UNL d   1       3.606   2.712  -5.941  0.00  0.00     0.001 A 
ENDROOT
BRANCH   1   8
ATOM      8  C1  UNL d   1       5.114   0.686  -5.884  0.00  0.00     0.053 C 
ATOM      9  C   UNL d   1       5.963   0.267  -4.694  0.00  0.00     0.018 C 
ENDBRANCH   1   8
TORSDOF 1
ENDMDL
