MODEL 1
REMARK minimizedAffinity 13.9106073
REMARK minimizedRMSD -1
REMARK  0 active torsions:
REMARK  status: ('A' for Active; 'I' for Inactive)
ROOT
ATOM      1  C4' PXY d   1       1.626  -1.884   1.133  0.00  0.00     0.077 C 
ATOM      2  C1' PXY d   1       3.230   3.066   3.650  0.00  0.00     0.077 C 
ATOM      3  C1  PXY d   1       2.814   1.773   2.979  0.00  0.00    -0.082 A 
ATOM      4  C2  PXY d   1       1.859   1.033   3.519  0.00  0.00     0.003 A 
ATOM      5  C3  PXY d   1       1.492  -0.156   2.942  0.00  0.00     0.003 A 
ATOM      6  C4  PXY d   1       2.072  -0.565   1.771  0.00  0.00    -0.082 A 
ATOM      7  C5  PXY d   1       3.039   0.189   1.208  0.00  0.00     0.003 A 
ATOM      8  C6  PXY d   1       3.426   1.372   1.831  0.00  0.00     0.003 A 
ENDROOT
TORSDOF 0
ENDMDL
