MODEL 1
REMARK minimizedAffinity 11.3625813
REMARK minimizedRMSD -1
REMARK  0 active torsions:
REMARK  status: ('A' for Active; 'I' for Inactive)
ROOT
ATOM      1  C4' PXY d   1      -1.274  -0.447   0.333  0.00  0.00     0.077 C 
ATOM      2  C1' PXY d   1      -3.502   2.358  -4.204  0.00  0.00     0.077 C 
ATOM      3  C1  PXY d   1      -2.920   1.611  -3.020  0.00  0.00    -0.082 A 
ATOM      4  C2  PXY d   1      -2.849   2.208  -1.841  0.00  0.00     0.003 A 
ATOM      5  C3  PXY d   1      -2.297   1.558  -0.767  0.00  0.00     0.003 A 
ATOM      6  C4  PXY d   1      -1.862   0.266  -0.888  0.00  0.00    -0.082 A 
ATOM      7  C5  PXY d   1      -1.941  -0.354  -2.085  0.00  0.00     0.003 A 
ATOM      8  C6  PXY d   1      -2.467   0.337  -3.173  0.00  0.00     0.003 A 
ENDROOT
TORSDOF 0
ENDMDL
