MODEL 1
REMARK minimizedAffinity 2.01140738
REMARK minimizedRMSD -1
REMARK  0 active torsions:
REMARK  status: ('A' for Active; 'I' for Inactive)
ROOT
ATOM      1  C4' PXY d   1       0.747   2.608   0.792  0.00  0.00     0.077 C 
ATOM      2  C1' PXY d   1       4.746  -1.440   1.811  0.00  0.00     0.077 C 
ATOM      3  C1  PXY d   1       3.692  -0.380   1.555  0.00  0.00    -0.082 A 
ATOM      4  C2  PXY d   1       3.355  -0.079   0.312  0.00  0.00     0.003 A 
ATOM      5  C3  PXY d   1       2.427   0.899   0.062  0.00  0.00     0.003 A 
ATOM      6  C4  PXY d   1       1.799   1.538   1.097  0.00  0.00    -0.082 A 
ATOM      7  C5  PXY d   1       2.129   1.229   2.369  0.00  0.00     0.003 A 
ATOM      8  C6  PXY d   1       3.103   0.262   2.600  0.00  0.00     0.003 A 
ENDROOT
TORSDOF 0
ENDMDL
