MODEL 1
REMARK minimizedAffinity 2.23237944
REMARK minimizedRMSD -1
REMARK  0 active torsions:
REMARK  status: ('A' for Active; 'I' for Inactive)
ROOT
ATOM      1  C4' PXY d   1       1.885  -0.695   2.113  0.00  0.00     0.077 C 
ATOM      2  C1' PXY d   1       3.371  -5.317   5.251  0.00  0.00     0.077 C 
ATOM      3  C1  PXY d   1       2.980  -4.113   4.418  0.00  0.00    -0.082 A 
ATOM      4  C2  PXY d   1       3.392  -2.907   4.777  0.00  0.00     0.003 A 
ATOM      5  C3  PXY d   1       3.020  -1.804   4.052  0.00  0.00     0.003 A 
ATOM      6  C4  PXY d   1       2.264  -1.941   2.919  0.00  0.00    -0.082 A 
ATOM      7  C5  PXY d   1       1.849  -3.168   2.541  0.00  0.00     0.003 A 
ATOM      8  C6  PXY d   1       2.202  -4.271   3.313  0.00  0.00     0.003 A 
ENDROOT
TORSDOF 0
ENDMDL
