MODEL 1
REMARK minimizedAffinity 4.35660124
REMARK minimizedRMSD -1
REMARK  0 active torsions:
REMARK  status: ('A' for Active; 'I' for Inactive)
ROOT
ATOM      1  C4' PXY d   1       2.642  -5.995  -0.215  0.00  0.00     0.077 C 
ATOM      2  C1' PXY d   1       2.932  -5.964  -5.988  0.00  0.00     0.077 C 
ATOM      3  C1  PXY d   1       2.844  -5.967  -4.475  0.00  0.00    -0.082 A 
ATOM      4  C2  PXY d   1       3.954  -5.950  -3.755  0.00  0.00     0.003 A 
ATOM      5  C3  PXY d   1       3.893  -5.985  -2.385  0.00  0.00     0.003 A 
ATOM      6  C4  PXY d   1       2.683  -5.983  -1.745  0.00  0.00    -0.082 A 
ATOM      7  C5  PXY d   1       1.546  -5.989  -2.472  0.00  0.00     0.003 A 
ATOM      8  C6  PXY d   1       1.629  -5.995  -3.862  0.00  0.00     0.003 A 
ENDROOT
TORSDOF 0
ENDMDL
