MODEL 1
REMARK minimizedAffinity 5.60268593
REMARK minimizedRMSD -1
REMARK  0 active torsions:
REMARK  status: ('A' for Active; 'I' for Inactive)
ROOT
ATOM      1  C4' PXY d   1       1.300  -1.657   5.080  0.00  0.00     0.077 C 
ATOM      2  C1' PXY d   1       2.727   2.389   1.206  0.00  0.00     0.077 C 
ATOM      3  C1  PXY d   1       2.350   1.320   2.213  0.00  0.00    -0.082 A 
ATOM      4  C2  PXY d   1       1.975   1.672   3.432  0.00  0.00     0.003 A 
ATOM      5  C3  PXY d   1       1.661   0.716   4.364  0.00  0.00     0.003 A 
ATOM      6  C4  PXY d   1       1.680  -0.611   4.028  0.00  0.00    -0.082 A 
ATOM      7  C5  PXY d   1       2.052  -0.978   2.783  0.00  0.00     0.003 A 
ATOM      8  C6  PXY d   1       2.406   0.006   1.864  0.00  0.00     0.003 A 
ENDROOT
TORSDOF 0
ENDMDL
