MODEL 1
REMARK minimizedAffinity 0.999269068
REMARK minimizedRMSD -1
REMARK  0 active torsions:
REMARK  status: ('A' for Active; 'I' for Inactive)
ROOT
ATOM      1  C4' PXY d   1      -1.606  -6.000   0.952  0.00  0.00     0.077 C 
ATOM      2  C1' PXY d   1       3.661  -5.941  -1.431  0.00  0.00     0.077 C 
ATOM      3  C1  PXY d   1       2.284  -5.961  -0.795  0.00  0.00    -0.082 A 
ATOM      4  C2  PXY d   1       1.209  -5.997  -1.564  0.00  0.00     0.003 A 
ATOM      5  C3  PXY d   1      -0.044  -5.984  -1.007  0.00  0.00     0.003 A 
ATOM      6  C4  PXY d   1      -0.196  -5.988   0.354  0.00  0.00    -0.082 A 
ATOM      7  C5  PXY d   1       0.896  -5.962   1.146  0.00  0.00     0.003 A 
ATOM      8  C6  PXY d   1       2.158  -5.934   0.560  0.00  0.00     0.003 A 
ENDROOT
TORSDOF 0
ENDMDL
