MODEL 1
REMARK minimizedAffinity 2.95915294
REMARK minimizedRMSD -1
REMARK  0 active torsions:
REMARK  status: ('A' for Active; 'I' for Inactive)
ROOT
ATOM      1  C4' PXY d   1       5.147  -5.989  -2.669  0.00  0.00     0.077 C 
ATOM      2  C1' PXY d   1       0.522  -5.989   0.800  0.00  0.00     0.077 C 
ATOM      3  C1  PXY d   1       1.742  -5.984  -0.100  0.00  0.00    -0.082 A 
ATOM      4  C2  PXY d   1       1.586  -5.972  -1.414  0.00  0.00     0.003 A 
ATOM      5  C3  PXY d   1       2.678  -6.000  -2.243  0.00  0.00     0.003 A 
ATOM      6  C4  PXY d   1       3.944  -5.985  -1.721  0.00  0.00    -0.082 A 
ATOM      7  C5  PXY d   1       4.111  -5.986  -0.382  0.00  0.00     0.003 A 
ATOM      8  C6  PXY d   1       2.990  -5.999   0.442  0.00  0.00     0.003 A 
ENDROOT
TORSDOF 0
ENDMDL
