MODEL 1
REMARK minimizedAffinity 0.851529717
REMARK minimizedRMSD -1
REMARK  0 active torsions:
REMARK  status: ('A' for Active; 'I' for Inactive)
ROOT
ATOM      1  C4' PXY d   1       1.463  -4.539   5.686  0.00  0.00     0.077 C 
ATOM      2  C1' PXY d   1       2.186  -0.669   1.454  0.00  0.00     0.077 C 
ATOM      3  C1  PXY d   1       1.997  -1.694   2.555  0.00  0.00    -0.082 A 
ATOM      4  C2  PXY d   1       1.395  -1.342   3.680  0.00  0.00     0.003 A 
ATOM      5  C3  PXY d   1       1.245  -2.247   4.698  0.00  0.00     0.003 A 
ATOM      6  C4  PXY d   1       1.667  -3.540   4.544  0.00  0.00    -0.082 A 
ATOM      7  C5  PXY d   1       2.272  -3.910   3.395  0.00  0.00     0.003 A 
ATOM      8  C6  PXY d   1       2.452  -2.965   2.389  0.00  0.00     0.003 A 
ENDROOT
TORSDOF 0
ENDMDL
