MODEL 1
REMARK minimizedAffinity -4.35974836
REMARK minimizedRMSD -1
REMARK  0 active torsions:
REMARK  status: ('A' for Active; 'I' for Inactive)
ROOT
ATOM      1  C   UNL d   1       0.386   1.096  -1.840  0.00  0.00     0.077 C 
ATOM      2  C1  UNL d   1       0.016   0.198  -0.697  0.00  0.00    -0.074 A 
ATOM      3  C2  UNL d   1      -0.775   0.664   0.357  0.00  0.00    -0.005 A 
ATOM      4  C3  UNL d   1      -1.119  -0.186   1.408  0.00  0.00     0.006 A 
ATOM      5  C4  UNL d   1      -0.676  -1.509   1.415  0.00  0.00    -0.005 A 
ATOM      6  C5  UNL d   1       0.116  -1.994   0.369  0.00  0.00    -0.074 A 
ATOM      7  C6  UNL d   1       0.593  -3.416   0.357  0.00  0.00     0.077 C 
ATOM      8  C7  UNL d   1       0.452  -1.135  -0.687  0.00  0.00    -0.001 A 
ENDROOT
TORSDOF 0
ENDMDL
