MODEL 1
REMARK minimizedAffinity -3.94856572
REMARK minimizedRMSD -1
REMARK  0 active torsions:
REMARK  status: ('A' for Active; 'I' for Inactive)
ROOT
ATOM      1  C   UNL d   1       0.768  -3.273   0.651  0.00  0.00     0.077 C 
ATOM      2  C1  UNL d   1       0.153  -1.913   0.505  0.00  0.00    -0.074 A 
ATOM      3  C2  UNL d   1      -1.023  -1.579   1.185  0.00  0.00    -0.005 A 
ATOM      4  C3  UNL d   1      -1.578  -0.307   1.048  0.00  0.00     0.006 A 
ATOM      5  C4  UNL d   1      -0.964   0.642   0.230  0.00  0.00    -0.005 A 
ATOM      6  C5  UNL d   1       0.212   0.327  -0.457  0.00  0.00    -0.074 A 
ATOM      7  C6  UNL d   1       0.890   1.339  -1.333  0.00  0.00     0.077 C 
ATOM      8  C7  UNL d   1       0.768  -0.951  -0.308  0.00  0.00    -0.001 A 
ENDROOT
TORSDOF 0
ENDMDL
