MODEL 1
REMARK minimizedAffinity -4.61678123
REMARK minimizedRMSD -1
REMARK  0 active torsions:
REMARK  status: ('A' for Active; 'I' for Inactive)
ROOT
ATOM      1  C   UNL d   1      -0.393  -2.837   1.110  0.00  0.00     0.077 C 
ATOM      2  C1  UNL d   1       0.049  -1.719   0.214  0.00  0.00    -0.074 A 
ATOM      3  C2  UNL d   1       0.382  -1.958  -1.123  0.00  0.00    -0.005 A 
ATOM      4  C3  UNL d   1       0.782  -0.906  -1.947  0.00  0.00     0.006 A 
ATOM      5  C4  UNL d   1       0.854   0.393  -1.443  0.00  0.00    -0.005 A 
ATOM      6  C5  UNL d   1       0.524   0.652  -0.109  0.00  0.00    -0.074 A 
ATOM      7  C6  UNL d   1       0.586   2.044   0.446  0.00  0.00     0.077 C 
ATOM      8  C7  UNL d   1       0.116  -0.410   0.711  0.00  0.00    -0.001 A 
ENDROOT
TORSDOF 0
ENDMDL
