MODEL 1
REMARK minimizedAffinity -4.64765215
REMARK minimizedRMSD -1
REMARK  0 active torsions:
REMARK  status: ('A' for Active; 'I' for Inactive)
ROOT
ATOM      1  C   UNL d   1       0.512  -3.539   0.276  0.00  0.00     0.077 C 
ATOM      2  C1  UNL d   1       0.034  -2.120   0.357  0.00  0.00    -0.074 A 
ATOM      3  C2  UNL d   1      -0.828  -1.708   1.379  0.00  0.00    -0.005 A 
ATOM      4  C3  UNL d   1      -1.257  -0.383   1.446  0.00  0.00     0.006 A 
ATOM      5  C4  UNL d   1      -0.829   0.543   0.494  0.00  0.00    -0.005 A 
ATOM      6  C5  UNL d   1       0.033   0.151  -0.535  0.00  0.00    -0.074 A 
ATOM      7  C6  UNL d   1       0.510   1.136  -1.560  0.00  0.00     0.077 C 
ATOM      8  C7  UNL d   1       0.465  -1.181  -0.591  0.00  0.00    -0.001 A 
ENDROOT
TORSDOF 0
ENDMDL
