MODEL 1
REMARK minimizedAffinity -4.27865934
REMARK minimizedRMSD -1
REMARK  0 active torsions:
REMARK  status: ('A' for Active; 'I' for Inactive)
ROOT
ATOM      1  C   UNL d   1      -0.449   2.158  -0.684  0.00  0.00     0.077 C 
ATOM      2  C1  UNL d   1      -0.077   0.752  -1.052  0.00  0.00    -0.074 A 
ATOM      3  C2  UNL d   1       0.284   0.424  -2.363  0.00  0.00    -0.005 A 
ATOM      4  C3  UNL d   1       0.636  -0.886  -2.688  0.00  0.00     0.006 A 
ATOM      5  C4  UNL d   1       0.632  -1.879  -1.708  0.00  0.00    -0.005 A 
ATOM      6  C5  UNL d   1       0.274  -1.569  -0.392  0.00  0.00    -0.074 A 
ATOM      7  C6  UNL d   1       0.274  -2.623   0.676  0.00  0.00     0.077 C 
ATOM      8  C7  UNL d   1      -0.072  -0.250  -0.071  0.00  0.00    -0.001 A 
ENDROOT
TORSDOF 0
ENDMDL
