MODEL 1
REMARK minimizedAffinity -4.22608662
REMARK minimizedRMSD -1
REMARK  0 active torsions:
REMARK  status: ('A' for Active; 'I' for Inactive)
ROOT
ATOM      1  C   UNL d   1       0.316  -3.740  -0.171  0.00  0.00     0.077 C 
ATOM      2  C1  UNL d   1      -0.033  -2.365   0.316  0.00  0.00    -0.074 A 
ATOM      3  C2  UNL d   1      -0.686  -2.179   1.539  0.00  0.00    -0.005 A 
ATOM      4  C3  UNL d   1      -0.996  -0.894   1.983  0.00  0.00     0.006 A 
ATOM      5  C4  UNL d   1      -0.658   0.217   1.209  0.00  0.00    -0.005 A 
ATOM      6  C5  UNL d   1      -0.005   0.051  -0.016  0.00  0.00    -0.074 A 
ATOM      7  C6  UNL d   1       0.374   1.235  -0.855  0.00  0.00     0.077 C 
ATOM      8  C7  UNL d   1       0.310  -1.243  -0.452  0.00  0.00    -0.001 A 
ENDROOT
TORSDOF 0
ENDMDL
