MODEL 1
REMARK minimizedAffinity -1.93545115
REMARK minimizedRMSD -1
REMARK  0 active torsions:
REMARK  status: ('A' for Active; 'I' for Inactive)
ROOT
ATOM      1  C   UNL d   1       0.586   0.846  -1.807  0.00  0.00     0.077 C 
ATOM      2  C1  UNL d   1      -0.010   0.107  -0.646  0.00  0.00    -0.074 A 
ATOM      3  C2  UNL d   1      -0.576   0.797   0.431  0.00  0.00    -0.005 A 
ATOM      4  C3  UNL d   1      -1.135   0.097   1.500  0.00  0.00     0.006 A 
ATOM      5  C4  UNL d   1      -1.134  -1.299   1.503  0.00  0.00    -0.005 A 
ATOM      6  C5  UNL d   1      -0.573  -2.006   0.434  0.00  0.00    -0.074 A 
ATOM      7  C6  UNL d   1      -0.572  -3.506   0.417  0.00  0.00     0.077 C 
ATOM      8  C7  UNL d   1      -0.020  -1.295  -0.639  0.00  0.00    -0.001 A 
ENDROOT
TORSDOF 0
ENDMDL
