MODEL 1
REMARK minimizedAffinity -2.63165212
REMARK minimizedRMSD -1
REMARK  0 active torsions:
REMARK  status: ('A' for Active; 'I' for Inactive)
ROOT
ATOM      1  C   UNL d   1       0.419  -3.383   0.595  0.00  0.00     0.077 C 
ATOM      2  C1  UNL d   1      -0.028  -1.958   0.736  0.00  0.00    -0.074 A 
ATOM      3  C2  UNL d   1      -1.153  -1.630   1.499  0.00  0.00    -0.005 A 
ATOM      4  C3  UNL d   1      -1.552  -0.300   1.628  0.00  0.00     0.006 A 
ATOM      5  C4  UNL d   1      -0.830   0.714   0.997  0.00  0.00    -0.005 A 
ATOM      6  C5  UNL d   1       0.298   0.406   0.231  0.00  0.00    -0.074 A 
ATOM      7  C6  UNL d   1       1.090   1.484  -0.446  0.00  0.00     0.077 C 
ATOM      8  C7  UNL d   1       0.696  -0.933   0.111  0.00  0.00    -0.001 A 
ENDROOT
TORSDOF 0
ENDMDL
