MODEL 1
REMARK minimizedAffinity -0.970099926
REMARK minimizedRMSD -1
REMARK  0 active torsions:
REMARK  status: ('A' for Active; 'I' for Inactive)
ROOT
ATOM      1  C   UNL d   1       0.523  -0.147  -2.793  0.00  0.00     0.077 C 
ATOM      2  C1  UNL d   1      -0.009  -0.195  -1.392  0.00  0.00    -0.074 A 
ATOM      3  C2  UNL d   1      -0.292   0.980  -0.689  0.00  0.00    -0.005 A 
ATOM      4  C3  UNL d   1      -0.795   0.919   0.611  0.00  0.00     0.006 A 
ATOM      5  C4  UNL d   1      -1.020  -0.316   1.220  0.00  0.00    -0.005 A 
ATOM      6  C5  UNL d   1      -0.744  -1.502   0.532  0.00  0.00    -0.074 A 
ATOM      7  C6  UNL d   1      -0.990  -2.838   1.168  0.00  0.00     0.077 C 
ATOM      8  C7  UNL d   1      -0.245  -1.433  -0.776  0.00  0.00    -0.001 A 
ENDROOT
TORSDOF 0
ENDMDL
