MODEL 1
REMARK minimizedAffinity -5.14368486
REMARK minimizedRMSD -1
REMARK  0 active torsions:
REMARK  status: ('A' for Active; 'I' for Inactive)
ROOT
ATOM      1  C   UNL d   1       0.646  -2.826   0.917  0.00  0.00     0.077 C 
ATOM      2  C1  UNL d   1       0.542  -1.689  -0.055  0.00  0.00    -0.074 A 
ATOM      3  C2  UNL d   1       0.603  -1.914  -1.434  0.00  0.00    -0.005 A 
ATOM      4  C3  UNL d   1       0.495  -0.847  -2.326  0.00  0.00     0.006 A 
ATOM      5  C4  UNL d   1       0.327   0.453  -1.849  0.00  0.00    -0.005 A 
ATOM      6  C5  UNL d   1       0.263   0.698  -0.474  0.00  0.00    -0.074 A 
ATOM      7  C6  UNL d   1       0.073   2.088   0.055  0.00  0.00     0.077 C 
ATOM      8  C7  UNL d   1       0.365  -0.380   0.416  0.00  0.00    -0.001 A 
ENDROOT
TORSDOF 0
ENDMDL
