MODEL 1
REMARK minimizedAffinity -3.27644372
REMARK minimizedRMSD -1
REMARK  0 active torsions:
REMARK  status: ('A' for Active; 'I' for Inactive)
ROOT
ATOM      1  C   UNL d   1       0.040  -3.667   0.266  0.00  0.00     0.077 C 
ATOM      2  C1  UNL d   1       0.191  -2.364  -0.460  0.00  0.00    -0.074 A 
ATOM      3  C2  UNL d   1       0.685  -2.322  -1.768  0.00  0.00    -0.005 A 
ATOM      4  C3  UNL d   1       0.811  -1.103  -2.434  0.00  0.00     0.006 A 
ATOM      5  C4  UNL d   1       0.446   0.085  -1.799  0.00  0.00    -0.005 A 
ATOM      6  C5  UNL d   1      -0.050   0.063  -0.492  0.00  0.00    -0.074 A 
ATOM      7  C6  UNL d   1      -0.457   1.330   0.201  0.00  0.00     0.077 C 
ATOM      8  C7  UNL d   1      -0.181  -1.166   0.168  0.00  0.00    -0.001 A 
ENDROOT
TORSDOF 0
ENDMDL
