MODEL 1
REMARK minimizedAffinity -4.38039923
REMARK minimizedRMSD -1
REMARK  0 active torsions:
REMARK  status: ('A' for Active; 'I' for Inactive)
ROOT
ATOM      1  C   UNL d   1       0.018  -3.300   0.346  0.00  0.00     0.077 C 
ATOM      2  C1  UNL d   1      -0.252  -1.835   0.521  0.00  0.00    -0.074 A 
ATOM      3  C2  UNL d   1      -1.385  -1.390   1.209  0.00  0.00    -0.005 A 
ATOM      4  C3  UNL d   1      -1.617  -0.024   1.372  0.00  0.00     0.006 A 
ATOM      5  C4  UNL d   1      -0.720   0.909   0.849  0.00  0.00    -0.005 A 
ATOM      6  C5  UNL d   1       0.419   0.482   0.158  0.00  0.00    -0.074 A 
ATOM      7  C6  UNL d   1       1.398   1.471  -0.401  0.00  0.00     0.077 C 
ATOM      8  C7  UNL d   1       0.649  -0.892   0.005  0.00  0.00    -0.001 A 
ENDROOT
TORSDOF 0
ENDMDL
