MODEL 1
REMARK minimizedAffinity -4.66785526
REMARK minimizedRMSD -1
REMARK  2 active torsions:
REMARK  status: ('A' for Active; 'I' for Inactive)
REMARK    1  A    between atoms: C1_2  and  C2_3 
REMARK    2  A    between atoms: C2_3  and  C3_4 
ROOT
ATOM      1  C3  UNL d   1       0.625   0.306  -0.200  0.00  0.00    -0.075 A 
ATOM      2  C4  UNL d   1       0.827  -0.612  -1.240  0.00  0.00     0.002 A 
ATOM      3  C5  UNL d   1       1.586  -0.262  -2.358  0.00  0.00     0.002 A 
ATOM      4  C6  UNL d   1       2.142   1.012  -2.454  0.00  0.00    -0.004 A 
ATOM      5  C7  UNL d   1       1.934   1.938  -1.435  0.00  0.00     0.002 A 
ATOM      6  C8  UNL d   1       1.179   1.589  -0.313  0.00  0.00     0.002 A 
ENDROOT
BRANCH   1   7
ATOM      7  C2  UNL d   1      -0.170  -0.076   1.025  0.00  0.00     0.056 C 
BRANCH   7   8
ATOM      8  C1  UNL d   1      -1.688   0.012   0.836  0.00  0.00     0.007 C 
ATOM      9  C   UNL d   1      -2.408   0.613   2.036  0.00  0.00     0.009 C 
ENDBRANCH   7   8
ENDBRANCH   1   7
TORSDOF 2
ENDMDL
