MODEL 1
REMARK minimizedAffinity -3.90380478
REMARK minimizedRMSD -1
REMARK  2 active torsions:
REMARK  status: ('A' for Active; 'I' for Inactive)
REMARK    1  A    between atoms: C1_2  and  C2_3 
REMARK    2  A    between atoms: C2_3  and  C3_4 
ROOT
ATOM      1  C3  UNL d   1      -0.338   0.110   0.852  0.00  0.00    -0.075 A 
ATOM      2  C4  UNL d   1       0.411   1.268   0.597  0.00  0.00     0.002 A 
ATOM      3  C5  UNL d   1       1.328   1.302  -0.454  0.00  0.00     0.002 A 
ATOM      4  C6  UNL d   1       1.514   0.179  -1.256  0.00  0.00    -0.004 A 
ATOM      5  C7  UNL d   1       0.788  -0.983  -1.003  0.00  0.00     0.002 A 
ATOM      6  C8  UNL d   1      -0.133  -1.018   0.046  0.00  0.00     0.002 A 
ENDROOT
BRANCH   1   7
ATOM      7  C2  UNL d   1      -1.352   0.076   1.970  0.00  0.00     0.056 C 
BRANCH   7   8
ATOM      8  C1  UNL d   1      -2.729  -0.447   1.546  0.00  0.00     0.007 C 
ATOM      9  C   UNL d   1      -3.875   0.452   1.991  0.00  0.00     0.009 C 
ENDBRANCH   7   8
ENDBRANCH   1   7
TORSDOF 2
ENDMDL
