MODEL 1
REMARK minimizedAffinity -4.31721592
REMARK minimizedRMSD -1
REMARK  2 active torsions:
REMARK  status: ('A' for Active; 'I' for Inactive)
REMARK    1  A    between atoms: C1_2  and  C2_3 
REMARK    2  A    between atoms: C2_3  and  C3_4 
ROOT
ATOM      1  C3  UNL d   1       0.049   0.061   0.414  0.00  0.00    -0.075 A 
ATOM      2  C4  UNL d   1       0.070  -0.661  -0.788  0.00  0.00     0.002 A 
ATOM      3  C5  UNL d   1       0.933  -0.292  -1.821  0.00  0.00     0.002 A 
ATOM      4  C6  UNL d   1       1.776   0.807  -1.669  0.00  0.00    -0.004 A 
ATOM      5  C7  UNL d   1       1.751   1.541  -0.486  0.00  0.00     0.002 A 
ATOM      6  C8  UNL d   1       0.892   1.172   0.551  0.00  0.00     0.002 A 
ENDROOT
BRANCH   1   7
ATOM      7  C2  UNL d   1      -0.861  -0.351   1.547  0.00  0.00     0.056 C 
BRANCH   7   8
ATOM      8  C1  UNL d   1      -1.897   0.710   1.932  0.00  0.00     0.007 C 
ATOM      9  C   UNL d   1      -3.322   0.318   1.564  0.00  0.00     0.009 C 
ENDBRANCH   7   8
ENDBRANCH   1   7
TORSDOF 2
ENDMDL
