MODEL 1
REMARK minimizedAffinity -5.77750158
REMARK minimizedRMSD -1
REMARK  2 active torsions:
REMARK  status: ('A' for Active; 'I' for Inactive)
REMARK    1  A    between atoms: C1_2  and  C2_3 
REMARK    2  A    between atoms: C2_3  and  C3_4 
ROOT
ATOM      1  C3  UNL d   1       1.551  -0.071  -1.663  0.00  0.00    -0.075 A 
ATOM      2  C4  UNL d   1       2.071   1.154  -2.105  0.00  0.00     0.002 A 
ATOM      3  C5  UNL d   1       1.822   2.328  -1.393  0.00  0.00     0.002 A 
ATOM      4  C6  UNL d   1       1.044   2.294  -0.239  0.00  0.00    -0.004 A 
ATOM      5  C7  UNL d   1       0.508   1.086   0.201  0.00  0.00     0.002 A 
ATOM      6  C8  UNL d   1       0.758  -0.091  -0.507  0.00  0.00     0.002 A 
ENDROOT
BRANCH   1   7
ATOM      7  C2  UNL d   1       1.840  -1.350  -2.412  0.00  0.00     0.056 C 
BRANCH   7   8
ATOM      8  C1  UNL d   1       1.814  -2.606  -1.535  0.00  0.00     0.007 C 
ATOM      9  C   UNL d   1       3.195  -3.035  -1.059  0.00  0.00     0.009 C 
ENDBRANCH   7   8
ENDBRANCH   1   7
TORSDOF 2
ENDMDL
