MODEL 1
REMARK minimizedAffinity -3.80352712
REMARK minimizedRMSD -1
REMARK  2 active torsions:
REMARK  status: ('A' for Active; 'I' for Inactive)
REMARK    1  A    between atoms: C1_2  and  C2_3 
REMARK    2  A    between atoms: C2_3  and  C3_4 
ROOT
ATOM      1  C3  UNL d   1       0.340   0.272  -0.164  0.00  0.00    -0.075 A 
ATOM      2  C4  UNL d   1      -0.056  -0.546  -1.232  0.00  0.00     0.002 A 
ATOM      3  C5  UNL d   1       0.717  -0.623  -2.391  0.00  0.00     0.002 A 
ATOM      4  C6  UNL d   1       1.888   0.124  -2.501  0.00  0.00    -0.004 A 
ATOM      5  C7  UNL d   1       2.282   0.953  -1.453  0.00  0.00     0.002 A 
ATOM      6  C8  UNL d   1       1.513   1.028  -0.291  0.00  0.00     0.002 A 
ENDROOT
BRANCH   1   7
ATOM      7  C2  UNL d   1      -0.477   0.337   1.104  0.00  0.00     0.056 C 
BRANCH   7   8
ATOM      8  C1  UNL d   1      -1.870  -0.289   0.982  0.00  0.00     0.007 C 
ATOM      9  C   UNL d   1      -2.938   0.467   1.760  0.00  0.00     0.009 C 
ENDBRANCH   7   8
ENDBRANCH   1   7
TORSDOF 2
ENDMDL
