MODEL 1
REMARK minimizedAffinity -5.12482405
REMARK minimizedRMSD -1
REMARK  2 active torsions:
REMARK  status: ('A' for Active; 'I' for Inactive)
REMARK    1  A    between atoms: C1_2  and  C2_3 
REMARK    2  A    between atoms: C2_3  and  C3_4 
ROOT
ATOM      1  C3  UNL d   1       0.170   0.261  -0.811  0.00  0.00    -0.075 A 
ATOM      2  C4  UNL d   1       0.282  -0.278  -2.101  0.00  0.00     0.002 A 
ATOM      3  C5  UNL d   1       1.444  -0.088  -2.849  0.00  0.00     0.002 A 
ATOM      4  C6  UNL d   1       2.503   0.649  -2.323  0.00  0.00    -0.004 A 
ATOM      5  C7  UNL d   1       2.395   1.203  -1.049  0.00  0.00     0.002 A 
ATOM      6  C8  UNL d   1       1.235   1.012  -0.296  0.00  0.00     0.002 A 
ENDROOT
BRANCH   1   7
ATOM      7  C2  UNL d   1      -1.074   0.035   0.015  0.00  0.00     0.056 C 
BRANCH   7   8
ATOM      8  C1  UNL d   1      -0.826   0.031   1.527  0.00  0.00     0.007 C 
ATOM      9  C   UNL d   1      -2.053   0.424   2.338  0.00  0.00     0.009 C 
ENDBRANCH   7   8
ENDBRANCH   1   7
TORSDOF 2
ENDMDL
