MODEL 1
REMARK minimizedAffinity -5.25976086
REMARK minimizedRMSD -1
REMARK  2 active torsions:
REMARK  status: ('A' for Active; 'I' for Inactive)
REMARK    1  A    between atoms: C1_2  and  C2_3 
REMARK    2  A    between atoms: C2_3  and  C3_4 
ROOT
ATOM      1  C3  UNL d   1       0.677  -0.020  -0.692  0.00  0.00    -0.075 A 
ATOM      2  C4  UNL d   1       0.708  -1.418  -0.587  0.00  0.00     0.002 A 
ATOM      3  C5  UNL d   1       1.527  -2.173  -1.427  0.00  0.00     0.002 A 
ATOM      4  C6  UNL d   1       2.315  -1.543  -2.387  0.00  0.00    -0.004 A 
ATOM      5  C7  UNL d   1       2.279  -0.156  -2.512  0.00  0.00     0.002 A 
ATOM      6  C8  UNL d   1       1.464   0.603  -1.670  0.00  0.00     0.002 A 
ENDROOT
BRANCH   1   7
ATOM      7  C2  UNL d   1      -0.185   0.806   0.233  0.00  0.00     0.056 C 
BRANCH   7   8
ATOM      8  C1  UNL d   1      -0.945  -0.019   1.278  0.00  0.00     0.007 C 
ATOM      9  C   UNL d   1      -2.168   0.698   1.834  0.00  0.00     0.009 C 
ENDBRANCH   7   8
ENDBRANCH   1   7
TORSDOF 2
ENDMDL
