MODEL 1
REMARK minimizedAffinity -3.96882176
REMARK minimizedRMSD -1
REMARK  2 active torsions:
REMARK  status: ('A' for Active; 'I' for Inactive)
REMARK    1  A    between atoms: C1_2  and  C2_3 
REMARK    2  A    between atoms: C2_3  and  C3_4 
ROOT
ATOM      1  C3  UNL d   1       0.270   0.269  -0.205  0.00  0.00    -0.075 A 
ATOM      2  C4  UNL d   1       1.081   1.394   0.003  0.00  0.00     0.002 A 
ATOM      3  C5  UNL d   1       1.990   1.803  -0.973  0.00  0.00     0.002 A 
ATOM      4  C6  UNL d   1       2.108   1.087  -2.163  0.00  0.00    -0.004 A 
ATOM      5  C7  UNL d   1       1.319  -0.042  -2.373  0.00  0.00     0.002 A 
ATOM      6  C8  UNL d   1       0.405  -0.450  -1.400  0.00  0.00     0.002 A 
ENDROOT
BRANCH   1   7
ATOM      7  C2  UNL d   1      -0.736  -0.161   0.836  0.00  0.00     0.056 C 
BRANCH   7   8
ATOM      8  C1  UNL d   1      -2.178  -0.221   0.321  0.00  0.00     0.007 C 
ATOM      9  C   UNL d   1      -3.182   0.418   1.271  0.00  0.00     0.009 C 
ENDBRANCH   7   8
ENDBRANCH   1   7
TORSDOF 2
ENDMDL
