MODEL 1
REMARK minimizedAffinity -5.22806835
REMARK minimizedRMSD -1
REMARK  2 active torsions:
REMARK  status: ('A' for Active; 'I' for Inactive)
REMARK    1  A    between atoms: C1_2  and  C2_3 
REMARK    2  A    between atoms: C2_3  and  C3_4 
ROOT
ATOM      1  C3  UNL d   1       0.047  -0.102  -0.163  0.00  0.00    -0.075 A 
ATOM      2  C4  UNL d   1      -0.518   0.293   1.059  0.00  0.00     0.002 A 
ATOM      3  C5  UNL d   1      -0.884  -0.659   2.011  0.00  0.00     0.002 A 
ATOM      4  C6  UNL d   1      -0.699  -2.015   1.751  0.00  0.00    -0.004 A 
ATOM      5  C7  UNL d   1      -0.154  -2.420   0.534  0.00  0.00     0.002 A 
ATOM      6  C8  UNL d   1       0.217  -1.469  -0.419  0.00  0.00     0.002 A 
ENDROOT
BRANCH   1   7
ATOM      7  C2  UNL d   1       0.472   0.925  -1.185  0.00  0.00     0.056 C 
BRANCH   7   8
ATOM      8  C1  UNL d   1       1.826   0.631  -1.839  0.00  0.00     0.007 C 
ATOM      9  C   UNL d   1       3.010   1.092  -1.001  0.00  0.00     0.009 C 
ENDBRANCH   7   8
ENDBRANCH   1   7
TORSDOF 2
ENDMDL
