MODEL 1
REMARK minimizedAffinity -5.46782589
REMARK minimizedRMSD -1
REMARK  2 active torsions:
REMARK  status: ('A' for Active; 'I' for Inactive)
REMARK    1  A    between atoms: C1_2  and  C2_3 
REMARK    2  A    between atoms: C2_3  and  C3_4 
ROOT
ATOM      1  C3  UNL d   1      -0.255  -0.630   0.100  0.00  0.00    -0.075 A 
ATOM      2  C4  UNL d   1       0.368   0.247  -0.799  0.00  0.00     0.002 A 
ATOM      3  C5  UNL d   1       1.109  -0.248  -1.873  0.00  0.00     0.002 A 
ATOM      4  C6  UNL d   1       1.245  -1.623  -2.054  0.00  0.00    -0.004 A 
ATOM      5  C7  UNL d   1       0.644  -2.503  -1.157  0.00  0.00     0.002 A 
ATOM      6  C8  UNL d   1      -0.102  -2.011  -0.084  0.00  0.00     0.002 A 
ENDROOT
BRANCH   1   7
ATOM      7  C2  UNL d   1      -1.083  -0.101   1.247  0.00  0.00     0.056 C 
BRANCH   7   8
ATOM      8  C1  UNL d   1      -2.590  -0.331   1.087  0.00  0.00     0.007 C 
ATOM      9  C   UNL d   1      -3.436   0.746   1.753  0.00  0.00     0.009 C 
ENDBRANCH   7   8
ENDBRANCH   1   7
TORSDOF 2
ENDMDL
