MODEL 1
REMARK minimizedAffinity -5.09017611
REMARK minimizedRMSD -1
REMARK  2 active torsions:
REMARK  status: ('A' for Active; 'I' for Inactive)
REMARK    1  A    between atoms: C1_2  and  C2_3 
REMARK    2  A    between atoms: C2_3  and  C3_4 
ROOT
ATOM      1  C3  UNL d   1      -0.354   0.159   0.296  0.00  0.00    -0.075 A 
ATOM      2  C4  UNL d   1       0.658   1.130   0.306  0.00  0.00     0.002 A 
ATOM      3  C5  UNL d   1       1.500   1.287  -0.794  0.00  0.00     0.002 A 
ATOM      4  C6  UNL d   1       1.350   0.470  -1.913  0.00  0.00    -0.004 A 
ATOM      5  C7  UNL d   1       0.359  -0.509  -1.927  0.00  0.00     0.002 A 
ATOM      6  C8  UNL d   1      -0.489  -0.665  -0.829  0.00  0.00     0.002 A 
ENDROOT
BRANCH   1   7
ATOM      7  C2  UNL d   1      -1.289   0.004   1.472  0.00  0.00     0.056 C 
BRANCH   7   8
ATOM      8  C1  UNL d   1      -2.743  -0.277   1.080  0.00  0.00     0.007 C 
ATOM      9  C   UNL d   1      -3.708   0.810   1.533  0.00  0.00     0.009 C 
ENDBRANCH   7   8
ENDBRANCH   1   7
TORSDOF 2
ENDMDL
