MODEL 1
REMARK minimizedAffinity -5.07053232
REMARK minimizedRMSD -1
REMARK  2 active torsions:
REMARK  status: ('A' for Active; 'I' for Inactive)
REMARK    1  A    between atoms: C1_2  and  C2_3 
REMARK    2  A    between atoms: C2_3  and  C3_4 
ROOT
ATOM      1  C3  UNL d   1       0.826  -0.065  -1.514  0.00  0.00    -0.075 A 
ATOM      2  C4  UNL d   1       2.071   0.413  -1.947  0.00  0.00     0.002 A 
ATOM      3  C5  UNL d   1       2.717   1.436  -1.252  0.00  0.00     0.002 A 
ATOM      4  C6  UNL d   1       2.124   1.999  -0.124  0.00  0.00    -0.004 A 
ATOM      5  C7  UNL d   1       0.879   1.543   0.305  0.00  0.00     0.002 A 
ATOM      6  C8  UNL d   1       0.232   0.517  -0.386  0.00  0.00     0.002 A 
ENDROOT
BRANCH   1   7
ATOM      7  C2  UNL d   1       0.134  -1.192  -2.245  0.00  0.00     0.056 C 
BRANCH   7   8
ATOM      8  C1  UNL d   1       0.824  -2.551  -2.090  0.00  0.00     0.007 C 
ATOM      9  C   UNL d   1       0.912  -3.019  -0.644  0.00  0.00     0.009 C 
ENDBRANCH   7   8
ENDBRANCH   1   7
TORSDOF 2
ENDMDL
