MODEL 1
REMARK minimizedAffinity -4.31693792
REMARK minimizedRMSD -1
REMARK  2 active torsions:
REMARK  status: ('A' for Active; 'I' for Inactive)
REMARK    1  A    between atoms: C1_2  and  C2_3 
REMARK    2  A    between atoms: C2_3  and  C3_4 
ROOT
ATOM      1  C3  UNL d   1       0.167  -0.130   0.321  0.00  0.00    -0.075 A 
ATOM      2  C4  UNL d   1       0.783   1.130   0.312  0.00  0.00     0.002 A 
ATOM      3  C5  UNL d   1       1.577   1.523  -0.765  0.00  0.00     0.002 A 
ATOM      4  C6  UNL d   1       1.774   0.659  -1.841  0.00  0.00    -0.004 A 
ATOM      5  C7  UNL d   1       1.180  -0.601  -1.835  0.00  0.00     0.002 A 
ATOM      6  C8  UNL d   1       0.382  -0.995  -0.760  0.00  0.00     0.002 A 
ENDROOT
BRANCH   1   7
ATOM      7  C2  UNL d   1      -0.718  -0.550   1.471  0.00  0.00     0.056 C 
BRANCH   7   8
ATOM      8  C1  UNL d   1      -1.742   0.510   1.889  0.00  0.00     0.007 C 
ATOM      9  C   UNL d   1      -3.182   0.023   1.796  0.00  0.00     0.009 C 
ENDBRANCH   7   8
ENDBRANCH   1   7
TORSDOF 2
ENDMDL
