MODEL 1
REMARK minimizedAffinity -4.99022818
REMARK minimizedRMSD -1
REMARK  2 active torsions:
REMARK  status: ('A' for Active; 'I' for Inactive)
REMARK    1  A    between atoms: C1_2  and  C2_3 
REMARK    2  A    between atoms: C2_3  and  C3_4 
ROOT
ATOM      1  C3  UNL d   1      -0.104   0.124   0.100  0.00  0.00    -0.075 A 
ATOM      2  C4  UNL d   1       0.282  -0.507  -1.092  0.00  0.00     0.002 A 
ATOM      3  C5  UNL d   1       1.101   0.151  -2.009  0.00  0.00     0.002 A 
ATOM      4  C6  UNL d   1       1.535   1.450  -1.753  0.00  0.00    -0.004 A 
ATOM      5  C7  UNL d   1       1.145   2.093  -0.580  0.00  0.00     0.002 A 
ATOM      6  C8  UNL d   1       0.329   1.434   0.342  0.00  0.00     0.002 A 
ENDROOT
BRANCH   1   7
ATOM      7  C2  UNL d   1      -0.966  -0.595   1.111  0.00  0.00     0.056 C 
BRANCH   7   8
ATOM      8  C1  UNL d   1      -2.130   0.245   1.647  0.00  0.00     0.007 C 
ATOM      9  C   UNL d   1      -3.495  -0.362   1.349  0.00  0.00     0.009 C 
ENDBRANCH   7   8
ENDBRANCH   1   7
TORSDOF 2
ENDMDL
