MODEL 1
REMARK minimizedAffinity -4.23591852
REMARK minimizedRMSD -1
REMARK  2 active torsions:
REMARK  status: ('A' for Active; 'I' for Inactive)
REMARK    1  A    between atoms: C1_2  and  C2_3 
REMARK    2  A    between atoms: C2_3  and  C3_4 
ROOT
ATOM      1  C3  UNL d   1       0.234   0.531   0.102  0.00  0.00    -0.075 A 
ATOM      2  C4  UNL d   1      -0.293  -0.580   0.777  0.00  0.00     0.002 A 
ATOM      3  C5  UNL d   1      -0.261  -1.846   0.192  0.00  0.00     0.002 A 
ATOM      4  C6  UNL d   1       0.287  -2.015  -1.078  0.00  0.00    -0.004 A 
ATOM      5  C7  UNL d   1       0.798  -0.916  -1.765  0.00  0.00     0.002 A 
ATOM      6  C8  UNL d   1       0.772   0.351  -1.179  0.00  0.00     0.002 A 
ENDROOT
BRANCH   1   7
ATOM      7  C2  UNL d   1       0.229   1.898   0.742  0.00  0.00     0.056 C 
BRANCH   7   8
ATOM      8  C1  UNL d   1       1.594   2.594   0.737  0.00  0.00     0.007 C 
ATOM      9  C   UNL d   1       1.494   4.111   0.640  0.00  0.00     0.009 C 
ENDBRANCH   7   8
ENDBRANCH   1   7
TORSDOF 2
ENDMDL
