MODEL 1
REMARK minimizedAffinity -4.35526466
REMARK minimizedRMSD -1
REMARK  2 active torsions:
REMARK  status: ('A' for Active; 'I' for Inactive)
REMARK    1  A    between atoms: C1_2  and  C2_3 
REMARK    2  A    between atoms: C2_3  and  C3_4 
ROOT
ATOM      1  C3  UNL d   1       0.621   0.157   0.013  0.00  0.00    -0.075 A 
ATOM      2  C4  UNL d   1       0.620  -1.227  -0.213  0.00  0.00     0.002 A 
ATOM      3  C5  UNL d   1       1.400  -1.780  -1.228  0.00  0.00     0.002 A 
ATOM      4  C6  UNL d   1       2.181  -0.958  -2.037  0.00  0.00    -0.004 A 
ATOM      5  C7  UNL d   1       2.178   0.420  -1.833  0.00  0.00     0.002 A 
ATOM      6  C8  UNL d   1       1.402   0.976  -0.814  0.00  0.00     0.002 A 
ENDROOT
BRANCH   1   7
ATOM      7  C2  UNL d   1      -0.198   0.759   1.129  0.00  0.00     0.056 C 
BRANCH   7   8
ATOM      8  C1  UNL d   1      -1.158  -0.228   1.800  0.00  0.00     0.007 C 
ATOM      9  C   UNL d   1      -2.450   0.421   2.279  0.00  0.00     0.009 C 
ENDBRANCH   7   8
ENDBRANCH   1   7
TORSDOF 2
ENDMDL
