MODEL 1
REMARK minimizedAffinity -0.841435254
REMARK minimizedRMSD -1
REMARK  1 active torsions:
REMARK  status: ('A' for Active; 'I' for Inactive)
REMARK    1  A    between atoms: C1_2  and  C2_3 
ROOT
ATOM      1  C2  UNL d   1       4.837   3.821   4.029  0.00  0.00    -0.077 A 
ATOM      2  C3  UNL d   1       4.829   3.649   2.638  0.00  0.00     0.002 A 
ATOM      3  C4  UNL d   1       3.730   3.064   2.005  0.00  0.00     0.002 A 
ATOM      4  C5  UNL d   1       2.631   2.651   2.755  0.00  0.00    -0.004 A 
ATOM      5  C6  UNL d   1       2.630   2.816   4.139  0.00  0.00     0.002 A 
ATOM      6  C7  UNL d   1       3.727   3.399   4.774  0.00  0.00     0.002 A 
ENDROOT
BRANCH   1   7
ATOM      7  C1  UNL d   1       6.000   4.496   4.708  0.00  0.00     0.055 C 
ATOM      8  C   UNL d   1       5.997   5.996   4.450  0.00  0.00     0.019 C 
ENDBRANCH   1   7
TORSDOF 1
ENDMDL
