MODEL 1
REMARK minimizedAffinity -4.98169279
REMARK minimizedRMSD -1
REMARK  1 active torsions:
REMARK  status: ('A' for Active; 'I' for Inactive)
REMARK    1  A    between atoms: C1_2  and  C2_3 
ROOT
ATOM      1  C2  UNL d   1      -0.950  -1.194   0.146  0.00  0.00    -0.077 A 
ATOM      2  C3  UNL d   1      -0.533   0.089  -0.235  0.00  0.00     0.002 A 
ATOM      3  C4  UNL d   1       0.604   0.661   0.338  0.00  0.00     0.002 A 
ATOM      4  C5  UNL d   1       1.336  -0.043   1.291  0.00  0.00    -0.004 A 
ATOM      5  C6  UNL d   1       0.929  -1.320   1.678  0.00  0.00     0.002 A 
ATOM      6  C7  UNL d   1      -0.208  -1.893   1.107  0.00  0.00     0.002 A 
ENDROOT
BRANCH   1   7
ATOM      7  C1  UNL d   1      -2.148  -1.833  -0.507  0.00  0.00     0.055 C 
ATOM      8  C   UNL d   1      -3.205  -0.797  -0.859  0.00  0.00     0.019 C 
ENDBRANCH   1   7
TORSDOF 1
ENDMDL
