MODEL 1
REMARK minimizedAffinity -6.20510101
REMARK minimizedRMSD -1
REMARK  1 active torsions:
REMARK  status: ('A' for Active; 'I' for Inactive)
REMARK    1  A    between atoms: C1_2  and  C2_3 
ROOT
ATOM      1  C2  UNL d   1       0.162   0.227   0.169  0.00  0.00    -0.077 A 
ATOM      2  C3  UNL d   1      -0.045  -0.731   1.172  0.00  0.00     0.002 A 
ATOM      3  C4  UNL d   1      -1.151  -1.581   1.118  0.00  0.00     0.002 A 
ATOM      4  C5  UNL d   1      -2.055  -1.485   0.062  0.00  0.00    -0.004 A 
ATOM      5  C6  UNL d   1      -1.858  -0.535  -0.939  0.00  0.00     0.002 A 
ATOM      6  C7  UNL d   1      -0.754   0.317  -0.886  0.00  0.00     0.002 A 
ENDROOT
BRANCH   1   7
ATOM      7  C1  UNL d   1       1.381   1.112   0.200  0.00  0.00     0.055 C 
ATOM      8  C   UNL d   1       1.777   1.460   1.627  0.00  0.00     0.019 C 
ENDBRANCH   1   7
TORSDOF 1
ENDMDL
