MODEL 1
REMARK minimizedAffinity 2.99477768
REMARK minimizedRMSD -1
REMARK  1 active torsions:
REMARK  status: ('A' for Active; 'I' for Inactive)
REMARK    1  A    between atoms: C1_2  and  C2_3 
ROOT
ATOM      1  C2  UNL d   1      -1.067  -1.309  -0.072  0.00  0.00    -0.077 A 
ATOM      2  C3  UNL d   1      -1.456  -2.089   1.026  0.00  0.00     0.002 A 
ATOM      3  C4  UNL d   1      -0.589  -2.270   2.106  0.00  0.00     0.002 A 
ATOM      4  C5  UNL d   1       0.669  -1.672   2.100  0.00  0.00    -0.004 A 
ATOM      5  C6  UNL d   1       1.066  -0.896   1.011  0.00  0.00     0.002 A 
ATOM      6  C7  UNL d   1       0.201  -0.714  -0.069  0.00  0.00     0.002 A 
ENDROOT
BRANCH   1   7
ATOM      7  C1  UNL d   1      -2.019  -1.072  -1.215  0.00  0.00     0.055 C 
ATOM      8  C   UNL d   1      -1.390  -0.191  -2.285  0.00  0.00     0.019 C 
ENDBRANCH   1   7
TORSDOF 1
ENDMDL
