MODEL 1
REMARK minimizedAffinity 5.92865515
REMARK minimizedRMSD -1
REMARK  1 active torsions:
REMARK  status: ('A' for Active; 'I' for Inactive)
REMARK    1  A    between atoms: C1_2  and  C2_3 
ROOT
ATOM      1  C2  UNL d   1      -1.039  -1.352   2.976  0.00  0.00    -0.077 A 
ATOM      2  C3  UNL d   1      -0.701   0.008   3.005  0.00  0.00     0.002 A 
ATOM      3  C4  UNL d   1      -1.512   0.924   3.678  0.00  0.00     0.002 A 
ATOM      4  C5  UNL d   1      -2.664   0.488   4.331  0.00  0.00    -0.004 A 
ATOM      5  C6  UNL d   1      -3.009  -0.863   4.306  0.00  0.00     0.002 A 
ATOM      6  C7  UNL d   1      -2.200  -1.779   3.632  0.00  0.00     0.002 A 
ENDROOT
BRANCH   1   7
ATOM      7  C1  UNL d   1      -0.139  -2.348   2.292  0.00  0.00     0.055 C 
ATOM      8  C   UNL d   1       1.323  -1.938   2.400  0.00  0.00     0.019 C 
ENDBRANCH   1   7
TORSDOF 1
ENDMDL
