MODEL 1
REMARK minimizedAffinity 5.33221531
REMARK minimizedRMSD -1
REMARK  1 active torsions:
REMARK  status: ('A' for Active; 'I' for Inactive)
REMARK    1  A    between atoms: C1_2  and  C2_3 
ROOT
ATOM      1  C2  UNL d   1      -1.909   0.727  -2.165  0.00  0.00    -0.077 A 
ATOM      2  C3  UNL d   1      -1.243  -0.503  -2.068  0.00  0.00     0.002 A 
ATOM      3  C4  UNL d   1      -1.785  -1.541  -1.307  0.00  0.00     0.002 A 
ATOM      4  C5  UNL d   1      -2.995  -1.362  -0.642  0.00  0.00    -0.004 A 
ATOM      5  C6  UNL d   1      -3.664  -0.141  -0.731  0.00  0.00     0.002 A 
ATOM      6  C7  UNL d   1      -3.124   0.898  -1.489  0.00  0.00     0.002 A 
ENDROOT
BRANCH   1   7
ATOM      7  C1  UNL d   1      -1.352   1.831  -3.025  0.00  0.00     0.055 C 
ATOM      8  C   UNL d   1      -2.442   2.488  -3.858  0.00  0.00     0.019 C 
ENDBRANCH   1   7
TORSDOF 1
ENDMDL
