MODEL 1
REMARK minimizedAffinity -4.56443167
REMARK minimizedRMSD -1
REMARK  1 active torsions:
REMARK  status: ('A' for Active; 'I' for Inactive)
REMARK    1  A    between atoms: C1_2  and  C2_3 
ROOT
ATOM      1  C2  UNL d   1      -2.193   0.687  -1.875  0.00  0.00    -0.077 A 
ATOM      2  C3  UNL d   1      -3.251   0.683  -0.956  0.00  0.00     0.002 A 
ATOM      3  C4  UNL d   1      -3.260  -0.222   0.107  0.00  0.00     0.002 A 
ATOM      4  C5  UNL d   1      -2.212  -1.126   0.263  0.00  0.00    -0.004 A 
ATOM      5  C6  UNL d   1      -1.155  -1.132  -0.647  0.00  0.00     0.002 A 
ATOM      6  C7  UNL d   1      -1.145  -0.229  -1.711  0.00  0.00     0.002 A 
ENDROOT
BRANCH   1   7
ATOM      7  C1  UNL d   1      -2.157   1.695  -2.994  0.00  0.00     0.055 C 
ATOM      8  C   UNL d   1      -0.727   2.017  -3.403  0.00  0.00     0.019 C 
ENDBRANCH   1   7
TORSDOF 1
ENDMDL
