MODEL 1
REMARK minimizedAffinity -5.95700741
REMARK minimizedRMSD -1
REMARK  1 active torsions:
REMARK  status: ('A' for Active; 'I' for Inactive)
REMARK    1  A    between atoms: C1_2  and  C2_3 
ROOT
ATOM      1  C2  UNL d   1      -1.189  -0.135  -0.310  0.00  0.00    -0.077 A 
ATOM      2  C3  UNL d   1      -0.154   0.447  -1.054  0.00  0.00     0.002 A 
ATOM      3  C4  UNL d   1       1.105   0.641  -0.482  0.00  0.00     0.002 A 
ATOM      4  C5  UNL d   1       1.341   0.252   0.835  0.00  0.00    -0.004 A 
ATOM      5  C6  UNL d   1       0.317  -0.326   1.584  0.00  0.00     0.002 A 
ATOM      6  C7  UNL d   1      -0.942  -0.520   1.014  0.00  0.00     0.002 A 
ENDROOT
BRANCH   1   7
ATOM      7  C1  UNL d   1      -2.533  -0.390  -0.940  0.00  0.00     0.055 C 
ATOM      8  C   UNL d   1      -3.618  -0.554   0.114  0.00  0.00     0.019 C 
ENDBRANCH   1   7
TORSDOF 1
ENDMDL
