MODEL 1
REMARK minimizedAffinity -1.24853969
REMARK minimizedRMSD -1
REMARK  1 active torsions:
REMARK  status: ('A' for Active; 'I' for Inactive)
REMARK    1  A    between atoms: C1_2  and  C2_3 
ROOT
ATOM      1  C2  UNL d   1      -0.025  -0.392  -3.438  0.00  0.00    -0.077 A 
ATOM      2  C3  UNL d   1       0.725   0.046  -2.338  0.00  0.00     0.002 A 
ATOM      3  C4  UNL d   1       0.146   0.110  -1.069  0.00  0.00     0.002 A 
ATOM      4  C5  UNL d   1      -1.183  -0.266  -0.888  0.00  0.00    -0.004 A 
ATOM      5  C6  UNL d   1      -1.938  -0.701  -1.977  0.00  0.00     0.002 A 
ATOM      6  C7  UNL d   1      -1.361  -0.765  -3.246  0.00  0.00     0.002 A 
ENDROOT
BRANCH   1   7
ATOM      7  C1  UNL d   1       0.612  -0.509  -4.799  0.00  0.00     0.055 C 
ATOM      8  C   UNL d   1       1.245   0.806  -5.228  0.00  0.00     0.019 C 
ENDBRANCH   1   7
TORSDOF 1
ENDMDL
