MODEL 1
REMARK minimizedAffinity 2.50502276
REMARK minimizedRMSD -1
REMARK  1 active torsions:
REMARK  status: ('A' for Active; 'I' for Inactive)
REMARK    1  A    between atoms: C1_2  and  C2_3 
ROOT
ATOM      1  C2  UNL d   1      -3.042  -1.925   4.526  0.00  0.00    -0.077 A 
ATOM      2  C3  UNL d   1      -3.020  -1.371   5.814  0.00  0.00     0.002 A 
ATOM      3  C4  UNL d   1      -2.694  -0.026   5.999  0.00  0.00     0.002 A 
ATOM      4  C5  UNL d   1      -2.391   0.776   4.901  0.00  0.00    -0.004 A 
ATOM      5  C6  UNL d   1      -2.407   0.234   3.617  0.00  0.00     0.002 A 
ATOM      6  C7  UNL d   1      -2.732  -1.110   3.430  0.00  0.00     0.002 A 
ENDROOT
BRANCH   1   7
ATOM      7  C1  UNL d   1      -3.442  -3.363   4.320  0.00  0.00     0.055 C 
ATOM      8  C   UNL d   1      -3.493  -4.118   5.640  0.00  0.00     0.019 C 
ENDBRANCH   1   7
TORSDOF 1
ENDMDL
