MODEL 1
REMARK minimizedAffinity 4.77024794
REMARK minimizedRMSD -1
REMARK  1 active torsions:
REMARK  status: ('A' for Active; 'I' for Inactive)
REMARK    1  A    between atoms: C1_2  and  C2_3 
ROOT
ATOM      1  C2  UNL d   1      -1.134  -0.493  -0.378  0.00  0.00    -0.077 A 
ATOM      2  C3  UNL d   1       0.184  -0.013  -0.365  0.00  0.00     0.002 A 
ATOM      3  C4  UNL d   1       0.803   0.382  -1.552  0.00  0.00     0.002 A 
ATOM      4  C5  UNL d   1       0.113   0.306  -2.759  0.00  0.00    -0.004 A 
ATOM      5  C6  UNL d   1      -1.197  -0.172  -2.783  0.00  0.00     0.002 A 
ATOM      6  C7  UNL d   1      -1.818  -0.569  -1.598  0.00  0.00     0.002 A 
ENDROOT
BRANCH   1   7
ATOM      7  C1  UNL d   1      -1.821  -0.874   0.907  0.00  0.00     0.055 C 
ATOM      8  C   UNL d   1      -1.563   0.156   1.998  0.00  0.00     0.019 C 
ENDBRANCH   1   7
TORSDOF 1
ENDMDL
