MODEL 1
REMARK minimizedAffinity -0.0536707938
REMARK minimizedRMSD -1
REMARK  1 active torsions:
REMARK  status: ('A' for Active; 'I' for Inactive)
REMARK    1  A    between atoms: C1_2  and  C2_3 
ROOT
ATOM      1  C2  UNL d   1      -5.650   5.123   3.144  0.00  0.00    -0.077 A 
ATOM      2  C3  UNL d   1      -5.215   3.827   3.456  0.00  0.00     0.002 A 
ATOM      3  C4  UNL d   1      -5.131   3.412   4.786  0.00  0.00     0.002 A 
ATOM      4  C5  UNL d   1      -5.484   4.283   5.814  0.00  0.00    -0.004 A 
ATOM      5  C6  UNL d   1      -5.917   5.574   5.514  0.00  0.00     0.002 A 
ATOM      6  C7  UNL d   1      -6.000   5.992   4.185  0.00  0.00     0.002 A 
ENDROOT
BRANCH   1   7
ATOM      7  C1  UNL d   1      -5.788   5.557   1.708  0.00  0.00     0.055 C 
ATOM      8  C   UNL d   1      -5.709   4.369   0.760  0.00  0.00     0.019 C 
ENDBRANCH   1   7
TORSDOF 1
ENDMDL
