MODEL 1
REMARK minimizedAffinity -4.39128208
REMARK minimizedRMSD -1
REMARK  1 active torsions:
REMARK  status: ('A' for Active; 'I' for Inactive)
REMARK    1  A    between atoms: C1_2  and  C2_3 
ROOT
ATOM      1  C2  UNL d   1      -1.719  -1.057  -0.143  0.00  0.00    -0.077 A 
ATOM      2  C3  UNL d   1      -0.616  -0.770   0.673  0.00  0.00     0.002 A 
ATOM      3  C4  UNL d   1      -0.166  -1.706   1.607  0.00  0.00     0.002 A 
ATOM      4  C5  UNL d   1      -0.810  -2.935   1.730  0.00  0.00    -0.004 A 
ATOM      5  C6  UNL d   1      -1.910  -3.229   0.924  0.00  0.00     0.002 A 
ATOM      6  C7  UNL d   1      -2.362  -2.294  -0.008  0.00  0.00     0.002 A 
ENDROOT
BRANCH   1   7
ATOM      7  C1  UNL d   1      -2.176  -0.069  -1.184  0.00  0.00     0.055 C 
ATOM      8  C   UNL d   1      -0.994   0.556  -1.910  0.00  0.00     0.019 C 
ENDBRANCH   1   7
TORSDOF 1
ENDMDL
