MODEL 1
REMARK minimizedAffinity -1.741732
REMARK minimizedRMSD -1
REMARK  1 active torsions:
REMARK  status: ('A' for Active; 'I' for Inactive)
REMARK    1  A    between atoms: C1_2  and  C2_3 
ROOT
ATOM      1  C2  UNL d   1       0.981   0.293   2.070  0.00  0.00    -0.077 A 
ATOM      2  C3  UNL d   1      -0.208   0.583   2.754  0.00  0.00     0.002 A 
ATOM      3  C4  UNL d   1      -1.251  -0.346   2.782  0.00  0.00     0.002 A 
ATOM      4  C5  UNL d   1      -1.113  -1.571   2.133  0.00  0.00    -0.004 A 
ATOM      5  C6  UNL d   1       0.066  -1.867   1.449  0.00  0.00     0.002 A 
ATOM      6  C7  UNL d   1       1.108  -0.940   1.419  0.00  0.00     0.002 A 
ENDROOT
BRANCH   1   7
ATOM      7  C1  UNL d   1       2.125   1.273   2.080  0.00  0.00     0.055 C 
ATOM      8  C   UNL d   1       2.221   2.025   0.761  0.00  0.00     0.019 C 
ENDBRANCH   1   7
TORSDOF 1
ENDMDL
