MODEL 1
REMARK minimizedAffinity -5.57893085
REMARK minimizedRMSD -1
REMARK  0 active torsions:
REMARK  status: ('A' for Active; 'I' for Inactive)
ROOT
ATOM      1  C4' PXY d   1      -0.445  -1.445   2.530  0.00  0.00     0.077 C 
ATOM      2  C1' PXY d   1      -1.614   2.489  -1.540  0.00  0.00     0.077 C 
ATOM      3  C1  PXY d   1      -1.310   1.466  -0.464  0.00  0.00    -0.082 A 
ATOM      4  C2  PXY d   1      -0.472   0.475  -0.720  0.00  0.00     0.003 A 
ATOM      5  C3  PXY d   1      -0.211  -0.477   0.231  0.00  0.00     0.003 A 
ATOM      6  C4  PXY d   1      -0.773  -0.384   1.476  0.00  0.00    -0.082 A 
ATOM      7  C5  PXY d   1      -1.621   0.630   1.749  0.00  0.00     0.003 A 
ATOM      8  C6  PXY d   1      -1.905   1.563   0.756  0.00  0.00     0.003 A 
ENDROOT
TORSDOF 0
ENDMDL
