MODEL 1
REMARK minimizedAffinity -2.63745642
REMARK minimizedRMSD -1
REMARK  0 active torsions:
REMARK  status: ('A' for Active; 'I' for Inactive)
ROOT
ATOM      1  C4' PXY d   1       0.285   2.557  -2.158  0.00  0.00     0.077 C 
ATOM      2  C1' PXY d   1      -0.107  -1.472   1.968  0.00  0.00     0.077 C 
ATOM      3  C1  PXY d   1       0.007  -0.420   0.882  0.00  0.00    -0.082 A 
ATOM      4  C2  PXY d   1      -0.662   0.715   0.999  0.00  0.00     0.003 A 
ATOM      5  C3  PXY d   1      -0.595   1.664   0.011  0.00  0.00     0.003 A 
ATOM      6  C4  PXY d   1       0.207   1.471  -1.082  0.00  0.00    -0.082 A 
ATOM      7  C5  PXY d   1       0.900   0.319  -1.203  0.00  0.00     0.003 A 
ATOM      8  C6  PXY d   1       0.787  -0.649  -0.209  0.00  0.00     0.003 A 
ENDROOT
TORSDOF 0
ENDMDL
