MODEL 1
REMARK minimizedAffinity -4.19721413
REMARK minimizedRMSD -1
REMARK  0 active torsions:
REMARK  status: ('A' for Active; 'I' for Inactive)
ROOT
ATOM      1  C4' PXY d   1       1.771  -0.346  -0.199  0.00  0.00     0.077 C 
ATOM      2  C1' PXY d   1      -0.087  -5.129  -2.861  0.00  0.00     0.077 C 
ATOM      3  C1  PXY d   1       0.401  -3.881  -2.152  0.00  0.00    -0.082 A 
ATOM      4  C2  PXY d   1       0.091  -2.690  -2.636  0.00  0.00     0.003 A 
ATOM      5  C3  PXY d   1       0.551  -1.552  -2.026  0.00  0.00     0.003 A 
ATOM      6  C4  PXY d   1       1.292  -1.633  -0.877  0.00  0.00    -0.082 A 
ATOM      7  C5  PXY d   1       1.604  -2.845  -0.371  0.00  0.00     0.003 A 
ATOM      8  C6  PXY d   1       1.162  -3.989  -1.029  0.00  0.00     0.003 A 
ENDROOT
TORSDOF 0
ENDMDL
