MODEL 1
REMARK minimizedAffinity -4.91682243
REMARK minimizedRMSD -1
REMARK  0 active torsions:
REMARK  status: ('A' for Active; 'I' for Inactive)
ROOT
ATOM      1  C4' PXY d   1      -0.483  -1.289   2.912  0.00  0.00     0.077 C 
ATOM      2  C1' PXY d   1      -0.236   2.294  -1.618  0.00  0.00     0.077 C 
ATOM      3  C1  PXY d   1      -0.304   1.364  -0.422  0.00  0.00    -0.082 A 
ATOM      4  C2  PXY d   1       0.393   0.240  -0.427  0.00  0.00     0.003 A 
ATOM      5  C3  PXY d   1       0.318  -0.628   0.632  0.00  0.00     0.003 A 
ATOM      6  C4  PXY d   1      -0.437  -0.316   1.730  0.00  0.00    -0.082 A 
ATOM      7  C5  PXY d   1      -1.143   0.834   1.748  0.00  0.00     0.003 A 
ATOM      8  C6  PXY d   1      -1.086   1.682   0.645  0.00  0.00     0.003 A 
ENDROOT
TORSDOF 0
ENDMDL
