MODEL 1
REMARK minimizedAffinity -1.9344207
REMARK minimizedRMSD -1
REMARK  0 active torsions:
REMARK  status: ('A' for Active; 'I' for Inactive)
ROOT
ATOM      1  C4' PXY d   1       0.736   2.246  -2.293  0.00  0.00     0.077 C 
ATOM      2  C1' PXY d   1      -1.060  -0.098   2.676  0.00  0.00     0.077 C 
ATOM      3  C1  PXY d   1      -0.578   0.509   1.373  0.00  0.00    -0.082 A 
ATOM      4  C2  PXY d   1      -1.043   1.687   0.989  0.00  0.00     0.003 A 
ATOM      5  C3  PXY d   1      -0.642   2.237  -0.201  0.00  0.00     0.003 A 
ATOM      6  C4  PXY d   1       0.285   1.599  -0.981  0.00  0.00    -0.082 A 
ATOM      7  C5  PXY d   1       0.771   0.401  -0.592  0.00  0.00     0.003 A 
ATOM      8  C6  PXY d   1       0.321  -0.159   0.600  0.00  0.00     0.003 A 
ENDROOT
TORSDOF 0
ENDMDL
