MODEL 1
REMARK minimizedAffinity -4.41725111
REMARK minimizedRMSD -1
REMARK  0 active torsions:
REMARK  status: ('A' for Active; 'I' for Inactive)
ROOT
ATOM      1  C4' PXY d   1       1.371  -1.340  -1.244  0.00  0.00     0.077 C 
ATOM      2  C1' PXY d   1      -2.201   2.236   1.561  0.00  0.00     0.077 C 
ATOM      3  C1  PXY d   1      -1.267   1.304   0.814  0.00  0.00    -0.082 A 
ATOM      4  C2  PXY d   1      -0.988   0.114   1.320  0.00  0.00     0.003 A 
ATOM      5  C3  PXY d   1      -0.120  -0.729   0.674  0.00  0.00     0.003 A 
ATOM      6  C4  PXY d   1       0.425  -0.371  -0.529  0.00  0.00    -0.082 A 
ATOM      7  C5  PXY d   1       0.137   0.838  -1.058  0.00  0.00     0.003 A 
ATOM      8  C6  PXY d   1      -0.714   1.695  -0.366  0.00  0.00     0.003 A 
ENDROOT
TORSDOF 0
ENDMDL
