MODEL 1
REMARK minimizedAffinity -3.57802463
REMARK minimizedRMSD -1
REMARK  0 active torsions:
REMARK  status: ('A' for Active; 'I' for Inactive)
ROOT
ATOM      1  C4' PXY d   1       1.298  -2.149  -1.241  0.00  0.00     0.077 C 
ATOM      2  C1' PXY d   1      -1.013   2.217   1.760  0.00  0.00     0.077 C 
ATOM      3  C1  PXY d   1      -0.409   1.079   0.962  0.00  0.00    -0.082 A 
ATOM      4  C2  PXY d   1      -0.434  -0.149   1.453  0.00  0.00     0.003 A 
ATOM      5  C3  PXY d   1       0.137  -1.185   0.759  0.00  0.00     0.003 A 
ATOM      6  C4  PXY d   1       0.691  -0.971  -0.475  0.00  0.00    -0.082 A 
ATOM      7  C5  PXY d   1       0.711   0.278  -0.987  0.00  0.00     0.003 A 
ATOM      8  C6  PXY d   1       0.163   1.323  -0.248  0.00  0.00     0.003 A 
ENDROOT
TORSDOF 0
ENDMDL
