MODEL 1
REMARK minimizedAffinity 1.72549641
REMARK minimizedRMSD -1
REMARK  0 active torsions:
REMARK  status: ('A' for Active; 'I' for Inactive)
ROOT
ATOM      1  C4' PXY d   1       5.829  -2.834  -2.865  0.00  0.00     0.077 C 
ATOM      2  C1' PXY d   1       0.102  -3.584  -2.628  0.00  0.00     0.077 C 
ATOM      3  C1  PXY d   1       1.604  -3.391  -2.703  0.00  0.00    -0.082 A 
ATOM      4  C2  PXY d   1       2.329  -3.472  -1.599  0.00  0.00     0.003 A 
ATOM      5  C3  PXY d   1       3.684  -3.268  -1.644  0.00  0.00     0.003 A 
ATOM      6  C4  PXY d   1       4.311  -3.032  -2.838  0.00  0.00    -0.082 A 
ATOM      7  C5  PXY d   1       3.579  -2.959  -3.970  0.00  0.00     0.003 A 
ATOM      8  C6  PXY d   1       2.199  -3.128  -3.898  0.00  0.00     0.003 A 
ENDROOT
TORSDOF 0
ENDMDL
