MODEL 1
REMARK minimizedAffinity -0.634840429
REMARK minimizedRMSD -1
REMARK  0 active torsions:
REMARK  status: ('A' for Active; 'I' for Inactive)
ROOT
ATOM      1  C4' PXY d   1      -0.736  -1.091   3.337  0.00  0.00     0.077 C 
ATOM      2  C1' PXY d   1       0.766   2.249  -1.136  0.00  0.00     0.077 C 
ATOM      3  C1  PXY d   1       0.374   1.383   0.045  0.00  0.00    -0.082 A 
ATOM      4  C2  PXY d   1       0.478   0.067  -0.045  0.00  0.00     0.003 A 
ATOM      5  C3  PXY d   1       0.098  -0.732   1.002  0.00  0.00     0.003 A 
ATOM      6  C4  PXY d   1      -0.343  -0.177   2.173  0.00  0.00    -0.082 A 
ATOM      7  C5  PXY d   1      -0.443   1.165   2.277  0.00  0.00     0.003 A 
ATOM      8  C6  PXY d   1      -0.091   1.957   1.188  0.00  0.00     0.003 A 
ENDROOT
TORSDOF 0
ENDMDL
