MODEL 1
REMARK minimizedAffinity -3.61181474
REMARK minimizedRMSD -1
REMARK  0 active torsions:
REMARK  status: ('A' for Active; 'I' for Inactive)
ROOT
ATOM      1  C4' PXY d   1      -0.145  -4.123  -2.360  0.00  0.00     0.077 C 
ATOM      2  C1' PXY d   1       0.569   1.401  -0.812  0.00  0.00     0.077 C 
ATOM      3  C1  PXY d   1       0.373  -0.044  -1.227  0.00  0.00    -0.082 A 
ATOM      4  C2  PXY d   1       0.655  -1.014  -0.372  0.00  0.00     0.003 A 
ATOM      5  C3  PXY d   1       0.514  -2.327  -0.742  0.00  0.00     0.003 A 
ATOM      6  C4  PXY d   1       0.029  -2.650  -1.981  0.00  0.00    -0.082 A 
ATOM      7  C5  PXY d   1      -0.271  -1.666  -2.855  0.00  0.00     0.003 A 
ATOM      8  C6  PXY d   1      -0.082  -0.340  -2.475  0.00  0.00     0.003 A 
ENDROOT
TORSDOF 0
ENDMDL
