MODEL 1
REMARK minimizedAffinity -6.58535624
REMARK minimizedRMSD -1
REMARK  0 active torsions:
REMARK  status: ('A' for Active; 'I' for Inactive)
ROOT
ATOM      1  C4' PXY d   1      -2.391   2.612   1.737  0.00  0.00     0.077 C 
ATOM      2  C1' PXY d   1       1.307  -0.870  -1.021  0.00  0.00     0.077 C 
ATOM      3  C1  PXY d   1       0.340   0.052  -0.306  0.00  0.00    -0.082 A 
ATOM      4  C2  PXY d   1       0.089  -0.131   0.980  0.00  0.00     0.003 A 
ATOM      5  C3  PXY d   1      -0.807   0.674   1.634  0.00  0.00     0.003 A 
ATOM      6  C4  PXY d   1      -1.414   1.711   0.978  0.00  0.00    -0.082 A 
ATOM      7  C5  PXY d   1      -1.156   1.912  -0.332  0.00  0.00     0.003 A 
ATOM      8  C6  PXY d   1      -0.274   1.058  -0.988  0.00  0.00     0.003 A 
ENDROOT
TORSDOF 0
ENDMDL
