MODEL 1
REMARK minimizedAffinity -5.89806366
REMARK minimizedRMSD -1
REMARK  0 active torsions:
REMARK  status: ('A' for Active; 'I' for Inactive)
ROOT
ATOM      1  C4' PXY d   1      -0.677  -0.985   2.422  0.00  0.00     0.077 C 
ATOM      2  C1' PXY d   1      -1.181   3.647  -1.000  0.00  0.00     0.077 C 
ATOM      3  C1  PXY d   1      -1.046   2.425  -0.113  0.00  0.00    -0.082 A 
ATOM      4  C2  PXY d   1      -1.685   2.383   1.045  0.00  0.00     0.003 A 
ATOM      5  C3  PXY d   1      -1.548   1.299   1.874  0.00  0.00     0.003 A 
ATOM      6  C4  PXY d   1      -0.792   0.224   1.490  0.00  0.00    -0.082 A 
ATOM      7  C5  PXY d   1      -0.146   0.255   0.305  0.00  0.00     0.003 A 
ATOM      8  C6  PXY d   1      -0.264   1.381  -0.503  0.00  0.00     0.003 A 
ENDROOT
TORSDOF 0
ENDMDL
