MODEL 1
REMARK minimizedAffinity -4.75301266
REMARK minimizedRMSD -1
REMARK  0 active torsions:
REMARK  status: ('A' for Active; 'I' for Inactive)
ROOT
ATOM      1  C4' PXY d   1       2.139  -1.196  -0.370  0.00  0.00     0.077 C 
ATOM      2  C1' PXY d   1      -2.219   2.301   1.111  0.00  0.00     0.077 C 
ATOM      3  C1  PXY d   1      -1.078   1.386   0.710  0.00  0.00    -0.082 A 
ATOM      4  C2  PXY d   1      -0.694   0.421   1.530  0.00  0.00     0.003 A 
ATOM      5  C3  PXY d   1       0.356  -0.394   1.197  0.00  0.00     0.003 A 
ATOM      6  C4  PXY d   1       0.986  -0.255  -0.011  0.00  0.00    -0.082 A 
ATOM      7  C5  PXY d   1       0.593   0.720  -0.857  0.00  0.00     0.003 A 
ATOM      8  C6  PXY d   1      -0.449   1.564  -0.483  0.00  0.00     0.003 A 
ENDROOT
TORSDOF 0
ENDMDL
