MODEL 1
REMARK minimizedAffinity -3.42032957
REMARK minimizedRMSD -1
REMARK  0 active torsions:
REMARK  status: ('A' for Active; 'I' for Inactive)
ROOT
ATOM      1  C4' PXY d   1       1.015  -1.098  -1.765  0.00  0.00     0.077 C 
ATOM      2  C1' PXY d   1      -1.996   1.865   2.181  0.00  0.00     0.077 C 
ATOM      3  C1  PXY d   1      -1.199   1.083   1.156  0.00  0.00    -0.082 A 
ATOM      4  C2  PXY d   1      -1.145   1.510  -0.095  0.00  0.00     0.003 A 
ATOM      5  C3  PXY d   1      -0.455   0.798  -1.042  0.00  0.00     0.003 A 
ATOM      6  C4  PXY d   1       0.230  -0.335  -0.694  0.00  0.00    -0.082 A 
ATOM      7  C5  PXY d   1       0.188  -0.772   0.582  0.00  0.00     0.003 A 
ATOM      8  C6  PXY d   1      -0.551  -0.057   1.520  0.00  0.00     0.003 A 
ENDROOT
TORSDOF 0
ENDMDL
