MODEL 1
REMARK minimizedAffinity -4.29489088
REMARK minimizedRMSD -1
REMARK  0 active torsions:
REMARK  status: ('A' for Active; 'I' for Inactive)
ROOT
ATOM      1  C4' PXY d   1       0.713  -2.280  -1.380  0.00  0.00     0.077 C 
ATOM      2  C1' PXY d   1      -1.178   1.869   2.174  0.00  0.00     0.077 C 
ATOM      3  C1  PXY d   1      -0.683   0.789   1.232  0.00  0.00    -0.082 A 
ATOM      4  C2  PXY d   1      -0.901  -0.483   1.522  0.00  0.00     0.003 A 
ATOM      5  C3  PXY d   1      -0.432  -1.473   0.698  0.00  0.00     0.003 A 
ATOM      6  C4  PXY d   1       0.222  -1.156  -0.463  0.00  0.00    -0.082 A 
ATOM      7  C5  PXY d   1       0.440   0.140  -0.771  0.00  0.00     0.003 A 
ATOM      8  C6  PXY d   1      -0.009   1.129   0.100  0.00  0.00     0.003 A 
ENDROOT
TORSDOF 0
ENDMDL
