MODEL 1
REMARK minimizedAffinity -4.78847647
REMARK minimizedRMSD -1
REMARK  0 active torsions:
REMARK  status: ('A' for Active; 'I' for Inactive)
ROOT
ATOM      1  C4' PXY d   1      -1.088  -0.521   2.654  0.00  0.00     0.077 C 
ATOM      2  C1' PXY d   1       0.481   3.194  -1.488  0.00  0.00     0.077 C 
ATOM      3  C1  PXY d   1       0.068   2.211  -0.411  0.00  0.00    -0.082 A 
ATOM      4  C2  PXY d   1      -0.437   2.660   0.727  0.00  0.00     0.003 A 
ATOM      5  C3  PXY d   1      -0.786   1.786   1.724  0.00  0.00     0.003 A 
ATOM      6  C4  PXY d   1      -0.666   0.435   1.535  0.00  0.00    -0.082 A 
ATOM      7  C5  PXY d   1      -0.161  -0.032   0.373  0.00  0.00     0.003 A 
ATOM      8  C6  PXY d   1       0.226   0.874  -0.611  0.00  0.00     0.003 A 
ENDROOT
TORSDOF 0
ENDMDL
