MODEL 1
REMARK minimizedAffinity -3.42254829
REMARK minimizedRMSD -1
REMARK  0 active torsions:
REMARK  status: ('A' for Active; 'I' for Inactive)
ROOT
ATOM      1  C4' PXY d   1       0.469   1.443  -0.793  0.00  0.00     0.077 C 
ATOM      2  C1' PXY d   1      -0.186  -4.146  -2.115  0.00  0.00     0.077 C 
ATOM      3  C1  PXY d   1      -0.012  -2.683  -1.756  0.00  0.00    -0.082 A 
ATOM      4  C2  PXY d   1      -0.571  -1.753  -2.513  0.00  0.00     0.003 A 
ATOM      5  C3  PXY d   1      -0.397  -0.425  -2.220  0.00  0.00     0.003 A 
ATOM      6  C4  PXY d   1       0.312  -0.046  -1.112  0.00  0.00    -0.082 A 
ATOM      7  C5  PXY d   1       0.877  -0.990  -0.329  0.00  0.00     0.003 A 
ATOM      8  C6  PXY d   1       0.723  -2.332  -0.666  0.00  0.00     0.003 A 
ENDROOT
TORSDOF 0
ENDMDL
