MODEL 1
REMARK minimizedAffinity 0.389813006
REMARK minimizedRMSD -1
REMARK  0 active torsions:
REMARK  status: ('A' for Active; 'I' for Inactive)
ROOT
ATOM      1  C4' PXY d   1      -1.732   0.375  -0.251  0.00  0.00     0.077 C 
ATOM      2  C1' PXY d   1      -3.945   3.855  -4.301  0.00  0.00     0.077 C 
ATOM      3  C1  PXY d   1      -3.377   2.938  -3.237  0.00  0.00    -0.082 A 
ATOM      4  C2  PXY d   1      -2.231   3.246  -2.651  0.00  0.00     0.003 A 
ATOM      5  C3  PXY d   1      -1.687   2.412  -1.709  0.00  0.00     0.003 A 
ATOM      6  C4  PXY d   1      -2.348   1.276  -1.325  0.00  0.00    -0.082 A 
ATOM      7  C5  PXY d   1      -3.522   0.960  -1.910  0.00  0.00     0.003 A 
ATOM      8  C6  PXY d   1      -4.038   1.799  -2.893  0.00  0.00     0.003 A 
ENDROOT
TORSDOF 0
ENDMDL
