MODEL 1
REMARK minimizedAffinity 0.774269044
REMARK minimizedRMSD -1
REMARK  0 active torsions:
REMARK  status: ('A' for Active; 'I' for Inactive)
ROOT
ATOM      1  C4' PXY d   1       0.739  -0.611   1.983  0.00  0.00     0.077 C 
ATOM      2  C1' PXY d   1      -2.617   1.414  -2.266  0.00  0.00     0.077 C 
ATOM      3  C1  PXY d   1      -1.727   0.883  -1.160  0.00  0.00    -0.082 A 
ATOM      4  C2  PXY d   1      -2.265   0.228  -0.144  0.00  0.00     0.003 A 
ATOM      5  C3  PXY d   1      -1.479  -0.231   0.881  0.00  0.00     0.003 A 
ATOM      6  C4  PXY d   1      -0.120  -0.065   0.839  0.00  0.00    -0.082 A 
ATOM      7  C5  PXY d   1       0.438   0.592  -0.199  0.00  0.00     0.003 A 
ATOM      8  C6  PXY d   1      -0.382   1.087  -1.209  0.00  0.00     0.003 A 
ENDROOT
TORSDOF 0
ENDMDL
