MODEL 1
REMARK minimizedAffinity -3.05231285
REMARK minimizedRMSD -1
REMARK  0 active torsions:
REMARK  status: ('A' for Active; 'I' for Inactive)
ROOT
ATOM      1  C4' PXY d   1      -0.858   1.278   3.382  0.00  0.00     0.077 C 
ATOM      2  C1' PXY d   1      -0.901   1.638  -2.387  0.00  0.00     0.077 C 
ATOM      3  C1  PXY d   1      -0.892   1.557  -0.873  0.00  0.00    -0.082 A 
ATOM      4  C2  PXY d   1      -0.266   0.555  -0.276  0.00  0.00     0.003 A 
ATOM      5  C3  PXY d   1      -0.275   0.449   1.091  0.00  0.00     0.003 A 
ATOM      6  C4  PXY d   1      -0.885   1.406   1.857  0.00  0.00    -0.082 A 
ATOM      7  C5  PXY d   1      -1.516   2.437   1.255  0.00  0.00     0.003 A 
ATOM      8  C6  PXY d   1      -1.531   2.504  -0.135  0.00  0.00     0.003 A 
ENDROOT
TORSDOF 0
ENDMDL
