MODEL 1
REMARK minimizedAffinity 2.82599688
REMARK minimizedRMSD -1
REMARK  3 active torsions:
REMARK  status: ('A' for Active; 'I' for Inactive)
REMARK    1  A    between atoms: C3'_2  and  C2'_3 
REMARK    2  A    between atoms: C2'_3  and  C1'_4 
REMARK    3  A    between atoms: C1'_4  and  C1_5 
ROOT
ATOM      1  C1  N4B d   1      -2.100  -1.767   2.896  0.00  0.00    -0.075 A 
ATOM      2  C2  N4B d   1      -1.601  -3.087   2.856  0.00  0.00     0.002 A 
ATOM      3  C3  N4B d   1      -1.935  -3.978   3.846  0.00  0.00     0.002 A 
ATOM      4  C4  N4B d   1      -2.747  -3.567   4.893  0.00  0.00    -0.004 A 
ATOM      5  C5  N4B d   1      -3.245  -2.297   4.911  0.00  0.00     0.002 A 
ATOM      6  C6  N4B d   1      -2.921  -1.393   3.920  0.00  0.00     0.002 A 
ENDROOT
BRANCH   1   7
ATOM      7  C1' N4B d   1      -1.693  -0.733   1.882  0.00  0.00     0.057 C 
BRANCH   7   8
ATOM      8  C2' N4B d   1      -1.783   0.653   2.515  0.00  0.00     0.009 C 
BRANCH   8   9
ATOM      9  C3' N4B d   1      -0.427   1.335   2.583  0.00  0.00     0.004 C 
ATOM     10  C4' N4B d   1       0.557   0.770   1.603  0.00  0.00     0.003 C 
ENDBRANCH   8   9
ENDBRANCH   7   8
ENDBRANCH   1   7
TORSDOF 3
ENDMDL
