MODEL 1
REMARK minimizedAffinity 5.58227777
REMARK minimizedRMSD -1
REMARK  3 active torsions:
REMARK  status: ('A' for Active; 'I' for Inactive)
REMARK    1  A    between atoms: C3'_2  and  C2'_3 
REMARK    2  A    between atoms: C2'_3  and  C1'_4 
REMARK    3  A    between atoms: C1'_4  and  C1_5 
ROOT
ATOM      1  C1  N4B d   1       2.089   4.879  -5.422  0.00  0.00    -0.075 A 
ATOM      2  C2  N4B d   1       2.916   5.968  -5.775  0.00  0.00     0.002 A 
ATOM      3  C3  N4B d   1       4.237   5.977  -5.398  0.00  0.00     0.002 A 
ATOM      4  C4  N4B d   1       4.745   4.922  -4.655  0.00  0.00    -0.004 A 
ATOM      5  C5  N4B d   1       3.945   3.863  -4.340  0.00  0.00     0.002 A 
ATOM      6  C6  N4B d   1       2.617   3.838  -4.716  0.00  0.00     0.002 A 
ENDROOT
BRANCH   1   7
ATOM      7  C1' N4B d   1       0.618   4.865  -5.738  0.00  0.00     0.057 C 
BRANCH   7   8
ATOM      8  C2' N4B d   1      -0.068   5.998  -4.981  0.00  0.00     0.009 C 
BRANCH   8   9
ATOM      9  C3' N4B d   1       0.297   6.000  -3.507  0.00  0.00     0.004 C 
ATOM     10  C4' N4B d   1      -0.901   5.895  -2.612  0.00  0.00     0.003 C 
ENDBRANCH   8   9
ENDBRANCH   7   8
ENDBRANCH   1   7
TORSDOF 3
ENDMDL
