MODEL 1
REMARK minimizedAffinity -0.251628637
REMARK minimizedRMSD -1
REMARK  3 active torsions:
REMARK  status: ('A' for Active; 'I' for Inactive)
REMARK    1  A    between atoms: C3'_2  and  C2'_3 
REMARK    2  A    between atoms: C2'_3  and  C1'_4 
REMARK    3  A    between atoms: C1'_4  and  C1_5 
ROOT
ATOM      1  C1  N4B d   1      -1.107   5.844  -3.325  0.00  0.00    -0.075 A 
ATOM      2  C2  N4B d   1      -1.363   5.747  -1.939  0.00  0.00     0.002 A 
ATOM      3  C3  N4B d   1      -2.655   5.783  -1.475  0.00  0.00     0.002 A 
ATOM      4  C4  N4B d   1      -3.702   5.932  -2.372  0.00  0.00    -0.004 A 
ATOM      5  C5  N4B d   1      -3.448   5.999  -3.710  0.00  0.00     0.002 A 
ATOM      6  C6  N4B d   1      -2.155   5.961  -4.192  0.00  0.00     0.002 A 
ENDROOT
BRANCH   1   7
ATOM      7  C1' N4B d   1       0.293   5.897  -3.872  0.00  0.00     0.057 C 
BRANCH   7   8
ATOM      8  C2' N4B d   1       0.261   5.562  -5.361  0.00  0.00     0.009 C 
BRANCH   8   9
ATOM      9  C3' N4B d   1       1.639   5.650  -5.993  0.00  0.00     0.004 C 
ATOM     10  C4' N4B d   1       2.711   5.997  -5.002  0.00  0.00     0.003 C 
ENDBRANCH   8   9
ENDBRANCH   7   8
ENDBRANCH   1   7
TORSDOF 3
ENDMDL
