MODEL 1
REMARK minimizedAffinity 2.40652895
REMARK minimizedRMSD -1
REMARK  3 active torsions:
REMARK  status: ('A' for Active; 'I' for Inactive)
REMARK    1  A    between atoms: C3'_2  and  C2'_3 
REMARK    2  A    between atoms: C2'_3  and  C1'_4 
REMARK    3  A    between atoms: C1'_4  and  C1_5 
ROOT
ATOM      1  C1  N4B d   1      -2.985   5.935  -4.564  0.00  0.00    -0.075 A 
ATOM      2  C2  N4B d   1      -2.247   5.979  -3.361  0.00  0.00     0.002 A 
ATOM      3  C3  N4B d   1      -2.903   5.999  -2.154  0.00  0.00     0.002 A 
ATOM      4  C4  N4B d   1      -4.289   5.995  -2.127  0.00  0.00    -0.004 A 
ATOM      5  C5  N4B d   1      -4.994   5.926  -3.293  0.00  0.00     0.002 A 
ATOM      6  C6  N4B d   1      -4.348   5.901  -4.512  0.00  0.00     0.002 A 
ENDROOT
BRANCH   1   7
ATOM      7  C1' N4B d   1      -2.315   5.998  -5.909  0.00  0.00     0.057 C 
BRANCH   7   8
ATOM      8  C2' N4B d   1      -1.050   5.144  -5.879  0.00  0.00     0.009 C 
BRANCH   8   9
ATOM      9  C3' N4B d   1       0.207   5.994  -5.811  0.00  0.00     0.004 C 
ATOM     10  C4' N4B d   1       0.890   5.914  -4.478  0.00  0.00     0.003 C 
ENDBRANCH   8   9
ENDBRANCH   7   8
ENDBRANCH   1   7
TORSDOF 3
ENDMDL
