MODEL 1
REMARK minimizedAffinity -2.27964759
REMARK minimizedRMSD -1
REMARK  3 active torsions:
REMARK  status: ('A' for Active; 'I' for Inactive)
REMARK    1  A    between atoms: C3'_2  and  C2'_3 
REMARK    2  A    between atoms: C2'_3  and  C1'_4 
REMARK    3  A    between atoms: C1'_4  and  C1_5 
ROOT
ATOM      1  C1  N4B d   1      -1.412   5.999  -3.578  0.00  0.00    -0.075 A 
ATOM      2  C2  N4B d   1      -2.454   5.999  -4.531  0.00  0.00     0.002 A 
ATOM      3  C3  N4B d   1      -3.763   5.986  -4.117  0.00  0.00     0.002 A 
ATOM      4  C4  N4B d   1      -4.053   5.954  -2.761  0.00  0.00    -0.004 A 
ATOM      5  C5  N4B d   1      -3.041   5.980  -1.846  0.00  0.00     0.002 A 
ATOM      6  C6  N4B d   1      -1.721   5.997  -2.248  0.00  0.00     0.002 A 
ENDROOT
BRANCH   1   7
ATOM      7  C1' N4B d   1       0.035   5.927  -3.983  0.00  0.00     0.057 C 
BRANCH   7   8
ATOM      8  C2' N4B d   1       0.150   5.159  -5.296  0.00  0.00     0.009 C 
BRANCH   8   9
ATOM      9  C3' N4B d   1       1.589   5.056  -5.771  0.00  0.00     0.004 C 
ATOM     10  C4' N4B d   1       2.513   5.971  -5.024  0.00  0.00     0.003 C 
ENDBRANCH   8   9
ENDBRANCH   7   8
ENDBRANCH   1   7
TORSDOF 3
ENDMDL
