MODEL 1
REMARK minimizedAffinity 5.48622704
REMARK minimizedRMSD -1
REMARK  3 active torsions:
REMARK  status: ('A' for Active; 'I' for Inactive)
REMARK    1  A    between atoms: C3'_2  and  C2'_3 
REMARK    2  A    between atoms: C2'_3  and  C1'_4 
REMARK    3  A    between atoms: C1'_4  and  C1_5 
ROOT
ATOM      1  C1  N4B d   1       0.478   5.891  -4.181  0.00  0.00    -0.075 A 
ATOM      2  C2  N4B d   1       0.566   5.938  -2.772  0.00  0.00     0.002 A 
ATOM      3  C3  N4B d   1      -0.578   5.983  -2.013  0.00  0.00     0.002 A 
ATOM      4  C4  N4B d   1      -1.816   6.000  -2.639  0.00  0.00    -0.004 A 
ATOM      5  C5  N4B d   1      -1.893   5.928  -3.999  0.00  0.00     0.002 A 
ATOM      6  C6  N4B d   1      -0.751   5.879  -4.774  0.00  0.00     0.002 A 
ENDROOT
BRANCH   1   7
ATOM      7  C1' N4B d   1       1.701   5.927  -5.055  0.00  0.00     0.057 C 
BRANCH   7   8
ATOM      8  C2' N4B d   1       2.944   6.000  -4.173  0.00  0.00     0.009 C 
BRANCH   8   9
ATOM      9  C3' N4B d   1       4.223   5.998  -4.993  0.00  0.00     0.004 C 
ATOM     10  C4' N4B d   1       5.342   5.258  -4.322  0.00  0.00     0.003 C 
ENDBRANCH   8   9
ENDBRANCH   7   8
ENDBRANCH   1   7
TORSDOF 3
ENDMDL
