MODEL 1
REMARK minimizedAffinity -3.14309406
REMARK minimizedRMSD -1
REMARK  3 active torsions:
REMARK  status: ('A' for Active; 'I' for Inactive)
REMARK    1  A    between atoms: C3'_2  and  C2'_3 
REMARK    2  A    between atoms: C2'_3  and  C1'_4 
REMARK    3  A    between atoms: C1'_4  and  C1_5 
ROOT
ATOM      1  C1  N4B d   1       1.351   1.150   1.510  0.00  0.00    -0.075 A 
ATOM      2  C2  N4B d   1       1.458   0.504   2.761  0.00  0.00     0.002 A 
ATOM      3  C3  N4B d   1       2.691   0.339   3.345  0.00  0.00     0.002 A 
ATOM      4  C4  N4B d   1       3.826   0.794   2.691  0.00  0.00    -0.004 A 
ATOM      5  C5  N4B d   1       3.710   1.440   1.495  0.00  0.00     0.002 A 
ATOM      6  C6  N4B d   1       2.478   1.616   0.898  0.00  0.00     0.002 A 
ENDROOT
BRANCH   1   7
ATOM      7  C1' N4B d   1       0.035   1.277   0.792  0.00  0.00     0.057 C 
BRANCH   7   8
ATOM      8  C2' N4B d   1      -1.056   0.610   1.625  0.00  0.00     0.009 C 
BRANCH   8   9
ATOM      9  C3' N4B d   1      -1.214   1.266   2.986  0.00  0.00     0.004 C 
ATOM     10  C4' N4B d   1      -2.635   1.633   3.293  0.00  0.00     0.003 C 
ENDBRANCH   8   9
ENDBRANCH   7   8
ENDBRANCH   1   7
TORSDOF 3
ENDMDL
