MODEL 1
REMARK minimizedAffinity -2.14195085
REMARK minimizedRMSD -1
REMARK  3 active torsions:
REMARK  status: ('A' for Active; 'I' for Inactive)
REMARK    1  A    between atoms: C3'_2  and  C2'_3 
REMARK    2  A    between atoms: C2'_3  and  C1'_4 
REMARK    3  A    between atoms: C1'_4  and  C1_5 
ROOT
ATOM      1  C1  N4B d   1       0.109   5.993  -4.872  0.00  0.00    -0.075 A 
ATOM      2  C2  N4B d   1      -1.187   5.929  -5.429  0.00  0.00     0.002 A 
ATOM      3  C3  N4B d   1      -2.285   5.863  -4.607  0.00  0.00     0.002 A 
ATOM      4  C4  N4B d   1      -2.111   5.841  -3.231  0.00  0.00    -0.004 A 
ATOM      5  C5  N4B d   1      -0.857   5.929  -2.701  0.00  0.00     0.002 A 
ATOM      6  C6  N4B d   1       0.255   6.000  -3.515  0.00  0.00     0.002 A 
ENDROOT
BRANCH   1   7
ATOM      7  C1' N4B d   1       1.344   5.979  -5.731  0.00  0.00     0.057 C 
BRANCH   7   8
ATOM      8  C2' N4B d   1       2.578   5.953  -4.834  0.00  0.00     0.009 C 
BRANCH   8   9
ATOM      9  C3' N4B d   1       3.866   5.999  -5.638  0.00  0.00     0.004 C 
ATOM     10  C4' N4B d   1       5.086   5.779  -4.794  0.00  0.00     0.003 C 
ENDBRANCH   8   9
ENDBRANCH   7   8
ENDBRANCH   1   7
TORSDOF 3
ENDMDL
