MODEL 1
REMARK minimizedAffinity 3.44432044
REMARK minimizedRMSD -1
REMARK  3 active torsions:
REMARK  status: ('A' for Active; 'I' for Inactive)
REMARK    1  A    between atoms: C3'_2  and  C2'_3 
REMARK    2  A    between atoms: C2'_3  and  C1'_4 
REMARK    3  A    between atoms: C1'_4  and  C1_5 
ROOT
ATOM      1  C1  N4B d   1      -0.498   5.978  -4.772  0.00  0.00    -0.075 A 
ATOM      2  C2  N4B d   1      -1.903   5.870  -4.871  0.00  0.00     0.002 A 
ATOM      3  C3  N4B d   1      -2.666   5.777  -3.733  0.00  0.00     0.002 A 
ATOM      4  C4  N4B d   1      -2.049   5.771  -2.491  0.00  0.00    -0.004 A 
ATOM      5  C5  N4B d   1      -0.694   5.902  -2.403  0.00  0.00     0.002 A 
ATOM      6  C6  N4B d   1       0.086   6.000  -3.538  0.00  0.00     0.002 A 
ENDROOT
BRANCH   1   7
ATOM      7  C1' N4B d   1       0.385   5.995  -5.989  0.00  0.00     0.057 C 
BRANCH   7   8
ATOM      8  C2' N4B d   1       1.663   5.216  -5.693  0.00  0.00     0.009 C 
BRANCH   8   9
ATOM      9  C3' N4B d   1       1.761   4.822  -4.229  0.00  0.00     0.004 C 
ATOM     10  C4' N4B d   1       1.826   3.337  -4.030  0.00  0.00     0.003 C 
ENDBRANCH   8   9
ENDBRANCH   7   8
ENDBRANCH   1   7
TORSDOF 3
ENDMDL
