MODEL 1
REMARK minimizedAffinity 3.20061779
REMARK minimizedRMSD -1
REMARK  3 active torsions:
REMARK  status: ('A' for Active; 'I' for Inactive)
REMARK    1  A    between atoms: C3'_2  and  C2'_3 
REMARK    2  A    between atoms: C2'_3  and  C1'_4 
REMARK    3  A    between atoms: C1'_4  and  C1_5 
ROOT
ATOM      1  C1  N4B d   1      -2.457  -1.239  -2.821  0.00  0.00    -0.075 A 
ATOM      2  C2  N4B d   1      -1.063  -1.467  -2.846  0.00  0.00     0.002 A 
ATOM      3  C3  N4B d   1      -0.429  -1.710  -4.039  0.00  0.00     0.002 A 
ATOM      4  C4  N4B d   1      -1.166  -1.750  -5.213  0.00  0.00    -0.004 A 
ATOM      5  C5  N4B d   1      -2.508  -1.504  -5.183  0.00  0.00     0.002 A 
ATOM      6  C6  N4B d   1      -3.158  -1.253  -3.992  0.00  0.00     0.002 A 
ENDROOT
BRANCH   1   7
ATOM      7  C1' N4B d   1      -3.208  -1.054  -1.531  0.00  0.00     0.057 C 
BRANCH   7   8
ATOM      8  C2' N4B d   1      -4.323  -2.092  -1.447  0.00  0.00     0.009 C 
BRANCH   8   9
ATOM      9  C3' N4B d   1      -4.000  -3.193  -0.453  0.00  0.00     0.004 C 
ATOM     10  C4' N4B d   1      -5.192  -4.037  -0.113  0.00  0.00     0.003 C 
ENDBRANCH   8   9
ENDBRANCH   7   8
ENDBRANCH   1   7
TORSDOF 3
ENDMDL
