MODEL 1
REMARK minimizedAffinity 7.91898298
REMARK minimizedRMSD -1
REMARK  2 active torsions:
REMARK  status: ('A' for Active; 'I' for Inactive)
REMARK    1  A    between atoms: C1_2  and  C2_3 
REMARK    2  A    between atoms: C2_3  and  C3_4 
ROOT
ATOM      1  C3  UNL d   1       0.953  -2.499  -0.226  0.00  0.00    -0.075 A 
ATOM      2  C4  UNL d   1       1.270  -3.864  -0.187  0.00  0.00     0.002 A 
ATOM      3  C5  UNL d   1       1.951  -4.402   0.905  0.00  0.00     0.002 A 
ATOM      4  C6  UNL d   1       2.332  -3.583   1.965  0.00  0.00    -0.004 A 
ATOM      5  C7  UNL d   1       2.037  -2.222   1.930  0.00  0.00     0.002 A 
ATOM      6  C8  UNL d   1       1.351  -1.681   0.840  0.00  0.00     0.002 A 
ENDROOT
BRANCH   1   7
ATOM      7  C2  UNL d   1       0.189  -1.916  -1.391  0.00  0.00     0.056 C 
BRANCH   7   8
ATOM      8  C1  UNL d   1      -1.190  -1.362  -1.019  0.00  0.00     0.007 C 
ATOM      9  C   UNL d   1      -1.929  -0.748  -2.201  0.00  0.00     0.009 C 
ENDBRANCH   7   8
ENDBRANCH   1   7
TORSDOF 2
ENDMDL
