MODEL 1
REMARK minimizedAffinity 2.16899586
REMARK minimizedRMSD -1
REMARK  2 active torsions:
REMARK  status: ('A' for Active; 'I' for Inactive)
REMARK    1  A    between atoms: C1_2  and  C2_3 
REMARK    2  A    between atoms: C2_3  and  C3_4 
ROOT
ATOM      1  C3  UNL d   1      -5.898  -0.320  -4.198  0.00  0.00    -0.075 A 
ATOM      2  C4  UNL d   1      -5.994   0.534  -5.306  0.00  0.00     0.002 A 
ATOM      3  C5  UNL d   1      -5.874   1.915  -5.148  0.00  0.00     0.002 A 
ATOM      4  C6  UNL d   1      -5.666   2.459  -3.882  0.00  0.00    -0.004 A 
ATOM      5  C7  UNL d   1      -5.586   1.621  -2.772  0.00  0.00     0.002 A 
ATOM      6  C8  UNL d   1      -5.702   0.238  -2.928  0.00  0.00     0.002 A 
ENDROOT
BRANCH   1   7
ATOM      7  C2  UNL d   1      -5.998  -1.818  -4.366  0.00  0.00     0.056 C 
BRANCH   7   8
ATOM      8  C1  UNL d   1      -5.983  -2.284  -5.826  0.00  0.00     0.007 C 
ATOM      9  C   UNL d   1      -5.620  -3.755  -5.983  0.00  0.00     0.009 C 
ENDBRANCH   7   8
ENDBRANCH   1   7
TORSDOF 2
ENDMDL
