MODEL 1
REMARK minimizedAffinity 11.4030085
REMARK minimizedRMSD -1
REMARK  2 active torsions:
REMARK  status: ('A' for Active; 'I' for Inactive)
REMARK    1  A    between atoms: C1_2  and  C2_3 
REMARK    2  A    between atoms: C2_3  and  C3_4 
ROOT
ATOM      1  C3  UNL d   1       2.391   0.063   2.247  0.00  0.00    -0.075 A 
ATOM      2  C4  UNL d   1       2.226   1.224   3.016  0.00  0.00     0.002 A 
ATOM      3  C5  UNL d   1       2.657   2.460   2.534  0.00  0.00     0.002 A 
ATOM      4  C6  UNL d   1       3.265   2.550   1.284  0.00  0.00    -0.004 A 
ATOM      5  C7  UNL d   1       3.449   1.401   0.518  0.00  0.00     0.002 A 
ATOM      6  C8  UNL d   1       3.015   0.163   0.996  0.00  0.00     0.002 A 
ENDROOT
BRANCH   1   7
ATOM      7  C2  UNL d   1       1.900  -1.273   2.751  0.00  0.00     0.056 C 
BRANCH   7   8
ATOM      8  C1  UNL d   1       2.279  -1.569   4.205  0.00  0.00     0.007 C 
ATOM      9  C   UNL d   1       2.667  -3.023   4.441  0.00  0.00     0.009 C 
ENDBRANCH   7   8
ENDBRANCH   1   7
TORSDOF 2
ENDMDL
