MODEL 1
REMARK minimizedAffinity 8.02116776
REMARK minimizedRMSD -1
REMARK  2 active torsions:
REMARK  status: ('A' for Active; 'I' for Inactive)
REMARK    1  A    between atoms: C1_2  and  C2_3 
REMARK    2  A    between atoms: C2_3  and  C3_4 
ROOT
ATOM      1  C3  UNL d   1       1.435  -0.861   1.877  0.00  0.00    -0.075 A 
ATOM      2  C4  UNL d   1       2.582  -0.256   1.343  0.00  0.00     0.002 A 
ATOM      3  C5  UNL d   1       3.823  -0.428   1.956  0.00  0.00     0.002 A 
ATOM      4  C6  UNL d   1       3.932  -1.195   3.113  0.00  0.00    -0.004 A 
ATOM      5  C7  UNL d   1       2.796  -1.787   3.662  0.00  0.00     0.002 A 
ATOM      6  C8  UNL d   1       1.554  -1.620   3.049  0.00  0.00     0.002 A 
ENDROOT
BRANCH   1   7
ATOM      7  C2  UNL d   1       0.093  -0.703   1.202  0.00  0.00     0.056 C 
BRANCH   7   8
ATOM      8  C1  UNL d   1       0.048  -1.246  -0.230  0.00  0.00     0.007 C 
ATOM      9  C   UNL d   1      -1.350  -1.231  -0.834  0.00  0.00     0.009 C 
ENDBRANCH   7   8
ENDBRANCH   1   7
TORSDOF 2
ENDMDL
