MODEL 1
REMARK minimizedAffinity 11.1943188
REMARK minimizedRMSD -1
REMARK  2 active torsions:
REMARK  status: ('A' for Active; 'I' for Inactive)
REMARK    1  A    between atoms: C1_2  and  C2_3 
REMARK    2  A    between atoms: C2_3  and  C3_4 
ROOT
ATOM      1  C3  UNL d   1       2.384  -2.764   3.572  0.00  0.00    -0.075 A 
ATOM      2  C4  UNL d   1       1.370  -1.988   2.992  0.00  0.00     0.002 A 
ATOM      3  C5  UNL d   1       1.681  -0.810   2.313  0.00  0.00     0.002 A 
ATOM      4  C6  UNL d   1       3.005  -0.387   2.215  0.00  0.00    -0.004 A 
ATOM      5  C7  UNL d   1       4.019  -1.142   2.802  0.00  0.00     0.002 A 
ATOM      6  C8  UNL d   1       3.711  -2.324   3.478  0.00  0.00     0.002 A 
ENDROOT
BRANCH   1   7
ATOM      7  C2  UNL d   1       2.057  -4.056   4.282  0.00  0.00     0.056 C 
BRANCH   7   8
ATOM      8  C1  UNL d   1       0.558  -4.361   4.365  0.00  0.00     0.007 C 
ATOM      9  C   UNL d   1       0.196  -5.293   5.513  0.00  0.00     0.009 C 
ENDBRANCH   7   8
ENDBRANCH   1   7
TORSDOF 2
ENDMDL
