MODEL 1
REMARK minimizedAffinity 8.29236698
REMARK minimizedRMSD -1
REMARK  2 active torsions:
REMARK  status: ('A' for Active; 'I' for Inactive)
REMARK    1  A    between atoms: C1_2  and  C2_3 
REMARK    2  A    between atoms: C2_3  and  C3_4 
ROOT
ATOM      1  C3  UNL d   1       1.084  -1.669   0.972  0.00  0.00    -0.075 A 
ATOM      2  C4  UNL d   1       1.267  -2.526  -0.123  0.00  0.00     0.002 A 
ATOM      3  C5  UNL d   1       0.307  -2.600  -1.132  0.00  0.00     0.002 A 
ATOM      4  C6  UNL d   1      -0.851  -1.828  -1.055  0.00  0.00    -0.004 A 
ATOM      5  C7  UNL d   1      -1.050  -0.986   0.037  0.00  0.00     0.002 A 
ATOM      6  C8  UNL d   1      -0.089  -0.906   1.046  0.00  0.00     0.002 A 
ENDROOT
BRANCH   1   7
ATOM      7  C2  UNL d   1       2.134  -1.562   2.053  0.00  0.00     0.056 C 
BRANCH   7   8
ATOM      8  C1  UNL d   1       1.820  -0.513   3.125  0.00  0.00     0.007 C 
ATOM      9  C   UNL d   1       1.720  -1.099   4.527  0.00  0.00     0.009 C 
ENDBRANCH   7   8
ENDBRANCH   1   7
TORSDOF 2
ENDMDL
