MODEL 1
REMARK minimizedAffinity -1.96254206
REMARK minimizedRMSD -1
REMARK  0 active torsions:
REMARK  status: ('A' for Active; 'I' for Inactive)
ROOT
ATOM      1  C   UNL d   1       0.010  -1.771   3.646  0.00  0.00    -0.002 A 
ATOM      2  C1  UNL d   1      -1.001  -0.894   3.279  0.00  0.00     0.010 A 
ATOM      3  C2  UNL d   1      -0.948  -0.223   2.056  0.00  0.00     0.041 A 
ATOM      4  C3  UNL d   1       0.147  -0.451   1.199  0.00  0.00    -0.075 A 
ATOM      5  S   UNL d   1       0.422   0.259  -0.347  0.00  0.00     0.015 SA
ATOM      6  C4  UNL d   1       1.888  -0.585  -0.557  0.00  0.00     0.022 A 
ATOM      7  C5  UNL d   1       2.175  -1.393   0.517  0.00  0.00     0.026 A 
ATOM      8  C6  UNL d   1       1.176  -1.330   1.547  0.00  0.00    -0.082 A 
ATOM      9  C7  UNL d   1       1.095  -1.995   2.794  0.00  0.00     0.045 A 
ENDROOT
TORSDOF 0
ENDMDL
