MODEL 1
REMARK minimizedAffinity 0.0048314156
REMARK minimizedRMSD -1
REMARK  0 active torsions:
REMARK  status: ('A' for Active; 'I' for Inactive)
ROOT
ATOM      1  C   UNL d   1       0.440   0.189   0.410  0.00  0.00    -0.002 A 
ATOM      2  C1  UNL d   1       0.756  -0.770  -0.543  0.00  0.00     0.010 A 
ATOM      3  C2  UNL d   1       0.147  -0.749  -1.799  0.00  0.00     0.041 A 
ATOM      4  C3  UNL d   1      -0.791   0.262  -2.086  0.00  0.00    -0.075 A 
ATOM      5  S   UNL d   1      -1.661   0.486  -3.558  0.00  0.00     0.015 SA
ATOM      6  C4  UNL d   1      -2.471   1.859  -2.957  0.00  0.00     0.022 A 
ATOM      7  C5  UNL d   1      -2.099   2.154  -1.667  0.00  0.00     0.026 A 
ATOM      8  C6  UNL d   1      -1.124   1.238  -1.144  0.00  0.00    -0.082 A 
ATOM      9  C7  UNL d   1      -0.491   1.190   0.122  0.00  0.00     0.045 A 
ENDROOT
TORSDOF 0
ENDMDL
