MODEL 1
REMARK minimizedAffinity -4.14491844
REMARK minimizedRMSD -1
REMARK  0 active torsions:
REMARK  status: ('A' for Active; 'I' for Inactive)
ROOT
ATOM      1  C   UNL d   1       1.046  -0.190   0.115  0.00  0.00    -0.002 A 
ATOM      2  C1  UNL d   1       1.323  -0.848  -1.075  0.00  0.00     0.010 A 
ATOM      3  C2  UNL d   1       0.477  -0.708  -2.177  0.00  0.00     0.041 A 
ATOM      4  C3  UNL d   1      -0.662   0.113  -2.063  0.00  0.00    -0.075 A 
ATOM      5  S   UNL d   1      -1.839   0.434  -3.281  0.00  0.00     0.015 SA
ATOM      6  C4  UNL d   1      -2.737   1.452  -2.250  0.00  0.00     0.022 A 
ATOM      7  C5  UNL d   1      -2.167   1.556  -1.004  0.00  0.00     0.026 A 
ATOM      8  C6  UNL d   1      -0.962   0.787  -0.875  0.00  0.00    -0.082 A 
ATOM      9  C7  UNL d   1      -0.085   0.624   0.225  0.00  0.00     0.045 A 
ENDROOT
TORSDOF 0
ENDMDL
