MODEL 1
REMARK minimizedAffinity 9.28256416
REMARK minimizedRMSD -1
REMARK  0 active torsions:
REMARK  status: ('A' for Active; 'I' for Inactive)
ROOT
ATOM      1  C   UNL d   1      -2.146   5.928  -2.432  0.00  0.00    -0.002 A 
ATOM      2  C1  UNL d   1      -1.282   4.979  -2.960  0.00  0.00     0.010 A 
ATOM      3  C2  UNL d   1      -1.619   3.625  -2.946  0.00  0.00     0.041 A 
ATOM      4  C3  UNL d   1      -2.852   3.235  -2.388  0.00  0.00    -0.075 A 
ATOM      5  S   UNL d   1      -3.476   1.633  -2.262  0.00  0.00     0.015 SA
ATOM      6  C4  UNL d   1      -4.906   2.169  -1.505  0.00  0.00     0.022 A 
ATOM      7  C5  UNL d   1      -4.923   3.535  -1.344  0.00  0.00     0.026 A 
ATOM      8  C6  UNL d   1      -3.740   4.172  -1.851  0.00  0.00    -0.082 A 
ATOM      9  C7  UNL d   1      -3.369   5.537  -1.880  0.00  0.00     0.045 A 
ENDROOT
TORSDOF 0
ENDMDL
