MODEL 1
REMARK minimizedAffinity -1.3595525
REMARK minimizedRMSD -1
REMARK  0 active torsions:
REMARK  status: ('A' for Active; 'I' for Inactive)
ROOT
ATOM      1  C   UNL d   1       0.356   0.035   0.446  0.00  0.00    -0.002 A 
ATOM      2  C1  UNL d   1       0.584  -0.962  -0.492  0.00  0.00     0.010 A 
ATOM      3  C2  UNL d   1       0.018  -0.881  -1.766  0.00  0.00     0.041 A 
ATOM      4  C3  UNL d   1      -0.785   0.232  -2.085  0.00  0.00    -0.075 A 
ATOM      5  S   UNL d   1      -1.580   0.544  -3.583  0.00  0.00     0.015 SA
ATOM      6  C4  UNL d   1      -2.239   2.009  -3.013  0.00  0.00     0.022 A 
ATOM      7  C5  UNL d   1      -1.873   2.268  -1.714  0.00  0.00     0.026 A 
ATOM      8  C6  UNL d   1      -1.028   1.249  -1.158  0.00  0.00    -0.082 A 
ATOM      9  C7  UNL d   1      -0.442   1.136   0.126  0.00  0.00     0.045 A 
ENDROOT
TORSDOF 0
ENDMDL
