MODEL 1
REMARK minimizedAffinity 10.4579935
REMARK minimizedRMSD -1
REMARK  0 active torsions:
REMARK  status: ('A' for Active; 'I' for Inactive)
ROOT
ATOM      1  C   UNL d   1      -0.902  -0.802  -0.264  0.00  0.00    -0.002 A 
ATOM      2  C1  UNL d   1      -0.845  -0.151   0.960  0.00  0.00     0.010 A 
ATOM      3  C2  UNL d   1       0.283   0.590   1.320  0.00  0.00     0.041 A 
ATOM      4  C3  UNL d   1       1.363   0.667   0.418  0.00  0.00    -0.075 A 
ATOM      5  S   UNL d   1       2.846   1.517   0.644  0.00  0.00     0.015 SA
ATOM      6  C4  UNL d   1       3.439   1.036  -0.880  0.00  0.00     0.022 A 
ATOM      7  C5  UNL d   1       2.541   0.246  -1.557  0.00  0.00     0.026 A 
ATOM      8  C6  UNL d   1       1.329   0.021  -0.821  0.00  0.00    -0.082 A 
ATOM      9  C7  UNL d   1       0.172  -0.723  -1.155  0.00  0.00     0.045 A 
ENDROOT
TORSDOF 0
ENDMDL
