MODEL 1
REMARK minimizedAffinity -1.83294129
REMARK minimizedRMSD -1
REMARK  0 active torsions:
REMARK  status: ('A' for Active; 'I' for Inactive)
ROOT
ATOM      1  C   UNL d   1       1.425  -0.240   0.316  0.00  0.00    -0.002 A 
ATOM      2  C1  UNL d   1       1.498  -1.063  -0.799  0.00  0.00     0.010 A 
ATOM      3  C2  UNL d   1       0.619  -0.888  -1.870  0.00  0.00     0.041 A 
ATOM      4  C3  UNL d   1      -0.341   0.140  -1.802  0.00  0.00    -0.075 A 
ATOM      5  S   UNL d   1      -1.520   0.542  -2.994  0.00  0.00     0.015 SA
ATOM      6  C4  UNL d   1      -2.147   1.817  -2.052  0.00  0.00     0.022 A 
ATOM      7  C5  UNL d   1      -1.485   1.946  -0.854  0.00  0.00     0.026 A 
ATOM      8  C6  UNL d   1      -0.433   0.983  -0.690  0.00  0.00    -0.082 A 
ATOM      9  C7  UNL d   1       0.471   0.779   0.380  0.00  0.00     0.045 A 
ENDROOT
TORSDOF 0
ENDMDL
