MODEL 1
REMARK minimizedAffinity 0.275765151
REMARK minimizedRMSD -1
REMARK  0 active torsions:
REMARK  status: ('A' for Active; 'I' for Inactive)
ROOT
ATOM      1  C   UNL d   1       1.435  -0.843  -1.057  0.00  0.00    -0.002 A 
ATOM      2  C1  UNL d   1       1.173  -0.032   0.038  0.00  0.00     0.010 A 
ATOM      3  C2  UNL d   1       0.168   0.936  -0.019  0.00  0.00     0.041 A 
ATOM      4  C3  UNL d   1      -0.577   1.075  -1.207  0.00  0.00    -0.075 A 
ATOM      5  S   UNL d   1      -1.856   2.191  -1.507  0.00  0.00     0.015 SA
ATOM      6  C4  UNL d   1      -2.085   1.617  -3.095  0.00  0.00     0.022 A 
ATOM      7  C5  UNL d   1      -1.215   0.599  -3.406  0.00  0.00     0.026 A 
ATOM      8  C6  UNL d   1      -0.332   0.269  -2.322  0.00  0.00    -0.082 A 
ATOM      9  C7  UNL d   1       0.694  -0.703  -2.233  0.00  0.00     0.045 A 
ENDROOT
TORSDOF 0
ENDMDL
