MODEL 1
REMARK minimizedAffinity 10.5884638
REMARK minimizedRMSD -1
REMARK  0 active torsions:
REMARK  status: ('A' for Active; 'I' for Inactive)
ROOT
ATOM      1  C   UNL d   1      -2.592   1.711   0.004  0.00  0.00    -0.002 A 
ATOM      2  C1  UNL d   1      -1.916   1.454   1.189  0.00  0.00     0.010 A 
ATOM      3  C2  UNL d   1      -1.490   0.161   1.498  0.00  0.00     0.041 A 
ATOM      4  C3  UNL d   1      -1.756  -0.880   0.586  0.00  0.00    -0.075 A 
ATOM      5  S   UNL d   1      -1.328  -2.542   0.752  0.00  0.00     0.015 SA
ATOM      6  C4  UNL d   1      -2.031  -2.950  -0.746  0.00  0.00     0.022 A 
ATOM      7  C5  UNL d   1      -2.584  -1.857  -1.371  0.00  0.00     0.026 A 
ATOM      8  C6  UNL d   1      -2.433  -0.646  -0.614  0.00  0.00    -0.082 A 
ATOM      9  C7  UNL d   1      -2.853   0.676  -0.898  0.00  0.00     0.045 A 
ENDROOT
TORSDOF 0
ENDMDL
