MODEL 1
REMARK minimizedAffinity -4.73304033
REMARK minimizedRMSD -1
REMARK  0 active torsions:
REMARK  status: ('A' for Active; 'I' for Inactive)
ROOT
ATOM      1  C   UNL d   1      -1.685  -2.599   1.079  0.00  0.00     0.078 C 
ATOM      2  C1  UNL d   1      -0.823  -1.461   0.621  0.00  0.00    -0.077 A 
ATOM      3  C2  UNL d   1       0.482  -1.683   0.165  0.00  0.00    -0.001 A 
ATOM      4  C3  UNL d   1       1.277  -0.612  -0.249  0.00  0.00     0.003 A 
ATOM      5  C4  UNL d   1       0.775   0.687  -0.210  0.00  0.00    -0.005 A 
ATOM      6  C5  UNL d   1      -0.521   0.918   0.244  0.00  0.00     0.003 A 
ATOM      7  C6  UNL d   1      -1.317  -0.151   0.659  0.00  0.00    -0.001 A 
ENDROOT
TORSDOF 0
ENDMDL
