MODEL 1
REMARK minimizedAffinity -4.05924463
REMARK minimizedRMSD -1
REMARK  0 active torsions:
REMARK  status: ('A' for Active; 'I' for Inactive)
ROOT
ATOM      1  C   UNL d   1      -1.778  -2.274   0.421  0.00  0.00     0.078 C 
ATOM      2  C1  UNL d   1      -1.004  -1.016   0.162  0.00  0.00    -0.077 A 
ATOM      3  C2  UNL d   1       0.323  -1.064  -0.281  0.00  0.00    -0.001 A 
ATOM      4  C3  UNL d   1       1.035   0.115  -0.508  0.00  0.00     0.003 A 
ATOM      5  C4  UNL d   1       0.427   1.351  -0.294  0.00  0.00    -0.005 A 
ATOM      6  C5  UNL d   1      -0.892   1.409   0.148  0.00  0.00     0.003 A 
ATOM      7  C6  UNL d   1      -1.606   0.231   0.376  0.00  0.00    -0.001 A 
ENDROOT
TORSDOF 0
ENDMDL
