MODEL 1
REMARK minimizedAffinity -4.36398745
REMARK minimizedRMSD -1
REMARK  0 active torsions:
REMARK  status: ('A' for Active; 'I' for Inactive)
ROOT
ATOM      1  C   UNL d   1      -1.923  -2.533   1.430  0.00  0.00     0.078 C 
ATOM      2  C1  UNL d   1      -1.224  -1.263   1.046  0.00  0.00    -0.077 A 
ATOM      3  C2  UNL d   1       0.094  -1.280   0.573  0.00  0.00    -0.001 A 
ATOM      4  C3  UNL d   1       0.735  -0.089   0.229  0.00  0.00     0.003 A 
ATOM      5  C4  UNL d   1       0.068   1.127   0.355  0.00  0.00    -0.005 A 
ATOM      6  C5  UNL d   1      -1.243   1.154   0.827  0.00  0.00     0.003 A 
ATOM      7  C6  UNL d   1      -1.886  -0.035   1.172  0.00  0.00    -0.001 A 
ENDROOT
TORSDOF 0
ENDMDL
