MODEL 1
REMARK minimizedAffinity -5.16226292
REMARK minimizedRMSD -1
REMARK  0 active torsions:
REMARK  status: ('A' for Active; 'I' for Inactive)
ROOT
ATOM      1  C   UNL d   1       0.767   0.919  -0.874  0.00  0.00     0.078 C 
ATOM      2  C1  UNL d   1       0.179  -0.166  -0.022  0.00  0.00    -0.077 A 
ATOM      3  C2  UNL d   1       0.793  -1.420   0.074  0.00  0.00    -0.001 A 
ATOM      4  C3  UNL d   1       0.230  -2.424   0.864  0.00  0.00     0.003 A 
ATOM      5  C4  UNL d   1      -0.951  -2.183   1.564  0.00  0.00    -0.005 A 
ATOM      6  C5  UNL d   1      -1.571  -0.938   1.473  0.00  0.00     0.003 A 
ATOM      7  C6  UNL d   1      -1.009   0.066   0.683  0.00  0.00    -0.001 A 
ENDROOT
TORSDOF 0
ENDMDL
