MODEL 1
REMARK minimizedAffinity -3.48944139
REMARK minimizedRMSD -1
REMARK  0 active torsions:
REMARK  status: ('A' for Active; 'I' for Inactive)
ROOT
ATOM      1  C   UNL d   1       0.578   1.067  -0.641  0.00  0.00     0.078 C 
ATOM      2  C1  UNL d   1      -0.088   0.055   0.242  0.00  0.00    -0.077 A 
ATOM      3  C2  UNL d   1      -1.168   0.410   1.059  0.00  0.00    -0.001 A 
ATOM      4  C3  UNL d   1      -1.772  -0.540   1.884  0.00  0.00     0.003 A 
ATOM      5  C4  UNL d   1      -1.301  -1.852   1.901  0.00  0.00    -0.005 A 
ATOM      6  C5  UNL d   1      -0.225  -2.214   1.094  0.00  0.00     0.003 A 
ATOM      7  C6  UNL d   1       0.380  -1.265   0.268  0.00  0.00    -0.001 A 
ENDROOT
TORSDOF 0
ENDMDL
