MODEL 1
REMARK minimizedAffinity -4.03505945
REMARK minimizedRMSD -1
REMARK  0 active torsions:
REMARK  status: ('A' for Active; 'I' for Inactive)
ROOT
ATOM      1  C   UNL d   1       0.177   0.697  -0.440  0.00  0.00     0.078 C 
ATOM      2  C1  UNL d   1      -0.410  -0.471   0.294  0.00  0.00    -0.077 A 
ATOM      3  C2  UNL d   1      -1.518  -0.312   1.135  0.00  0.00    -0.001 A 
ATOM      4  C3  UNL d   1      -2.049  -1.407   1.819  0.00  0.00     0.003 A 
ATOM      5  C4  UNL d   1      -1.477  -2.669   1.670  0.00  0.00    -0.005 A 
ATOM      6  C5  UNL d   1      -0.372  -2.837   0.837  0.00  0.00     0.003 A 
ATOM      7  C6  UNL d   1       0.159  -1.743   0.152  0.00  0.00    -0.001 A 
ENDROOT
TORSDOF 0
ENDMDL
