MODEL 1
REMARK minimizedAffinity -4.21955299
REMARK minimizedRMSD -1
REMARK  0 active torsions:
REMARK  status: ('A' for Active; 'I' for Inactive)
ROOT
ATOM      1  C   UNL d   1       0.718   1.547   0.139  0.00  0.00     0.078 C 
ATOM      2  C1  UNL d   1       1.077   1.798  -1.296  0.00  0.00    -0.077 A 
ATOM      3  C2  UNL d   1       0.140   2.324  -2.192  0.00  0.00    -0.001 A 
ATOM      4  C3  UNL d   1       0.485   2.544  -3.527  0.00  0.00     0.003 A 
ATOM      5  C4  UNL d   1       1.768   2.239  -3.977  0.00  0.00    -0.005 A 
ATOM      6  C5  UNL d   1       2.707   1.713  -3.092  0.00  0.00     0.003 A 
ATOM      7  C6  UNL d   1       2.364   1.493  -1.757  0.00  0.00    -0.001 A 
ENDROOT
TORSDOF 0
ENDMDL
