MODEL 1
REMARK minimizedAffinity -3.25193763
REMARK minimizedRMSD -1
REMARK  0 active torsions:
REMARK  status: ('A' for Active; 'I' for Inactive)
ROOT
ATOM      1  C   UNL d   1      -2.049  -1.858   0.037  0.00  0.00     0.078 C 
ATOM      2  C1  UNL d   1      -1.282  -0.577   0.178  0.00  0.00    -0.077 A 
ATOM      3  C2  UNL d   1      -1.944   0.650   0.310  0.00  0.00    -0.001 A 
ATOM      4  C3  UNL d   1      -1.216   1.835   0.431  0.00  0.00     0.003 A 
ATOM      5  C4  UNL d   1       0.177   1.805   0.419  0.00  0.00    -0.005 A 
ATOM      6  C5  UNL d   1       0.844   0.589   0.285  0.00  0.00     0.003 A 
ATOM      7  C6  UNL d   1       0.118  -0.597   0.165  0.00  0.00    -0.001 A 
ENDROOT
TORSDOF 0
ENDMDL
