MODEL 1
REMARK minimizedAffinity -4.13246346
REMARK minimizedRMSD -1
REMARK  0 active torsions:
REMARK  status: ('A' for Active; 'I' for Inactive)
ROOT
ATOM      1  C   UNL d   1      -1.447  -2.940   1.222  0.00  0.00     0.078 C 
ATOM      2  C1  UNL d   1      -0.572  -1.852   0.675  0.00  0.00    -0.077 A 
ATOM      3  C2  UNL d   1      -1.064  -0.553   0.494  0.00  0.00    -0.001 A 
ATOM      4  C3  UNL d   1      -0.242   0.448  -0.026  0.00  0.00     0.003 A 
ATOM      5  C4  UNL d   1       1.077   0.160  -0.370  0.00  0.00    -0.005 A 
ATOM      6  C5  UNL d   1       1.575  -1.130  -0.196  0.00  0.00     0.003 A 
ATOM      7  C6  UNL d   1       0.754  -2.132   0.323  0.00  0.00    -0.001 A 
ENDROOT
TORSDOF 0
ENDMDL
