MODEL 1
REMARK minimizedAffinity -4.4358778
REMARK minimizedRMSD -1
REMARK  0 active torsions:
REMARK  status: ('A' for Active; 'I' for Inactive)
ROOT
ATOM      1  C   UNL d   1       1.123   1.582  -1.467  0.00  0.00     0.078 C 
ATOM      2  C1  UNL d   1       0.806   0.304  -0.749  0.00  0.00    -0.077 A 
ATOM      3  C2  UNL d   1       0.030   0.304   0.416  0.00  0.00    -0.001 A 
ATOM      4  C3  UNL d   1      -0.248  -0.892   1.079  0.00  0.00     0.003 A 
ATOM      5  C4  UNL d   1       0.247  -2.098   0.585  0.00  0.00    -0.005 A 
ATOM      6  C5  UNL d   1       1.022  -2.108  -0.573  0.00  0.00     0.003 A 
ATOM      7  C6  UNL d   1       1.301  -0.913  -1.237  0.00  0.00    -0.001 A 
ENDROOT
TORSDOF 0
ENDMDL
