MODEL 1
REMARK minimizedAffinity -4.61041498
REMARK minimizedRMSD -1
REMARK  0 active torsions:
REMARK  status: ('A' for Active; 'I' for Inactive)
ROOT
ATOM      1  C   UNL d   1      -1.268  -2.420   1.213  0.00  0.00     0.078 C 
ATOM      2  C1  UNL d   1      -0.582  -1.146   0.819  0.00  0.00    -0.077 A 
ATOM      3  C2  UNL d   1       0.752  -1.146   0.396  0.00  0.00    -0.001 A 
ATOM      4  C3  UNL d   1       1.381   0.048   0.042  0.00  0.00     0.003 A 
ATOM      5  C4  UNL d   1       0.683   1.253   0.109  0.00  0.00    -0.005 A 
ATOM      6  C5  UNL d   1      -0.644   1.263   0.531  0.00  0.00     0.003 A 
ATOM      7  C6  UNL d   1      -1.275   0.070   0.886  0.00  0.00    -0.001 A 
ENDROOT
TORSDOF 0
ENDMDL
