MODEL 1
REMARK minimizedAffinity -3.67980003
REMARK minimizedRMSD -1
REMARK  0 active torsions:
REMARK  status: ('A' for Active; 'I' for Inactive)
ROOT
ATOM      1  C   UNL d   1       0.475  -2.278   0.497  0.00  0.00     0.078 C 
ATOM      2  C1  UNL d   1       0.163  -0.816   0.382  0.00  0.00    -0.077 A 
ATOM      3  C2  UNL d   1      -0.774  -0.209   1.228  0.00  0.00    -0.001 A 
ATOM      4  C3  UNL d   1      -1.062   1.151   1.103  0.00  0.00     0.003 A 
ATOM      5  C4  UNL d   1      -0.419   1.916   0.132  0.00  0.00    -0.005 A 
ATOM      6  C5  UNL d   1       0.513   1.321  -0.716  0.00  0.00     0.003 A 
ATOM      7  C6  UNL d   1       0.802  -0.039  -0.593  0.00  0.00    -0.001 A 
ENDROOT
TORSDOF 0
ENDMDL
