MODEL 1
REMARK minimizedAffinity -4.336236
REMARK minimizedRMSD -1
REMARK  0 active torsions:
REMARK  status: ('A' for Active; 'I' for Inactive)
ROOT
ATOM      1  C   UNL d   1      -1.453  -2.648   1.141  0.00  0.00     0.078 C 
ATOM      2  C1  UNL d   1      -0.812  -1.340   0.782  0.00  0.00    -0.077 A 
ATOM      3  C2  UNL d   1      -1.533  -0.142   0.847  0.00  0.00    -0.001 A 
ATOM      4  C3  UNL d   1      -0.926   1.067   0.501  0.00  0.00     0.003 A 
ATOM      5  C4  UNL d   1       0.404   1.088   0.086  0.00  0.00    -0.005 A 
ATOM      6  C5  UNL d   1       1.129  -0.100   0.016  0.00  0.00     0.003 A 
ATOM      7  C6  UNL d   1       0.523  -1.309   0.362  0.00  0.00    -0.001 A 
ENDROOT
TORSDOF 0
ENDMDL
