MODEL 1
REMARK minimizedAffinity -5.63869619
REMARK minimizedRMSD -1
REMARK  0 active torsions:
REMARK  status: ('A' for Active; 'I' for Inactive)
ROOT
ATOM      1  C   UNL d   1      -0.108   0.503  -0.565  0.00  0.00     0.078 C 
ATOM      2  C1  UNL d   1      -1.022  -0.384   0.226  0.00  0.00    -0.077 A 
ATOM      3  C2  UNL d   1      -2.104   0.147   0.939  0.00  0.00    -0.001 A 
ATOM      4  C3  UNL d   1      -2.941  -0.690   1.679  0.00  0.00     0.003 A 
ATOM      5  C4  UNL d   1      -2.704  -2.063   1.713  0.00  0.00    -0.005 A 
ATOM      6  C5  UNL d   1      -1.629  -2.600   1.008  0.00  0.00     0.003 A 
ATOM      7  C6  UNL d   1      -0.791  -1.765   0.268  0.00  0.00    -0.001 A 
ENDROOT
TORSDOF 0
ENDMDL
