MODEL 1
REMARK minimizedAffinity -4.44030428
REMARK minimizedRMSD -1
REMARK  0 active torsions:
REMARK  status: ('A' for Active; 'I' for Inactive)
ROOT
ATOM      1  C   UNL d   1       0.763   0.750  -0.751  0.00  0.00     0.078 C 
ATOM      2  C1  UNL d   1       0.101  -0.438  -0.118  0.00  0.00    -0.077 A 
ATOM      3  C2  UNL d   1       0.771  -1.213   0.835  0.00  0.00    -0.001 A 
ATOM      4  C3  UNL d   1       0.147  -2.322   1.409  0.00  0.00     0.003 A 
ATOM      5  C4  UNL d   1      -1.151  -2.666   1.034  0.00  0.00    -0.005 A 
ATOM      6  C5  UNL d   1      -1.825  -1.901   0.084  0.00  0.00     0.003 A 
ATOM      7  C6  UNL d   1      -1.202  -0.792  -0.490  0.00  0.00    -0.001 A 
ENDROOT
TORSDOF 0
ENDMDL
