MODEL 1
REMARK minimizedAffinity -5.36212206
REMARK minimizedRMSD -1
REMARK  0 active torsions:
REMARK  status: ('A' for Active; 'I' for Inactive)
ROOT
ATOM      1  C   UNL d   1      -1.907  -2.726   0.588  0.00  0.00     0.078 C 
ATOM      2  C1  UNL d   1      -1.031  -1.524   0.395  0.00  0.00    -0.077 A 
ATOM      3  C2  UNL d   1      -1.583  -0.250   0.218  0.00  0.00    -0.001 A 
ATOM      4  C3  UNL d   1      -0.756   0.859   0.029  0.00  0.00     0.003 A 
ATOM      5  C4  UNL d   1       0.629   0.704   0.014  0.00  0.00    -0.005 A 
ATOM      6  C5  UNL d   1       1.188  -0.561   0.187  0.00  0.00     0.003 A 
ATOM      7  C6  UNL d   1       0.362  -1.670   0.376  0.00  0.00    -0.001 A 
ENDROOT
TORSDOF 0
ENDMDL
