MODEL 1
REMARK minimizedAffinity -2.24161649
REMARK minimizedRMSD -1
REMARK  1 active torsions:
REMARK  status: ('A' for Active; 'I' for Inactive)
REMARK    1  A    between atoms: C3_4  and  O_7 
ROOT
ATOM      1  C   UNL d   1      -0.111   0.236  -0.878  0.00  0.00    -0.033 A 
ATOM      2  C1  UNL d   1       0.808  -0.592  -1.525  0.00  0.00     0.039 A 
ATOM      3  C2  UNL d   1       0.952  -1.923  -1.127  0.00  0.00    -0.080 A 
ATOM      4  C3  UNL d   1       0.173  -2.411  -0.082  0.00  0.00     0.150 A 
ATOM      5  C4  UNL d   1      -0.747  -1.592   0.565  0.00  0.00    -0.007 A 
ATOM      6  C5  UNL d   1      -0.889  -0.264   0.166  0.00  0.00     0.039 A 
ENDROOT
BRANCH   4   7
ATOM      7  O   UNL d   1       0.282  -3.701   0.346  0.00  0.00    -0.526 OA
ATOM      8  H5  UNL d   1       0.977  -4.140  -0.174  0.00  0.00     0.418 HD
ENDBRANCH   4   7
TORSDOF 1
ENDMDL
