MODEL 1
REMARK minimizedAffinity -3.40728521
REMARK minimizedRMSD -1
REMARK  1 active torsions:
REMARK  status: ('A' for Active; 'I' for Inactive)
REMARK    1  A    between atoms: C3_4  and  O_7 
ROOT
ATOM      1  C   UNL d   1       1.549   3.433   0.584  0.00  0.00    -0.033 A 
ATOM      2  C1  UNL d   1       2.366   2.379   0.997  0.00  0.00     0.039 A 
ATOM      3  C2  UNL d   1       1.952   1.058   0.811  0.00  0.00    -0.080 A 
ATOM      4  C3  UNL d   1       0.722   0.806   0.212  0.00  0.00     0.150 A 
ATOM      5  C4  UNL d   1      -0.096   1.851  -0.205  0.00  0.00    -0.007 A 
ATOM      6  C5  UNL d   1       0.319   3.169  -0.018  0.00  0.00     0.039 A 
ENDROOT
BRANCH   4   7
ATOM      7  O   UNL d   1       0.273  -0.466   0.014  0.00  0.00    -0.526 OA
ATOM      8  H5  UNL d   1       0.929  -1.084   0.378  0.00  0.00     0.418 HD
ENDBRANCH   4   7
TORSDOF 1
ENDMDL
