MODEL 1
REMARK minimizedAffinity -3.65757132
REMARK minimizedRMSD -1
REMARK  1 active torsions:
REMARK  status: ('A' for Active; 'I' for Inactive)
REMARK    1  A    between atoms: C3_4  and  O_7 
ROOT
ATOM      1  C   UNL d   1      -1.026  -0.009   1.264  0.00  0.00    -0.033 A 
ATOM      2  C1  UNL d   1      -2.072  -0.923   1.410  0.00  0.00     0.039 A 
ATOM      3  C2  UNL d   1      -1.864  -2.275   1.130  0.00  0.00    -0.080 A 
ATOM      4  C3  UNL d   1      -0.608  -2.700   0.705  0.00  0.00     0.150 A 
ATOM      5  C4  UNL d   1       0.439  -1.796   0.561  0.00  0.00    -0.007 A 
ATOM      6  C5  UNL d   1       0.230  -0.446   0.840  0.00  0.00     0.039 A 
ENDROOT
BRANCH   4   7
ATOM      7  O   UNL d   1      -0.359  -4.008   0.415  0.00  0.00    -0.526 OA
ATOM      8  H5  UNL d   1      -1.182  -4.512   0.532  0.00  0.00     0.418 HD
ENDBRANCH   4   7
TORSDOF 1
ENDMDL
