MODEL 1
REMARK minimizedAffinity -1.77341318
REMARK minimizedRMSD -1
REMARK  1 active torsions:
REMARK  status: ('A' for Active; 'I' for Inactive)
REMARK    1  A    between atoms: C3_4  and  O_7 
ROOT
ATOM      1  C   UNL d   1       0.559   2.661  -1.355  0.00  0.00    -0.033 A 
ATOM      2  C1  UNL d   1       0.164   1.408  -1.830  0.00  0.00     0.039 A 
ATOM      3  C2  UNL d   1       0.107   0.317  -0.960  0.00  0.00    -0.080 A 
ATOM      4  C3  UNL d   1       0.445   0.492   0.379  0.00  0.00     0.150 A 
ATOM      5  C4  UNL d   1       0.836   1.738   0.859  0.00  0.00    -0.007 A 
ATOM      6  C5  UNL d   1       0.894   2.826  -0.011  0.00  0.00     0.039 A 
ENDROOT
BRANCH   4   7
ATOM      7  O   UNL d   1       0.409  -0.544   1.264  0.00  0.00    -0.526 OA
ATOM      8  H5  UNL d   1       0.149  -1.349   0.785  0.00  0.00     0.418 HD
ENDBRANCH   4   7
TORSDOF 1
ENDMDL
