MODEL 1
REMARK minimizedAffinity -4.78799963
REMARK minimizedRMSD -1
REMARK  1 active torsions:
REMARK  status: ('A' for Active; 'I' for Inactive)
REMARK    1  A    between atoms: C3_4  and  O_7 
ROOT
ATOM      1  C   UNL d   1      -0.375  -2.572  -2.556  0.00  0.00    -0.033 A 
ATOM      2  C1  UNL d   1      -1.012  -3.248  -1.513  0.00  0.00     0.039 A 
ATOM      3  C2  UNL d   1      -1.216  -2.610  -0.288  0.00  0.00    -0.080 A 
ATOM      4  C3  UNL d   1      -0.781  -1.299  -0.119  0.00  0.00     0.150 A 
ATOM      5  C4  UNL d   1      -0.149  -0.618  -1.155  0.00  0.00    -0.007 A 
ATOM      6  C5  UNL d   1       0.055  -1.257  -2.377  0.00  0.00     0.039 A 
ENDROOT
BRANCH   4   7
ATOM      7  O   UNL d   1      -0.954  -0.637   1.060  0.00  0.00    -0.526 OA
ATOM      8  H5  UNL d   1      -1.378  -1.241   1.693  0.00  0.00     0.418 HD
ENDBRANCH   4   7
TORSDOF 1
ENDMDL
