MODEL 1
REMARK minimizedAffinity -3.6804924
REMARK minimizedRMSD -1
REMARK  1 active torsions:
REMARK  status: ('A' for Active; 'I' for Inactive)
REMARK    1  A    between atoms: C3_4  and  O_7 
ROOT
ATOM      1  C   UNL d   1      -0.993  -0.547   1.281  0.00  0.00    -0.033 A 
ATOM      2  C1  UNL d   1      -0.011  -0.063   2.148  0.00  0.00     0.039 A 
ATOM      3  C2  UNL d   1       0.835   0.970   1.740  0.00  0.00    -0.080 A 
ATOM      4  C3  UNL d   1       0.688   1.510   0.465  0.00  0.00     0.150 A 
ATOM      5  C4  UNL d   1      -0.290   1.035  -0.402  0.00  0.00    -0.007 A 
ATOM      6  C5  UNL d   1      -1.134   0.003   0.007  0.00  0.00     0.039 A 
ENDROOT
BRANCH   4   7
ATOM      7  O   UNL d   1       1.494   2.516   0.021  0.00  0.00    -0.526 OA
ATOM      8  H5  UNL d   1       2.141   2.721   0.716  0.00  0.00     0.418 HD
ENDBRANCH   4   7
TORSDOF 1
ENDMDL
