MODEL 1
REMARK minimizedAffinity -2.82141519
REMARK minimizedRMSD -1
REMARK  1 active torsions:
REMARK  status: ('A' for Active; 'I' for Inactive)
REMARK    1  A    between atoms: C3_4  and  O_7 
ROOT
ATOM      1  C   UNL d   1      -0.734  -0.617   1.161  0.00  0.00    -0.033 A 
ATOM      2  C1  UNL d   1      -0.335   0.074   0.016  0.00  0.00     0.039 A 
ATOM      3  C2  UNL d   1      -0.312  -0.574  -1.220  0.00  0.00    -0.080 A 
ATOM      4  C3  UNL d   1      -0.691  -1.911  -1.298  0.00  0.00     0.150 A 
ATOM      5  C4  UNL d   1      -1.093  -2.605  -0.162  0.00  0.00    -0.007 A 
ATOM      6  C5  UNL d   1      -1.114  -1.957   1.072  0.00  0.00     0.039 A 
ENDROOT
BRANCH   4   7
ATOM      7  O   UNL d   1      -0.680  -2.587  -2.482  0.00  0.00    -0.526 OA
ATOM      8  H5  UNL d   1      -0.353  -1.990  -3.175  0.00  0.00     0.418 HD
ENDBRANCH   4   7
TORSDOF 1
ENDMDL
