MODEL 1
REMARK minimizedAffinity -3.02368736
REMARK minimizedRMSD -1
REMARK  1 active torsions:
REMARK  status: ('A' for Active; 'I' for Inactive)
REMARK    1  A    between atoms: C3_4  and  O_7 
ROOT
ATOM      1  C   UNL d   1      -0.682   0.584   0.351  0.00  0.00    -0.033 A 
ATOM      2  C1  UNL d   1      -0.951  -0.778   0.496  0.00  0.00     0.039 A 
ATOM      3  C2  UNL d   1      -0.874  -1.629  -0.609  0.00  0.00    -0.080 A 
ATOM      4  C3  UNL d   1      -0.526  -1.105  -1.851  0.00  0.00     0.150 A 
ATOM      5  C4  UNL d   1      -0.253   0.250  -2.002  0.00  0.00    -0.007 A 
ATOM      6  C5  UNL d   1      -0.331   1.098  -0.898  0.00  0.00     0.039 A 
ENDROOT
BRANCH   4   7
ATOM      7  O   UNL d   1      -0.443  -1.895  -2.959  0.00  0.00    -0.526 OA
ATOM      8  H5  UNL d   1      -0.686  -2.802  -2.709  0.00  0.00     0.418 HD
ENDBRANCH   4   7
TORSDOF 1
ENDMDL
