MODEL 1
REMARK minimizedAffinity -3.83151507
REMARK minimizedRMSD -1
REMARK  1 active torsions:
REMARK  status: ('A' for Active; 'I' for Inactive)
REMARK    1  A    between atoms: C3_4  and  O_7 
ROOT
ATOM      1  C   UNL d   1      -0.284  -3.625  -0.827  0.00  0.00    -0.033 A 
ATOM      2  C1  UNL d   1       0.197  -2.758  -1.809  0.00  0.00     0.039 A 
ATOM      3  C2  UNL d   1       0.228  -1.382  -1.574  0.00  0.00    -0.080 A 
ATOM      4  C3  UNL d   1      -0.223  -0.887  -0.353  0.00  0.00     0.150 A 
ATOM      5  C4  UNL d   1      -0.700  -1.746   0.632  0.00  0.00    -0.007 A 
ATOM      6  C5  UNL d   1      -0.731  -3.120   0.394  0.00  0.00     0.039 A 
ENDROOT
BRANCH   4   7
ATOM      7  O   UNL d   1      -0.217   0.448  -0.080  0.00  0.00    -0.526 OA
ATOM      8  H5  UNL d   1       0.112   0.921  -0.862  0.00  0.00     0.418 HD
ENDBRANCH   4   7
TORSDOF 1
ENDMDL
