MODEL 1
REMARK minimizedAffinity -4.48432922
REMARK minimizedRMSD -1
REMARK  1 active torsions:
REMARK  status: ('A' for Active; 'I' for Inactive)
REMARK    1  A    between atoms: C3_4  and  O_7 
ROOT
ATOM      1  C   UNL d   1      -0.605   0.189   0.917  0.00  0.00    -0.033 A 
ATOM      2  C1  UNL d   1      -1.570  -0.814   0.807  0.00  0.00     0.039 A 
ATOM      3  C2  UNL d   1      -1.193  -2.157   0.872  0.00  0.00    -0.080 A 
ATOM      4  C3  UNL d   1       0.149  -2.483   1.048  0.00  0.00     0.150 A 
ATOM      5  C4  UNL d   1       1.114  -1.488   1.162  0.00  0.00    -0.007 A 
ATOM      6  C5  UNL d   1       0.737  -0.148   1.096  0.00  0.00     0.039 A 
ENDROOT
BRANCH   4   7
ATOM      7  O   UNL d   1       0.565  -3.779   1.113  0.00  0.00    -0.526 OA
ATOM      8  H5  UNL d   1      -0.207  -4.357   0.990  0.00  0.00     0.418 HD
ENDBRANCH   4   7
TORSDOF 1
ENDMDL
