MODEL 1
REMARK minimizedAffinity -1.92393959
REMARK minimizedRMSD -1
REMARK  1 active torsions:
REMARK  status: ('A' for Active; 'I' for Inactive)
REMARK    1  A    between atoms: C3_4  and  O_7 
ROOT
ATOM      1  C   UNL d   1      -0.921  -0.519   1.630  0.00  0.00    -0.033 A 
ATOM      2  C1  UNL d   1      -1.237  -1.755   1.061  0.00  0.00     0.039 A 
ATOM      3  C2  UNL d   1      -0.925  -2.010  -0.275  0.00  0.00    -0.080 A 
ATOM      4  C3  UNL d   1      -0.298  -1.023  -1.031  0.00  0.00     0.150 A 
ATOM      5  C4  UNL d   1       0.023   0.208  -0.470  0.00  0.00    -0.007 A 
ATOM      6  C5  UNL d   1      -0.290   0.462   0.865  0.00  0.00     0.039 A 
ENDROOT
BRANCH   4   7
ATOM      7  O   UNL d   1       0.022  -1.225  -2.341  0.00  0.00    -0.526 OA
ATOM      8  H5  UNL d   1      -0.285  -2.109  -2.600  0.00  0.00     0.418 HD
ENDBRANCH   4   7
TORSDOF 1
ENDMDL
