MODEL 1
REMARK minimizedAffinity -5.0568614
REMARK minimizedRMSD -1
REMARK  1 active torsions:
REMARK  status: ('A' for Active; 'I' for Inactive)
REMARK    1  A    between atoms: C3_4  and  O_7 
ROOT
ATOM      1  C   UNL d   1      -0.365  -3.046   0.045  0.00  0.00    -0.033 A 
ATOM      2  C1  UNL d   1      -0.360  -3.507  -1.273  0.00  0.00     0.039 A 
ATOM      3  C2  UNL d   1      -0.193  -2.608  -2.328  0.00  0.00    -0.080 A 
ATOM      4  C3  UNL d   1      -0.033  -1.253  -2.053  0.00  0.00     0.150 A 
ATOM      5  C4  UNL d   1      -0.033  -0.788  -0.742  0.00  0.00    -0.007 A 
ATOM      6  C5  UNL d   1      -0.200  -1.687   0.311  0.00  0.00     0.039 A 
ENDROOT
BRANCH   4   7
ATOM      7  O   UNL d   1       0.128  -0.337  -3.049  0.00  0.00    -0.526 OA
ATOM      8  H5  UNL d   1       0.079  -0.800  -3.903  0.00  0.00     0.418 HD
ENDBRANCH   4   7
TORSDOF 1
ENDMDL
