MODEL 1
REMARK minimizedAffinity -4.94180346
REMARK minimizedRMSD -1
REMARK  1 active torsions:
REMARK  status: ('A' for Active; 'I' for Inactive)
REMARK    1  A    between atoms: C3_4  and  O_7 
ROOT
ATOM      1  C   UNL d   1      -0.358  -2.760   0.471  0.00  0.00    -0.033 A 
ATOM      2  C1  UNL d   1      -0.529  -1.389   0.271  0.00  0.00     0.039 A 
ATOM      3  C2  UNL d   1      -0.542  -0.868  -1.025  0.00  0.00    -0.080 A 
ATOM      4  C3  UNL d   1      -0.384  -1.727  -2.109  0.00  0.00     0.150 A 
ATOM      5  C4  UNL d   1      -0.217  -3.094  -1.916  0.00  0.00    -0.007 A 
ATOM      6  C5  UNL d   1      -0.203  -3.613  -0.622  0.00  0.00     0.039 A 
ENDROOT
BRANCH   4   7
ATOM      7  O   UNL d   1      -0.385  -1.264  -3.391  0.00  0.00    -0.526 OA
ATOM      8  H5  UNL d   1      -0.481  -0.297  -3.369  0.00  0.00     0.418 HD
ENDBRANCH   4   7
TORSDOF 1
ENDMDL
