MODEL 1
REMARK minimizedAffinity -3.51328611
REMARK minimizedRMSD -1
REMARK  1 active torsions:
REMARK  status: ('A' for Active; 'I' for Inactive)
REMARK    1  A    between atoms: C3_4  and  O_7 
ROOT
ATOM      1  C   UNL d   1       0.030  -1.257   1.314  0.00  0.00    -0.033 A 
ATOM      2  C1  UNL d   1      -0.275  -2.560   0.916  0.00  0.00     0.039 A 
ATOM      3  C2  UNL d   1      -0.205  -2.914  -0.433  0.00  0.00    -0.080 A 
ATOM      4  C3  UNL d   1       0.171  -1.958  -1.372  0.00  0.00     0.150 A 
ATOM      5  C4  UNL d   1       0.479  -0.659  -0.982  0.00  0.00    -0.007 A 
ATOM      6  C5  UNL d   1       0.408  -0.306   0.365  0.00  0.00     0.039 A 
ENDROOT
BRANCH   4   7
ATOM      7  O   UNL d   1       0.249  -2.255  -2.700  0.00  0.00    -0.526 OA
ATOM      8  H5  UNL d   1      -0.020  -3.181  -2.824  0.00  0.00     0.418 HD
ENDBRANCH   4   7
TORSDOF 1
ENDMDL
