MODEL 1
REMARK minimizedAffinity -5.00245142
REMARK minimizedRMSD -1
REMARK  1 active torsions:
REMARK  status: ('A' for Active; 'I' for Inactive)
REMARK    1  A    between atoms: C3_4  and  O_7 
ROOT
ATOM      1  C   UNL d   1       0.462  -2.425   0.309  0.00  0.00    -0.033 A 
ATOM      2  C1  UNL d   1       0.447  -1.051   0.557  0.00  0.00     0.039 A 
ATOM      3  C2  UNL d   1       0.272  -0.152  -0.498  0.00  0.00    -0.080 A 
ATOM      4  C3  UNL d   1       0.113  -0.640  -1.792  0.00  0.00     0.150 A 
ATOM      5  C4  UNL d   1       0.122  -2.007  -2.045  0.00  0.00    -0.007 A 
ATOM      6  C5  UNL d   1       0.298  -2.903  -0.991  0.00  0.00     0.039 A 
ENDROOT
BRANCH   4   7
ATOM      7  O   UNL d   1      -0.056   0.199  -2.853  0.00  0.00    -0.526 OA
ATOM      8  H5  UNL d   1      -0.013   1.115  -2.532  0.00  0.00     0.418 HD
ENDBRANCH   4   7
TORSDOF 1
ENDMDL
