MODEL 1
REMARK minimizedAffinity -4.53919125
REMARK minimizedRMSD -1
REMARK  1 active torsions:
REMARK  status: ('A' for Active; 'I' for Inactive)
REMARK    1  A    between atoms: C3_4  and  O_7 
ROOT
ATOM      1  C   UNL d   1      -0.306  -3.036   0.091  0.00  0.00    -0.033 A 
ATOM      2  C1  UNL d   1      -0.900  -2.339   1.145  0.00  0.00     0.039 A 
ATOM      3  C2  UNL d   1      -0.797  -0.949   1.212  0.00  0.00    -0.080 A 
ATOM      4  C3  UNL d   1      -0.099  -0.267   0.218  0.00  0.00     0.150 A 
ATOM      5  C4  UNL d   1       0.492  -0.954  -0.837  0.00  0.00    -0.007 A 
ATOM      6  C5  UNL d   1       0.388  -2.343  -0.901  0.00  0.00     0.039 A 
ENDROOT
BRANCH   4   7
ATOM      7  O   UNL d   1       0.032   1.090   0.243  0.00  0.00    -0.526 OA
ATOM      8  H5  UNL d   1      -0.402   1.426   1.044  0.00  0.00     0.418 HD
ENDBRANCH   4   7
TORSDOF 1
ENDMDL
