MODEL 1
REMARK minimizedAffinity -2.81922865
REMARK minimizedRMSD -1
REMARK  1 active torsions:
REMARK  status: ('A' for Active; 'I' for Inactive)
REMARK    1  A    between atoms: C3_4  and  O_7 
ROOT
ATOM      1  C   UNL d   1       0.266   2.192  -0.553  0.00  0.00    -0.033 A 
ATOM      2  C1  UNL d   1       0.678   1.510   0.594  0.00  0.00     0.039 A 
ATOM      3  C2  UNL d   1       0.443   0.139   0.716  0.00  0.00    -0.080 A 
ATOM      4  C3  UNL d   1      -0.204  -0.537  -0.315  0.00  0.00     0.150 A 
ATOM      5  C4  UNL d   1      -0.614   0.135  -1.462  0.00  0.00    -0.007 A 
ATOM      6  C5  UNL d   1      -0.378   1.504  -1.581  0.00  0.00     0.039 A 
ENDROOT
BRANCH   4   7
ATOM      7  O   UNL d   1      -0.460  -1.874  -0.240  0.00  0.00    -0.526 OA
ATOM      8  H5  UNL d   1      -0.147  -2.199   0.621  0.00  0.00     0.418 HD
ENDBRANCH   4   7
TORSDOF 1
ENDMDL
