MODEL 1
REMARK minimizedAffinity 9.24510479
REMARK minimizedRMSD -1
REMARK  1 active torsions:
REMARK  status: ('A' for Active; 'I' for Inactive)
REMARK    1  A    between atoms: C1_2  and  C2_3 
ROOT
ATOM      1  C2  UNL d   1       0.692  -1.201   3.747  0.00  0.00    -0.076 A 
ATOM      2  C3  UNL d   1      -0.140  -2.116   3.080  0.00  0.00     0.004 A 
ATOM      3  C4  UNL d   1      -0.410  -3.371   3.625  0.00  0.00    -0.003 A 
ATOM      4  C5  UNL d   1       0.148  -3.729   4.848  0.00  0.00     0.000 A 
ATOM      5  C6  UNL d   1       0.962  -2.827   5.532  0.00  0.00     0.000 A 
ATOM      6  C7  UNL d   1       1.230  -1.552   5.004  0.00  0.00    -0.073 A 
ATOM      7  C8  UNL d   1       2.120  -0.621   5.782  0.00  0.00     0.078 C 
ENDROOT
BRANCH   1   8
ATOM      8  C1  UNL d   1       0.970   0.134   3.094  0.00  0.00     0.053 C 
ATOM      9  C   UNL d   1      -0.254   0.710   2.400  0.00  0.00     0.018 C 
ENDBRANCH   1   8
TORSDOF 1
ENDMDL
