MODEL 1
REMARK minimizedAffinity 6.21369314
REMARK minimizedRMSD -1
REMARK  1 active torsions:
REMARK  status: ('A' for Active; 'I' for Inactive)
REMARK    1  A    between atoms: C1_2  and  C2_3 
ROOT
ATOM      1  C2  UNL d   1       3.707  -0.854  -0.972  0.00  0.00    -0.076 A 
ATOM      2  C3  UNL d   1       4.235  -0.554  -2.240  0.00  0.00     0.004 A 
ATOM      3  C4  UNL d   1       4.409  -1.551  -3.198  0.00  0.00    -0.003 A 
ATOM      4  C5  UNL d   1       4.058  -2.864  -2.904  0.00  0.00     0.000 A 
ATOM      5  C6  UNL d   1       3.516  -3.176  -1.658  0.00  0.00     0.000 A 
ATOM      6  C7  UNL d   1       3.319  -2.180  -0.686  0.00  0.00    -0.073 A 
ATOM      7  C8  UNL d   1       2.737  -2.575   0.644  0.00  0.00     0.078 C 
ENDROOT
BRANCH   1   8
ATOM      8  C1  UNL d   1       3.566   0.264   0.037  0.00  0.00     0.053 C 
ATOM      9  C   UNL d   1       4.302   1.526  -0.386  0.00  0.00     0.018 C 
ENDBRANCH   1   8
TORSDOF 1
ENDMDL
