MODEL 1
REMARK minimizedAffinity 11.6667757
REMARK minimizedRMSD -1
REMARK  1 active torsions:
REMARK  status: ('A' for Active; 'I' for Inactive)
REMARK    1  A    between atoms: C1_2  and  C2_3 
ROOT
ATOM      1  C2  UNL d   1       1.866  -3.189   0.582  0.00  0.00    -0.076 A 
ATOM      2  C3  UNL d   1       1.066  -4.244   0.109  0.00  0.00     0.004 A 
ATOM      3  C4  UNL d   1       0.932  -4.486  -1.257  0.00  0.00    -0.003 A 
ATOM      4  C5  UNL d   1       1.598  -3.678  -2.173  0.00  0.00     0.000 A 
ATOM      5  C6  UNL d   1       2.410  -2.638  -1.720  0.00  0.00     0.000 A 
ATOM      6  C7  UNL d   1       2.568  -2.391  -0.346  0.00  0.00    -0.073 A 
ATOM      7  C8  UNL d   1       3.452  -1.253   0.086  0.00  0.00     0.078 C 
ENDROOT
BRANCH   1   8
ATOM      8  C1  UNL d   1       1.951  -2.958   2.074  0.00  0.00     0.053 C 
ATOM      9  C   UNL d   1       0.582  -2.838   2.724  0.00  0.00     0.018 C 
ENDBRANCH   1   8
TORSDOF 1
ENDMDL
