MODEL 1
REMARK minimizedAffinity -3.43914771
REMARK minimizedRMSD -1
REMARK  1 active torsions:
REMARK  status: ('A' for Active; 'I' for Inactive)
REMARK    1  A    between atoms: C1_2  and  C2_3 
ROOT
ATOM      1  C2  UNL d   1       0.754  -1.256   1.082  0.00  0.00    -0.081 A 
ATOM      2  C3  UNL d   1       1.961  -0.566   1.249  0.00  0.00     0.006 A 
ATOM      3  C4  UNL d   1       2.080   0.763   0.837  0.00  0.00     0.002 A 
ATOM      4  C5  UNL d   1       0.992   1.428   0.260  0.00  0.00    -0.080 A 
ATOM      5  C6  UNL d   1       1.097   2.864  -0.158  0.00  0.00     0.076 C 
ATOM      6  C7  UNL d   1      -0.208   0.734   0.077  0.00  0.00     0.002 A 
ATOM      7  C8  UNL d   1      -0.328  -0.596   0.487  0.00  0.00     0.006 A 
ENDROOT
BRANCH   1   8
ATOM      8  C1  UNL d   1       0.603  -2.669   1.583  0.00  0.00     0.054 C 
ATOM      9  C   UNL d   1      -0.863  -3.046   1.744  0.00  0.00     0.018 C 
ENDBRANCH   1   8
TORSDOF 1
ENDMDL
