MODEL 1
REMARK minimizedAffinity 6.37922144
REMARK minimizedRMSD -1
REMARK  1 active torsions:
REMARK  status: ('A' for Active; 'I' for Inactive)
REMARK    1  A    between atoms: C1_2  and  C2_3 
ROOT
ATOM      1  C2  UNL d   1       1.734   1.897   0.902  0.00  0.00    -0.081 A 
ATOM      2  C3  UNL d   1       2.103   0.561   1.099  0.00  0.00     0.006 A 
ATOM      3  C4  UNL d   1       2.633   0.145   2.322  0.00  0.00     0.002 A 
ATOM      4  C5  UNL d   1       2.795   1.056   3.371  0.00  0.00    -0.080 A 
ATOM      5  C6  UNL d   1       3.335   0.617   4.700  0.00  0.00     0.076 C 
ATOM      6  C7  UNL d   1       2.444   2.395   3.169  0.00  0.00     0.002 A 
ATOM      7  C8  UNL d   1       1.914   2.811   1.945  0.00  0.00     0.006 A 
ENDROOT
BRANCH   1   8
ATOM      8  C1  UNL d   1       1.103   2.335  -0.395  0.00  0.00     0.054 C 
ATOM      9  C   UNL d   1      -0.294   2.895  -0.169  0.00  0.00     0.018 C 
ENDBRANCH   1   8
TORSDOF 1
ENDMDL
