MODEL 1
REMARK minimizedAffinity 9.93932438
REMARK minimizedRMSD -1
REMARK  1 active torsions:
REMARK  status: ('A' for Active; 'I' for Inactive)
REMARK    1  A    between atoms: C1_2  and  C2_3 
ROOT
ATOM      1  C2  UNL d   1       2.020   0.816   1.515  0.00  0.00    -0.081 A 
ATOM      2  C3  UNL d   1       1.239   1.948   1.780  0.00  0.00     0.006 A 
ATOM      3  C4  UNL d   1       1.315   3.071   0.953  0.00  0.00     0.002 A 
ATOM      4  C5  UNL d   1       2.166   3.078  -0.157  0.00  0.00    -0.080 A 
ATOM      5  C6  UNL d   1       2.235   4.266  -1.070  0.00  0.00     0.076 C 
ATOM      6  C7  UNL d   1       2.960   1.955  -0.412  0.00  0.00     0.002 A 
ATOM      7  C8  UNL d   1       2.885   0.832   0.415  0.00  0.00     0.006 A 
ENDROOT
BRANCH   1   8
ATOM      8  C1  UNL d   1       1.893  -0.420   2.367  0.00  0.00     0.054 C 
ATOM      9  C   UNL d   1       0.940  -1.429   1.741  0.00  0.00     0.018 C 
ENDBRANCH   1   8
TORSDOF 1
ENDMDL
