MODEL 1
REMARK minimizedAffinity 14.0164824
REMARK minimizedRMSD -1
REMARK  1 active torsions:
REMARK  status: ('A' for Active; 'I' for Inactive)
REMARK    1  A    between atoms: C1_2  and  C2_3 
ROOT
ATOM      1  C2  UNL d   1       0.091  -2.956  -1.081  0.00  0.00    -0.081 A 
ATOM      2  C3  UNL d   1      -1.026  -2.370  -1.687  0.00  0.00     0.006 A 
ATOM      3  C4  UNL d   1      -1.739  -1.361  -1.034  0.00  0.00     0.002 A 
ATOM      4  C5  UNL d   1      -1.341  -0.917   0.232  0.00  0.00    -0.080 A 
ATOM      5  C6  UNL d   1      -2.079   0.186   0.931  0.00  0.00     0.076 C 
ATOM      6  C7  UNL d   1      -0.235  -1.515   0.845  0.00  0.00     0.002 A 
ATOM      7  C8  UNL d   1       0.477  -2.524   0.193  0.00  0.00     0.006 A 
ENDROOT
BRANCH   1   8
ATOM      8  C1  UNL d   1       0.900  -3.998  -1.810  0.00  0.00     0.054 C 
ATOM      9  C   UNL d   1       2.051  -3.367  -2.580  0.00  0.00     0.018 C 
ENDBRANCH   1   8
TORSDOF 1
ENDMDL
