MODEL 1
REMARK minimizedAffinity 3.71109605
REMARK minimizedRMSD -1
REMARK  1 active torsions:
REMARK  status: ('A' for Active; 'I' for Inactive)
REMARK    1  A    between atoms: C1_2  and  C2_3 
ROOT
ATOM      1  C2  UNL d   1       1.664   0.495   1.390  0.00  0.00    -0.081 A 
ATOM      2  C3  UNL d   1       1.486   1.706   0.709  0.00  0.00     0.006 A 
ATOM      3  C4  UNL d   1       0.401   1.881  -0.152  0.00  0.00     0.002 A 
ATOM      4  C5  UNL d   1      -0.529   0.853  -0.340  0.00  0.00    -0.080 A 
ATOM      5  C6  UNL d   1      -1.716   1.038  -1.238  0.00  0.00     0.076 C 
ATOM      6  C7  UNL d   1      -0.342  -0.363   0.327  0.00  0.00     0.002 A 
ATOM      7  C8  UNL d   1       0.744  -0.539   1.187  0.00  0.00     0.006 A 
ENDROOT
BRANCH   1   8
ATOM      8  C1  UNL d   1       2.798   0.326   2.369  0.00  0.00     0.054 C 
ATOM      9  C   UNL d   1       2.386  -0.544   3.548  0.00  0.00     0.018 C 
ENDBRANCH   1   8
TORSDOF 1
ENDMDL
