MODEL 1
REMARK minimizedAffinity 12.2789249
REMARK minimizedRMSD -1
REMARK  1 active torsions:
REMARK  status: ('A' for Active; 'I' for Inactive)
REMARK    1  A    between atoms: C1_2  and  C2_3 
ROOT
ATOM      1  C2  UNL d   1      -2.070  -2.359  -2.188  0.00  0.00    -0.081 A 
ATOM      2  C3  UNL d   1      -1.697  -1.840  -0.942  0.00  0.00     0.006 A 
ATOM      3  C4  UNL d   1      -0.636  -2.404  -0.229  0.00  0.00     0.002 A 
ATOM      4  C5  UNL d   1       0.074  -3.489  -0.753  0.00  0.00    -0.080 A 
ATOM      5  C6  UNL d   1       1.234  -4.084  -0.012  0.00  0.00     0.076 C 
ATOM      6  C7  UNL d   1      -0.310  -4.019  -1.990  0.00  0.00     0.002 A 
ATOM      7  C8  UNL d   1      -1.371  -3.456  -2.703  0.00  0.00     0.006 A 
ENDROOT
BRANCH   1   8
ATOM      8  C1  UNL d   1      -3.172  -1.713  -2.988  0.00  0.00     0.054 C 
ATOM      9  C   UNL d   1      -2.795  -0.299  -3.407  0.00  0.00     0.018 C 
ENDBRANCH   1   8
TORSDOF 1
ENDMDL
