MODEL 1
REMARK minimizedAffinity 5.26693058
REMARK minimizedRMSD -1
REMARK  0 active torsions:
REMARK  status: ('A' for Active; 'I' for Inactive)
ROOT
ATOM      1  C   UNL d   1       0.812  -0.379   2.407  0.00  0.00     0.172 C 
ATOM      2  N   UNL d   1       0.374  -0.475   3.780  0.00  0.00    -0.070 N 
ATOM      3  C1  UNL d   1       1.148  -0.232   4.884  0.00  0.00    -0.004 A 
ATOM      4  C2  UNL d   1       0.364  -0.431   6.000  0.00  0.00    -0.047 A 
ATOM      5  C3  UNL d   1      -0.924  -0.807   5.552  0.00  0.00    -0.047 A 
ATOM      6  C4  UNL d   1      -0.890  -0.826   4.173  0.00  0.00    -0.004 A 
ENDROOT
TORSDOF 0
ENDMDL
