MODEL 1
REMARK minimizedAffinity 0.610964477
REMARK minimizedRMSD -1
REMARK  0 active torsions:
REMARK  status: ('A' for Active; 'I' for Inactive)
ROOT
ATOM      1  C   UNL d   1       1.124  -1.497   1.851  0.00  0.00     0.172 C 
ATOM      2  N   UNL d   1       0.464  -1.549   3.135  0.00  0.00    -0.070 N 
ATOM      3  C1  UNL d   1      -0.432  -2.504   3.533  0.00  0.00    -0.004 A 
ATOM      4  C2  UNL d   1      -0.830  -2.200   4.817  0.00  0.00    -0.047 A 
ATOM      5  C3  UNL d   1      -0.151  -1.021   5.203  0.00  0.00    -0.047 A 
ATOM      6  C4  UNL d   1       0.644  -0.639   4.143  0.00  0.00    -0.004 A 
ENDROOT
TORSDOF 0
ENDMDL
