MODEL 1
REMARK minimizedAffinity 9.84173298
REMARK minimizedRMSD -1
REMARK  0 active torsions:
REMARK  status: ('A' for Active; 'I' for Inactive)
ROOT
ATOM      1  C   UNL d   1      -1.883  -3.097   3.690  0.00  0.00     0.172 C 
ATOM      2  N   UNL d   1      -0.930  -2.048   3.409  0.00  0.00    -0.070 N 
ATOM      3  C1  UNL d   1      -0.762  -0.905   4.144  0.00  0.00    -0.004 A 
ATOM      4  C2  UNL d   1       0.240  -0.167   3.552  0.00  0.00    -0.047 A 
ATOM      5  C3  UNL d   1       0.688  -0.890   2.421  0.00  0.00    -0.047 A 
ATOM      6  C4  UNL d   1      -0.053  -2.051   2.357  0.00  0.00    -0.004 A 
ENDROOT
TORSDOF 0
ENDMDL
