MODEL 1
REMARK minimizedAffinity 9.44577694
REMARK minimizedRMSD -1
REMARK  0 active torsions:
REMARK  status: ('A' for Active; 'I' for Inactive)
ROOT
ATOM      1  C   UNL d   1       4.781  -1.472  -1.086  0.00  0.00     0.172 C 
ATOM      2  N   UNL d   1       3.737  -1.988  -0.232  0.00  0.00    -0.070 N 
ATOM      3  C1  UNL d   1       3.269  -1.390   0.907  0.00  0.00    -0.004 A 
ATOM      4  C2  UNL d   1       2.279  -2.193   1.429  0.00  0.00    -0.047 A 
ATOM      5  C3  UNL d   1       2.148  -3.314   0.575  0.00  0.00    -0.047 A 
ATOM      6  C4  UNL d   1       3.063  -3.161  -0.445  0.00  0.00    -0.004 A 
ENDROOT
TORSDOF 0
ENDMDL
