MODEL 1
REMARK minimizedAffinity 7.72169018
REMARK minimizedRMSD -1
REMARK  0 active torsions:
REMARK  status: ('A' for Active; 'I' for Inactive)
ROOT
ATOM      1  C   UNL d   1       0.560   2.601  -1.123  0.00  0.00     0.172 C 
ATOM      2  N   UNL d   1       0.519   3.910  -0.514  0.00  0.00    -0.070 N 
ATOM      3  C1  UNL d   1      -0.428   4.349   0.372  0.00  0.00    -0.004 A 
ATOM      4  C2  UNL d   1      -0.114   5.646   0.717  0.00  0.00    -0.047 A 
ATOM      5  C3  UNL d   1       1.062   5.999   0.013  0.00  0.00    -0.047 A 
ATOM      6  C4  UNL d   1       1.432   4.906  -0.741  0.00  0.00    -0.004 A 
ENDROOT
TORSDOF 0
ENDMDL
