MODEL 1
REMARK minimizedAffinity 8.08107662
REMARK minimizedRMSD -1
REMARK  0 active torsions:
REMARK  status: ('A' for Active; 'I' for Inactive)
ROOT
ATOM      1  C   UNL d   1      -1.893  -3.112   3.543  0.00  0.00     0.172 C 
ATOM      2  N   UNL d   1      -0.927  -2.048   3.404  0.00  0.00    -0.070 N 
ATOM      3  C1  UNL d   1      -0.024  -1.917   2.382  0.00  0.00    -0.004 A 
ATOM      4  C2  UNL d   1       0.714  -0.776   2.614  0.00  0.00    -0.047 A 
ATOM      5  C3  UNL d   1       0.238  -0.202   3.817  0.00  0.00    -0.047 A 
ATOM      6  C4  UNL d   1      -0.777  -1.009   4.284  0.00  0.00    -0.004 A 
ENDROOT
TORSDOF 0
ENDMDL
