MODEL 1
REMARK minimizedAffinity 6.42043972
REMARK minimizedRMSD -1
REMARK  0 active torsions:
REMARK  status: ('A' for Active; 'I' for Inactive)
ROOT
ATOM      1  C   UNL d   1       1.487  -4.616  -3.799  0.00  0.00     0.172 C 
ATOM      2  N   UNL d   1       2.607  -4.794  -4.694  0.00  0.00    -0.070 N 
ATOM      3  C1  UNL d   1       3.053  -5.991  -5.185  0.00  0.00    -0.004 A 
ATOM      4  C2  UNL d   1       4.135  -5.736  -6.000  0.00  0.00    -0.047 A 
ATOM      5  C3  UNL d   1       4.347  -4.337  -5.997  0.00  0.00    -0.047 A 
ATOM      6  C4  UNL d   1       3.386  -3.778  -5.181  0.00  0.00    -0.004 A 
ENDROOT
TORSDOF 0
ENDMDL
