MODEL 1
REMARK minimizedAffinity 8.38197231
REMARK minimizedRMSD -1
REMARK  0 active torsions:
REMARK  status: ('A' for Active; 'I' for Inactive)
ROOT
ATOM      1  C   UNL d   1      -3.454  -4.726   0.218  0.00  0.00     0.172 C 
ATOM      2  N   UNL d   1      -3.532  -3.905   1.403  0.00  0.00    -0.070 N 
ATOM      3  C1  UNL d   1      -2.573  -3.815   2.376  0.00  0.00    -0.004 A 
ATOM      4  C2  UNL d   1      -3.023  -2.931   3.332  0.00  0.00    -0.047 A 
ATOM      5  C3  UNL d   1      -4.297  -2.474   2.919  0.00  0.00    -0.047 A 
ATOM      6  C4  UNL d   1      -4.588  -3.093   1.722  0.00  0.00    -0.004 A 
ENDROOT
TORSDOF 0
ENDMDL
