MODEL 1
REMARK minimizedAffinity 6.77022934
REMARK minimizedRMSD -1
REMARK  0 active torsions:
REMARK  status: ('A' for Active; 'I' for Inactive)
ROOT
ATOM      1  C   UNL d   1      -4.050   3.005  -1.489  0.00  0.00     0.172 C 
ATOM      2  N   UNL d   1      -2.638   2.793  -1.700  0.00  0.00    -0.070 N 
ATOM      3  C1  UNL d   1      -2.016   2.713  -2.918  0.00  0.00    -0.004 A 
ATOM      4  C2  UNL d   1      -0.672   2.507  -2.692  0.00  0.00    -0.047 A 
ATOM      5  C3  UNL d   1      -0.480   2.459  -1.291  0.00  0.00    -0.047 A 
ATOM      6  C4  UNL d   1      -1.713   2.639  -0.701  0.00  0.00    -0.004 A 
ENDROOT
TORSDOF 0
ENDMDL
