MODEL 1
REMARK minimizedAffinity 3.51083231
REMARK minimizedRMSD -1
REMARK  0 active torsions:
REMARK  status: ('A' for Active; 'I' for Inactive)
ROOT
ATOM      1  C   UNL d   1       0.491  -1.445   1.751  0.00  0.00     0.172 C 
ATOM      2  N   UNL d   1       1.821  -1.249   1.222  0.00  0.00    -0.070 N 
ATOM      3  C1  UNL d   1       2.614  -2.223   0.676  0.00  0.00    -0.004 A 
ATOM      4  C2  UNL d   1       3.799  -1.635   0.291  0.00  0.00    -0.047 A 
ATOM      5  C3  UNL d   1       3.716  -0.261   0.617  0.00  0.00    -0.047 A 
ATOM      6  C4  UNL d   1       2.481  -0.049   1.192  0.00  0.00    -0.004 A 
ENDROOT
TORSDOF 0
ENDMDL
