MODEL 1
REMARK minimizedAffinity 1.15052199
REMARK minimizedRMSD -1
REMARK  0 active torsions:
REMARK  status: ('A' for Active; 'I' for Inactive)
ROOT
ATOM      1  C   UNL d   1      -6.000  -4.505   5.996  0.00  0.00     0.172 C 
ATOM      2  N   UNL d   1      -5.517  -4.866   4.684  0.00  0.00    -0.070 N 
ATOM      3  C1  UNL d   1      -5.868  -5.991   3.986  0.00  0.00    -0.004 A 
ATOM      4  C2  UNL d   1      -5.196  -5.968   2.783  0.00  0.00    -0.047 A 
ATOM      5  C3  UNL d   1      -4.413  -4.789   2.758  0.00  0.00    -0.047 A 
ATOM      6  C4  UNL d   1      -4.631  -4.126   3.947  0.00  0.00    -0.004 A 
ENDROOT
TORSDOF 0
ENDMDL
