MODEL 1
REMARK minimizedAffinity 8.97608948
REMARK minimizedRMSD -1
REMARK  0 active torsions:
REMARK  status: ('A' for Active; 'I' for Inactive)
ROOT
ATOM      1  C   UNL d   1       4.395  -0.751  -2.345  0.00  0.00     0.172 C 
ATOM      2  N   UNL d   1       4.801  -1.275  -3.628  0.00  0.00    -0.070 N 
ATOM      3  C1  UNL d   1       5.998  -1.881  -3.901  0.00  0.00    -0.004 A 
ATOM      4  C2  UNL d   1       5.998  -2.237  -5.232  0.00  0.00    -0.047 A 
ATOM      5  C3  UNL d   1       4.758  -1.830  -5.779  0.00  0.00    -0.047 A 
ATOM      6  C4  UNL d   1       4.036  -1.238  -4.764  0.00  0.00    -0.004 A 
ENDROOT
TORSDOF 0
ENDMDL
