MODEL 1
REMARK minimizedAffinity -3.64928913
REMARK minimizedRMSD -1
REMARK  0 active torsions:
REMARK  status: ('A' for Active; 'I' for Inactive)
ROOT
ATOM      1  C   UNL d   1       0.016  -0.731   2.741  0.00  0.00     0.172 C 
ATOM      2  N   UNL d   1       0.896  -1.653   2.062  0.00  0.00    -0.070 N 
ATOM      3  C1  UNL d   1       0.688  -2.999   1.923  0.00  0.00    -0.004 A 
ATOM      4  C2  UNL d   1       1.751  -3.519   1.216  0.00  0.00    -0.047 A 
ATOM      5  C3  UNL d   1       2.628  -2.448   0.921  0.00  0.00    -0.047 A 
ATOM      6  C4  UNL d   1       2.074  -1.305   1.457  0.00  0.00    -0.004 A 
ENDROOT
TORSDOF 0
ENDMDL
