MODEL 1
REMARK minimizedAffinity 10.6055002
REMARK minimizedRMSD -1
REMARK  0 active torsions:
REMARK  status: ('A' for Active; 'I' for Inactive)
ROOT
ATOM      1  C   UNL d   1       0.583   2.597  -1.009  0.00  0.00     0.172 C 
ATOM      2  N   UNL d   1      -0.351   2.936  -2.057  0.00  0.00    -0.070 N 
ATOM      3  C1  UNL d   1      -1.037   2.041  -2.835  0.00  0.00    -0.004 A 
ATOM      4  C2  UNL d   1      -1.821   2.759  -3.711  0.00  0.00    -0.047 A 
ATOM      5  C3  UNL d   1      -1.598   4.133  -3.452  0.00  0.00    -0.047 A 
ATOM      6  C4  UNL d   1      -0.684   4.213  -2.423  0.00  0.00    -0.004 A 
ENDROOT
TORSDOF 0
ENDMDL
