MODEL 1
REMARK minimizedAffinity 6.26047373
REMARK minimizedRMSD -1
REMARK  0 active torsions:
REMARK  status: ('A' for Active; 'I' for Inactive)
ROOT
ATOM      1  C   UNL d   1       5.250  -1.831  -2.290  0.00  0.00     0.172 C 
ATOM      2  N   UNL d   1       5.132  -2.274  -3.659  0.00  0.00    -0.070 N 
ATOM      3  C1  UNL d   1       5.999  -3.114  -4.304  0.00  0.00    -0.004 A 
ATOM      4  C2  UNL d   1       5.537  -3.291  -5.591  0.00  0.00    -0.047 A 
ATOM      5  C3  UNL d   1       4.351  -2.530  -5.723  0.00  0.00    -0.047 A 
ATOM      6  C4  UNL d   1       4.123  -1.910  -4.513  0.00  0.00    -0.004 A 
ENDROOT
TORSDOF 0
ENDMDL
