MODEL 1
REMARK minimizedAffinity 9.32317352
REMARK minimizedRMSD -1
REMARK  0 active torsions:
REMARK  status: ('A' for Active; 'I' for Inactive)
ROOT
ATOM      1  C   UNL d   1      -1.879   3.319  -2.682  0.00  0.00     0.172 C 
ATOM      2  N   UNL d   1      -2.121   3.778  -4.030  0.00  0.00    -0.070 N 
ATOM      3  C1  UNL d   1      -3.244   3.523  -4.770  0.00  0.00    -0.004 A 
ATOM      4  C2  UNL d   1      -3.090   4.134  -5.996  0.00  0.00    -0.047 A 
ATOM      5  C3  UNL d   1      -1.829   4.777  -5.992  0.00  0.00    -0.047 A 
ATOM      6  C4  UNL d   1      -1.251   4.541  -4.763  0.00  0.00    -0.004 A 
ENDROOT
TORSDOF 0
ENDMDL
