MODEL 1
REMARK minimizedAffinity 5.86158419
REMARK minimizedRMSD -1
REMARK  0 active torsions:
REMARK  status: ('A' for Active; 'I' for Inactive)
ROOT
ATOM      1  C   UNL d   1       0.278   1.879  -0.302  0.00  0.00     0.124 A 
ATOM      2  C1  UNL d   1       0.119   1.972   1.074  0.00  0.00     0.062 A 
ATOM      3  C2  UNL d   1       1.097   2.585   1.852  0.00  0.00     0.162 A 
ATOM      4  C3  UNL d   1       2.243   3.112   1.256  0.00  0.00    -0.034 A 
ATOM      5  C4  UNL d   1       2.396   3.014  -0.129  0.00  0.00     0.162 A 
ATOM      6  C5  UNL d   1       1.416   2.400  -0.902  0.00  0.00     0.062 A 
ATOM      7  F   UNL d   1       1.571   2.312  -2.231  0.00  0.00    -0.097 F 
ATOM      8  F1  UNL d   1       3.485   3.510  -0.734  0.00  0.00    -0.096 F 
ATOM      9  I   UNL d   1       3.707   4.030   2.415  0.00  0.00    -0.060 I 
ATOM     10  F2  UNL d   1       0.917   2.661   3.179  0.00  0.00    -0.096 F 
ATOM     11  F3  UNL d   1      -0.978   1.468   1.656  0.00  0.00    -0.097 F 
ATOM     12  F4  UNL d   1      -0.664   1.287  -1.047  0.00  0.00    -0.092 F 
ENDROOT
TORSDOF 0
ENDMDL
