MODEL 1
REMARK minimizedAffinity 19.9008484
REMARK minimizedRMSD -1
REMARK  0 active torsions:
REMARK  status: ('A' for Active; 'I' for Inactive)
ROOT
ATOM      1  C   UNL d   1      -0.045   2.323  -5.614  0.00  0.00     0.124 A 
ATOM      2  C1  UNL d   1      -0.021   3.710  -5.573  0.00  0.00     0.062 A 
ATOM      3  C2  UNL d   1       1.187   4.392  -5.675  0.00  0.00     0.162 A 
ATOM      4  C3  UNL d   1       2.383   3.689  -5.820  0.00  0.00    -0.034 A 
ATOM      5  C4  UNL d   1       2.351   2.294  -5.859  0.00  0.00     0.162 A 
ATOM      6  C5  UNL d   1       1.141   1.616  -5.756  0.00  0.00     0.062 A 
ATOM      7  F   UNL d   1       1.120   0.276  -5.796  0.00  0.00    -0.097 F 
ATOM      8  F1  UNL d   1       3.482   1.586  -5.997  0.00  0.00    -0.096 F 
ATOM      9  I   UNL d   1       4.192   4.706  -5.972  0.00  0.00    -0.060 I 
ATOM     10  F2  UNL d   1       1.181   5.733  -5.632  0.00  0.00    -0.096 F 
ATOM     11  F3  UNL d   1      -1.165   4.395  -5.434  0.00  0.00    -0.097 F 
ATOM     12  F4  UNL d   1      -1.209   1.668  -5.514  0.00  0.00    -0.092 F 
ENDROOT
TORSDOF 0
ENDMDL
