MODEL 1
REMARK minimizedAffinity 7.71495104
REMARK minimizedRMSD -1
REMARK  0 active torsions:
REMARK  status: ('A' for Active; 'I' for Inactive)
ROOT
ATOM      1  C   UNL d   1       0.979   2.415  -2.041  0.00  0.00     0.124 A 
ATOM      2  C1  UNL d   1       0.099   2.634  -0.990  0.00  0.00     0.062 A 
ATOM      3  C2  UNL d   1      -0.268   1.584  -0.154  0.00  0.00     0.162 A 
ATOM      4  C3  UNL d   1       0.247   0.304  -0.363  0.00  0.00    -0.034 A 
ATOM      5  C4  UNL d   1       1.131   0.091  -1.422  0.00  0.00     0.162 A 
ATOM      6  C5  UNL d   1       1.494   1.144  -2.256  0.00  0.00     0.062 A 
ATOM      7  F   UNL d   1       2.345   0.930  -3.270  0.00  0.00    -0.097 F 
ATOM      8  F1  UNL d   1       1.644  -1.126  -1.652  0.00  0.00    -0.096 F 
ATOM      9  I   UNL d   1      -0.299  -1.268   0.886  0.00  0.00    -0.060 I 
ATOM     10  F2  UNL d   1      -1.120   1.825   0.854  0.00  0.00    -0.096 F 
ATOM     11  F3  UNL d   1      -0.400   3.861  -0.781  0.00  0.00    -0.097 F 
ATOM     12  F4  UNL d   1       1.330   3.427  -2.845  0.00  0.00    -0.092 F 
ENDROOT
TORSDOF 0
ENDMDL
