MODEL 1
REMARK minimizedAffinity 15.7852392
REMARK minimizedRMSD -1
REMARK  0 active torsions:
REMARK  status: ('A' for Active; 'I' for Inactive)
ROOT
ATOM      1  C   UNL d   1       3.784   2.537  -5.989  0.00  0.00     0.124 A 
ATOM      2  C1  UNL d   1       2.564   1.876  -5.989  0.00  0.00     0.062 A 
ATOM      3  C2  UNL d   1       1.375   2.601  -5.991  0.00  0.00     0.162 A 
ATOM      4  C3  UNL d   1       1.402   3.996  -5.994  0.00  0.00    -0.034 A 
ATOM      5  C4  UNL d   1       2.633   4.653  -5.992  0.00  0.00     0.162 A 
ATOM      6  C5  UNL d   1       3.818   3.924  -5.990  0.00  0.00     0.062 A 
ATOM      7  F   UNL d   1       4.996   4.565  -5.990  0.00  0.00    -0.097 F 
ATOM      8  F1  UNL d   1       2.695   5.993  -5.994  0.00  0.00    -0.096 F 
ATOM      9  I   UNL d   1      -0.373   5.083  -5.996  0.00  0.00    -0.060 I 
ATOM     10  F2  UNL d   1       0.210   1.936  -5.992  0.00  0.00    -0.096 F 
ATOM     11  F3  UNL d   1       2.529   0.536  -5.987  0.00  0.00    -0.097 F 
ATOM     12  F4  UNL d   1       4.926   1.837  -5.986  0.00  0.00    -0.092 F 
ENDROOT
TORSDOF 0
ENDMDL
