MODEL 1
REMARK minimizedAffinity 3.83192325
REMARK minimizedRMSD -1
REMARK  0 active torsions:
REMARK  status: ('A' for Active; 'I' for Inactive)
ROOT
ATOM      1  C   UNL d   1       0.225   2.376  -5.937  0.00  0.00     0.124 A 
ATOM      2  C1  UNL d   1       0.652   3.697  -5.959  0.00  0.00     0.062 A 
ATOM      3  C2  UNL d   1      -0.277   4.733  -5.978  0.00  0.00     0.162 A 
ATOM      4  C3  UNL d   1      -1.643   4.453  -5.972  0.00  0.00    -0.034 A 
ATOM      5  C4  UNL d   1      -2.065   3.123  -5.951  0.00  0.00     0.162 A 
ATOM      6  C5  UNL d   1      -1.133   2.090  -5.932  0.00  0.00     0.062 A 
ATOM      7  F   UNL d   1      -1.548   0.815  -5.911  0.00  0.00    -0.097 F 
ATOM      8  F1  UNL d   1      -3.372   2.818  -5.945  0.00  0.00    -0.096 F 
ATOM      9  I   UNL d   1      -3.035   6.000  -6.000  0.00  0.00    -0.060 I 
ATOM     10  F2  UNL d   1       0.165   5.999  -5.999  0.00  0.00    -0.096 F 
ATOM     11  F3  UNL d   1       1.964   3.975  -5.965  0.00  0.00    -0.097 F 
ATOM     12  F4  UNL d   1       1.121   1.381  -5.920  0.00  0.00    -0.092 F 
ENDROOT
TORSDOF 0
ENDMDL
