MODEL 1
REMARK minimizedAffinity 7.58572102
REMARK minimizedRMSD -1
REMARK  0 active torsions:
REMARK  status: ('A' for Active; 'I' for Inactive)
ROOT
ATOM      1  C   UNL d   1       0.542   2.378  -5.977  0.00  0.00     0.124 A 
ATOM      2  C1  UNL d   1       1.894   2.065  -5.975  0.00  0.00     0.062 A 
ATOM      3  C2  UNL d   1       2.847   3.079  -5.981  0.00  0.00     0.162 A 
ATOM      4  C3  UNL d   1       2.452   4.417  -5.989  0.00  0.00    -0.034 A 
ATOM      5  C4  UNL d   1       1.090   4.724  -5.992  0.00  0.00     0.162 A 
ATOM      6  C5  UNL d   1       0.141   3.707  -5.986  0.00  0.00     0.062 A 
ATOM      7  F   UNL d   1      -1.165   4.011  -5.988  0.00  0.00    -0.097 F 
ATOM      8  F1  UNL d   1       0.675   6.000  -6.000  0.00  0.00    -0.096 F 
ATOM      9  I   UNL d   1       3.874   5.937  -5.998  0.00  0.00    -0.060 I 
ATOM     10  F2  UNL d   1       4.147   2.748  -5.979  0.00  0.00    -0.096 F 
ATOM     11  F3  UNL d   1       2.284   0.782  -5.967  0.00  0.00    -0.097 F 
ATOM     12  F4  UNL d   1      -0.373   1.400  -5.972  0.00  0.00    -0.092 F 
ENDROOT
TORSDOF 0
ENDMDL
