MODEL 1
REMARK minimizedAffinity 13.8434534
REMARK minimizedRMSD -1
REMARK  0 active torsions:
REMARK  status: ('A' for Active; 'I' for Inactive)
ROOT
ATOM      1  C   UNL d   1      -0.183  -3.682  -2.941  0.00  0.00     0.124 A 
ATOM      2  C1  UNL d   1      -1.384  -3.423  -2.294  0.00  0.00     0.062 A 
ATOM      3  C2  UNL d   1      -1.430  -2.508  -1.246  0.00  0.00     0.162 A 
ATOM      4  C3  UNL d   1      -0.273  -1.845  -0.838  0.00  0.00    -0.034 A 
ATOM      5  C4  UNL d   1       0.931  -2.112  -1.493  0.00  0.00     0.162 A 
ATOM      6  C5  UNL d   1       0.972  -3.027  -2.540  0.00  0.00     0.062 A 
ATOM      7  F   UNL d   1       2.133  -3.277  -3.163  0.00  0.00    -0.097 F 
ATOM      8  F1  UNL d   1       2.063  -1.492  -1.127  0.00  0.00    -0.096 F 
ATOM      9  I   UNL d   1      -0.339  -0.476   0.728  0.00  0.00    -0.060 I 
ATOM     10  F2  UNL d   1      -2.604  -2.276  -0.639  0.00  0.00    -0.096 F 
ATOM     11  F3  UNL d   1      -2.501  -4.055  -2.679  0.00  0.00    -0.097 F 
ATOM     12  F4  UNL d   1      -0.141  -4.564  -3.948  0.00  0.00    -0.092 F 
ENDROOT
TORSDOF 0
ENDMDL
