MODEL 1
REMARK minimizedAffinity 2.3516407
REMARK minimizedRMSD -1
REMARK  0 active torsions:
REMARK  status: ('A' for Active; 'I' for Inactive)
ROOT
ATOM      1  C   UNL d   1       0.866   2.368  -5.998  0.00  0.00     0.124 A 
ATOM      2  C1  UNL d   1       1.288   3.690  -5.998  0.00  0.00     0.062 A 
ATOM      3  C2  UNL d   1       0.355   4.723  -5.997  0.00  0.00     0.162 A 
ATOM      4  C3  UNL d   1      -1.011   4.437  -5.995  0.00  0.00    -0.034 A 
ATOM      5  C4  UNL d   1      -1.428   3.105  -5.996  0.00  0.00     0.162 A 
ATOM      6  C5  UNL d   1      -0.491   2.077  -5.997  0.00  0.00     0.062 A 
ATOM      7  F   UNL d   1      -0.901   0.800  -5.997  0.00  0.00    -0.097 F 
ATOM      8  F1  UNL d   1      -2.733   2.795  -5.994  0.00  0.00    -0.096 F 
ATOM      9  I   UNL d   1      -2.409   5.979  -5.994  0.00  0.00    -0.060 I 
ATOM     10  F2  UNL d   1       0.791   5.991  -5.997  0.00  0.00    -0.096 F 
ATOM     11  F3  UNL d   1       2.598   3.974  -6.000  0.00  0.00    -0.097 F 
ATOM     12  F4  UNL d   1       1.766   1.376  -5.999  0.00  0.00    -0.092 F 
ENDROOT
TORSDOF 0
ENDMDL
