MODEL 1
REMARK minimizedAffinity 0.329729825
REMARK minimizedRMSD -1
REMARK  0 active torsions:
REMARK  status: ('A' for Active; 'I' for Inactive)
ROOT
ATOM      1  C   UNL d   1       1.995   3.482  -5.981  0.00  0.00     0.124 A 
ATOM      2  C1  UNL d   1       1.237   2.319  -5.987  0.00  0.00     0.062 A 
ATOM      3  C2  UNL d   1      -0.153   2.389  -5.992  0.00  0.00     0.162 A 
ATOM      4  C3  UNL d   1      -0.795   3.628  -5.991  0.00  0.00    -0.034 A 
ATOM      5  C4  UNL d   1      -0.026   4.793  -5.983  0.00  0.00     0.162 A 
ATOM      6  C5  UNL d   1       1.363   4.717  -5.979  0.00  0.00     0.062 A 
ATOM      7  F   UNL d   1       2.094   5.842  -5.973  0.00  0.00    -0.097 F 
ATOM      8  F1  UNL d   1      -0.610   6.000  -5.983  0.00  0.00    -0.096 F 
ATOM      9  I   UNL d   1      -2.873   3.737  -5.998  0.00  0.00    -0.060 I 
ATOM     10  F2  UNL d   1      -0.860   1.249  -5.998  0.00  0.00    -0.096 F 
ATOM     11  F3  UNL d   1       1.845   1.124  -5.988  0.00  0.00    -0.097 F 
ATOM     12  F4  UNL d   1       3.333   3.411  -5.975  0.00  0.00    -0.092 F 
ENDROOT
TORSDOF 0
ENDMDL
