MODEL 1
REMARK minimizedAffinity 15.5807009
REMARK minimizedRMSD -1
REMARK  0 active torsions:
REMARK  status: ('A' for Active; 'I' for Inactive)
ROOT
ATOM      1  C   UNL d   1      -0.389  -2.575  -2.000  0.00  0.00     0.124 A 
ATOM      2  C1  UNL d   1      -0.310  -3.816  -2.616  0.00  0.00     0.062 A 
ATOM      3  C2  UNL d   1      -1.260  -4.795  -2.344  0.00  0.00     0.162 A 
ATOM      4  C3  UNL d   1      -2.301  -4.537  -1.451  0.00  0.00    -0.034 A 
ATOM      5  C4  UNL d   1      -2.374  -3.287  -0.834  0.00  0.00     0.162 A 
ATOM      6  C5  UNL d   1      -1.421  -2.311  -1.110  0.00  0.00     0.062 A 
ATOM      7  F   UNL d   1      -1.500  -1.113  -0.513  0.00  0.00    -0.097 F 
ATOM      8  F1  UNL d   1      -3.361  -3.005   0.029  0.00  0.00    -0.096 F 
ATOM      9  I   UNL d   1      -3.725  -5.998  -1.041  0.00  0.00    -0.060 I 
ATOM     10  F2  UNL d   1      -1.159  -5.985  -2.954  0.00  0.00    -0.096 F 
ATOM     11  F3  UNL d   1       0.687  -4.073  -3.476  0.00  0.00    -0.097 F 
ATOM     12  F4  UNL d   1       0.528  -1.635  -2.263  0.00  0.00    -0.092 F 
ENDROOT
TORSDOF 0
ENDMDL
