MODEL 1
REMARK minimizedAffinity 5.32198715
REMARK minimizedRMSD -1
REMARK  0 active torsions:
REMARK  status: ('A' for Active; 'I' for Inactive)
ROOT
ATOM      1  C   UNL d   1       0.028   2.345  -5.982  0.00  0.00     0.124 A 
ATOM      2  C1  UNL d   1       0.464   3.663  -5.975  0.00  0.00     0.062 A 
ATOM      3  C2  UNL d   1      -0.459   4.705  -5.977  0.00  0.00     0.162 A 
ATOM      4  C3  UNL d   1      -1.827   4.433  -5.985  0.00  0.00    -0.034 A 
ATOM      5  C4  UNL d   1      -2.258   3.105  -5.993  0.00  0.00     0.162 A 
ATOM      6  C5  UNL d   1      -1.331   2.067  -5.991  0.00  0.00     0.062 A 
ATOM      7  F   UNL d   1      -1.754   0.795  -5.997  0.00  0.00    -0.097 F 
ATOM      8  F1  UNL d   1      -3.566   2.808  -6.000  0.00  0.00    -0.096 F 
ATOM      9  I   UNL d   1      -3.210   5.988  -5.988  0.00  0.00    -0.060 I 
ATOM     10  F2  UNL d   1      -0.010   5.969  -5.970  0.00  0.00    -0.096 F 
ATOM     11  F3  UNL d   1       1.777   3.934  -5.968  0.00  0.00    -0.097 F 
ATOM     12  F4  UNL d   1       0.918   1.344  -5.981  0.00  0.00    -0.092 F 
ENDROOT
TORSDOF 0
ENDMDL
