MODEL 1
REMARK minimizedAffinity 10.8821974
REMARK minimizedRMSD -1
REMARK  0 active torsions:
REMARK  status: ('A' for Active; 'I' for Inactive)
ROOT
ATOM      1  C   UNL d   1      -1.592   3.677  -5.962  0.00  0.00     0.124 A 
ATOM      2  C1  UNL d   1      -1.148   2.362  -5.951  0.00  0.00     0.062 A 
ATOM      3  C2  UNL d   1       0.216   2.084  -5.956  0.00  0.00     0.162 A 
ATOM      4  C3  UNL d   1       1.146   3.123  -5.970  0.00  0.00    -0.034 A 
ATOM      5  C4  UNL d   1       0.692   4.443  -5.981  0.00  0.00     0.162 A 
ATOM      6  C5  UNL d   1      -0.672   4.716  -5.977  0.00  0.00     0.062 A 
ATOM      7  F   UNL d   1      -1.099   5.987  -5.987  0.00  0.00    -0.097 F 
ATOM      8  F1  UNL d   1       1.559   5.467  -5.995  0.00  0.00    -0.096 F 
ATOM      9  I   UNL d   1       3.186   2.711  -5.977  0.00  0.00    -0.060 I 
ATOM     10  F2  UNL d   1       0.616   0.804  -5.946  0.00  0.00    -0.096 F 
ATOM     11  F3  UNL d   1      -2.035   1.357  -5.938  0.00  0.00    -0.097 F 
ATOM     12  F4  UNL d   1      -2.905   3.942  -5.958  0.00  0.00    -0.092 F 
ENDROOT
TORSDOF 0
ENDMDL
