MODEL 1
REMARK minimizedAffinity 11.5780153
REMARK minimizedRMSD -1
REMARK  0 active torsions:
REMARK  status: ('A' for Active; 'I' for Inactive)
ROOT
ATOM      1  C   UNL d   1      -1.017   4.102  -3.419  0.00  0.00     0.124 A 
ATOM      2  C1  UNL d   1      -1.231   3.125  -4.382  0.00  0.00     0.062 A 
ATOM      3  C2  UNL d   1      -2.441   3.072  -5.068  0.00  0.00     0.162 A 
ATOM      4  C3  UNL d   1      -3.447   4.000  -4.795  0.00  0.00    -0.034 A 
ATOM      5  C4  UNL d   1      -3.224   4.978  -3.824  0.00  0.00     0.162 A 
ATOM      6  C5  UNL d   1      -2.014   5.027  -3.141  0.00  0.00     0.062 A 
ATOM      7  F   UNL d   1      -1.809   5.971  -2.211  0.00  0.00    -0.097 F 
ATOM      8  F1  UNL d   1      -4.170   5.885  -3.537  0.00  0.00    -0.096 F 
ATOM      9  I   UNL d   1      -5.257   3.924  -5.819  0.00  0.00    -0.060 I 
ATOM     10  F2  UNL d   1      -2.620   2.118  -5.994  0.00  0.00    -0.096 F 
ATOM     11  F3  UNL d   1      -0.271   2.230  -4.652  0.00  0.00    -0.097 F 
ATOM     12  F4  UNL d   1       0.147   4.150  -2.759  0.00  0.00    -0.092 F 
ENDROOT
TORSDOF 0
ENDMDL
