MODEL 1
REMARK minimizedAffinity 2.02674985
REMARK minimizedRMSD -1
REMARK  0 active torsions:
REMARK  status: ('A' for Active; 'I' for Inactive)
ROOT
ATOM      1  C   UNL d   1       0.595   2.382  -5.977  0.00  0.00     0.124 A 
ATOM      2  C1  UNL d   1       0.956   3.722  -5.979  0.00  0.00     0.062 A 
ATOM      3  C2  UNL d   1      -0.023   4.711  -5.985  0.00  0.00     0.162 A 
ATOM      4  C3  UNL d   1      -1.374   4.364  -5.989  0.00  0.00    -0.034 A 
ATOM      5  C4  UNL d   1      -1.730   3.014  -5.988  0.00  0.00     0.162 A 
ATOM      6  C5  UNL d   1      -0.747   2.029  -5.982  0.00  0.00     0.062 A 
ATOM      7  F   UNL d   1      -1.099   0.735  -5.980  0.00  0.00    -0.097 F 
ATOM      8  F1  UNL d   1      -3.019   2.645  -5.992  0.00  0.00    -0.096 F 
ATOM      9  I   UNL d   1      -2.841   5.840  -5.999  0.00  0.00    -0.060 I 
ATOM     10  F2  UNL d   1       0.355   5.998  -5.987  0.00  0.00    -0.096 F 
ATOM     11  F3  UNL d   1       2.252   4.065  -5.975  0.00  0.00    -0.097 F 
ATOM     12  F4  UNL d   1       1.539   1.432  -5.971  0.00  0.00    -0.092 F 
ENDROOT
TORSDOF 0
ENDMDL
