MODEL 1
REMARK minimizedAffinity 15.1575603
REMARK minimizedRMSD -1
REMARK  0 active torsions:
REMARK  status: ('A' for Active; 'I' for Inactive)
ROOT
ATOM      1  C   UNL d   1      -1.466   1.873   1.730  0.00  0.00     0.124 A 
ATOM      2  C1  UNL d   1      -0.600   1.720   0.657  0.00  0.00     0.062 A 
ATOM      3  C2  UNL d   1       0.736   2.090   0.777  0.00  0.00     0.162 A 
ATOM      4  C3  UNL d   1       1.216   2.616   1.977  0.00  0.00    -0.034 A 
ATOM      5  C4  UNL d   1       0.338   2.767   3.052  0.00  0.00     0.162 A 
ATOM      6  C5  UNL d   1      -0.997   2.396   2.927  0.00  0.00     0.062 A 
ATOM      7  F   UNL d   1      -1.832   2.545   3.965  0.00  0.00    -0.097 F 
ATOM      8  F1  UNL d   1       0.766   3.270   4.220  0.00  0.00    -0.096 F 
ATOM      9  I   UNL d   1       3.213   3.170   2.162  0.00  0.00    -0.060 I 
ATOM     10  F2  UNL d   1       1.551   1.931  -0.276  0.00  0.00    -0.096 F 
ATOM     11  F3  UNL d   1      -1.052   1.216  -0.501  0.00  0.00    -0.097 F 
ATOM     12  F4  UNL d   1      -2.752   1.518   1.611  0.00  0.00    -0.092 F 
ENDROOT
TORSDOF 0
ENDMDL
