MODEL 1
REMARK minimizedAffinity 16.6546555
REMARK minimizedRMSD -1
REMARK  0 active torsions:
REMARK  status: ('A' for Active; 'I' for Inactive)
ROOT
ATOM      1  C   UNL d   1       1.892  -0.003  -1.532  0.00  0.00     0.124 A 
ATOM      2  C1  UNL d   1       1.803   1.367  -1.736  0.00  0.00     0.062 A 
ATOM      3  C2  UNL d   1       1.979   1.899  -3.010  0.00  0.00     0.162 A 
ATOM      4  C3  UNL d   1       2.246   1.059  -4.092  0.00  0.00    -0.034 A 
ATOM      5  C4  UNL d   1       2.334  -0.317  -3.879  0.00  0.00     0.162 A 
ATOM      6  C5  UNL d   1       2.157  -0.844  -2.604  0.00  0.00     0.062 A 
ATOM      7  F   UNL d   1       2.244  -2.168  -2.409  0.00  0.00    -0.097 F 
ATOM      8  F1  UNL d   1       2.589  -1.153  -4.897  0.00  0.00    -0.096 F 
ATOM      9  I   UNL d   1       2.510   1.850  -5.999  0.00  0.00    -0.060 I 
ATOM     10  F2  UNL d   1       1.888   3.226  -3.177  0.00  0.00    -0.096 F 
ATOM     11  F3  UNL d   1       1.547   2.182  -0.702  0.00  0.00    -0.097 F 
ATOM     12  F4  UNL d   1       1.723  -0.511  -0.305  0.00  0.00    -0.092 F 
ENDROOT
TORSDOF 0
ENDMDL
