MODEL 1
REMARK minimizedAffinity 23.8865967
REMARK minimizedRMSD -1
REMARK  0 active torsions:
REMARK  status: ('A' for Active; 'I' for Inactive)
ROOT
ATOM      1  C   UNL d   1       2.199  -0.698  -2.372  0.00  0.00     0.124 A 
ATOM      2  C1  UNL d   1       2.108   0.681  -2.502  0.00  0.00     0.062 A 
ATOM      3  C2  UNL d   1       1.540   1.444  -1.485  0.00  0.00     0.162 A 
ATOM      4  C3  UNL d   1       1.061   0.829  -0.328  0.00  0.00    -0.034 A 
ATOM      5  C4  UNL d   1       1.156  -0.559  -0.206  0.00  0.00     0.162 A 
ATOM      6  C5  UNL d   1       1.723  -1.316  -1.225  0.00  0.00     0.062 A 
ATOM      7  F   UNL d   1       1.811  -2.648  -1.098  0.00  0.00    -0.097 F 
ATOM      8  F1  UNL d   1       0.705  -1.182   0.893  0.00  0.00    -0.096 F 
ATOM      9  I   UNL d   1       0.212   1.965   1.195  0.00  0.00    -0.060 I 
ATOM     10  F2  UNL d   1       1.465   2.774  -1.637  0.00  0.00    -0.096 F 
ATOM     11  F3  UNL d   1       2.566   1.281  -3.610  0.00  0.00    -0.097 F 
ATOM     12  F4  UNL d   1       2.745  -1.429  -3.353  0.00  0.00    -0.092 F 
ENDROOT
TORSDOF 0
ENDMDL
