MODEL 1
REMARK minimizedAffinity -1.73837912
REMARK minimizedRMSD -1
REMARK  0 active torsions:
REMARK  status: ('A' for Active; 'I' for Inactive)
ROOT
ATOM      1  C   UNL d   1      -0.812   0.767   2.023  0.00  0.00     0.124 A 
ATOM      2  C1  UNL d   1       0.019  -0.339   2.130  0.00  0.00     0.062 A 
ATOM      3  C2  UNL d   1       0.334  -1.091   1.002  0.00  0.00     0.162 A 
ATOM      4  C3  UNL d   1      -0.183  -0.738  -0.245  0.00  0.00    -0.034 A 
ATOM      5  C4  UNL d   1      -1.019   0.375  -0.345  0.00  0.00     0.162 A 
ATOM      6  C5  UNL d   1      -1.330   1.123   0.786  0.00  0.00     0.062 A 
ATOM      7  F   UNL d   1      -2.133   2.192   0.680  0.00  0.00    -0.097 F 
ATOM      8  F1  UNL d   1      -1.533   0.742  -1.528  0.00  0.00    -0.096 F 
ATOM      9  I   UNL d   1       0.284  -1.860  -1.935  0.00  0.00    -0.060 I 
ATOM     10  F2  UNL d   1       1.139  -2.155   1.135  0.00  0.00    -0.096 F 
ATOM     11  F3  UNL d   1       0.521  -0.686   3.325  0.00  0.00    -0.097 F 
ATOM     12  F4  UNL d   1      -1.113   1.488   3.110  0.00  0.00    -0.092 F 
ENDROOT
TORSDOF 0
ENDMDL
