MODEL 1
REMARK minimizedAffinity -1.61492264
REMARK minimizedRMSD -1
REMARK  0 active torsions:
REMARK  status: ('A' for Active; 'I' for Inactive)
ROOT
ATOM      1  C   UNL d   1      -1.357   1.730   1.332  0.00  0.00     0.124 A 
ATOM      2  C1  UNL d   1      -0.890   1.811   0.027  0.00  0.00     0.062 A 
ATOM      3  C2  UNL d   1      -0.176   0.753  -0.528  0.00  0.00     0.162 A 
ATOM      4  C3  UNL d   1       0.075  -0.396   0.222  0.00  0.00    -0.034 A 
ATOM      5  C4  UNL d   1      -0.396  -0.470   1.534  0.00  0.00     0.162 A 
ATOM      6  C5  UNL d   1      -1.109   0.591   2.084  0.00  0.00     0.062 A 
ATOM      7  F   UNL d   1      -1.559   0.511   3.345  0.00  0.00    -0.097 F 
ATOM      8  F1  UNL d   1      -0.172  -1.560   2.283  0.00  0.00    -0.096 F 
ATOM      9  I   UNL d   1       1.142  -1.981  -0.604  0.00  0.00    -0.060 I 
ATOM     10  F2  UNL d   1       0.262   0.858  -1.791  0.00  0.00    -0.096 F 
ATOM     11  F3  UNL d   1      -1.127   2.912  -0.701  0.00  0.00    -0.097 F 
ATOM     12  F4  UNL d   1      -2.042   2.750   1.864  0.00  0.00    -0.092 F 
ENDROOT
TORSDOF 0
ENDMDL
