MODEL 1
REMARK minimizedAffinity -0.107497886
REMARK minimizedRMSD -1
REMARK  0 active torsions:
REMARK  status: ('A' for Active; 'I' for Inactive)
ROOT
ATOM      1  C   UNL d   1      -1.351   1.787   1.452  0.00  0.00     0.124 A 
ATOM      2  C1  UNL d   1      -0.699   0.823   2.208  0.00  0.00     0.062 A 
ATOM      3  C2  UNL d   1      -0.210  -0.330   1.600  0.00  0.00     0.162 A 
ATOM      4  C3  UNL d   1      -0.371  -0.525   0.228  0.00  0.00    -0.034 A 
ATOM      5  C4  UNL d   1      -1.029   0.449  -0.525  0.00  0.00     0.162 A 
ATOM      6  C5  UNL d   1      -1.516   1.600   0.087  0.00  0.00     0.062 A 
ATOM      7  F   UNL d   1      -2.145   2.530  -0.645  0.00  0.00    -0.097 F 
ATOM      8  F1  UNL d   1      -1.200   0.294  -1.846  0.00  0.00    -0.096 F 
ATOM      9  I   UNL d   1       0.359  -2.247  -0.684  0.00  0.00    -0.060 I 
ATOM     10  F2  UNL d   1       0.416  -1.245   2.355  0.00  0.00    -0.096 F 
ATOM     11  F3  UNL d   1      -0.540   1.001   3.527  0.00  0.00    -0.097 F 
ATOM     12  F4  UNL d   1      -1.822   2.895   2.039  0.00  0.00    -0.092 F 
ENDROOT
TORSDOF 0
ENDMDL
