MODEL 1
REMARK minimizedAffinity -0.2221746
REMARK minimizedRMSD -1
REMARK  0 active torsions:
REMARK  status: ('A' for Active; 'I' for Inactive)
ROOT
ATOM      1  C   UNL d   1      -1.432   1.684   1.751  0.00  0.00     0.124 A 
ATOM      2  C1  UNL d   1      -0.689   0.775   2.492  0.00  0.00     0.062 A 
ATOM      3  C2  UNL d   1      -0.051  -0.288   1.859  0.00  0.00     0.162 A 
ATOM      4  C3  UNL d   1      -0.151  -0.447   0.477  0.00  0.00    -0.034 A 
ATOM      5  C4  UNL d   1      -0.900   0.471  -0.261  0.00  0.00     0.162 A 
ATOM      6  C5  UNL d   1      -1.536   1.531   0.375  0.00  0.00     0.062 A 
ATOM      7  F   UNL d   1      -2.253   2.409  -0.342  0.00  0.00    -0.097 F 
ATOM      8  F1  UNL d   1      -1.018   0.347  -1.592  0.00  0.00    -0.096 F 
ATOM      9  I   UNL d   1       0.802  -2.035  -0.472  0.00  0.00    -0.060 I 
ATOM     10  F2  UNL d   1       0.660  -1.151   2.600  0.00  0.00    -0.096 F 
ATOM     11  F3  UNL d   1      -0.587   0.921   3.821  0.00  0.00    -0.097 F 
ATOM     12  F4  UNL d   1      -2.045   2.706   2.362  0.00  0.00    -0.092 F 
ENDROOT
TORSDOF 0
ENDMDL
