MODEL 1
REMARK minimizedAffinity -2.73730826
REMARK minimizedRMSD -1
REMARK  0 active torsions:
REMARK  status: ('A' for Active; 'I' for Inactive)
ROOT
ATOM      1  C   UNL d   1      -0.611   0.598   1.828  0.00  0.00     0.124 A 
ATOM      2  C1  UNL d   1       0.363  -0.356   1.562  0.00  0.00     0.062 A 
ATOM      3  C2  UNL d   1       0.529  -0.845   0.270  0.00  0.00     0.162 A 
ATOM      4  C3  UNL d   1      -0.279  -0.382  -0.768  0.00  0.00    -0.034 A 
ATOM      5  C4  UNL d   1      -1.257   0.576  -0.493  0.00  0.00     0.162 A 
ATOM      6  C5  UNL d   1      -1.419   1.062   0.800  0.00  0.00     0.062 A 
ATOM      7  F   UNL d   1      -2.361   1.983   1.055  0.00  0.00    -0.097 F 
ATOM      8  F1  UNL d   1      -2.052   1.043  -1.467  0.00  0.00    -0.096 F 
ATOM      9  I   UNL d   1      -0.034  -1.111  -2.701  0.00  0.00    -0.060 I 
ATOM     10  F2  UNL d   1       1.478  -1.766   0.043  0.00  0.00    -0.096 F 
ATOM     11  F3  UNL d   1       1.145  -0.807   2.553  0.00  0.00    -0.097 F 
ATOM     12  F4  UNL d   1      -0.769   1.066   3.072  0.00  0.00    -0.092 F 
ENDROOT
TORSDOF 0
ENDMDL
