MODEL 1
REMARK minimizedAffinity -1.2690134
REMARK minimizedRMSD -1
REMARK  0 active torsions:
REMARK  status: ('A' for Active; 'I' for Inactive)
ROOT
ATOM      1  C   UNL d   1      -1.105   2.014  -0.388  0.00  0.00     0.124 A 
ATOM      2  C1  UNL d   1      -1.772   0.891   0.081  0.00  0.00     0.062 A 
ATOM      3  C2  UNL d   1      -1.211  -0.373  -0.074  0.00  0.00     0.162 A 
ATOM      4  C3  UNL d   1       0.027  -0.521  -0.699  0.00  0.00    -0.034 A 
ATOM      5  C4  UNL d   1       0.692   0.613  -1.169  0.00  0.00     0.162 A 
ATOM      6  C5  UNL d   1       0.127   1.874  -1.012  0.00  0.00     0.062 A 
ATOM      7  F   UNL d   1       0.773   2.957  -1.466  0.00  0.00    -0.097 F 
ATOM      8  F1  UNL d   1       1.884   0.506  -1.775  0.00  0.00    -0.096 F 
ATOM      9  I   UNL d   1       0.871  -2.409  -0.932  0.00  0.00    -0.060 I 
ATOM     10  F2  UNL d   1      -1.878  -1.440   0.389  0.00  0.00    -0.096 F 
ATOM     11  F3  UNL d   1      -2.963   1.024   0.684  0.00  0.00    -0.097 F 
ATOM     12  F4  UNL d   1      -1.648   3.229  -0.239  0.00  0.00    -0.092 F 
ENDROOT
TORSDOF 0
ENDMDL
