MODEL 1
REMARK minimizedAffinity -0.918635666
REMARK minimizedRMSD -1
REMARK  0 active torsions:
REMARK  status: ('A' for Active; 'I' for Inactive)
ROOT
ATOM      1  C   UNL d   1       0.814  -1.800  -2.012  0.00  0.00     0.124 A 
ATOM      2  C1  UNL d   1       0.105  -2.520  -1.060  0.00  0.00     0.062 A 
ATOM      3  C2  UNL d   1      -0.399  -1.880   0.069  0.00  0.00     0.162 A 
ATOM      4  C3  UNL d   1      -0.197  -0.512   0.252  0.00  0.00    -0.034 A 
ATOM      5  C4  UNL d   1       0.517   0.205  -0.710  0.00  0.00     0.162 A 
ATOM      6  C5  UNL d   1       1.019  -0.439  -1.836  0.00  0.00     0.062 A 
ATOM      7  F   UNL d   1       1.703   0.259  -2.755  0.00  0.00    -0.097 F 
ATOM      8  F1  UNL d   1       0.729   1.521  -0.565  0.00  0.00    -0.096 F 
ATOM      9  I   UNL d   1      -0.949   0.447   1.939  0.00  0.00    -0.060 I 
ATOM     10  F2  UNL d   1      -1.080  -2.601   0.972  0.00  0.00    -0.096 F 
ATOM     11  F3  UNL d   1      -0.094  -3.835  -1.228  0.00  0.00    -0.097 F 
ATOM     12  F4  UNL d   1       1.298  -2.417  -3.097  0.00  0.00    -0.092 F 
ENDROOT
TORSDOF 0
ENDMDL
