MODEL 1
REMARK minimizedAffinity 1.38527465
REMARK minimizedRMSD -1
REMARK  0 active torsions:
REMARK  status: ('A' for Active; 'I' for Inactive)
ROOT
ATOM      1  C   UNL d   1       0.620  -2.839  -1.561  0.00  0.00     0.124 A 
ATOM      2  C1  UNL d   1       1.285  -2.562  -0.374  0.00  0.00     0.062 A 
ATOM      3  C2  UNL d   1       1.009  -1.391   0.326  0.00  0.00     0.162 A 
ATOM      4  C3  UNL d   1       0.062  -0.488  -0.159  0.00  0.00    -0.034 A 
ATOM      5  C4  UNL d   1      -0.601  -0.773  -1.354  0.00  0.00     0.162 A 
ATOM      6  C5  UNL d   1      -0.322  -1.945  -2.049  0.00  0.00     0.062 A 
ATOM      7  F   UNL d   1      -0.965  -2.211  -3.195  0.00  0.00    -0.097 F 
ATOM      8  F1  UNL d   1      -1.517   0.073  -1.848  0.00  0.00    -0.096 F 
ATOM      9  I   UNL d   1      -0.353   1.265   0.884  0.00  0.00    -0.060 I 
ATOM     10  F2  UNL d   1       1.666  -1.148   1.469  0.00  0.00    -0.096 F 
ATOM     11  F3  UNL d   1       2.196  -3.424   0.100  0.00  0.00    -0.097 F 
ATOM     12  F4  UNL d   1       0.888  -3.966  -2.232  0.00  0.00    -0.092 F 
ENDROOT
TORSDOF 0
ENDMDL
