MODEL 1
REMARK minimizedAffinity -3.77362561
REMARK minimizedRMSD -1
REMARK  0 active torsions:
REMARK  status: ('A' for Active; 'I' for Inactive)
ROOT
ATOM      1  C   UNL d   1       1.873  -0.171  -1.378  0.00  0.00     0.124 A 
ATOM      2  C1  UNL d   1       1.150  -0.969  -0.503  0.00  0.00     0.062 A 
ATOM      3  C2  UNL d   1       0.144  -0.413   0.283  0.00  0.00     0.162 A 
ATOM      4  C3  UNL d   1      -0.144   0.949   0.197  0.00  0.00    -0.034 A 
ATOM      5  C4  UNL d   1       0.589   1.745  -0.685  0.00  0.00     0.162 A 
ATOM      6  C5  UNL d   1       1.592   1.185  -1.468  0.00  0.00     0.062 A 
ATOM      7  F   UNL d   1       2.291   1.957  -2.313  0.00  0.00    -0.097 F 
ATOM      8  F1  UNL d   1       0.338   3.058  -0.793  0.00  0.00    -0.096 F 
ATOM      9  I   UNL d   1      -1.646   1.784   1.370  0.00  0.00    -0.060 I 
ATOM     10  F2  UNL d   1      -0.539  -1.208   1.120  0.00  0.00    -0.096 F 
ATOM     11  F3  UNL d   1       1.420  -2.280  -0.413  0.00  0.00    -0.097 F 
ATOM     12  F4  UNL d   1       2.841  -0.709  -2.132  0.00  0.00    -0.092 F 
ENDROOT
TORSDOF 0
ENDMDL
