MODEL 1
REMARK minimizedAffinity -2.32184505
REMARK minimizedRMSD -1
REMARK  0 active torsions:
REMARK  status: ('A' for Active; 'I' for Inactive)
ROOT
ATOM      1  C   UNL d   1       0.743  -0.593   0.645  0.00  0.00     0.124 A 
ATOM      2  C1  UNL d   1       0.408   0.327  -0.339  0.00  0.00     0.062 A 
ATOM      3  C2  UNL d   1      -0.508   1.340  -0.067  0.00  0.00     0.162 A 
ATOM      4  C3  UNL d   1      -1.096   1.438   1.194  0.00  0.00    -0.034 A 
ATOM      5  C4  UNL d   1      -0.754   0.508   2.178  0.00  0.00     0.162 A 
ATOM      6  C5  UNL d   1       0.162  -0.502   1.902  0.00  0.00     0.062 A 
ATOM      7  F   UNL d   1       0.484  -1.390   2.853  0.00  0.00    -0.097 F 
ATOM      8  F1  UNL d   1      -1.300   0.573   3.401  0.00  0.00    -0.096 F 
ATOM      9  I   UNL d   1      -2.466   2.950   1.603  0.00  0.00    -0.060 I 
ATOM     10  F2  UNL d   1      -0.813   2.215  -1.037  0.00  0.00    -0.096 F 
ATOM     11  F3  UNL d   1       0.967   0.241  -1.554  0.00  0.00    -0.097 F 
ATOM     12  F4  UNL d   1       1.624  -1.566   0.381  0.00  0.00    -0.092 F 
ENDROOT
TORSDOF 0
ENDMDL
