MODEL 1
REMARK minimizedAffinity -0.260491848
REMARK minimizedRMSD -1
REMARK  0 active torsions:
REMARK  status: ('A' for Active; 'I' for Inactive)
ROOT
ATOM      1  C   UNL d   1      -0.967   1.698   1.799  0.00  0.00     0.124 A 
ATOM      2  C1  UNL d   1      -0.413   0.525   2.291  0.00  0.00     0.062 A 
ATOM      3  C2  UNL d   1       0.127  -0.415   1.418  0.00  0.00     0.162 A 
ATOM      4  C3  UNL d   1       0.117  -0.185   0.043  0.00  0.00    -0.034 A 
ATOM      5  C4  UNL d   1      -0.443   0.997  -0.446  0.00  0.00     0.162 A 
ATOM      6  C5  UNL d   1      -0.982   1.933   0.431  0.00  0.00     0.062 A 
ATOM      7  F   UNL d   1      -1.517   3.066  -0.047  0.00  0.00    -0.097 F 
ATOM      8  F1  UNL d   1      -0.470   1.249  -1.763  0.00  0.00    -0.096 F 
ATOM      9  I   UNL d   1       0.923  -1.588  -1.266  0.00  0.00    -0.060 I 
ATOM     10  F2  UNL d   1       0.656  -1.540   1.923  0.00  0.00    -0.096 F 
ATOM     11  F3  UNL d   1      -0.398   0.295   3.612  0.00  0.00    -0.097 F 
ATOM     12  F4  UNL d   1      -1.487   2.600   2.641  0.00  0.00    -0.092 F 
ENDROOT
TORSDOF 0
ENDMDL
