MODEL 1
REMARK minimizedAffinity 1.63643622
REMARK minimizedRMSD -1
REMARK  0 active torsions:
REMARK  status: ('A' for Active; 'I' for Inactive)
ROOT
ATOM      1  C   UNL d   1      -0.330   0.476   1.602  0.00  0.00     0.124 A 
ATOM      2  C1  UNL d   1      -1.056   0.652   0.432  0.00  0.00     0.062 A 
ATOM      3  C2  UNL d   1      -0.806  -0.154  -0.675  0.00  0.00     0.162 A 
ATOM      4  C3  UNL d   1       0.174  -1.145  -0.617  0.00  0.00    -0.034 A 
ATOM      5  C4  UNL d   1       0.901  -1.316   0.563  0.00  0.00     0.162 A 
ATOM      6  C5  UNL d   1       0.647  -0.507   1.666  0.00  0.00     0.062 A 
ATOM      7  F   UNL d   1       1.350  -0.678   2.796  0.00  0.00    -0.097 F 
ATOM      8  F1  UNL d   1       1.850  -2.259   0.653  0.00  0.00    -0.096 F 
ATOM      9  I   UNL d   1       0.550  -2.353  -2.269  0.00  0.00    -0.060 I 
ATOM     10  F2  UNL d   1      -1.523   0.038  -1.792  0.00  0.00    -0.096 F 
ATOM     11  F3  UNL d   1      -2.000   1.602   0.367  0.00  0.00    -0.097 F 
ATOM     12  F4  UNL d   1      -0.571   1.254   2.665  0.00  0.00    -0.092 F 
ENDROOT
TORSDOF 0
ENDMDL
