MODEL 1
REMARK minimizedAffinity -0.600479841
REMARK minimizedRMSD -1
REMARK  0 active torsions:
REMARK  status: ('A' for Active; 'I' for Inactive)
ROOT
ATOM      1  C   UNL d   1      -1.333   0.444   2.579  0.00  0.00     0.124 A 
ATOM      2  C1  UNL d   1      -1.953   1.303   1.682  0.00  0.00     0.062 A 
ATOM      3  C2  UNL d   1      -1.429   1.480   0.405  0.00  0.00     0.162 A 
ATOM      4  C3  UNL d   1      -0.277   0.796   0.016  0.00  0.00    -0.034 A 
ATOM      5  C4  UNL d   1       0.342  -0.065   0.924  0.00  0.00     0.162 A 
ATOM      6  C5  UNL d   1      -0.186  -0.239   2.199  0.00  0.00     0.062 A 
ATOM      7  F   UNL d   1       0.415  -1.068   3.064  0.00  0.00    -0.097 F 
ATOM      8  F1  UNL d   1       1.451  -0.738   0.583  0.00  0.00    -0.096 F 
ATOM      9  I   UNL d   1       0.510   1.058  -1.893  0.00  0.00    -0.060 I 
ATOM     10  F2  UNL d   1      -2.050   2.316  -0.441  0.00  0.00    -0.096 F 
ATOM     11  F3  UNL d   1      -3.061   1.965   2.047  0.00  0.00    -0.097 F 
ATOM     12  F4  UNL d   1      -1.839   0.277   3.807  0.00  0.00    -0.092 F 
ENDROOT
TORSDOF 0
ENDMDL
