MODEL 1
REMARK minimizedAffinity -2.83959341
REMARK minimizedRMSD -1
REMARK  0 active torsions:
REMARK  status: ('A' for Active; 'I' for Inactive)
ROOT
ATOM      1  C   UNL d   1      -1.295   2.053   1.502  0.00  0.00     0.124 A 
ATOM      2  C1  UNL d   1      -1.129   2.066   0.124  0.00  0.00     0.062 A 
ATOM      3  C2  UNL d   1      -0.685   0.926  -0.538  0.00  0.00     0.162 A 
ATOM      4  C3  UNL d   1      -0.403  -0.239   0.176  0.00  0.00    -0.034 A 
ATOM      5  C4  UNL d   1      -0.572  -0.244   1.562  0.00  0.00     0.162 A 
ATOM      6  C5  UNL d   1      -1.017   0.898   2.220  0.00  0.00     0.062 A 
ATOM      7  F   UNL d   1      -1.176   0.883   3.551  0.00  0.00    -0.097 F 
ATOM      8  F1  UNL d   1      -0.310  -1.347   2.280  0.00  0.00    -0.096 F 
ATOM      9  I   UNL d   1       0.262  -1.946  -0.810  0.00  0.00    -0.060 I 
ATOM     10  F2  UNL d   1      -0.533   0.967  -1.870  0.00  0.00    -0.096 F 
ATOM     11  F3  UNL d   1      -1.397   3.181  -0.571  0.00  0.00    -0.097 F 
ATOM     12  F4  UNL d   1      -1.723   3.152   2.137  0.00  0.00    -0.092 F 
ENDROOT
TORSDOF 0
ENDMDL
