MODEL 1
REMARK minimizedAffinity -1.72261465
REMARK minimizedRMSD -1
REMARK  0 active torsions:
REMARK  status: ('A' for Active; 'I' for Inactive)
ROOT
ATOM      1  C   UNL d   1      -1.582   0.857   1.975  0.00  0.00     0.124 A 
ATOM      2  C1  UNL d   1      -1.573   1.642   0.830  0.00  0.00     0.062 A 
ATOM      3  C2  UNL d   1      -0.846   1.242  -0.287  0.00  0.00     0.162 A 
ATOM      4  C3  UNL d   1      -0.121   0.050  -0.265  0.00  0.00    -0.034 A 
ATOM      5  C4  UNL d   1      -0.134  -0.733   0.891  0.00  0.00     0.162 A 
ATOM      6  C5  UNL d   1      -0.862  -0.329   2.005  0.00  0.00     0.062 A 
ATOM      7  F   UNL d   1      -0.869  -1.088   3.110  0.00  0.00    -0.097 F 
ATOM      8  F1  UNL d   1       0.552  -1.884   0.946  0.00  0.00    -0.096 F 
ATOM      9  I   UNL d   1       0.968  -0.551  -1.933  0.00  0.00    -0.060 I 
ATOM     10  F2  UNL d   1      -0.856   2.020  -1.380  0.00  0.00    -0.096 F 
ATOM     11  F3  UNL d   1      -2.267   2.789   0.800  0.00  0.00    -0.097 F 
ATOM     12  F4  UNL d   1      -2.282   1.245   3.049  0.00  0.00    -0.092 F 
ENDROOT
TORSDOF 0
ENDMDL
