MODEL 1
REMARK minimizedAffinity -0.200244382
REMARK minimizedRMSD -1
REMARK  0 active torsions:
REMARK  status: ('A' for Active; 'I' for Inactive)
ROOT
ATOM      1  C   UNL d   1      -1.088   0.589   2.482  0.00  0.00     0.124 A 
ATOM      2  C1  UNL d   1      -0.170  -0.431   2.273  0.00  0.00     0.062 A 
ATOM      3  C2  UNL d   1       0.328  -0.673   0.996  0.00  0.00     0.162 A 
ATOM      4  C3  UNL d   1      -0.090   0.106  -0.082  0.00  0.00    -0.034 A 
ATOM      5  C4  UNL d   1      -1.015   1.130   0.136  0.00  0.00     0.162 A 
ATOM      6  C5  UNL d   1      -1.509   1.368   1.414  0.00  0.00     0.062 A 
ATOM      7  F   UNL d   1      -2.396   2.353   1.614  0.00  0.00    -0.097 F 
ATOM      8  F1  UNL d   1      -1.438   1.898  -0.878  0.00  0.00    -0.096 F 
ATOM      9  I   UNL d   1       0.652  -0.253  -1.993  0.00  0.00    -0.060 I 
ATOM     10  F2  UNL d   1       1.214  -1.665   0.823  0.00  0.00    -0.096 F 
ATOM     11  F3  UNL d   1       0.238  -1.186   3.303  0.00  0.00    -0.097 F 
ATOM     12  F4  UNL d   1      -1.566   0.819   3.712  0.00  0.00    -0.092 F 
ENDROOT
TORSDOF 0
ENDMDL
