MODEL 1
REMARK minimizedAffinity -3.28562713
REMARK minimizedRMSD -1
REMARK  0 active torsions:
REMARK  status: ('A' for Active; 'I' for Inactive)
ROOT
ATOM      1  C2' OXE d   1       1.512  -0.740   2.883  0.00  0.00     0.078 C 
ATOM      2  C1' OXE d   1       2.638  -1.031   0.328  0.00  0.00     0.078 C 
ATOM      3  C1  OXE d   1       1.245  -0.460   0.422  0.00  0.00    -0.078 A 
ATOM      4  C2  OXE d   1       0.684  -0.364   1.673  0.00  0.00    -0.078 A 
ATOM      5  C3  OXE d   1      -0.577   0.206   1.821  0.00  0.00     0.003 A 
ATOM      6  C4  OXE d   1      -1.340   0.541   0.696  0.00  0.00    -0.002 A 
ATOM      7  C5  OXE d   1      -0.803   0.415  -0.590  0.00  0.00    -0.002 A 
ATOM      8  C6  OXE d   1       0.502  -0.044  -0.741  0.00  0.00     0.003 A 
ENDROOT
TORSDOF 0
ENDMDL
