MODEL 1
REMARK minimizedAffinity 2.76193833
REMARK minimizedRMSD -1
REMARK  0 active torsions:
REMARK  status: ('A' for Active; 'I' for Inactive)
ROOT
ATOM      1  C2' OXE d   1       0.062   3.470  -1.166  0.00  0.00     0.078 C 
ATOM      2  C1' OXE d   1       1.222   5.808  -2.199  0.00  0.00     0.078 C 
ATOM      3  C1  OXE d   1       1.139   4.604  -3.104  0.00  0.00    -0.078 A 
ATOM      4  C2  OXE d   1       0.613   3.451  -2.575  0.00  0.00    -0.078 A 
ATOM      5  C3  OXE d   1       0.463   2.327  -3.384  0.00  0.00     0.003 A 
ATOM      6  C4  OXE d   1       0.984   2.315  -4.683  0.00  0.00    -0.002 A 
ATOM      7  C5  OXE d   1       1.560   3.467  -5.228  0.00  0.00    -0.002 A 
ATOM      8  C6  OXE d   1       1.607   4.630  -4.468  0.00  0.00     0.003 A 
ENDROOT
TORSDOF 0
ENDMDL
