MODEL 1
REMARK minimizedAffinity -3.24110103
REMARK minimizedRMSD -1
REMARK  0 active torsions:
REMARK  status: ('A' for Active; 'I' for Inactive)
ROOT
ATOM      1  C2' OXE d   1       2.566  -0.901  -0.103  0.00  0.00     0.078 C 
ATOM      2  C1' OXE d   1       1.619  -1.153   2.527  0.00  0.00     0.078 C 
ATOM      3  C1  OXE d   1       0.634  -0.745   1.461  0.00  0.00    -0.078 A 
ATOM      4  C2  OXE d   1       1.116  -0.578   0.185  0.00  0.00    -0.078 A 
ATOM      5  C3  OXE d   1       0.239  -0.256  -0.847  0.00  0.00     0.003 A 
ATOM      6  C4  OXE d   1      -1.099   0.051  -0.570  0.00  0.00    -0.002 A 
ATOM      7  C5  OXE d   1      -1.602  -0.073   0.729  0.00  0.00    -0.002 A 
ATOM      8  C6  OXE d   1      -0.760  -0.510   1.747  0.00  0.00     0.003 A 
ENDROOT
TORSDOF 0
ENDMDL
