MODEL 1
REMARK minimizedAffinity -2.4907856
REMARK minimizedRMSD -1
REMARK  0 active torsions:
REMARK  status: ('A' for Active; 'I' for Inactive)
ROOT
ATOM      1  C2' OXE d   1       1.759  -1.171  -1.507  0.00  0.00     0.078 C 
ATOM      2  C1' OXE d   1      -0.457   0.525  -1.202  0.00  0.00     0.078 C 
ATOM      3  C1  OXE d   1       0.079  -0.160   0.030  0.00  0.00    -0.078 A 
ATOM      4  C2  OXE d   1       1.135  -1.024  -0.136  0.00  0.00    -0.078 A 
ATOM      5  C3  OXE d   1       1.703  -1.639   0.976  0.00  0.00     0.003 A 
ATOM      6  C4  OXE d   1       1.114  -1.505   2.239  0.00  0.00    -0.002 A 
ATOM      7  C5  OXE d   1       0.014  -0.661   2.423  0.00  0.00    -0.002 A 
ATOM      8  C6  OXE d   1      -0.488   0.051   1.339  0.00  0.00     0.003 A 
ENDROOT
TORSDOF 0
ENDMDL
