MODEL 1
REMARK minimizedAffinity -0.411999166
REMARK minimizedRMSD -1
REMARK  0 active torsions:
REMARK  status: ('A' for Active; 'I' for Inactive)
ROOT
ATOM      1  C2' OXE d   1      -2.095  -0.921   0.801  0.00  0.00     0.078 C 
ATOM      2  C1' OXE d   1       0.623  -1.284   1.402  0.00  0.00     0.078 C 
ATOM      3  C1  OXE d   1       0.265  -0.258   0.356  0.00  0.00    -0.078 A 
ATOM      4  C2  OXE d   1      -1.064  -0.120   0.035  0.00  0.00    -0.078 A 
ATOM      5  C3  OXE d   1      -1.455   0.851  -0.883  0.00  0.00     0.003 A 
ATOM      6  C4  OXE d   1      -0.494   1.580  -1.595  0.00  0.00    -0.002 A 
ATOM      7  C5  OXE d   1       0.867   1.427  -1.312  0.00  0.00    -0.002 A 
ATOM      8  C6  OXE d   1       1.260   0.544  -0.311  0.00  0.00     0.003 A 
ENDROOT
TORSDOF 0
ENDMDL
