MODEL 1
REMARK minimizedAffinity -0.69525677
REMARK minimizedRMSD -1
REMARK  0 active torsions:
REMARK  status: ('A' for Active; 'I' for Inactive)
ROOT
ATOM      1  C2' OXE d   1      -0.605   2.208   0.730  0.00  0.00     0.078 C 
ATOM      2  C1' OXE d   1      -0.589   1.840  -2.053  0.00  0.00     0.078 C 
ATOM      3  C1  OXE d   1       0.078   0.790  -1.201  0.00  0.00    -0.078 A 
ATOM      4  C2  OXE d   1       0.107   1.001   0.156  0.00  0.00    -0.078 A 
ATOM      5  C3  OXE d   1       0.661   0.037   0.993  0.00  0.00     0.003 A 
ATOM      6  C4  OXE d   1       1.326  -1.072   0.454  0.00  0.00    -0.002 A 
ATOM      7  C5  OXE d   1       1.343  -1.286  -0.928  0.00  0.00    -0.002 A 
ATOM      8  C6  OXE d   1       0.689  -0.389  -1.765  0.00  0.00     0.003 A 
ENDROOT
TORSDOF 0
ENDMDL
