MODEL 1
REMARK minimizedAffinity -2.17328
REMARK minimizedRMSD -1
REMARK  0 active torsions:
REMARK  status: ('A' for Active; 'I' for Inactive)
ROOT
ATOM      1  C2' OXE d   1      -3.439   1.872   2.245  0.00  0.00     0.078 C 
ATOM      2  C1' OXE d   1      -2.504   3.248   4.506  0.00  0.00     0.078 C 
ATOM      3  C1  OXE d   1      -3.725   2.377   4.668  0.00  0.00    -0.078 A 
ATOM      4  C2  OXE d   1      -4.203   1.744   3.545  0.00  0.00    -0.078 A 
ATOM      5  C3  OXE d   1      -5.293   0.885   3.650  0.00  0.00     0.003 A 
ATOM      6  C4  OXE d   1      -6.000   0.780   4.854  0.00  0.00    -0.002 A 
ATOM      7  C5  OXE d   1      -5.553   1.448   6.000  0.00  0.00    -0.002 A 
ATOM      8  C6  OXE d   1      -4.395   2.215   5.934  0.00  0.00     0.003 A 
ENDROOT
TORSDOF 0
ENDMDL
