MODEL 1
REMARK minimizedAffinity -5.12779236
REMARK minimizedRMSD -1
REMARK  0 active torsions:
REMARK  status: ('A' for Active; 'I' for Inactive)
ROOT
ATOM      1  C   UNL d   1      -1.185   2.732   0.800  0.00  0.00     0.124 A 
ATOM      2  C1  UNL d   1      -0.328   2.733  -0.292  0.00  0.00     0.062 A 
ATOM      3  C2  UNL d   1       0.201   1.536  -0.768  0.00  0.00     0.162 A 
ATOM      4  C3  UNL d   1      -0.126   0.328  -0.152  0.00  0.00    -0.034 A 
ATOM      5  C4  UNL d   1      -0.988   0.336   0.947  0.00  0.00     0.162 A 
ATOM      6  C5  UNL d   1      -1.514   1.535   1.418  0.00  0.00     0.062 A 
ATOM      7  F   UNL d   1      -2.341   1.532   2.473  0.00  0.00    -0.097 F 
ATOM      8  F1  UNL d   1      -1.323  -0.807   1.563  0.00  0.00    -0.096 F 
ATOM      9  I   UNL d   1       0.663  -1.463  -0.859  0.00  0.00    -0.060 I 
ATOM     10  F2  UNL d   1       1.026   1.567  -1.825  0.00  0.00    -0.096 F 
ATOM     11  F3  UNL d   1      -0.008   3.889  -0.891  0.00  0.00    -0.097 F 
ATOM     12  F4  UNL d   1      -1.691   3.885   1.255  0.00  0.00    -0.092 F 
ENDROOT
TORSDOF 0
ENDMDL
