MODEL 1
REMARK minimizedAffinity -2.32620668
REMARK minimizedRMSD -1
REMARK  0 active torsions:
REMARK  status: ('A' for Active; 'I' for Inactive)
ROOT
ATOM      1  C   UNL d   1      -0.943   2.524   0.643  0.00  0.00     0.124 A 
ATOM      2  C1  UNL d   1      -0.088   2.536  -0.451  0.00  0.00     0.062 A 
ATOM      3  C2  UNL d   1       0.398   1.341  -0.973  0.00  0.00     0.162 A 
ATOM      4  C3  UNL d   1       0.030   0.123  -0.403  0.00  0.00    -0.034 A 
ATOM      5  C4  UNL d   1      -0.830   0.118   0.697  0.00  0.00     0.162 A 
ATOM      6  C5  UNL d   1      -1.313   1.315   1.216  0.00  0.00     0.062 A 
ATOM      7  F   UNL d   1      -2.138   1.301   2.272  0.00  0.00    -0.097 F 
ATOM      8  F1  UNL d   1      -1.204  -1.036   1.270  0.00  0.00    -0.096 F 
ATOM      9  I   UNL d   1       0.754  -1.666  -1.181  0.00  0.00    -0.060 I 
ATOM     10  F2  UNL d   1       1.222   1.384  -2.031  0.00  0.00    -0.096 F 
ATOM     11  F3  UNL d   1       0.271   3.703  -1.006  0.00  0.00    -0.097 F 
ATOM     12  F4  UNL d   1      -1.409   3.675   1.144  0.00  0.00    -0.092 F 
ENDROOT
TORSDOF 0
ENDMDL
