MODEL 1
REMARK minimizedAffinity 1.9944315
REMARK minimizedRMSD -1
REMARK  0 active torsions:
REMARK  status: ('A' for Active; 'I' for Inactive)
ROOT
ATOM      1  C   UNL d   1       0.866  -2.975  -2.021  0.00  0.00     0.124 A 
ATOM      2  C1  UNL d   1       0.056  -1.963  -2.516  0.00  0.00     0.062 A 
ATOM      3  C2  UNL d   1      -0.399  -0.954  -1.672  0.00  0.00     0.162 A 
ATOM      4  C3  UNL d   1      -0.043  -0.951  -0.323  0.00  0.00    -0.034 A 
ATOM      5  C4  UNL d   1       0.771  -1.974   0.168  0.00  0.00     0.162 A 
ATOM      6  C5  UNL d   1       1.222  -2.980  -0.679  0.00  0.00     0.062 A 
ATOM      7  F   UNL d   1       2.005  -3.957  -0.199  0.00  0.00    -0.097 F 
ATOM      8  F1  UNL d   1       1.132  -2.002   1.460  0.00  0.00    -0.096 F 
ATOM      9  I   UNL d   1      -0.721   0.556   0.943  0.00  0.00    -0.060 I 
ATOM     10  F2  UNL d   1      -1.180   0.012  -2.178  0.00  0.00    -0.096 F 
ATOM     11  F3  UNL d   1      -0.291  -1.957  -3.811  0.00  0.00    -0.097 F 
ATOM     12  F4  UNL d   1       1.301  -3.946  -2.835  0.00  0.00    -0.092 F 
ENDROOT
TORSDOF 0
ENDMDL
