MODEL 1
REMARK minimizedAffinity 0.603302836
REMARK minimizedRMSD -1
REMARK  0 active torsions:
REMARK  status: ('A' for Active; 'I' for Inactive)
ROOT
ATOM      1  C   UNL d   1      -1.137   1.917   0.442  0.00  0.00     0.124 A 
ATOM      2  C1  UNL d   1      -0.401   1.947  -0.734  0.00  0.00     0.062 A 
ATOM      3  C2  UNL d   1       0.276   0.810  -1.166  0.00  0.00     0.162 A 
ATOM      4  C3  UNL d   1       0.220  -0.367  -0.421  0.00  0.00    -0.034 A 
ATOM      5  C4  UNL d   1      -0.522  -0.390   0.762  0.00  0.00     0.162 A 
ATOM      6  C5  UNL d   1      -1.197   0.749   1.189  0.00  0.00     0.062 A 
ATOM      7  F   UNL d   1      -1.908   0.718   2.326  0.00  0.00    -0.097 F 
ATOM      8  F1  UNL d   1      -0.598  -1.506   1.503  0.00  0.00    -0.096 F 
ATOM      9  I   UNL d   1       1.230  -2.070  -1.062  0.00  0.00    -0.060 I 
ATOM     10  F2  UNL d   1       0.980   0.868  -2.306  0.00  0.00    -0.096 F 
ATOM     11  F3  UNL d   1      -0.340   3.075  -1.457  0.00  0.00    -0.097 F 
ATOM     12  F4  UNL d   1      -1.786   3.013   0.855  0.00  0.00    -0.092 F 
ENDROOT
TORSDOF 0
ENDMDL
