MODEL 1
REMARK minimizedAffinity -1.42492652
REMARK minimizedRMSD -1
REMARK  0 active torsions:
REMARK  status: ('A' for Active; 'I' for Inactive)
ROOT
ATOM      1  C   UNL d   1      -1.071   1.423   0.922  0.00  0.00     0.124 A 
ATOM      2  C1  UNL d   1      -0.963   0.375   1.825  0.00  0.00     0.062 A 
ATOM      3  C2  UNL d   1      -0.376  -0.826   1.436  0.00  0.00     0.162 A 
ATOM      4  C3  UNL d   1       0.108  -0.985   0.138  0.00  0.00    -0.034 A 
ATOM      5  C4  UNL d   1      -0.006   0.073  -0.765  0.00  0.00     0.162 A 
ATOM      6  C5  UNL d   1      -0.593   1.272  -0.372  0.00  0.00     0.062 A 
ATOM      7  F   UNL d   1      -0.696   2.283  -1.246  0.00  0.00    -0.097 F 
ATOM      8  F1  UNL d   1       0.449  -0.046  -2.021  0.00  0.00    -0.096 F 
ATOM      9  I   UNL d   1       0.985  -2.779  -0.447  0.00  0.00    -0.060 I 
ATOM     10  F2  UNL d   1      -0.285  -1.822   2.330  0.00  0.00    -0.096 F 
ATOM     11  F3  UNL d   1      -1.426   0.519   3.075  0.00  0.00    -0.097 F 
ATOM     12  F4  UNL d   1      -1.637   2.577   1.298  0.00  0.00    -0.092 F 
ENDROOT
TORSDOF 0
ENDMDL
