MODEL 1
REMARK minimizedAffinity -2.01681924
REMARK minimizedRMSD -1
REMARK  0 active torsions:
REMARK  status: ('A' for Active; 'I' for Inactive)
ROOT
ATOM      1  C   UNL d   1      -1.607   1.808   0.706  0.00  0.00     0.124 A 
ATOM      2  C1  UNL d   1      -1.552   0.659   1.483  0.00  0.00     0.062 A 
ATOM      3  C2  UNL d   1      -0.693  -0.379   1.137  0.00  0.00     0.162 A 
ATOM      4  C3  UNL d   1       0.121  -0.273   0.009  0.00  0.00    -0.034 A 
ATOM      5  C4  UNL d   1       0.060   0.885  -0.768  0.00  0.00     0.162 A 
ATOM      6  C5  UNL d   1      -0.801   1.920  -0.418  0.00  0.00     0.062 A 
ATOM      7  F   UNL d   1      -0.852   3.030  -1.169  0.00  0.00    -0.097 F 
ATOM      8  F1  UNL d   1       0.828   1.020  -1.859  0.00  0.00    -0.096 F 
ATOM      9  I   UNL d   1       1.407  -1.824  -0.512  0.00  0.00    -0.060 I 
ATOM     10  F2  UNL d   1      -0.661  -1.478   1.905  0.00  0.00    -0.096 F 
ATOM     11  F3  UNL d   1      -2.331   0.548   2.569  0.00  0.00    -0.097 F 
ATOM     12  F4  UNL d   1      -2.435   2.806   1.041  0.00  0.00    -0.092 F 
ENDROOT
TORSDOF 0
ENDMDL
