MODEL 1
REMARK minimizedAffinity -0.0278096925
REMARK minimizedRMSD -1
REMARK  0 active torsions:
REMARK  status: ('A' for Active; 'I' for Inactive)
ROOT
ATOM      1  C   UNL d   1      -1.038   1.694  -0.405  0.00  0.00     0.124 A 
ATOM      2  C1  UNL d   1      -1.699   0.514  -0.094  0.00  0.00     0.062 A 
ATOM      3  C2  UNL d   1      -1.105  -0.715  -0.370  0.00  0.00     0.162 A 
ATOM      4  C3  UNL d   1       0.159  -0.769  -0.959  0.00  0.00    -0.034 A 
ATOM      5  C4  UNL d   1       0.817   0.422  -1.269  0.00  0.00     0.162 A 
ATOM      6  C5  UNL d   1       0.218   1.647  -0.992  0.00  0.00     0.062 A 
ATOM      7  F   UNL d   1       0.858   2.787  -1.293  0.00  0.00    -0.097 F 
ATOM      8  F1  UNL d   1       2.032   0.407  -1.836  0.00  0.00    -0.096 F 
ATOM      9  I   UNL d   1       1.051  -2.603  -1.372  0.00  0.00    -0.060 I 
ATOM     10  F2  UNL d   1      -1.766  -1.839  -0.059  0.00  0.00    -0.096 F 
ATOM     11  F3  UNL d   1      -2.914   0.556   0.472  0.00  0.00    -0.097 F 
ATOM     12  F4  UNL d   1      -1.613   2.874  -0.140  0.00  0.00    -0.092 F 
ENDROOT
TORSDOF 0
ENDMDL
