MODEL 1
REMARK minimizedAffinity -1.93788671
REMARK minimizedRMSD -1
REMARK  0 active torsions:
REMARK  status: ('A' for Active; 'I' for Inactive)
ROOT
ATOM      1  C   UNL d   1      -1.165   0.592   2.059  0.00  0.00     0.124 A 
ATOM      2  C1  UNL d   1      -0.344  -0.522   1.945  0.00  0.00     0.062 A 
ATOM      3  C2  UNL d   1       0.096  -0.942   0.694  0.00  0.00     0.162 A 
ATOM      4  C3  UNL d   1      -0.284  -0.249  -0.455  0.00  0.00    -0.034 A 
ATOM      5  C4  UNL d   1      -1.111   0.869  -0.334  0.00  0.00     0.162 A 
ATOM      6  C5  UNL d   1      -1.548   1.286   0.920  0.00  0.00     0.062 A 
ATOM      7  F   UNL d   1      -2.341   2.362   1.027  0.00  0.00    -0.097 F 
ATOM      8  F1  UNL d   1      -1.495   1.559  -1.418  0.00  0.00    -0.096 F 
ATOM      9  I   UNL d   1       0.372  -0.875  -2.329  0.00  0.00    -0.060 I 
ATOM     10  F2  UNL d   1       0.888  -2.022   0.614  0.00  0.00    -0.096 F 
ATOM     11  F3  UNL d   1       0.026  -1.195   3.044  0.00  0.00    -0.097 F 
ATOM     12  F4  UNL d   1      -1.588   0.994   3.264  0.00  0.00    -0.092 F 
ENDROOT
TORSDOF 0
ENDMDL
