MODEL 1
REMARK minimizedAffinity 0.60728395
REMARK minimizedRMSD -1
REMARK  0 active torsions:
REMARK  status: ('A' for Active; 'I' for Inactive)
ROOT
ATOM      1  C   UNL d   1      -0.381   1.872  -0.712  0.00  0.00     0.124 A 
ATOM      2  C1  UNL d   1       0.529   1.497  -1.691  0.00  0.00     0.062 A 
ATOM      3  C2  UNL d   1       1.027   0.198  -1.723  0.00  0.00     0.162 A 
ATOM      4  C3  UNL d   1       0.615  -0.737  -0.773  0.00  0.00    -0.034 A 
ATOM      5  C4  UNL d   1      -0.300  -0.352   0.209  0.00  0.00     0.162 A 
ATOM      6  C5  UNL d   1      -0.795   0.948   0.236  0.00  0.00     0.062 A 
ATOM      7  F   UNL d   1      -1.674   1.308   1.183  0.00  0.00    -0.097 F 
ATOM      8  F1  UNL d   1      -0.717  -1.226   1.137  0.00  0.00    -0.096 F 
ATOM      9  I   UNL d   1       1.358  -2.681  -0.817  0.00  0.00    -0.060 I 
ATOM     10  F2  UNL d   1       1.905  -0.136  -2.680  0.00  0.00    -0.096 F 
ATOM     11  F3  UNL d   1       0.930   2.389  -2.608  0.00  0.00    -0.097 F 
ATOM     12  F4  UNL d   1      -0.858   3.123  -0.683  0.00  0.00    -0.092 F 
ENDROOT
TORSDOF 0
ENDMDL
