MODEL 1
REMARK minimizedAffinity 0.268828303
REMARK minimizedRMSD -1
REMARK  0 active torsions:
REMARK  status: ('A' for Active; 'I' for Inactive)
ROOT
ATOM      1  C   UNL d   1      -1.263   1.815   0.548  0.00  0.00     0.124 A 
ATOM      2  C1  UNL d   1      -1.509   0.667   1.287  0.00  0.00     0.062 A 
ATOM      3  C2  UNL d   1      -0.870  -0.526   0.960  0.00  0.00     0.162 A 
ATOM      4  C3  UNL d   1       0.022  -0.576  -0.111  0.00  0.00    -0.034 A 
ATOM      5  C4  UNL d   1       0.263   0.584  -0.851  0.00  0.00     0.162 A 
ATOM      6  C5  UNL d   1      -0.378   1.773  -0.520  0.00  0.00     0.062 A 
ATOM      7  F   UNL d   1      -0.140   2.882  -1.235  0.00  0.00    -0.097 F 
ATOM      8  F1  UNL d   1       1.114   0.571  -1.887  0.00  0.00    -0.096 F 
ATOM      9  I   UNL d   1       0.979  -2.357  -0.604  0.00  0.00    -0.060 I 
ATOM     10  F2  UNL d   1      -1.126  -1.621   1.692  0.00  0.00    -0.096 F 
ATOM     11  F3  UNL d   1      -2.364   0.705   2.319  0.00  0.00    -0.097 F 
ATOM     12  F4  UNL d   1      -1.880   2.961   0.865  0.00  0.00    -0.092 F 
ENDROOT
TORSDOF 0
ENDMDL
