MODEL 1
REMARK minimizedAffinity -1.65668952
REMARK minimizedRMSD -1
REMARK  0 active torsions:
REMARK  status: ('A' for Active; 'I' for Inactive)
ROOT
ATOM      1  C   UNL d   1      -0.723   2.324   0.739  0.00  0.00     0.124 A 
ATOM      2  C1  UNL d   1      -1.018   1.198   1.495  0.00  0.00     0.062 A 
ATOM      3  C2  UNL d   1      -0.472  -0.036   1.155  0.00  0.00     0.162 A 
ATOM      4  C3  UNL d   1       0.376  -0.151   0.054  0.00  0.00    -0.034 A 
ATOM      5  C4  UNL d   1       0.668   0.985  -0.702  0.00  0.00     0.162 A 
ATOM      6  C5  UNL d   1       0.120   2.217  -0.358  0.00  0.00     0.062 A 
ATOM      7  F   UNL d   1       0.407   3.304  -1.089  0.00  0.00    -0.097 F 
ATOM      8  F1  UNL d   1       1.480   0.911  -1.767  0.00  0.00    -0.096 F 
ATOM      9  I   UNL d   1       1.194  -1.995  -0.458  0.00  0.00    -0.060 I 
ATOM     10  F2  UNL d   1      -0.775  -1.108   1.903  0.00  0.00    -0.096 F 
ATOM     11  F3  UNL d   1      -1.833   1.299   2.555  0.00  0.00    -0.097 F 
ATOM     12  F4  UNL d   1      -1.250   3.510   1.068  0.00  0.00    -0.092 F 
ENDROOT
TORSDOF 0
ENDMDL
