MODEL 1
REMARK minimizedAffinity 1.50347376
REMARK minimizedRMSD -1
REMARK  0 active torsions:
REMARK  status: ('A' for Active; 'I' for Inactive)
ROOT
ATOM      1  C   UNL d   1      -0.442   2.076   0.755  0.00  0.00     0.124 A 
ATOM      2  C1  UNL d   1       0.369   2.033  -0.372  0.00  0.00     0.062 A 
ATOM      3  C2  UNL d   1       0.716   0.810  -0.938  0.00  0.00     0.162 A 
ATOM      4  C3  UNL d   1       0.252  -0.381  -0.380  0.00  0.00    -0.034 A 
ATOM      5  C4  UNL d   1      -0.562  -0.330   0.753  0.00  0.00     0.162 A 
ATOM      6  C5  UNL d   1      -0.906   0.895   1.316  0.00  0.00     0.062 A 
ATOM      7  F   UNL d   1      -1.689   0.935   2.404  0.00  0.00    -0.097 F 
ATOM      8  F1  UNL d   1      -1.026  -1.456   1.315  0.00  0.00    -0.096 F 
ATOM      9  I   UNL d   1       0.768  -2.212  -1.224  0.00  0.00    -0.060 I 
ATOM     10  F2  UNL d   1       1.500   0.799  -2.026  0.00  0.00    -0.096 F 
ATOM     11  F3  UNL d   1       0.820   3.173  -0.915  0.00  0.00    -0.097 F 
ATOM     12  F4  UNL d   1      -0.773   3.254   1.298  0.00  0.00    -0.092 F 
ENDROOT
TORSDOF 0
ENDMDL
