MODEL 1
REMARK minimizedAffinity -1.32479644
REMARK minimizedRMSD -1
REMARK  0 active torsions:
REMARK  status: ('A' for Active; 'I' for Inactive)
ROOT
ATOM      1  C   UNL d   1      -0.920   0.345   2.264  0.00  0.00     0.124 A 
ATOM      2  C1  UNL d   1       0.225  -0.371   1.945  0.00  0.00     0.062 A 
ATOM      3  C2  UNL d   1       0.770  -0.286   0.667  0.00  0.00     0.162 A 
ATOM      4  C3  UNL d   1       0.172   0.520  -0.301  0.00  0.00    -0.034 A 
ATOM      5  C4  UNL d   1      -0.980   1.237   0.027  0.00  0.00     0.162 A 
ATOM      6  C5  UNL d   1      -1.522   1.148   1.305  0.00  0.00     0.062 A 
ATOM      7  F   UNL d   1      -2.628   1.841   1.612  0.00  0.00    -0.097 F 
ATOM      8  F1  UNL d   1      -1.581   2.021  -0.880  0.00  0.00    -0.096 F 
ATOM      9  I   UNL d   1       0.985   0.651  -2.213  0.00  0.00    -0.060 I 
ATOM     10  F2  UNL d   1       1.878  -0.989   0.387  0.00  0.00    -0.096 F 
ATOM     11  F3  UNL d   1       0.807  -1.149   2.869  0.00  0.00    -0.097 F 
ATOM     12  F4  UNL d   1      -1.444   0.260   3.494  0.00  0.00    -0.092 F 
ENDROOT
TORSDOF 0
ENDMDL
