MODEL 1
REMARK minimizedAffinity -3.15253186
REMARK minimizedRMSD -1
REMARK  0 active torsions:
REMARK  status: ('A' for Active; 'I' for Inactive)
ROOT
ATOM      1  C   UNL d   1      -1.371   2.388   0.760  0.00  0.00     0.124 A 
ATOM      2  C1  UNL d   1      -1.782   1.177   1.299  0.00  0.00     0.062 A 
ATOM      3  C2  UNL d   1      -1.198  -0.013   0.873  0.00  0.00     0.162 A 
ATOM      4  C3  UNL d   1      -0.196   0.003  -0.096  0.00  0.00    -0.034 A 
ATOM      5  C4  UNL d   1       0.212   1.225  -0.634  0.00  0.00     0.162 A 
ATOM      6  C5  UNL d   1      -0.375   2.411  -0.206  0.00  0.00     0.062 A 
ATOM      7  F   UNL d   1       0.024   3.580  -0.727  0.00  0.00    -0.097 F 
ATOM      8  F1  UNL d   1       1.174   1.276  -1.568  0.00  0.00    -0.096 F 
ATOM      9  I   UNL d   1       0.680  -1.774  -0.735  0.00  0.00    -0.060 I 
ATOM     10  F2  UNL d   1      -1.616  -1.168   1.412  0.00  0.00    -0.096 F 
ATOM     11  F3  UNL d   1      -2.746   1.152   2.231  0.00  0.00    -0.097 F 
ATOM     12  F4  UNL d   1      -1.935   3.531   1.170  0.00  0.00    -0.092 F 
ENDROOT
TORSDOF 0
ENDMDL
