MODEL 1
REMARK minimizedAffinity -0.414488614
REMARK minimizedRMSD -1
REMARK  0 active torsions:
REMARK  status: ('A' for Active; 'I' for Inactive)
ROOT
ATOM      1  C   UNL d   1      -0.680   1.426   0.480  0.00  0.00     0.124 A 
ATOM      2  C1  UNL d   1       0.371   1.345  -0.423  0.00  0.00     0.062 A 
ATOM      3  C2  UNL d   1       0.861   0.104  -0.818  0.00  0.00     0.162 A 
ATOM      4  C3  UNL d   1       0.300  -1.068  -0.310  0.00  0.00    -0.034 A 
ATOM      5  C4  UNL d   1      -0.756  -0.979   0.599  0.00  0.00     0.162 A 
ATOM      6  C5  UNL d   1      -1.242   0.265   0.990  0.00  0.00     0.062 A 
ATOM      7  F   UNL d   1      -2.257   0.341   1.862  0.00  0.00    -0.097 F 
ATOM      8  F1  UNL d   1      -1.318  -2.085   1.106  0.00  0.00    -0.096 F 
ATOM      9  I   UNL d   1       1.030  -2.926  -0.898  0.00  0.00    -0.060 I 
ATOM     10  F2  UNL d   1       1.878   0.056  -1.692  0.00  0.00    -0.096 F 
ATOM     11  F3  UNL d   1       0.917   2.466  -0.917  0.00  0.00    -0.097 F 
ATOM     12  F4  UNL d   1      -1.149   2.622   0.858  0.00  0.00    -0.092 F 
ENDROOT
TORSDOF 0
ENDMDL
