MODEL 1
REMARK minimizedAffinity -2.82013154
REMARK minimizedRMSD -1
REMARK  1 active torsions:
REMARK  status: ('A' for Active; 'I' for Inactive)
REMARK    1  A    between atoms: C1_2  and  C2_3 
ROOT
ATOM      1  C2  UNL d   1      -0.090  -1.391  -0.751  0.00  0.00    -0.081 A 
ATOM      2  C3  UNL d   1      -0.618  -0.116  -0.512  0.00  0.00     0.006 A 
ATOM      3  C4  UNL d   1       0.010   0.755   0.381  0.00  0.00     0.002 A 
ATOM      4  C5  UNL d   1       1.180   0.370   1.044  0.00  0.00    -0.080 A 
ATOM      5  C6  UNL d   1       1.882   1.307   1.982  0.00  0.00     0.076 C 
ATOM      6  C7  UNL d   1       1.699  -0.910   0.819  0.00  0.00     0.002 A 
ATOM      7  C8  UNL d   1       1.071  -1.781  -0.073  0.00  0.00     0.006 A 
ENDROOT
BRANCH   1   8
ATOM      8  C1  UNL d   1      -0.728  -2.308  -1.762  0.00  0.00     0.054 C 
ATOM      9  C   UNL d   1      -0.979  -3.690  -1.174  0.00  0.00     0.018 C 
ENDBRANCH   1   8
TORSDOF 1
ENDMDL
