MODEL 1
REMARK minimizedAffinity -4.77115488
REMARK minimizedRMSD -1
REMARK  1 active torsions:
REMARK  status: ('A' for Active; 'I' for Inactive)
REMARK    1  A    between atoms: C1_2  and  C2_3 
ROOT
ATOM      1  C2  UNL d   1      -0.815   0.393  -0.264  0.00  0.00    -0.081 A 
ATOM      2  C3  UNL d   1      -0.619  -0.975  -0.493  0.00  0.00     0.006 A 
ATOM      3  C4  UNL d   1       0.543  -1.608  -0.045  0.00  0.00     0.002 A 
ATOM      4  C5  UNL d   1       1.523  -0.888   0.644  0.00  0.00    -0.080 A 
ATOM      5  C6  UNL d   1       2.761  -1.562   1.157  0.00  0.00     0.076 C 
ATOM      6  C7  UNL d   1       1.336   0.482   0.858  0.00  0.00     0.002 A 
ATOM      7  C8  UNL d   1       0.175   1.116   0.410  0.00  0.00     0.006 A 
ENDROOT
BRANCH   1   8
ATOM      8  C1  UNL d   1      -2.096   1.065  -0.689  0.00  0.00     0.054 C 
ATOM      9  C   UNL d   1      -3.147   0.997   0.410  0.00  0.00     0.018 C 
ENDBRANCH   1   8
TORSDOF 1
ENDMDL
