MODEL 1
REMARK minimizedAffinity -2.7982676
REMARK minimizedRMSD -1
REMARK  1 active torsions:
REMARK  status: ('A' for Active; 'I' for Inactive)
REMARK    1  A    between atoms: C1_2  and  C2_3 
ROOT
ATOM      1  C2  UNL d   1       1.823  -0.169   0.439  0.00  0.00    -0.081 A 
ATOM      2  C3  UNL d   1       0.972  -1.175  -0.034  0.00  0.00     0.006 A 
ATOM      3  C4  UNL d   1      -0.346  -0.879  -0.389  0.00  0.00     0.002 A 
ATOM      4  C5  UNL d   1      -0.832   0.429  -0.285  0.00  0.00    -0.080 A 
ATOM      5  C6  UNL d   1      -2.236   0.766  -0.692  0.00  0.00     0.076 C 
ATOM      6  C7  UNL d   1       0.013   1.431   0.203  0.00  0.00     0.002 A 
ATOM      7  C8  UNL d   1       1.330   1.135   0.559  0.00  0.00     0.006 A 
ENDROOT
BRANCH   1   8
ATOM      8  C1  UNL d   1       3.264  -0.473   0.761  0.00  0.00     0.054 C 
ATOM      9  C   UNL d   1       3.955  -1.174  -0.400  0.00  0.00     0.018 C 
ENDBRANCH   1   8
TORSDOF 1
ENDMDL
