MODEL 1
REMARK minimizedAffinity -5.52439022
REMARK minimizedRMSD -1
REMARK  1 active torsions:
REMARK  status: ('A' for Active; 'I' for Inactive)
REMARK    1  A    between atoms: C1_2  and  C2_3 
ROOT
ATOM      1  C2  UNL d   1       0.265   0.367  -0.320  0.00  0.00    -0.081 A 
ATOM      2  C3  UNL d   1       1.245   1.305   0.027  0.00  0.00     0.006 A 
ATOM      3  C4  UNL d   1       2.534   0.888   0.369  0.00  0.00     0.002 A 
ATOM      4  C5  UNL d   1       2.865  -0.471   0.363  0.00  0.00    -0.080 A 
ATOM      5  C6  UNL d   1       4.253  -0.930   0.699  0.00  0.00     0.076 C 
ATOM      6  C7  UNL d   1       1.881  -1.409   0.034  0.00  0.00     0.002 A 
ATOM      7  C8  UNL d   1       0.592  -0.993  -0.308  0.00  0.00     0.006 A 
ENDROOT
BRANCH   1   8
ATOM      8  C1  UNL d   1      -1.108   0.817  -0.752  0.00  0.00     0.054 C 
ATOM      9  C   UNL d   1      -2.060   0.903   0.432  0.00  0.00     0.018 C 
ENDBRANCH   1   8
TORSDOF 1
ENDMDL
