MODEL 1
REMARK minimizedAffinity -4.55274725
REMARK minimizedRMSD -1
REMARK  1 active torsions:
REMARK  status: ('A' for Active; 'I' for Inactive)
REMARK    1  A    between atoms: C1_2  and  C2_3 
ROOT
ATOM      1  C2  UNL d   1      -0.830   0.606  -0.012  0.00  0.00    -0.081 A 
ATOM      2  C3  UNL d   1      -0.769  -0.734  -0.415  0.00  0.00     0.006 A 
ATOM      3  C4  UNL d   1       0.439  -1.434  -0.364  0.00  0.00     0.002 A 
ATOM      4  C5  UNL d   1       1.603  -0.810   0.097  0.00  0.00    -0.080 A 
ATOM      5  C6  UNL d   1       2.899  -1.559   0.185  0.00  0.00     0.076 C 
ATOM      6  C7  UNL d   1       1.545   0.534   0.483  0.00  0.00     0.002 A 
ATOM      7  C8  UNL d   1       0.338   1.235   0.432  0.00  0.00     0.006 A 
ENDROOT
BRANCH   1   8
ATOM      8  C1  UNL d   1      -2.144   1.345  -0.005  0.00  0.00     0.054 C 
ATOM      9  C   UNL d   1      -3.300   0.414   0.332  0.00  0.00     0.018 C 
ENDBRANCH   1   8
TORSDOF 1
ENDMDL
