MODEL 1
REMARK minimizedAffinity -3.65305209
REMARK minimizedRMSD -1
REMARK  1 active torsions:
REMARK  status: ('A' for Active; 'I' for Inactive)
REMARK    1  A    between atoms: C1_2  and  C2_3 
ROOT
ATOM      1  C2  UNL d   1      -1.295   0.163  -0.265  0.00  0.00    -0.081 A 
ATOM      2  C3  UNL d   1      -1.125  -1.174  -0.645  0.00  0.00     0.006 A 
ATOM      3  C4  UNL d   1       0.095  -1.820  -0.435  0.00  0.00     0.002 A 
ATOM      4  C5  UNL d   1       1.163  -1.144   0.165  0.00  0.00    -0.080 A 
ATOM      5  C6  UNL d   1       2.468  -1.835   0.424  0.00  0.00     0.076 C 
ATOM      6  C7  UNL d   1       0.999   0.197   0.529  0.00  0.00     0.002 A 
ATOM      7  C8  UNL d   1      -0.221   0.844   0.318  0.00  0.00     0.006 A 
ENDROOT
BRANCH   1   8
ATOM      8  C1  UNL d   1      -2.630   0.843  -0.431  0.00  0.00     0.054 C 
ATOM      9  C   UNL d   1      -3.331   1.020   0.908  0.00  0.00     0.018 C 
ENDBRANCH   1   8
TORSDOF 1
ENDMDL
