MODEL 1
REMARK minimizedAffinity -4.36477947
REMARK minimizedRMSD -1
REMARK  3 active torsions:
REMARK  status: ('A' for Active; 'I' for Inactive)
REMARK    1  A    between atoms: C3'_2  and  C2'_3 
REMARK    2  A    between atoms: C2'_3  and  C1'_4 
REMARK    3  A    between atoms: C1'_4  and  C1_5 
ROOT
ATOM      1  C1  N4B d   1       0.080   0.209   0.366  0.00  0.00    -0.075 A 
ATOM      2  C2  N4B d   1       1.001   1.012   1.074  0.00  0.00     0.002 A 
ATOM      3  C3  N4B d   1       0.606   1.665   2.216  0.00  0.00     0.002 A 
ATOM      4  C4  N4B d   1      -0.703   1.546   2.656  0.00  0.00    -0.004 A 
ATOM      5  C5  N4B d   1      -1.580   0.748   1.981  0.00  0.00     0.002 A 
ATOM      6  C6  N4B d   1      -1.196   0.082   0.834  0.00  0.00     0.002 A 
ENDROOT
BRANCH   1   7
ATOM      7  C1' N4B d   1       0.441  -0.456  -0.935  0.00  0.00     0.057 C 
BRANCH   7   8
ATOM      8  C2' N4B d   1       1.568   0.328  -1.601  0.00  0.00     0.009 C 
BRANCH   8   9
ATOM      9  C3' N4B d   1       1.107   1.012  -2.876  0.00  0.00     0.004 C 
ATOM     10  C4' N4B d   1       2.166   1.882  -3.485  0.00  0.00     0.003 C 
ENDBRANCH   8   9
ENDBRANCH   7   8
ENDBRANCH   1   7
TORSDOF 3
ENDMDL
