MODEL 1
REMARK minimizedAffinity -4.36433363
REMARK minimizedRMSD -1
REMARK  3 active torsions:
REMARK  status: ('A' for Active; 'I' for Inactive)
REMARK    1  A    between atoms: C3'_2  and  C2'_3 
REMARK    2  A    between atoms: C2'_3  and  C1'_4 
REMARK    3  A    between atoms: C1'_4  and  C1_5 
ROOT
ATOM      1  C1  N4B d   1       0.095   0.285   0.049  0.00  0.00    -0.075 A 
ATOM      2  C2  N4B d   1      -1.129  -0.329   0.394  0.00  0.00     0.002 A 
ATOM      3  C3  N4B d   1      -1.712  -0.064   1.609  0.00  0.00     0.002 A 
ATOM      4  C4  N4B d   1      -1.083   0.794   2.499  0.00  0.00    -0.004 A 
ATOM      5  C5  N4B d   1       0.087   1.403   2.148  0.00  0.00     0.002 A 
ATOM      6  C6  N4B d   1       0.682   1.148   0.928  0.00  0.00     0.002 A 
ENDROOT
BRANCH   1   7
ATOM      7  C1' N4B d   1       0.813  -0.040  -1.232  0.00  0.00     0.057 C 
BRANCH   7   8
ATOM      8  C2' N4B d   1       0.141   0.699  -2.385  0.00  0.00     0.009 C 
BRANCH   8   9
ATOM      9  C3' N4B d   1       0.676   0.254  -3.735  0.00  0.00     0.004 C 
ATOM     10  C4' N4B d   1       2.173   0.159  -3.764  0.00  0.00     0.003 C 
ENDBRANCH   8   9
ENDBRANCH   7   8
ENDBRANCH   1   7
TORSDOF 3
ENDMDL
