MODEL 1
REMARK minimizedAffinity -3.49470782
REMARK minimizedRMSD -1
REMARK  0 active torsions:
REMARK  status: ('A' for Active; 'I' for Inactive)
ROOT
ATOM      1  C   UNL d   1       1.208   2.489   1.359  0.00  0.00     0.023 A 
ATOM      2  C1  UNL d   1       0.056   1.933   1.914  0.00  0.00     0.003 A 
ATOM      3  C2  UNL d   1      -0.525   0.803   1.334  0.00  0.00     0.048 A 
ATOM      4  C3  UNL d   1       0.052   0.233   0.200  0.00  0.00     0.023 A 
ATOM      5  C4  UNL d   1       1.206   0.785  -0.358  0.00  0.00     0.048 A 
ATOM      6  C5  UNL d   1       1.783   1.916   0.224  0.00  0.00     0.003 A 
ATOM      7  I   UNL d   1      -0.810  -1.448  -0.664  0.00  0.00    -0.146 I 
ENDROOT
TORSDOF 0
ENDMDL
