MODEL 1
REMARK minimizedAffinity -4.1040225
REMARK minimizedRMSD -1
REMARK  0 active torsions:
REMARK  status: ('A' for Active; 'I' for Inactive)
ROOT
ATOM      1  C   UNL d   1      -0.346   1.780   2.159  0.00  0.00     0.023 A 
ATOM      2  C1  UNL d   1       0.889   2.165   1.637  0.00  0.00     0.003 A 
ATOM      3  C2  UNL d   1       1.417   1.502   0.528  0.00  0.00     0.048 A 
ATOM      4  C3  UNL d   1       0.704   0.454  -0.055  0.00  0.00     0.023 A 
ATOM      5  C4  UNL d   1      -0.532   0.066   0.463  0.00  0.00     0.048 A 
ATOM      6  C5  UNL d   1      -1.056   0.732   1.573  0.00  0.00     0.003 A 
ATOM      7  I   UNL d   1       1.488  -0.535  -1.706  0.00  0.00    -0.146 I 
ENDROOT
TORSDOF 0
ENDMDL
