MODEL 1
REMARK minimizedAffinity -3.62759423
REMARK minimizedRMSD -1
REMARK  0 active torsions:
REMARK  status: ('A' for Active; 'I' for Inactive)
ROOT
ATOM      1  C   UNL d   1      -0.800  -0.907  -0.539  0.00  0.00     0.023 A 
ATOM      2  C1  UNL d   1       0.410  -0.406  -1.017  0.00  0.00     0.003 A 
ATOM      3  C2  UNL d   1       0.987   0.717  -0.420  0.00  0.00     0.048 A 
ATOM      4  C3  UNL d   1       0.348   1.333   0.656  0.00  0.00     0.023 A 
ATOM      5  C4  UNL d   1      -0.863   0.834   1.138  0.00  0.00     0.048 A 
ATOM      6  C5  UNL d   1      -1.436  -0.288   0.538  0.00  0.00     0.003 A 
ATOM      7  I   UNL d   1       1.205   3.004   1.546  0.00  0.00    -0.146 I 
ENDROOT
TORSDOF 0
ENDMDL
