MODEL 1
REMARK minimizedAffinity -2.03653121
REMARK minimizedRMSD -1
REMARK  0 active torsions:
REMARK  status: ('A' for Active; 'I' for Inactive)
ROOT
ATOM      1  C   UNL d   1       1.103   2.137   1.795  0.00  0.00     0.023 A 
ATOM      2  C1  UNL d   1       1.557   1.888   0.500  0.00  0.00     0.003 A 
ATOM      3  C2  UNL d   1       0.887   0.969  -0.311  0.00  0.00     0.048 A 
ATOM      4  C3  UNL d   1      -0.235   0.303   0.180  0.00  0.00     0.023 A 
ATOM      5  C4  UNL d   1      -0.693   0.550   1.476  0.00  0.00     0.048 A 
ATOM      6  C5  UNL d   1      -0.020   1.469   2.283  0.00  0.00     0.003 A 
ATOM      7  I   UNL d   1      -1.233  -1.065  -1.025  0.00  0.00    -0.146 I 
ENDROOT
TORSDOF 0
ENDMDL
