MODEL 1
REMARK minimizedAffinity -4.54047203
REMARK minimizedRMSD -1
REMARK  0 active torsions:
REMARK  status: ('A' for Active; 'I' for Inactive)
ROOT
ATOM      1  C   UNL d   1       1.397   2.755   1.415  0.00  0.00     0.023 A 
ATOM      2  C1  UNL d   1       2.044   2.187   0.317  0.00  0.00     0.003 A 
ATOM      3  C2  UNL d   1       1.449   1.133  -0.378  0.00  0.00     0.048 A 
ATOM      4  C3  UNL d   1       0.205   0.652   0.028  0.00  0.00     0.023 A 
ATOM      5  C4  UNL d   1      -0.448   1.217   1.125  0.00  0.00     0.048 A 
ATOM      6  C5  UNL d   1       0.152   2.270   1.818  0.00  0.00     0.003 A 
ATOM      7  I   UNL d   1      -0.684  -0.917  -1.005  0.00  0.00    -0.146 I 
ENDROOT
TORSDOF 0
ENDMDL
