MODEL 1
REMARK minimizedAffinity -2.36831665
REMARK minimizedRMSD -1
REMARK  0 active torsions:
REMARK  status: ('A' for Active; 'I' for Inactive)
ROOT
ATOM      1  C   UNL d   1       1.267   2.580   1.290  0.00  0.00     0.023 A 
ATOM      2  C1  UNL d   1       0.155   2.021   1.920  0.00  0.00     0.003 A 
ATOM      3  C2  UNL d   1      -0.554   0.989   1.301  0.00  0.00     0.048 A 
ATOM      4  C3  UNL d   1      -0.146   0.520   0.053  0.00  0.00     0.023 A 
ATOM      5  C4  UNL d   1       0.967   1.076  -0.581  0.00  0.00     0.048 A 
ATOM      6  C5  UNL d   1       1.673   2.108   0.041  0.00  0.00     0.003 A 
ATOM      7  I   UNL d   1      -1.200  -1.015  -0.869  0.00  0.00    -0.146 I 
ENDROOT
TORSDOF 0
ENDMDL
