MODEL 1
REMARK minimizedAffinity -3.38804936
REMARK minimizedRMSD -1
REMARK  0 active torsions:
REMARK  status: ('A' for Active; 'I' for Inactive)
ROOT
ATOM      1  C   UNL d   1       1.039   1.665   1.260  0.00  0.00     0.023 A 
ATOM      2  C1  UNL d   1      -0.281   1.348   1.579  0.00  0.00     0.003 A 
ATOM      3  C2  UNL d   1      -0.994   0.444   0.789  0.00  0.00     0.048 A 
ATOM      4  C3  UNL d   1      -0.380  -0.140  -0.318  0.00  0.00     0.023 A 
ATOM      5  C4  UNL d   1       0.941   0.173  -0.641  0.00  0.00     0.048 A 
ATOM      6  C5  UNL d   1       1.650   1.078   0.151  0.00  0.00     0.003 A 
ATOM      7  I   UNL d   1      -1.440  -1.486  -1.496  0.00  0.00    -0.146 I 
ENDROOT
TORSDOF 0
ENDMDL
