MODEL 1
REMARK minimizedAffinity -3.06940842
REMARK minimizedRMSD -1
REMARK  0 active torsions:
REMARK  status: ('A' for Active; 'I' for Inactive)
ROOT
ATOM      1  C   UNL d   1      -2.639  -2.213  -3.198  0.00  0.00     0.023 A 
ATOM      2  C1  UNL d   1      -2.972  -2.602  -1.900  0.00  0.00     0.003 A 
ATOM      3  C2  UNL d   1      -2.286  -2.061  -0.810  0.00  0.00     0.048 A 
ATOM      4  C3  UNL d   1      -1.269  -1.132  -1.026  0.00  0.00     0.023 A 
ATOM      5  C4  UNL d   1      -0.933  -0.740  -2.322  0.00  0.00     0.048 A 
ATOM      6  C5  UNL d   1      -1.621  -1.283  -3.409  0.00  0.00     0.003 A 
ATOM      7  I   UNL d   1      -0.246  -0.326   0.595  0.00  0.00    -0.146 I 
ENDROOT
TORSDOF 0
ENDMDL
