MODEL 1
REMARK minimizedAffinity -4.35666847
REMARK minimizedRMSD -1
REMARK  0 active torsions:
REMARK  status: ('A' for Active; 'I' for Inactive)
ROOT
ATOM      1  C   UNL d   1       1.005   2.173   1.331  0.00  0.00     0.023 A 
ATOM      2  C1  UNL d   1      -0.204   1.633   1.770  0.00  0.00     0.003 A 
ATOM      3  C2  UNL d   1      -0.830   0.628   1.030  0.00  0.00     0.048 A 
ATOM      4  C3  UNL d   1      -0.240   0.166  -0.147  0.00  0.00     0.023 A 
ATOM      5  C4  UNL d   1       0.970   0.703  -0.589  0.00  0.00     0.048 A 
ATOM      6  C5  UNL d   1       1.592   1.709   0.154  0.00  0.00     0.003 A 
ATOM      7  I   UNL d   1      -1.170  -1.330  -1.249  0.00  0.00    -0.146 I 
ENDROOT
TORSDOF 0
ENDMDL
