MODEL 1
REMARK minimizedAffinity -1.19326556
REMARK minimizedRMSD -1
REMARK  0 active torsions:
REMARK  status: ('A' for Active; 'I' for Inactive)
ROOT
ATOM      1  C   UNL d   1      -2.799  -2.476  -2.763  0.00  0.00     0.023 A 
ATOM      2  C1  UNL d   1      -2.535  -2.707  -1.413  0.00  0.00     0.003 A 
ATOM      3  C2  UNL d   1      -1.378  -2.188  -0.828  0.00  0.00     0.048 A 
ATOM      4  C3  UNL d   1      -0.491  -1.437  -1.598  0.00  0.00     0.023 A 
ATOM      5  C4  UNL d   1      -0.752  -1.203  -2.949  0.00  0.00     0.048 A 
ATOM      6  C5  UNL d   1      -1.909  -1.725  -3.530  0.00  0.00     0.003 A 
ATOM      7  I   UNL d   1       1.231  -0.663  -0.729  0.00  0.00    -0.146 I 
ENDROOT
TORSDOF 0
ENDMDL
