MODEL 1
REMARK minimizedAffinity -4.09798193
REMARK minimizedRMSD -1
REMARK  0 active torsions:
REMARK  status: ('A' for Active; 'I' for Inactive)
ROOT
ATOM      1  C   UNL d   1       2.675   2.520   0.984  0.00  0.00     0.023 A 
ATOM      2  C1  UNL d   1       3.222   1.547   0.147  0.00  0.00     0.003 A 
ATOM      3  C2  UNL d   1       2.396   0.594  -0.451  0.00  0.00     0.048 A 
ATOM      4  C3  UNL d   1       1.023   0.620  -0.210  0.00  0.00     0.023 A 
ATOM      5  C4  UNL d   1       0.470   1.592   0.626  0.00  0.00     0.048 A 
ATOM      6  C5  UNL d   1       1.301   2.543   1.223  0.00  0.00     0.003 A 
ATOM      7  I   UNL d   1      -0.210  -0.798  -1.099  0.00  0.00    -0.146 I 
ENDROOT
TORSDOF 0
ENDMDL
