MODEL 1
REMARK minimizedAffinity 0.414552659
REMARK minimizedRMSD -1
REMARK  0 active torsions:
REMARK  status: ('A' for Active; 'I' for Inactive)
ROOT
ATOM      1  C   UNL d   1       0.001  -1.510  -1.069  0.00  0.00     0.023 A 
ATOM      2  C1  UNL d   1       1.208  -0.870  -1.354  0.00  0.00     0.003 A 
ATOM      3  C2  UNL d   1       1.612   0.230  -0.594  0.00  0.00     0.048 A 
ATOM      4  C3  UNL d   1       0.806   0.684   0.449  0.00  0.00     0.023 A 
ATOM      5  C4  UNL d   1      -0.402   0.046   0.738  0.00  0.00     0.048 A 
ATOM      6  C5  UNL d   1      -0.803  -1.052  -0.025  0.00  0.00     0.003 A 
ATOM      7  I   UNL d   1       1.406   2.320   1.581  0.00  0.00    -0.146 I 
ENDROOT
TORSDOF 0
ENDMDL
