MODEL 1
REMARK minimizedAffinity -3.21181726
REMARK minimizedRMSD -1
REMARK  0 active torsions:
REMARK  status: ('A' for Active; 'I' for Inactive)
ROOT
ATOM      1  C   UNL d   1      -0.274   1.848   1.803  0.00  0.00     0.023 A 
ATOM      2  C1  UNL d   1       0.623   1.678   0.748  0.00  0.00     0.003 A 
ATOM      3  C2  UNL d   1       0.351   0.749  -0.259  0.00  0.00     0.048 A 
ATOM      4  C3  UNL d   1      -0.821  -0.005  -0.206  0.00  0.00     0.023 A 
ATOM      5  C4  UNL d   1      -1.722   0.162   0.847  0.00  0.00     0.048 A 
ATOM      6  C5  UNL d   1      -1.445   1.091   1.852  0.00  0.00     0.003 A 
ATOM      7  I   UNL d   1      -1.228  -1.387  -1.703  0.00  0.00    -0.146 I 
ENDROOT
TORSDOF 0
ENDMDL
