MODEL 1
REMARK minimizedAffinity -4.31534052
REMARK minimizedRMSD -1
REMARK  0 active torsions:
REMARK  status: ('A' for Active; 'I' for Inactive)
ROOT
ATOM      1  C   UNL d   1       2.904   2.635   1.024  0.00  0.00     0.023 A 
ATOM      2  C1  UNL d   1       3.278   1.719   0.040  0.00  0.00     0.003 A 
ATOM      3  C2  UNL d   1       2.375   0.743  -0.386  0.00  0.00     0.048 A 
ATOM      4  C3  UNL d   1       1.099   0.689   0.175  0.00  0.00     0.023 A 
ATOM      5  C4  UNL d   1       0.721   1.603   1.159  0.00  0.00     0.048 A 
ATOM      6  C5  UNL d   1       1.627   2.577   1.583  0.00  0.00     0.003 A 
ATOM      7  I   UNL d   1      -0.246  -0.763  -0.458  0.00  0.00    -0.146 I 
ENDROOT
TORSDOF 0
ENDMDL
