MODEL 1
REMARK minimizedAffinity 1.27276969
REMARK minimizedRMSD -1
REMARK  0 active torsions:
REMARK  status: ('A' for Active; 'I' for Inactive)
ROOT
ATOM      1  C   UNL d   1       1.714   1.057   5.195  0.00  0.00     0.023 A 
ATOM      2  C1  UNL d   1       0.330   1.065   5.021  0.00  0.00     0.003 A 
ATOM      3  C2  UNL d   1      -0.214   1.014   3.736  0.00  0.00     0.048 A 
ATOM      4  C3  UNL d   1       0.633   0.954   2.629  0.00  0.00     0.023 A 
ATOM      5  C4  UNL d   1       2.018   0.945   2.798  0.00  0.00     0.048 A 
ATOM      6  C5  UNL d   1       2.557   0.998   4.085  0.00  0.00     0.003 A 
ATOM      7  I   UNL d   1      -0.174   0.878   0.715  0.00  0.00    -0.146 I 
ENDROOT
TORSDOF 0
ENDMDL
