MODEL 1
REMARK minimizedAffinity -3.80623555
REMARK minimizedRMSD -1
REMARK  0 active torsions:
REMARK  status: ('A' for Active; 'I' for Inactive)
ROOT
ATOM      1  C   UNL d   1       0.170  -0.433  -1.246  0.00  0.00     0.020 A 
ATOM      2  C1  UNL d   1       1.476  -0.830  -0.966  0.00  0.00     0.020 A 
ATOM      3  C2  UNL d   1       1.882  -1.013   0.358  0.00  0.00     0.034 A 
ATOM      4  C3  UNL d   1       0.979  -0.799   1.407  0.00  0.00     0.017 A 
ATOM      5  C4  UNL d   1      -0.333  -0.401   1.124  0.00  0.00     0.017 A 
ATOM      6  C5  UNL d   1      -0.733  -0.219  -0.203  0.00  0.00     0.034 A 
ATOM      7 Cl   UNL d   1      -1.503  -0.118   2.364  0.00  0.00    -0.070 Cl
ATOM      8 Cl1  UNL d   1       1.548  -1.045   3.019  0.00  0.00    -0.070 Cl
ENDROOT
TORSDOF 0
ENDMDL
