MODEL 1
REMARK minimizedAffinity -3.50319338
REMARK minimizedRMSD -1
REMARK  0 active torsions:
REMARK  status: ('A' for Active; 'I' for Inactive)
ROOT
ATOM      1  C   UNL d   1      -1.501   0.539   0.842  0.00  0.00     0.020 A 
ATOM      2  C1  UNL d   1      -1.009   0.472  -0.461  0.00  0.00     0.020 A 
ATOM      3  C2  UNL d   1       0.262  -0.056  -0.701  0.00  0.00     0.034 A 
ATOM      4  C3  UNL d   1       1.044  -0.519   0.363  0.00  0.00     0.017 A 
ATOM      5  C4  UNL d   1       0.550  -0.451   1.670  0.00  0.00     0.017 A 
ATOM      6  C5  UNL d   1      -0.723   0.078   1.905  0.00  0.00     0.034 A 
ATOM      7 Cl   UNL d   1       1.457  -1.003   3.035  0.00  0.00    -0.070 Cl
ATOM      8 Cl1  UNL d   1       2.606  -1.159  -0.007  0.00  0.00    -0.070 Cl
ENDROOT
TORSDOF 0
ENDMDL
