MODEL 1
REMARK minimizedAffinity -3.41191673
REMARK minimizedRMSD -1
REMARK  0 active torsions:
REMARK  status: ('A' for Active; 'I' for Inactive)
ROOT
ATOM      1  C   UNL d   1       0.157  -0.149   1.434  0.00  0.00     0.020 A 
ATOM      2  C1  UNL d   1      -1.231  -0.159   1.572  0.00  0.00     0.020 A 
ATOM      3  C2  UNL d   1      -2.042   0.194   0.492  0.00  0.00     0.034 A 
ATOM      4  C3  UNL d   1      -1.467   0.559  -0.731  0.00  0.00     0.017 A 
ATOM      5  C4  UNL d   1      -0.074   0.569  -0.868  0.00  0.00     0.017 A 
ATOM      6  C5  UNL d   1       0.734   0.214   0.217  0.00  0.00     0.034 A 
ATOM      7 Cl   UNL d   1       0.709   1.008  -2.346  0.00  0.00    -0.070 Cl
ATOM      8 Cl1  UNL d   1      -2.531   0.984  -2.025  0.00  0.00    -0.070 Cl
ENDROOT
TORSDOF 0
ENDMDL
