MODEL 1
REMARK minimizedAffinity -3.64613962
REMARK minimizedRMSD -1
REMARK  0 active torsions:
REMARK  status: ('A' for Active; 'I' for Inactive)
ROOT
ATOM      1  C   UNL d   1      -0.483  -0.348  -1.419  0.00  0.00     0.020 A 
ATOM      2  C1  UNL d   1      -0.617  -0.591  -0.053  0.00  0.00     0.020 A 
ATOM      3  C2  UNL d   1      -0.680   0.477   0.844  0.00  0.00     0.034 A 
ATOM      4  C3  UNL d   1      -0.609   1.794   0.375  0.00  0.00     0.017 A 
ATOM      5  C4  UNL d   1      -0.475   2.038  -0.996  0.00  0.00     0.017 A 
ATOM      6  C5  UNL d   1      -0.413   0.964  -1.890  0.00  0.00     0.034 A 
ATOM      7 Cl   UNL d   1      -0.382   3.635  -1.650  0.00  0.00    -0.070 Cl
ATOM      8 Cl1  UNL d   1      -0.694   3.067   1.541  0.00  0.00    -0.070 Cl
ENDROOT
TORSDOF 0
ENDMDL
