MODEL 1
REMARK minimizedAffinity 0.194293812
REMARK minimizedRMSD -1
REMARK  0 active torsions:
REMARK  status: ('A' for Active; 'I' for Inactive)
ROOT
ATOM      1  C   UNL d   1       0.454  -0.213   0.210  0.00  0.00     0.020 A 
ATOM      2  C1  UNL d   1      -0.924  -0.000   0.202  0.00  0.00     0.020 A 
ATOM      3  C2  UNL d   1      -1.464   1.053  -0.540  0.00  0.00     0.034 A 
ATOM      4  C3  UNL d   1      -0.625   1.897  -1.277  0.00  0.00     0.017 A 
ATOM      5  C4  UNL d   1       0.758   1.683  -1.268  0.00  0.00     0.017 A 
ATOM      6  C5  UNL d   1       1.293   0.627  -0.523  0.00  0.00     0.034 A 
ATOM      7 Cl   UNL d   1       1.856   2.682  -2.152  0.00  0.00    -0.070 Cl
ATOM      8 Cl1  UNL d   1      -1.361   3.179  -2.171  0.00  0.00    -0.070 Cl
ENDROOT
TORSDOF 0
ENDMDL
