MODEL 1
REMARK minimizedAffinity -2.09817147
REMARK minimizedRMSD -1
REMARK  0 active torsions:
REMARK  status: ('A' for Active; 'I' for Inactive)
ROOT
ATOM      1  C   UNL d   1      -0.307  -0.813   2.559  0.00  0.00     0.020 A 
ATOM      2  C1  UNL d   1       0.767  -1.701   2.604  0.00  0.00     0.020 A 
ATOM      3  C2  UNL d   1       1.506  -1.961   1.448  0.00  0.00     0.034 A 
ATOM      4  C3  UNL d   1       1.172  -1.333   0.243  0.00  0.00     0.017 A 
ATOM      5  C4  UNL d   1       0.094  -0.441   0.199  0.00  0.00     0.017 A 
ATOM      6  C5  UNL d   1      -0.643  -0.184   1.359  0.00  0.00     0.034 A 
ATOM      7 Cl   UNL d   1      -0.378   0.372  -1.251  0.00  0.00    -0.070 Cl
ATOM      8 Cl1  UNL d   1       2.130  -1.701  -1.147  0.00  0.00    -0.070 Cl
ENDROOT
TORSDOF 0
ENDMDL
