MODEL 1
REMARK minimizedAffinity -3.50561476
REMARK minimizedRMSD -1
REMARK  0 active torsions:
REMARK  status: ('A' for Active; 'I' for Inactive)
ROOT
ATOM      1  C   UNL d   1      -0.804  -0.037   2.480  0.00  0.00     0.020 A 
ATOM      2  C1  UNL d   1       0.368  -0.563   3.021  0.00  0.00     0.020 A 
ATOM      3  C2  UNL d   1       1.421  -0.932   2.181  0.00  0.00     0.034 A 
ATOM      4  C3  UNL d   1       1.303  -0.776   0.795  0.00  0.00     0.017 A 
ATOM      5  C4  UNL d   1       0.126  -0.248   0.253  0.00  0.00     0.017 A 
ATOM      6  C5  UNL d   1      -0.925   0.120   1.099  0.00  0.00     0.034 A 
ATOM      7 Cl   UNL d   1      -0.094  -0.026  -1.447  0.00  0.00    -0.070 Cl
ATOM      8 Cl1  UNL d   1       2.644  -1.254  -0.184  0.00  0.00    -0.070 Cl
ENDROOT
TORSDOF 0
ENDMDL
