MODEL 1
REMARK minimizedAffinity -4.39003658
REMARK minimizedRMSD -1
REMARK  0 active torsions:
REMARK  status: ('A' for Active; 'I' for Inactive)
ROOT
ATOM      1  C   UNL d   1       2.059  -1.287   1.379  0.00  0.00     0.020 A 
ATOM      2  C1  UNL d   1       1.274  -1.433   2.522  0.00  0.00     0.020 A 
ATOM      3  C2  UNL d   1      -0.024  -0.920   2.547  0.00  0.00     0.034 A 
ATOM      4  C3  UNL d   1      -0.542  -0.259   1.428  0.00  0.00     0.017 A 
ATOM      5  C4  UNL d   1       0.247  -0.113   0.281  0.00  0.00     0.017 A 
ATOM      6  C5  UNL d   1       1.547  -0.628   0.261  0.00  0.00     0.034 A 
ATOM      7 Cl   UNL d   1      -0.322   0.691  -1.140  0.00  0.00    -0.070 Cl
ATOM      8 Cl1  UNL d   1      -2.156   0.350   1.529  0.00  0.00    -0.070 Cl
ENDROOT
TORSDOF 0
ENDMDL
