MODEL 1
REMARK minimizedAffinity -2.90623522
REMARK minimizedRMSD -1
REMARK  0 active torsions:
REMARK  status: ('A' for Active; 'I' for Inactive)
ROOT
ATOM      1  C   UNL d   1       1.184  -0.823   2.483  0.00  0.00     0.020 A 
ATOM      2  C1  UNL d   1       0.556   0.401   2.711  0.00  0.00     0.020 A 
ATOM      3  C2  UNL d   1       0.099   1.163   1.634  0.00  0.00     0.034 A 
ATOM      4  C3  UNL d   1       0.270   0.702   0.323  0.00  0.00     0.017 A 
ATOM      5  C4  UNL d   1       0.900  -0.527   0.095  0.00  0.00     0.017 A 
ATOM      6  C5  UNL d   1       1.355  -1.286   1.178  0.00  0.00     0.034 A 
ATOM      7 Cl   UNL d   1       1.146  -1.161  -1.494  0.00  0.00    -0.070 Cl
ATOM      8 Cl1  UNL d   1      -0.320   1.696  -0.961  0.00  0.00    -0.070 Cl
ENDROOT
TORSDOF 0
ENDMDL
