MODEL 1
REMARK minimizedAffinity -2.48596382
REMARK minimizedRMSD -1
REMARK  0 active torsions:
REMARK  status: ('A' for Active; 'I' for Inactive)
ROOT
ATOM      1  C4' PXY d   1       1.483   0.921  -0.812  0.00  0.00     0.077 C 
ATOM      2  C1' PXY d   1      -1.548  -2.199   2.996  0.00  0.00     0.077 C 
ATOM      3  C1  PXY d   1      -0.764  -1.378   1.991  0.00  0.00    -0.082 A 
ATOM      4  C2  PXY d   1       0.527  -1.611   1.821  0.00  0.00     0.003 A 
ATOM      5  C3  PXY d   1       1.258  -0.857   0.940  0.00  0.00     0.003 A 
ATOM      6  C4  PXY d   1       0.650   0.110   0.185  0.00  0.00    -0.082 A 
ATOM      7  C5  PXY d   1      -0.670   0.347   0.344  0.00  0.00     0.003 A 
ATOM      8  C6  PXY d   1      -1.385  -0.402   1.274  0.00  0.00     0.003 A 
ENDROOT
TORSDOF 0
ENDMDL
