MODEL 1
REMARK minimizedAffinity 0.587664962
REMARK minimizedRMSD -1
REMARK  0 active torsions:
REMARK  status: ('A' for Active; 'I' for Inactive)
ROOT
ATOM      1  C4' PXY d   1       2.284   1.217   0.618  0.00  0.00     0.077 C 
ATOM      2  C1' PXY d   1      -2.542  -1.065  -1.600  0.00  0.00     0.077 C 
ATOM      3  C1  PXY d   1      -1.278  -0.473  -1.008  0.00  0.00    -0.082 A 
ATOM      4  C2  PXY d   1      -0.817   0.678  -1.468  0.00  0.00     0.003 A 
ATOM      5  C3  PXY d   1       0.342   1.212  -0.965  0.00  0.00     0.003 A 
ATOM      6  C4  PXY d   1       1.007   0.587   0.056  0.00  0.00    -0.082 A 
ATOM      7  C5  PXY d   1       0.536  -0.583   0.538  0.00  0.00     0.003 A 
ATOM      8  C6  PXY d   1      -0.619  -1.129  -0.014  0.00  0.00     0.003 A 
ENDROOT
TORSDOF 0
ENDMDL
