MODEL 1
REMARK minimizedAffinity -2.9352355
REMARK minimizedRMSD -1
REMARK  0 active torsions:
REMARK  status: ('A' for Active; 'I' for Inactive)
ROOT
ATOM      1  C4' PXY d   1       1.081   1.017   0.718  0.00  0.00     0.077 C 
ATOM      2  C1' PXY d   1      -2.990  -3.056   0.221  0.00  0.00     0.077 C 
ATOM      3  C1  PXY d   1      -1.925  -1.984   0.339  0.00  0.00    -0.082 A 
ATOM      4  C2  PXY d   1      -0.954  -2.123   1.227  0.00  0.00     0.003 A 
ATOM      5  C3  PXY d   1       0.000  -1.148   1.369  0.00  0.00     0.003 A 
ATOM      6  C4  PXY d   1      -0.010  -0.045   0.558  0.00  0.00    -0.082 A 
ATOM      7  C5  PXY d   1      -0.992   0.099  -0.358  0.00  0.00     0.003 A 
ATOM      8  C6  PXY d   1      -1.974  -0.883  -0.458  0.00  0.00     0.003 A 
ENDROOT
TORSDOF 0
ENDMDL
