MODEL 1
REMARK minimizedAffinity -3.17259979
REMARK minimizedRMSD -1
REMARK  0 active torsions:
REMARK  status: ('A' for Active; 'I' for Inactive)
ROOT
ATOM      1  C4' PXY d   1       3.430   4.202  -2.319  0.00  0.00     0.077 C 
ATOM      2  C1' PXY d   1       1.596   1.720   2.569  0.00  0.00     0.077 C 
ATOM      3  C1  PXY d   1       2.077   2.359   1.281  0.00  0.00    -0.082 A 
ATOM      4  C2  PXY d   1       2.702   3.525   1.323  0.00  0.00     0.003 A 
ATOM      5  C3  PXY d   1       3.116   4.132   0.166  0.00  0.00     0.003 A 
ATOM      6  C4  PXY d   1       2.935   3.515  -1.043  0.00  0.00    -0.082 A 
ATOM      7  C5  PXY d   1       2.308   2.320  -1.093  0.00  0.00     0.003 A 
ATOM      8  C6  PXY d   1       1.859   1.740   0.089  0.00  0.00     0.003 A 
ENDROOT
TORSDOF 0
ENDMDL
