MODEL 1
REMARK minimizedAffinity -3.03375578
REMARK minimizedRMSD -1
REMARK  0 active torsions:
REMARK  status: ('A' for Active; 'I' for Inactive)
ROOT
ATOM      1  C4' PXY d   1       2.998   1.497   0.374  0.00  0.00     0.077 C 
ATOM      2  C1' PXY d   1      -2.023  -1.121  -0.788  0.00  0.00     0.077 C 
ATOM      3  C1  PXY d   1      -0.709  -0.436  -0.471  0.00  0.00    -0.082 A 
ATOM      4  C2  PXY d   1      -0.164   0.378  -1.361  0.00  0.00     0.003 A 
ATOM      5  C3  PXY d   1       1.041   0.981  -1.103  0.00  0.00     0.003 A 
ATOM      6  C4  PXY d   1       1.667   0.791   0.100  0.00  0.00    -0.082 A 
ATOM      7  C5  PXY d   1       1.112  -0.029   1.017  0.00  0.00     0.003 A 
ATOM      8  C6  PXY d   1      -0.091  -0.664   0.719  0.00  0.00     0.003 A 
ENDROOT
TORSDOF 0
ENDMDL
