MODEL 1
REMARK minimizedAffinity 0.186294422
REMARK minimizedRMSD -1
REMARK  0 active torsions:
REMARK  status: ('A' for Active; 'I' for Inactive)
ROOT
ATOM      1  C4' PXY d   1      -1.440  -1.665   1.628  0.00  0.00     0.077 C 
ATOM      2  C1' PXY d   1       2.791   1.826  -0.198  0.00  0.00     0.077 C 
ATOM      3  C1  PXY d   1       1.673   0.920   0.280  0.00  0.00    -0.082 A 
ATOM      4  C2  PXY d   1       1.955  -0.114   1.056  0.00  0.00     0.003 A 
ATOM      5  C3  PXY d   1       0.960  -0.962   1.470  0.00  0.00     0.003 A 
ATOM      6  C4  PXY d   1      -0.344  -0.718   1.130  0.00  0.00    -0.082 A 
ATOM      7  C5  PXY d   1      -0.641   0.340   0.347  0.00  0.00     0.003 A 
ATOM      8  C6  PXY d   1       0.389   1.165  -0.097  0.00  0.00     0.003 A 
ENDROOT
TORSDOF 0
ENDMDL
