MODEL 1
REMARK minimizedAffinity -2.86688185
REMARK minimizedRMSD -1
REMARK  0 active torsions:
REMARK  status: ('A' for Active; 'I' for Inactive)
ROOT
ATOM      1  C4' PXY d   1       2.057   0.715  -0.261  0.00  0.00     0.077 C 
ATOM      2  C1' PXY d   1      -3.198  -1.689  -0.409  0.00  0.00     0.077 C 
ATOM      3  C1  PXY d   1      -1.820  -1.060  -0.357  0.00  0.00    -0.082 A 
ATOM      4  C2  PXY d   1      -1.414  -0.292  -1.355  0.00  0.00     0.003 A 
ATOM      5  C3  PXY d   1      -0.158   0.259  -1.339  0.00  0.00     0.003 A 
ATOM      6  C4  PXY d   1       0.670   0.066  -0.266  0.00  0.00    -0.082 A 
ATOM      7  C5  PXY d   1       0.258  -0.707   0.761  0.00  0.00     0.003 A 
ATOM      8  C6  PXY d   1      -1.004  -1.291   0.707  0.00  0.00     0.003 A 
ENDROOT
TORSDOF 0
ENDMDL
