MODEL 1
REMARK minimizedAffinity -1.58855832
REMARK minimizedRMSD -1
REMARK  0 active torsions:
REMARK  status: ('A' for Active; 'I' for Inactive)
ROOT
ATOM      1  C4' PXY d   1       1.827   1.167   0.379  0.00  0.00     0.077 C 
ATOM      2  C1' PXY d   1      -2.834  -1.796  -1.326  0.00  0.00     0.077 C 
ATOM      3  C1  PXY d   1      -1.612  -1.025  -0.868  0.00  0.00    -0.082 A 
ATOM      4  C2  PXY d   1      -1.335   0.147  -1.414  0.00  0.00     0.003 A 
ATOM      5  C3  PXY d   1      -0.216   0.843  -1.034  0.00  0.00     0.003 A 
ATOM      6  C4  PXY d   1       0.599   0.358  -0.047  0.00  0.00    -0.082 A 
ATOM      7  C5  PXY d   1       0.318  -0.833   0.523  0.00  0.00     0.003 A 
ATOM      8  C6  PXY d   1      -0.800  -1.543   0.094  0.00  0.00     0.003 A 
ENDROOT
TORSDOF 0
ENDMDL
