MODEL 1
REMARK minimizedAffinity -4.37576818
REMARK minimizedRMSD -1
REMARK  0 active torsions:
REMARK  status: ('A' for Active; 'I' for Inactive)
ROOT
ATOM      1  C4' PXY d   1       2.580   1.675   0.055  0.00  0.00     0.077 C 
ATOM      2  C1' PXY d   1      -2.448  -1.082  -0.680  0.00  0.00     0.077 C 
ATOM      3  C1  PXY d   1      -1.130  -0.361  -0.474  0.00  0.00    -0.082 A 
ATOM      4  C2  PXY d   1      -0.709   0.503  -1.383  0.00  0.00     0.003 A 
ATOM      5  C3  PXY d   1       0.496   1.140  -1.229  0.00  0.00     0.003 A 
ATOM      6  C4  PXY d   1       1.251   0.930  -0.106  0.00  0.00    -0.082 A 
ATOM      7  C5  PXY d   1       0.823   0.058   0.831  0.00  0.00     0.003 A 
ATOM      8  C6  PXY d   1      -0.383  -0.609   0.635  0.00  0.00     0.003 A 
ENDROOT
TORSDOF 0
ENDMDL
