MODEL 1
REMARK minimizedAffinity -1.26929986
REMARK minimizedRMSD -1
REMARK  0 active torsions:
REMARK  status: ('A' for Active; 'I' for Inactive)
ROOT
ATOM      1  C4' PXY d   1       1.519   2.466   1.580  0.00  0.00     0.077 C 
ATOM      2  C1' PXY d   1      -1.711  -0.426  -2.243  0.00  0.00     0.077 C 
ATOM      3  C1  PXY d   1      -0.873   0.342  -1.241  0.00  0.00    -0.082 A 
ATOM      4  C2  PXY d   1       0.428   0.113  -1.164  0.00  0.00     0.003 A 
ATOM      5  C3  PXY d   1       1.196   0.775  -0.241  0.00  0.00     0.003 A 
ATOM      6  C4  PXY d   1       0.635   1.721   0.576  0.00  0.00    -0.082 A 
ATOM      7  C5  PXY d   1      -0.689   1.968   0.496  0.00  0.00     0.003 A 
ATOM      8  C6  PXY d   1      -1.458   1.256  -0.419  0.00  0.00     0.003 A 
ENDROOT
TORSDOF 0
ENDMDL
