MODEL 1
REMARK minimizedAffinity -2.77126479
REMARK minimizedRMSD -1
REMARK  0 active torsions:
REMARK  status: ('A' for Active; 'I' for Inactive)
ROOT
ATOM      1  C4' PXY d   1      -3.318  -0.436  -0.592  0.00  0.00     0.077 C 
ATOM      2  C1' PXY d   1       2.410   0.261  -0.258  0.00  0.00     0.077 C 
ATOM      3  C1  PXY d   1       0.908   0.084  -0.357  0.00  0.00    -0.082 A 
ATOM      4  C2  PXY d   1       0.194  -0.071   0.746  0.00  0.00     0.003 A 
ATOM      5  C3  PXY d   1      -1.162  -0.264   0.672  0.00  0.00     0.003 A 
ATOM      6  C4  PXY d   1      -1.800  -0.245  -0.539  0.00  0.00    -0.082 A 
ATOM      7  C5  PXY d   1      -1.080  -0.076  -1.668  0.00  0.00     0.003 A 
ATOM      8  C6  PXY d   1       0.301   0.077  -1.575  0.00  0.00     0.003 A 
ENDROOT
TORSDOF 0
ENDMDL
