MODEL 1
REMARK minimizedAffinity -2.09377956
REMARK minimizedRMSD -1
REMARK  0 active torsions:
REMARK  status: ('A' for Active; 'I' for Inactive)
ROOT
ATOM      1  C4' PXY d   1       1.782   0.836   0.372  0.00  0.00     0.077 C 
ATOM      2  C1' PXY d   1      -3.429  -1.162  -1.137  0.00  0.00     0.077 C 
ATOM      3  C1  PXY d   1      -2.061  -0.631  -0.752  0.00  0.00    -0.082 A 
ATOM      4  C2  PXY d   1      -1.323  -1.297   0.121  0.00  0.00     0.003 A 
ATOM      5  C3  PXY d   1      -0.098  -0.815   0.504  0.00  0.00     0.003 A 
ATOM      6  C4  PXY d   1       0.399   0.333  -0.052  0.00  0.00    -0.082 A 
ATOM      7  C5  PXY d   1      -0.343   1.012  -0.952  0.00  0.00     0.003 A 
ATOM      8  C6  PXY d   1      -1.602   0.528  -1.297  0.00  0.00     0.003 A 
ENDROOT
TORSDOF 0
ENDMDL
