MODEL 1
REMARK minimizedAffinity -2.96271014
REMARK minimizedRMSD -1
REMARK  0 active torsions:
REMARK  status: ('A' for Active; 'I' for Inactive)
ROOT
ATOM      1  C4' PXY d   1       2.976   2.507   1.511  0.00  0.00     0.077 C 
ATOM      2  C1' PXY d   1      -1.341  -0.394  -1.010  0.00  0.00     0.077 C 
ATOM      3  C1  PXY d   1      -0.202   0.356  -0.349  0.00  0.00    -0.082 A 
ATOM      4  C2  PXY d   1      -0.461   1.432   0.375  0.00  0.00     0.003 A 
ATOM      5  C3  PXY d   1       0.561   2.141   0.954  0.00  0.00     0.003 A 
ATOM      6  C4  PXY d   1       1.856   1.713   0.833  0.00  0.00    -0.082 A 
ATOM      7  C5  PXY d   1       2.127   0.610   0.104  0.00  0.00     0.003 A 
ATOM      8  C6  PXY d   1       1.080  -0.072  -0.509  0.00  0.00     0.003 A 
ENDROOT
TORSDOF 0
ENDMDL
