MODEL 1
REMARK minimizedAffinity -1.86750996
REMARK minimizedRMSD -1
REMARK  0 active torsions:
REMARK  status: ('A' for Active; 'I' for Inactive)
ROOT
ATOM      1  C4' PXY d   1      -1.532  -2.990   1.265  0.00  0.00     0.077 C 
ATOM      2  C1' PXY d   1      -1.407   1.138  -2.779  0.00  0.00     0.077 C 
ATOM      3  C1  PXY d   1      -1.427   0.057  -1.716  0.00  0.00    -0.082 A 
ATOM      4  C2  PXY d   1      -2.344  -0.895  -1.769  0.00  0.00     0.003 A 
ATOM      5  C3  PXY d   1      -2.397  -1.862  -0.798  0.00  0.00     0.003 A 
ATOM      6  C4  PXY d   1      -1.468  -1.885   0.208  0.00  0.00    -0.082 A 
ATOM      7  C5  PXY d   1      -0.523  -0.923   0.263  0.00  0.00     0.003 A 
ATOM      8  C6  PXY d   1      -0.512   0.073  -0.709  0.00  0.00     0.003 A 
ENDROOT
TORSDOF 0
ENDMDL
