MODEL 1
REMARK minimizedAffinity -2.92744899
REMARK minimizedRMSD -1
REMARK  0 active torsions:
REMARK  status: ('A' for Active; 'I' for Inactive)
ROOT
ATOM      1  C4' PXY d   1       2.720   1.318   0.054  0.00  0.00     0.077 C 
ATOM      2  C1' PXY d   1      -2.555  -0.900  -0.766  0.00  0.00     0.077 C 
ATOM      3  C1  PXY d   1      -1.171  -0.315  -0.564  0.00  0.00    -0.082 A 
ATOM      4  C2  PXY d   1      -0.449  -0.691   0.479  0.00  0.00     0.003 A 
ATOM      5  C3  PXY d   1       0.792  -0.149   0.695  0.00  0.00     0.003 A 
ATOM      6  C4  PXY d   1       1.321   0.747  -0.196  0.00  0.00    -0.082 A 
ATOM      7  C5  PXY d   1       0.594   1.127  -1.268  0.00  0.00     0.003 A 
ATOM      8  C6  PXY d   1      -0.680   0.596  -1.446  0.00  0.00     0.003 A 
ENDROOT
TORSDOF 0
ENDMDL
