MODEL 1
REMARK minimizedAffinity -2.1981585
REMARK minimizedRMSD -1
REMARK  0 active torsions:
REMARK  status: ('A' for Active; 'I' for Inactive)
ROOT
ATOM      1  C4' PXY d   1      -0.664  -0.230  -1.718  0.00  0.00     0.077 C 
ATOM      2  C1' PXY d   1       2.741   2.095   2.334  0.00  0.00     0.077 C 
ATOM      3  C1  PXY d   1       1.852   1.473   1.274  0.00  0.00    -0.082 A 
ATOM      4  C2  PXY d   1       1.446   2.205   0.250  0.00  0.00     0.003 A 
ATOM      5  C3  PXY d   1       0.616   1.668  -0.701  0.00  0.00     0.003 A 
ATOM      6  C4  PXY d   1       0.241   0.353  -0.629  0.00  0.00    -0.082 A 
ATOM      7  C5  PXY d   1       0.660  -0.403   0.407  0.00  0.00     0.003 A 
ATOM      8  C6  PXY d   1       1.469   0.173   1.383  0.00  0.00     0.003 A 
ENDROOT
TORSDOF 0
ENDMDL
