MODEL 1
REMARK minimizedAffinity -3.62071371
REMARK minimizedRMSD -1
REMARK  0 active torsions:
REMARK  status: ('A' for Active; 'I' for Inactive)
ROOT
ATOM      1  C4' PXY d   1       0.067  -1.832   1.520  0.00  0.00     0.077 C 
ATOM      2  C1' PXY d   1       2.343   3.471   1.176  0.00  0.00     0.077 C 
ATOM      3  C1  PXY d   1       1.744   2.081   1.253  0.00  0.00    -0.082 A 
ATOM      4  C2  PXY d   1       1.243   1.647   2.399  0.00  0.00     0.003 A 
ATOM      5  C3  PXY d   1       0.726   0.380   2.494  0.00  0.00     0.003 A 
ATOM      6  C4  PXY d   1       0.674  -0.431   1.393  0.00  0.00    -0.082 A 
ATOM      7  C5  PXY d   1       1.173   0.008   0.218  0.00  0.00     0.003 A 
ATOM      8  C6  PXY d   1       1.730   1.282   0.152  0.00  0.00     0.003 A 
ENDROOT
TORSDOF 0
ENDMDL
