MODEL 1
REMARK minimizedAffinity -2.79815674
REMARK minimizedRMSD -1
REMARK  0 active torsions:
REMARK  status: ('A' for Active; 'I' for Inactive)
ROOT
ATOM      1  C   UNL d   1       3.242   1.440   0.926  0.00  0.00    -0.002 A 
ATOM      2  C1  UNL d   1       2.866   0.135   0.641  0.00  0.00     0.010 A 
ATOM      3  C2  UNL d   1       1.527  -0.182   0.400  0.00  0.00     0.041 A 
ATOM      4  C3  UNL d   1       0.564   0.845   0.450  0.00  0.00    -0.075 A 
ATOM      5  S   UNL d   1      -1.133   0.693   0.188  0.00  0.00     0.015 SA
ATOM      6  C4  UNL d   1      -1.398   2.356   0.448  0.00  0.00     0.022 A 
ATOM      7  C5  UNL d   1      -0.232   3.027   0.729  0.00  0.00     0.026 A 
ATOM      8  C6  UNL d   1       0.919   2.167   0.734  0.00  0.00    -0.082 A 
ATOM      9  C7  UNL d   1       2.284   2.456   0.974  0.00  0.00     0.045 A 
ENDROOT
TORSDOF 0
ENDMDL
