MODEL 1
REMARK minimizedAffinity -1.70237792
REMARK minimizedRMSD -1
REMARK  0 active torsions:
REMARK  status: ('A' for Active; 'I' for Inactive)
ROOT
ATOM      1  C   UNL d   1       0.447   3.545   0.859  0.00  0.00    -0.002 A 
ATOM      2  C1  UNL d   1       1.548   3.055   0.172  0.00  0.00     0.010 A 
ATOM      3  C2  UNL d   1       1.601   1.717  -0.223  0.00  0.00     0.041 A 
ATOM      4  C3  UNL d   1       0.517   0.871   0.085  0.00  0.00    -0.075 A 
ATOM      5  S   UNL d   1       0.361  -0.802  -0.300  0.00  0.00     0.015 SA
ATOM      6  C4  UNL d   1      -1.171  -0.906   0.438  0.00  0.00     0.022 A 
ATOM      7  C5  UNL d   1      -1.570   0.298   0.970  0.00  0.00     0.026 A 
ATOM      8  C6  UNL d   1      -0.604   1.342   0.775  0.00  0.00    -0.082 A 
ATOM      9  C7  UNL d   1      -0.627   2.703   1.163  0.00  0.00     0.045 A 
ENDROOT
TORSDOF 0
ENDMDL
