MODEL 1
REMARK minimizedAffinity 2.77390122
REMARK minimizedRMSD -1
REMARK  0 active torsions:
REMARK  status: ('A' for Active; 'I' for Inactive)
ROOT
ATOM      1  C   UNL d   1      -0.064  -3.680  -2.988  0.00  0.00    -0.002 A 
ATOM      2  C1  UNL d   1      -1.201  -3.862  -2.213  0.00  0.00     0.010 A 
ATOM      3  C2  UNL d   1      -1.417  -3.082  -1.075  0.00  0.00     0.041 A 
ATOM      4  C3  UNL d   1      -0.463  -2.106  -0.727  0.00  0.00    -0.075 A 
ATOM      5  S   UNL d   1      -0.518  -1.034   0.623  0.00  0.00     0.015 SA
ATOM      6  C4  UNL d   1       0.966  -0.309   0.202  0.00  0.00     0.022 A 
ATOM      7  C5  UNL d   1       1.504  -0.859  -0.937  0.00  0.00     0.026 A 
ATOM      8  C6  UNL d   1       0.689  -1.904  -1.491  0.00  0.00    -0.082 A 
ATOM      9  C7  UNL d   1       0.880  -2.711  -2.639  0.00  0.00     0.045 A 
ENDROOT
TORSDOF 0
ENDMDL
