MODEL 1
REMARK minimizedAffinity -4.01152277
REMARK minimizedRMSD -1
REMARK  0 active torsions:
REMARK  status: ('A' for Active; 'I' for Inactive)
ROOT
ATOM      1  C   UNL d   1       0.077   1.427   0.972  0.00  0.00    -0.002 A 
ATOM      2  C1  UNL d   1       1.289   1.017   0.436  0.00  0.00     0.010 A 
ATOM      3  C2  UNL d   1       1.531  -0.334   0.178  0.00  0.00     0.041 A 
ATOM      4  C3  UNL d   1       0.523  -1.275   0.470  0.00  0.00    -0.075 A 
ATOM      5  S   UNL d   1       0.596  -2.981   0.237  0.00  0.00     0.015 SA
ATOM      6  C4  UNL d   1      -0.981  -3.206   0.844  0.00  0.00     0.022 A 
ATOM      7  C5  UNL d   1      -1.563  -2.019   1.220  0.00  0.00     0.026 A 
ATOM      8  C6  UNL d   1      -0.706  -0.886   1.010  0.00  0.00    -0.082 A 
ATOM      9  C7  UNL d   1      -0.920   0.491   1.260  0.00  0.00     0.045 A 
ENDROOT
TORSDOF 0
ENDMDL
