MODEL 1
REMARK minimizedAffinity 0.914582729
REMARK minimizedRMSD -1
REMARK  0 active torsions:
REMARK  status: ('A' for Active; 'I' for Inactive)
ROOT
ATOM      1  C   UNL d   1      -2.025   2.072   0.463  0.00  0.00    -0.002 A 
ATOM      2  C1  UNL d   1      -0.997   3.003   0.408  0.00  0.00     0.010 A 
ATOM      3  C2  UNL d   1       0.336   2.590   0.395  0.00  0.00     0.041 A 
ATOM      4  C3  UNL d   1       0.622   1.211   0.438  0.00  0.00    -0.075 A 
ATOM      5  S   UNL d   1       2.180   0.472   0.431  0.00  0.00     0.015 SA
ATOM      6  C4  UNL d   1       1.518  -1.097   0.500  0.00  0.00     0.022 A 
ATOM      7  C5  UNL d   1       0.144  -1.076   0.529  0.00  0.00     0.026 A 
ATOM      8  C6  UNL d   1      -0.395   0.254   0.492  0.00  0.00    -0.082 A 
ATOM      9  C7  UNL d   1      -1.737   0.705   0.505  0.00  0.00     0.045 A 
ENDROOT
TORSDOF 0
ENDMDL
