MODEL 1
REMARK minimizedAffinity -2.02299333
REMARK minimizedRMSD -1
REMARK  0 active torsions:
REMARK  status: ('A' for Active; 'I' for Inactive)
ROOT
ATOM      1  C   UNL d   1      -0.437  -3.529  -2.469  0.00  0.00    -0.002 A 
ATOM      2  C1  UNL d   1      -1.546  -3.561  -1.636  0.00  0.00     0.010 A 
ATOM      3  C2  UNL d   1      -1.709  -2.603  -0.633  0.00  0.00     0.041 A 
ATOM      4  C3  UNL d   1      -0.729  -1.602  -0.482  0.00  0.00    -0.075 A 
ATOM      5  S   UNL d   1      -0.718  -0.325   0.676  0.00  0.00     0.015 SA
ATOM      6  C4  UNL d   1       0.759   0.293   0.092  0.00  0.00     0.022 A 
ATOM      7  C5  UNL d   1       1.246  -0.445  -0.960  0.00  0.00     0.026 A 
ATOM      8  C6  UNL d   1       0.396  -1.549  -1.309  0.00  0.00    -0.082 A 
ATOM      9  C7  UNL d   1       0.533  -2.535  -2.316  0.00  0.00     0.045 A 
ENDROOT
TORSDOF 0
ENDMDL
