MODEL 1
REMARK minimizedAffinity -4.0483098
REMARK minimizedRMSD -1
REMARK  0 active torsions:
REMARK  status: ('A' for Active; 'I' for Inactive)
ROOT
ATOM      1  C   UNL d   1       1.376   3.204  -0.142  0.00  0.00    -0.002 A 
ATOM      2  C1  UNL d   1       0.192   3.653   0.426  0.00  0.00     0.010 A 
ATOM      3  C2  UNL d   1      -0.842   2.759   0.712  0.00  0.00     0.041 A 
ATOM      4  C3  UNL d   1      -0.663   1.393   0.418  0.00  0.00    -0.075 A 
ATOM      5  S   UNL d   1      -1.791   0.116   0.683  0.00  0.00     0.015 SA
ATOM      6  C4  UNL d   1      -0.727  -1.056   0.051  0.00  0.00     0.022 A 
ATOM      7  C5  UNL d   1       0.464  -0.504  -0.358  0.00  0.00     0.026 A 
ATOM      8  C6  UNL d   1       0.521   0.917  -0.152  0.00  0.00    -0.082 A 
ATOM      9  C7  UNL d   1       1.550   1.848  -0.432  0.00  0.00     0.045 A 
ENDROOT
TORSDOF 0
ENDMDL
