MODEL 1
REMARK minimizedAffinity -0.20751749
REMARK minimizedRMSD -1
REMARK  0 active torsions:
REMARK  status: ('A' for Active; 'I' for Inactive)
ROOT
ATOM      1  C   UNL d   1      -1.259   0.613   2.222  0.00  0.00     0.124 A 
ATOM      2  C1  UNL d   1       0.074   0.232   2.157  0.00  0.00     0.062 A 
ATOM      3  C2  UNL d   1       0.666  -0.035   0.925  0.00  0.00     0.162 A 
ATOM      4  C3  UNL d   1      -0.074   0.080  -0.251  0.00  0.00    -0.034 A 
ATOM      5  C4  UNL d   1      -1.415   0.463  -0.177  0.00  0.00     0.162 A 
ATOM      6  C5  UNL d   1      -2.002   0.729   1.056  0.00  0.00     0.062 A 
ATOM      7  F   UNL d   1      -3.290   1.097   1.117  0.00  0.00    -0.097 F 
ATOM      8  F1  UNL d   1      -2.156   0.584  -1.289  0.00  0.00    -0.096 F 
ATOM      9  I   UNL d   1       0.807  -0.318  -2.094  0.00  0.00    -0.060 I 
ATOM     10  F2  UNL d   1       1.956  -0.401   0.892  0.00  0.00    -0.096 F 
ATOM     11  F3  UNL d   1       0.794   0.119   3.282  0.00  0.00    -0.097 F 
ATOM     12  F4  UNL d   1      -1.826   0.868   3.408  0.00  0.00    -0.092 F 
ENDROOT
TORSDOF 0
ENDMDL
