MODEL 1
REMARK minimizedAffinity 1.39127576
REMARK minimizedRMSD -1
REMARK  0 active torsions:
REMARK  status: ('A' for Active; 'I' for Inactive)
ROOT
ATOM      1  C   UNL d   1      -1.046  -1.594  -2.619  0.00  0.00     0.124 A 
ATOM      2  C1  UNL d   1      -1.687  -0.632  -1.852  0.00  0.00     0.062 A 
ATOM      3  C2  UNL d   1      -1.027  -0.035  -0.782  0.00  0.00     0.162 A 
ATOM      4  C3  UNL d   1       0.284  -0.398  -0.473  0.00  0.00    -0.034 A 
ATOM      5  C4  UNL d   1       0.922  -1.368  -1.249  0.00  0.00     0.162 A 
ATOM      6  C5  UNL d   1       0.258  -1.961  -2.318  0.00  0.00     0.062 A 
ATOM      7  F   UNL d   1       0.879  -2.890  -3.058  0.00  0.00    -0.097 F 
ATOM      8  F1  UNL d   1       2.182  -1.740  -0.980  0.00  0.00    -0.096 F 
ATOM      9  I   UNL d   1       1.275   0.491   1.126  0.00  0.00    -0.060 I 
ATOM     10  F2  UNL d   1      -1.671   0.891  -0.057  0.00  0.00    -0.096 F 
ATOM     11  F3  UNL d   1      -2.948  -0.276  -2.141  0.00  0.00    -0.097 F 
ATOM     12  F4  UNL d   1      -1.684  -2.167  -3.648  0.00  0.00    -0.092 F 
ENDROOT
TORSDOF 0
ENDMDL
