MODEL 1
REMARK minimizedAffinity 2.90040278
REMARK minimizedRMSD -1
REMARK  0 active torsions:
REMARK  status: ('A' for Active; 'I' for Inactive)
ROOT
ATOM      1  C   UNL d   1      -0.582  -1.157  -1.636  0.00  0.00     0.124 A 
ATOM      2  C1  UNL d   1       0.175  -0.083  -1.190  0.00  0.00     0.062 A 
ATOM      3  C2  UNL d   1       1.395   0.212  -1.791  0.00  0.00     0.162 A 
ATOM      4  C3  UNL d   1       1.866  -0.569  -2.847  0.00  0.00    -0.034 A 
ATOM      5  C4  UNL d   1       1.100  -1.649  -3.289  0.00  0.00     0.162 A 
ATOM      6  C5  UNL d   1      -0.119  -1.939  -2.685  0.00  0.00     0.062 A 
ATOM      7  F   UNL d   1      -0.848  -2.978  -3.117  0.00  0.00    -0.097 F 
ATOM      8  F1  UNL d   1       1.523  -2.420  -4.302  0.00  0.00    -0.096 F 
ATOM      9  I   UNL d   1       3.690  -0.131  -3.749  0.00  0.00    -0.060 I 
ATOM     10  F2  UNL d   1       2.105   1.257  -1.340  0.00  0.00    -0.096 F 
ATOM     11  F3  UNL d   1      -0.269   0.674  -0.176  0.00  0.00    -0.097 F 
ATOM     12  F4  UNL d   1      -1.755  -1.439  -1.054  0.00  0.00    -0.092 F 
ENDROOT
TORSDOF 0
ENDMDL
