MODEL 1
REMARK minimizedAffinity -1.40745282
REMARK minimizedRMSD -1
REMARK  0 active torsions:
REMARK  status: ('A' for Active; 'I' for Inactive)
ROOT
ATOM      1  C   UNL d   1      -0.980   0.576   2.171  0.00  0.00     0.124 A 
ATOM      2  C1  UNL d   1       0.359   0.255   2.004  0.00  0.00     0.062 A 
ATOM      3  C2  UNL d   1       0.872   0.034   0.728  0.00  0.00     0.162 A 
ATOM      4  C3  UNL d   1       0.044   0.135  -0.390  0.00  0.00    -0.034 A 
ATOM      5  C4  UNL d   1      -1.303   0.458  -0.213  0.00  0.00     0.162 A 
ATOM      6  C5  UNL d   1      -1.810   0.677   1.064  0.00  0.00     0.062 A 
ATOM      7  F   UNL d   1      -3.105   0.987   1.224  0.00  0.00    -0.097 F 
ATOM      8  F1  UNL d   1      -2.126   0.563  -1.266  0.00  0.00    -0.096 F 
ATOM      9  I   UNL d   1       0.806  -0.194  -2.298  0.00  0.00    -0.060 I 
ATOM     10  F2  UNL d   1       2.170  -0.274   0.596  0.00  0.00    -0.096 F 
ATOM     11  F3  UNL d   1       1.163   0.156   3.072  0.00  0.00    -0.097 F 
ATOM     12  F4  UNL d   1      -1.471   0.787   3.400  0.00  0.00    -0.092 F 
ENDROOT
TORSDOF 0
ENDMDL
