MODEL 1
REMARK minimizedAffinity 1.34368753
REMARK minimizedRMSD -1
REMARK  0 active torsions:
REMARK  status: ('A' for Active; 'I' for Inactive)
ROOT
ATOM      1  C   UNL d   1      -0.195   0.489   1.576  0.00  0.00     0.124 A 
ATOM      2  C1  UNL d   1      -0.994   0.467   0.442  0.00  0.00     0.062 A 
ATOM      3  C2  UNL d   1      -0.528  -0.117  -0.732  0.00  0.00     0.162 A 
ATOM      4  C3  UNL d   1       0.745  -0.685  -0.778  0.00  0.00    -0.034 A 
ATOM      5  C4  UNL d   1       1.544  -0.659   0.367  0.00  0.00     0.162 A 
ATOM      6  C5  UNL d   1       1.073  -0.074   1.538  0.00  0.00     0.062 A 
ATOM      7  F   UNL d   1       1.847  -0.053   2.633  0.00  0.00    -0.097 F 
ATOM      8  F1  UNL d   1       2.773  -1.196   0.358  0.00  0.00    -0.096 F 
ATOM      9  I   UNL d   1       1.447  -1.560  -2.531  0.00  0.00    -0.060 I 
ATOM     10  F2  UNL d   1      -1.322  -0.124  -1.813  0.00  0.00    -0.096 F 
ATOM     11  F3  UNL d   1      -2.219   1.011   0.476  0.00  0.00    -0.097 F 
ATOM     12  F4  UNL d   1      -0.646   1.053   2.704  0.00  0.00    -0.092 F 
ENDROOT
TORSDOF 0
ENDMDL
