MODEL 1
REMARK minimizedAffinity 0.219781891
REMARK minimizedRMSD -1
REMARK  0 active torsions:
REMARK  status: ('A' for Active; 'I' for Inactive)
ROOT
ATOM      1  C   UNL d   1       1.052  -1.779  -3.647  0.00  0.00     0.124 A 
ATOM      2  C1  UNL d   1       1.832  -0.653  -3.426  0.00  0.00     0.062 A 
ATOM      3  C2  UNL d   1       1.718   0.054  -2.232  0.00  0.00     0.162 A 
ATOM      4  C3  UNL d   1       0.819  -0.363  -1.250  0.00  0.00    -0.034 A 
ATOM      5  C4  UNL d   1       0.036  -1.496  -1.481  0.00  0.00     0.162 A 
ATOM      6  C5  UNL d   1       0.155  -2.199  -2.675  0.00  0.00     0.062 A 
ATOM      7  F   UNL d   1      -0.600  -3.287  -2.888  0.00  0.00    -0.097 F 
ATOM      8  F1  UNL d   1      -0.838  -1.925  -0.559  0.00  0.00    -0.096 F 
ATOM      9  I   UNL d   1       0.644   0.692   0.535  0.00  0.00    -0.060 I 
ATOM     10  F2  UNL d   1       2.484   1.139  -2.045  0.00  0.00    -0.096 F 
ATOM     11  F3  UNL d   1       2.699  -0.244  -4.364  0.00  0.00    -0.097 F 
ATOM     12  F4  UNL d   1       1.163  -2.457  -4.797  0.00  0.00    -0.092 F 
ENDROOT
TORSDOF 0
ENDMDL
