MODEL 1
REMARK minimizedAffinity 0.981324673
REMARK minimizedRMSD -1
REMARK  0 active torsions:
REMARK  status: ('A' for Active; 'I' for Inactive)
ROOT
ATOM      1  C   UNL d   1      -1.613   0.662   1.874  0.00  0.00     0.124 A 
ATOM      2  C1  UNL d   1      -2.083   1.047   0.626  0.00  0.00     0.062 A 
ATOM      3  C2  UNL d   1      -1.226   1.058  -0.471  0.00  0.00     0.162 A 
ATOM      4  C3  UNL d   1       0.109   0.681  -0.325  0.00  0.00    -0.034 A 
ATOM      5  C4  UNL d   1       0.574   0.295   0.933  0.00  0.00     0.162 A 
ATOM      6  C5  UNL d   1      -0.286   0.286   2.027  0.00  0.00     0.062 A 
ATOM      7  F   UNL d   1       0.169  -0.086   3.232  0.00  0.00    -0.097 F 
ATOM      8  F1  UNL d   1       1.851  -0.073   1.109  0.00  0.00    -0.096 F 
ATOM      9  I   UNL d   1       1.393   0.695  -1.963  0.00  0.00    -0.060 I 
ATOM     10  F2  UNL d   1      -1.707   1.434  -1.665  0.00  0.00    -0.096 F 
ATOM     11  F3  UNL d   1      -3.364   1.411   0.476  0.00  0.00    -0.097 F 
ATOM     12  F4  UNL d   1      -2.439   0.653   2.928  0.00  0.00    -0.092 F 
ENDROOT
TORSDOF 0
ENDMDL
