MODEL 1
REMARK minimizedAffinity 3.45340252
REMARK minimizedRMSD -1
REMARK  0 active torsions:
REMARK  status: ('A' for Active; 'I' for Inactive)
ROOT
ATOM      1  C   UNL d   1      -0.919   0.758   2.063  0.00  0.00     0.124 A 
ATOM      2  C1  UNL d   1       0.434   0.462   1.974  0.00  0.00     0.062 A 
ATOM      3  C2  UNL d   1       1.019   0.226   0.734  0.00  0.00     0.162 A 
ATOM      4  C3  UNL d   1       0.252   0.286  -0.429  0.00  0.00    -0.034 A 
ATOM      5  C4  UNL d   1      -1.109   0.583  -0.332  0.00  0.00     0.162 A 
ATOM      6  C5  UNL d   1      -1.689   0.818   0.910  0.00  0.00     0.062 A 
ATOM      7  F   UNL d   1      -2.996   1.104   0.994  0.00  0.00    -0.097 F 
ATOM      8  F1  UNL d   1      -1.876   0.649  -1.430  0.00  0.00    -0.096 F 
ATOM      9  I   UNL d   1       1.123  -0.067  -2.286  0.00  0.00    -0.060 I 
ATOM     10  F2  UNL d   1       2.329  -0.058   0.678  0.00  0.00    -0.096 F 
ATOM     11  F3  UNL d   1       1.180   0.402   3.087  0.00  0.00    -0.097 F 
ATOM     12  F4  UNL d   1      -1.479   0.984   3.258  0.00  0.00    -0.092 F 
ENDROOT
TORSDOF 0
ENDMDL
