MODEL 1
REMARK minimizedAffinity -3.38793945
REMARK minimizedRMSD -1
REMARK  0 active torsions:
REMARK  status: ('A' for Active; 'I' for Inactive)
ROOT
ATOM      1  C   UNL d   1      -2.701   0.393   1.359  0.00  0.00     0.124 A 
ATOM      2  C1  UNL d   1      -1.736   0.121   2.319  0.00  0.00     0.062 A 
ATOM      3  C2  UNL d   1      -0.385   0.257   2.013  0.00  0.00     0.162 A 
ATOM      4  C3  UNL d   1       0.010   0.669   0.740  0.00  0.00    -0.034 A 
ATOM      5  C4  UNL d   1      -0.966   0.940  -0.221  0.00  0.00     0.162 A 
ATOM      6  C5  UNL d   1      -2.315   0.802   0.090  0.00  0.00     0.062 A 
ATOM      7  F   UNL d   1      -3.245   1.066  -0.839  0.00  0.00    -0.097 F 
ATOM      8  F1  UNL d   1      -0.621   1.338  -1.455  0.00  0.00    -0.096 F 
ATOM      9  I   UNL d   1       2.028   0.874   0.278  0.00  0.00    -0.060 I 
ATOM     10  F2  UNL d   1       0.525  -0.012   2.961  0.00  0.00    -0.096 F 
ATOM     11  F3  UNL d   1      -2.107  -0.275   3.546  0.00  0.00    -0.097 F 
ATOM     12  F4  UNL d   1      -4.000   0.261   1.656  0.00  0.00    -0.092 F 
ENDROOT
TORSDOF 0
ENDMDL
