MODEL 1
REMARK minimizedAffinity 1.25211871
REMARK minimizedRMSD -1
REMARK  0 active torsions:
REMARK  status: ('A' for Active; 'I' for Inactive)
ROOT
ATOM      1  C   UNL d   1      -1.587   0.571   2.840  0.00  0.00     0.124 A 
ATOM      2  C1  UNL d   1      -2.084  -0.404   1.987  0.00  0.00     0.062 A 
ATOM      3  C2  UNL d   1      -1.237  -1.046   1.088  0.00  0.00     0.162 A 
ATOM      4  C3  UNL d   1       0.117  -0.715   1.039  0.00  0.00    -0.034 A 
ATOM      5  C4  UNL d   1       0.609   0.268   1.899  0.00  0.00     0.162 A 
ATOM      6  C5  UNL d   1      -0.241   0.906   2.796  0.00  0.00     0.062 A 
ATOM      7  F   UNL d   1       0.241   1.848   3.619  0.00  0.00    -0.097 F 
ATOM      8  F1  UNL d   1       1.906   0.610   1.878  0.00  0.00    -0.096 F 
ATOM      9  I   UNL d   1       1.387  -1.672  -0.304  0.00  0.00    -0.060 I 
ATOM     10  F2  UNL d   1      -1.745  -1.985   0.275  0.00  0.00    -0.096 F 
ATOM     11  F3  UNL d   1      -3.385  -0.729   2.027  0.00  0.00    -0.097 F 
ATOM     12  F4  UNL d   1      -2.405   1.187   3.703  0.00  0.00    -0.092 F 
ENDROOT
TORSDOF 0
ENDMDL
