MODEL 1
REMARK minimizedAffinity 6.90300179
REMARK minimizedRMSD -1
REMARK  0 active torsions:
REMARK  status: ('A' for Active; 'I' for Inactive)
ROOT
ATOM      1  C   UNL d   1      -0.987   0.605   1.826  0.00  0.00     0.124 A 
ATOM      2  C1  UNL d   1      -1.585   0.612   0.573  0.00  0.00     0.062 A 
ATOM      3  C2  UNL d   1      -0.833   0.324  -0.563  0.00  0.00     0.162 A 
ATOM      4  C3  UNL d   1       0.525   0.026  -0.451  0.00  0.00    -0.034 A 
ATOM      5  C4  UNL d   1       1.119   0.021   0.813  0.00  0.00     0.162 A 
ATOM      6  C5  UNL d   1       0.363   0.310   1.944  0.00  0.00     0.062 A 
ATOM      7  F   UNL d   1       0.942   0.302   3.154  0.00  0.00    -0.097 F 
ATOM      8  F1  UNL d   1       2.422  -0.261   0.956  0.00  0.00    -0.096 F 
ATOM      9  I   UNL d   1       1.652  -0.405  -2.146  0.00  0.00    -0.060 I 
ATOM     10  F2  UNL d   1      -1.437   0.339  -1.760  0.00  0.00    -0.096 F 
ATOM     11  F3  UNL d   1      -2.890   0.898   0.456  0.00  0.00    -0.097 F 
ATOM     12  F4  UNL d   1      -1.713   0.883   2.917  0.00  0.00    -0.092 F 
ENDROOT
TORSDOF 0
ENDMDL
