MODEL 1
REMARK minimizedAffinity -2.29761553
REMARK minimizedRMSD -1
REMARK  0 active torsions:
REMARK  status: ('A' for Active; 'I' for Inactive)
ROOT
ATOM      1  C   UNL d   1      -1.594   0.535   2.386  0.00  0.00     0.124 A 
ATOM      2  C1  UNL d   1      -2.275   0.656   1.182  0.00  0.00     0.062 A 
ATOM      3  C2  UNL d   1      -1.589   0.543  -0.024  0.00  0.00     0.162 A 
ATOM      4  C3  UNL d   1      -0.215   0.305  -0.033  0.00  0.00    -0.034 A 
ATOM      5  C4  UNL d   1       0.463   0.185   1.181  0.00  0.00     0.162 A 
ATOM      6  C5  UNL d   1      -0.226   0.299   2.384  0.00  0.00     0.062 A 
ATOM      7  F   UNL d   1       0.433   0.182   3.546  0.00  0.00    -0.097 F 
ATOM      8  F1  UNL d   1       1.785  -0.043   1.209  0.00  0.00    -0.096 F 
ATOM      9  I   UNL d   1       0.813   0.135  -1.835  0.00  0.00    -0.060 I 
ATOM     10  F2  UNL d   1      -2.273   0.664  -1.172  0.00  0.00    -0.096 F 
ATOM     11  F3  UNL d   1      -3.596   0.884   1.181  0.00  0.00    -0.097 F 
ATOM     12  F4  UNL d   1      -2.255   0.645   3.545  0.00  0.00    -0.092 F 
ENDROOT
TORSDOF 0
ENDMDL
