MODEL 1
REMARK minimizedAffinity -0.646852851
REMARK minimizedRMSD -1
REMARK  0 active torsions:
REMARK  status: ('A' for Active; 'I' for Inactive)
ROOT
ATOM      1  C   UNL d   1      -1.688  -0.814   2.523  0.00  0.00     0.124 A 
ATOM      2  C1  UNL d   1      -0.310  -0.669   2.611  0.00  0.00     0.062 A 
ATOM      3  C2  UNL d   1       0.399  -0.071   1.574  0.00  0.00     0.162 A 
ATOM      4  C3  UNL d   1      -0.268   0.389   0.439  0.00  0.00    -0.034 A 
ATOM      5  C4  UNL d   1      -1.654   0.239   0.356  0.00  0.00     0.162 A 
ATOM      6  C5  UNL d   1      -2.358  -0.359   1.396  0.00  0.00     0.062 A 
ATOM      7  F   UNL d   1      -3.689  -0.498   1.309  0.00  0.00    -0.097 F 
ATOM      8  F1  UNL d   1      -2.327   0.670  -0.721  0.00  0.00    -0.096 F 
ATOM      9  I   UNL d   1       0.789   1.284  -1.115  0.00  0.00    -0.060 I 
ATOM     10  F2  UNL d   1       1.730   0.056   1.687  0.00  0.00    -0.096 F 
ATOM     11  F3  UNL d   1       0.340  -1.108   3.699  0.00  0.00    -0.097 F 
ATOM     12  F4  UNL d   1      -2.367  -1.390   3.522  0.00  0.00    -0.092 F 
ENDROOT
TORSDOF 0
ENDMDL
