MODEL 1
REMARK minimizedAffinity -3.3500793
REMARK minimizedRMSD -1
REMARK  0 active torsions:
REMARK  status: ('A' for Active; 'I' for Inactive)
ROOT
ATOM      1  C   UNL d   1      -2.969  -0.148   1.781  0.00  0.00     0.124 A 
ATOM      2  C1  UNL d   1      -2.042  -0.247   2.809  0.00  0.00     0.062 A 
ATOM      3  C2  UNL d   1      -0.681  -0.309   2.520  0.00  0.00     0.162 A 
ATOM      4  C3  UNL d   1      -0.240  -0.271   1.198  0.00  0.00    -0.034 A 
ATOM      5  C4  UNL d   1      -1.179  -0.172   0.169  0.00  0.00     0.162 A 
ATOM      6  C5  UNL d   1      -2.537  -0.110   0.463  0.00  0.00     0.062 A 
ATOM      7  F   UNL d   1      -3.432  -0.014  -0.532  0.00  0.00    -0.097 F 
ATOM      8  F1  UNL d   1      -0.789  -0.133  -1.113  0.00  0.00    -0.096 F 
ATOM      9  I   UNL d   1       1.793  -0.363   0.762  0.00  0.00    -0.060 I 
ATOM     10  F2  UNL d   1       0.193  -0.405   3.533  0.00  0.00    -0.096 F 
ATOM     11  F3  UNL d   1      -2.456  -0.284   4.083  0.00  0.00    -0.097 F 
ATOM     12  F4  UNL d   1      -4.277  -0.089   2.061  0.00  0.00    -0.092 F 
ENDROOT
TORSDOF 0
ENDMDL
