MODEL 1
REMARK minimizedAffinity 1.22779
REMARK minimizedRMSD -1
REMARK  0 active torsions:
REMARK  status: ('A' for Active; 'I' for Inactive)
ROOT
ATOM      1  C   UNL d   1       2.422  -1.098   0.842  0.00  0.00     0.124 A 
ATOM      2  C1  UNL d   1       1.385  -2.020   0.838  0.00  0.00     0.062 A 
ATOM      3  C2  UNL d   1       0.063  -1.587   0.773  0.00  0.00     0.162 A 
ATOM      4  C3  UNL d   1      -0.229  -0.225   0.711  0.00  0.00    -0.034 A 
ATOM      5  C4  UNL d   1       0.820   0.697   0.718  0.00  0.00     0.162 A 
ATOM      6  C5  UNL d   1       2.139   0.259   0.782  0.00  0.00     0.062 A 
ATOM      7  F   UNL d   1       3.139   1.152   0.787  0.00  0.00    -0.097 F 
ATOM      8  F1  UNL d   1       0.574   2.014   0.659  0.00  0.00    -0.096 F 
ATOM      9  I   UNL d   1      -2.203   0.427   0.615  0.00  0.00    -0.060 I 
ATOM     10  F2  UNL d   1      -0.919  -2.501   0.770  0.00  0.00    -0.096 F 
ATOM     11  F3  UNL d   1       1.656  -3.332   0.897  0.00  0.00    -0.097 F 
ATOM     12  F4  UNL d   1       3.692  -1.517   0.906  0.00  0.00    -0.092 F 
ENDROOT
TORSDOF 0
ENDMDL
