MODEL 1
REMARK minimizedAffinity 0.332483858
REMARK minimizedRMSD -1
REMARK  1 active torsions:
REMARK  status: ('A' for Active; 'I' for Inactive)
REMARK    1  A    between atoms: N_2  and  C1_3 
ROOT
ATOM      1  C1  UNL d   1      -3.061   0.203   2.027  0.00  0.00     0.143 A 
ATOM      2  C2  UNL d   1      -3.588  -0.267   0.819  0.00  0.00    -0.057 A 
ATOM      3  C3  UNL d   1      -3.459   0.468  -0.365  0.00  0.00     0.033 A 
ATOM      4  C4  UNL d   1      -2.823   1.705  -0.357  0.00  0.00    -0.042 A 
ATOM      5  C5  UNL d   1      -2.313   2.204   0.837  0.00  0.00     0.033 A 
ATOM      6  C6  UNL d   1      -2.440   1.462   2.015  0.00  0.00    -0.057 A 
ENDROOT
BRANCH   1   7
ATOM      7  N   UNL d   1      -3.243  -0.435   3.256  0.00  0.00    -0.732 N 
ATOM      8  C   UNL d   1      -2.846   0.212   4.488  0.00  0.00     0.284 C 
ATOM      9  H3  UNL d   1      -4.134  -0.924   3.311  0.00  0.00     0.395 HD
ENDBRANCH   1   7
TORSDOF 1
ENDMDL
