MODEL 1
REMARK minimizedAffinity 1.85915267
REMARK minimizedRMSD -1
REMARK  1 active torsions:
REMARK  status: ('A' for Active; 'I' for Inactive)
REMARK    1  A    between atoms: N_2  and  C1_3 
ROOT
ATOM      1  C1  UNL d   1       4.582   1.554   2.898  0.00  0.00     0.143 A 
ATOM      2  C2  UNL d   1       5.664   1.501   3.783  0.00  0.00    -0.057 A 
ATOM      3  C3  UNL d   1       5.982   0.323   4.471  0.00  0.00     0.033 A 
ATOM      4  C4  UNL d   1       5.203  -0.817   4.306  0.00  0.00    -0.042 A 
ATOM      5  C5  UNL d   1       4.108  -0.780   3.450  0.00  0.00     0.033 A 
ATOM      6  C6  UNL d   1       3.799   0.397   2.761  0.00  0.00    -0.057 A 
ENDROOT
BRANCH   1   7
ATOM      7  N   UNL d   1       4.156   2.722   2.260  0.00  0.00    -0.732 N 
ATOM      8  C   UNL d   1       3.041   2.693   1.338  0.00  0.00     0.284 C 
ATOM      9  H3  UNL d   1       4.161   3.528   2.881  0.00  0.00     0.395 HD
ENDBRANCH   1   7
TORSDOF 1
ENDMDL
