MODEL 1
REMARK minimizedAffinity -0.902296305
REMARK minimizedRMSD -1
REMARK  1 active torsions:
REMARK  status: ('A' for Active; 'I' for Inactive)
REMARK    1  A    between atoms: N_2  and  C1_3 
ROOT
ATOM      1  C1  UNL d   1       5.043   1.149   3.590  0.00  0.00     0.143 A 
ATOM      2  C2  UNL d   1       5.950   0.889   4.622  0.00  0.00    -0.057 A 
ATOM      3  C3  UNL d   1       5.999  -0.363   5.247  0.00  0.00     0.033 A 
ATOM      4  C4  UNL d   1       5.119  -1.372   4.868  0.00  0.00    -0.042 A 
ATOM      5  C5  UNL d   1       4.192  -1.127   3.861  0.00  0.00     0.033 A 
ATOM      6  C6  UNL d   1       4.152   0.123   3.237  0.00  0.00    -0.057 A 
ENDROOT
BRANCH   1   7
ATOM      7  N   UNL d   1       4.878   2.403   2.997  0.00  0.00    -0.732 N 
ATOM      8  C   UNL d   1       3.799   2.641   2.063  0.00  0.00     0.284 C 
ATOM      9  H3  UNL d   1       5.038   3.166   3.651  0.00  0.00     0.395 HD
ENDBRANCH   1   7
TORSDOF 1
ENDMDL
