MODEL 1
REMARK minimizedAffinity -1.7067157
REMARK minimizedRMSD -1
REMARK  1 active torsions:
REMARK  status: ('A' for Active; 'I' for Inactive)
REMARK    1  A    between atoms: N_2  and  C1_3 
ROOT
ATOM      1  C1  UNL d   1       3.397   1.336  -4.449  0.00  0.00     0.143 A 
ATOM      2  C2  UNL d   1       4.467   0.544  -4.018  0.00  0.00    -0.057 A 
ATOM      3  C3  UNL d   1       5.754   0.714  -4.543  0.00  0.00     0.033 A 
ATOM      4  C4  UNL d   1       5.987   1.662  -5.534  0.00  0.00    -0.042 A 
ATOM      5  C5  UNL d   1       4.934   2.443  -5.996  0.00  0.00     0.033 A 
ATOM      6  C6  UNL d   1       3.652   2.273  -5.462  0.00  0.00    -0.057 A 
ENDROOT
BRANCH   1   7
ATOM      7  N   UNL d   1       2.076   1.149  -4.036  0.00  0.00    -0.732 N 
ATOM      8  C   UNL d   1       1.727   1.205  -2.633  0.00  0.00     0.284 C 
ATOM      9  H3  UNL d   1       1.408   1.611  -4.649  0.00  0.00     0.395 HD
ENDBRANCH   1   7
TORSDOF 1
ENDMDL
