MODEL 1
REMARK minimizedAffinity 0.777379274
REMARK minimizedRMSD -1
REMARK  1 active torsions:
REMARK  status: ('A' for Active; 'I' for Inactive)
REMARK    1  A    between atoms: N_2  and  C1_3 
ROOT
ATOM      1  C1  UNL d   1      -3.460  -0.889   2.646  0.00  0.00     0.143 A 
ATOM      2  C2  UNL d   1      -4.812  -0.943   2.290  0.00  0.00    -0.057 A 
ATOM      3  C3  UNL d   1      -5.206  -1.197   0.971  0.00  0.00     0.033 A 
ATOM      4  C4  UNL d   1      -4.250  -1.374  -0.025  0.00  0.00    -0.042 A 
ATOM      5  C5  UNL d   1      -2.901  -1.300   0.302  0.00  0.00     0.033 A 
ATOM      6  C6  UNL d   1      -2.514  -1.053   1.622  0.00  0.00    -0.057 A 
ENDROOT
BRANCH   1   7
ATOM      7  N   UNL d   1      -3.005  -0.543   3.921  0.00  0.00    -0.732 N 
ATOM      8  C   UNL d   1      -1.943   0.425   4.086  0.00  0.00     0.284 C 
ATOM      9  H3  UNL d   1      -3.764  -0.446   4.591  0.00  0.00     0.395 HD
ENDBRANCH   1   7
TORSDOF 1
ENDMDL
