MODEL 1
REMARK minimizedAffinity 0.728815436
REMARK minimizedRMSD -1
REMARK  1 active torsions:
REMARK  status: ('A' for Active; 'I' for Inactive)
REMARK    1  A    between atoms: N_2  and  C1_3 
ROOT
ATOM      1  C1  UNL d   1      -4.275  -1.363   1.576  0.00  0.00     0.143 A 
ATOM      2  C2  UNL d   1      -4.064  -0.869   2.868  0.00  0.00    -0.057 A 
ATOM      3  C3  UNL d   1      -2.788  -0.483   3.298  0.00  0.00     0.033 A 
ATOM      4  C4  UNL d   1      -1.693  -0.612   2.450  0.00  0.00    -0.042 A 
ATOM      5  C5  UNL d   1      -1.876  -1.124   1.170  0.00  0.00     0.033 A 
ATOM      6  C6  UNL d   1      -3.153  -1.501   0.745  0.00  0.00    -0.057 A 
ENDROOT
BRANCH   1   7
ATOM      7  N   UNL d   1      -5.501  -1.856   1.123  0.00  0.00    -0.732 N 
ATOM      8  C   UNL d   1      -6.000  -1.499  -0.188  0.00  0.00     0.284 C 
ATOM      9  H3  UNL d   1      -5.643  -2.833   1.370  0.00  0.00     0.395 HD
ENDBRANCH   1   7
TORSDOF 1
ENDMDL
