MODEL 1
REMARK minimizedAffinity 3.15706015
REMARK minimizedRMSD -1
REMARK  1 active torsions:
REMARK  status: ('A' for Active; 'I' for Inactive)
REMARK    1  A    between atoms: N_2  and  C1_3 
ROOT
ATOM      1  C1  UNL d   1      -2.609   0.166   0.847  0.00  0.00     0.143 A 
ATOM      2  C2  UNL d   1      -2.796  -1.188   1.145  0.00  0.00    -0.057 A 
ATOM      3  C3  UNL d   1      -2.955  -1.626   2.465  0.00  0.00     0.033 A 
ATOM      4  C4  UNL d   1      -2.901  -0.717   3.517  0.00  0.00    -0.042 A 
ATOM      5  C5  UNL d   1      -2.691   0.630   3.247  0.00  0.00     0.033 A 
ATOM      6  C6  UNL d   1      -2.539   1.062   1.925  0.00  0.00    -0.057 A 
ENDROOT
BRANCH   1   7
ATOM      7  N   UNL d   1      -2.346   0.651  -0.436  0.00  0.00    -0.732 N 
ATOM      8  C   UNL d   1      -1.037   0.491  -1.031  0.00  0.00     0.284 C 
ATOM      9  H3  UNL d   1      -3.117   0.487  -1.079  0.00  0.00     0.395 HD
ENDBRANCH   1   7
TORSDOF 1
ENDMDL
