MODEL 1
REMARK minimizedAffinity 3.61706066
REMARK minimizedRMSD -1
REMARK  1 active torsions:
REMARK  status: ('A' for Active; 'I' for Inactive)
REMARK    1  A    between atoms: N_2  and  C1_3 
ROOT
ATOM      1  C1  UNL d   1       4.894   1.921   3.384  0.00  0.00     0.143 A 
ATOM      2  C2  UNL d   1       4.749   0.599   2.949  0.00  0.00    -0.057 A 
ATOM      3  C3  UNL d   1       5.194  -0.475   3.729  0.00  0.00     0.033 A 
ATOM      4  C4  UNL d   1       5.819  -0.244   4.950  0.00  0.00    -0.042 A 
ATOM      5  C5  UNL d   1       5.996   1.062   5.391  0.00  0.00     0.033 A 
ATOM      6  C6  UNL d   1       5.544   2.131   4.610  0.00  0.00    -0.057 A 
ENDROOT
BRANCH   1   7
ATOM      7  N   UNL d   1       4.562   3.035   2.610  0.00  0.00    -0.732 N 
ATOM      8  C   UNL d   1       3.306   3.088   1.894  0.00  0.00     0.284 C 
ATOM      9  H3  UNL d   1       4.822   3.911   3.059  0.00  0.00     0.395 HD
ENDBRANCH   1   7
TORSDOF 1
ENDMDL
