MODEL 1
REMARK minimizedAffinity -4.90091848
REMARK minimizedRMSD -1
REMARK  1 active torsions:
REMARK  status: ('A' for Active; 'I' for Inactive)
REMARK    1  A    between atoms: N_2  and  C1_3 
ROOT
ATOM      1  C1  UNL d   1      -3.684   1.543   4.600  0.00  0.00     0.143 A 
ATOM      2  C2  UNL d   1      -4.105   0.215   4.730  0.00  0.00    -0.057 A 
ATOM      3  C3  UNL d   1      -3.757  -0.753   3.780  0.00  0.00     0.033 A 
ATOM      4  C4  UNL d   1      -3.004  -0.402   2.664  0.00  0.00    -0.042 A 
ATOM      5  C5  UNL d   1      -2.596   0.917   2.501  0.00  0.00     0.033 A 
ATOM      6  C6  UNL d   1      -2.941   1.878   3.457  0.00  0.00    -0.057 A 
ENDROOT
BRANCH   1   7
ATOM      7  N   UNL d   1      -4.079   2.572   5.459  0.00  0.00    -0.732 N 
ATOM      8  C   UNL d   1      -4.406   3.882   4.938  0.00  0.00     0.284 C 
ATOM      9  H3  UNL d   1      -4.706   2.247   6.191  0.00  0.00     0.395 HD
ENDBRANCH   1   7
TORSDOF 1
ENDMDL
