MODEL 1
REMARK minimizedAffinity 6.07158375
REMARK minimizedRMSD -1
REMARK  1 active torsions:
REMARK  status: ('A' for Active; 'I' for Inactive)
REMARK    1  A    between atoms: N_2  and  C1_3 
ROOT
ATOM      1  C1  UNL d   1      -2.777   0.256   0.658  0.00  0.00     0.143 A 
ATOM      2  C2  UNL d   1      -3.017  -0.978   1.272  0.00  0.00    -0.057 A 
ATOM      3  C3  UNL d   1      -3.198  -1.077   2.657  0.00  0.00     0.033 A 
ATOM      4  C4  UNL d   1      -3.111   0.057   3.458  0.00  0.00    -0.042 A 
ATOM      5  C5  UNL d   1      -2.848   1.290   2.872  0.00  0.00     0.033 A 
ATOM      6  C6  UNL d   1      -2.676   1.383   1.488  0.00  0.00    -0.057 A 
ENDROOT
BRANCH   1   7
ATOM      7  N   UNL d   1      -2.491   0.406  -0.702  0.00  0.00    -0.732 N 
ATOM      8  C   UNL d   1      -1.123   0.390  -1.174  0.00  0.00     0.284 C 
ATOM      9  H3  UNL d   1      -3.141  -0.107  -1.294  0.00  0.00     0.395 HD
ENDBRANCH   1   7
TORSDOF 1
ENDMDL
