MODEL 1
REMARK minimizedAffinity -0.396663278
REMARK minimizedRMSD -1
REMARK  1 active torsions:
REMARK  status: ('A' for Active; 'I' for Inactive)
REMARK    1  A    between atoms: N_2  and  C1_3 
ROOT
ATOM      1  C1  UNL d   1      -2.891   0.721   2.926  0.00  0.00     0.143 A 
ATOM      2  C2  UNL d   1      -3.935  -0.209   2.893  0.00  0.00    -0.057 A 
ATOM      3  C3  UNL d   1      -4.316  -0.831   1.697  0.00  0.00     0.033 A 
ATOM      4  C4  UNL d   1      -3.675  -0.510   0.505  0.00  0.00    -0.042 A 
ATOM      5  C5  UNL d   1      -2.651   0.430   0.510  0.00  0.00     0.033 A 
ATOM      6  C6  UNL d   1      -2.271   1.043   1.708  0.00  0.00    -0.057 A 
ENDROOT
BRANCH   1   7
ATOM      7  N   UNL d   1      -2.531   1.446   4.065  0.00  0.00    -0.732 N 
ATOM      8  C   UNL d   1      -3.361   2.532   4.540  0.00  0.00     0.284 C 
ATOM      9  H3  UNL d   1      -2.162   0.852   4.803  0.00  0.00     0.395 HD
ENDBRANCH   1   7
TORSDOF 1
ENDMDL
