MODEL 1
REMARK minimizedAffinity 8.17754745
REMARK minimizedRMSD -1
REMARK  1 active torsions:
REMARK  status: ('A' for Active; 'I' for Inactive)
REMARK    1  A    between atoms: N_2  and  C1_3 
ROOT
ATOM      1  C1  UNL d   1       4.506   0.275   2.591  0.00  0.00     0.143 A 
ATOM      2  C2  UNL d   1       5.623   0.298   3.433  0.00  0.00    -0.057 A 
ATOM      3  C3  UNL d   1       5.996   1.464   4.113  0.00  0.00     0.033 A 
ATOM      4  C4  UNL d   1       5.271   2.639   3.940  0.00  0.00    -0.042 A 
ATOM      5  C5  UNL d   1       4.172   2.645   3.089  0.00  0.00     0.033 A 
ATOM      6  C6  UNL d   1       3.801   1.476   2.418  0.00  0.00    -0.057 A 
ENDROOT
BRANCH   1   7
ATOM      7  N   UNL d   1       4.142  -0.826   1.811  0.00  0.00    -0.732 N 
ATOM      8  C   UNL d   1       3.365  -1.907   2.379  0.00  0.00     0.284 C 
ATOM      9  H3  UNL d   1       3.859  -0.559   0.871  0.00  0.00     0.395 HD
ENDBRANCH   1   7
TORSDOF 1
ENDMDL
