MODEL 1
REMARK minimizedAffinity 2.24393201
REMARK minimizedRMSD -1
REMARK  1 active torsions:
REMARK  status: ('A' for Active; 'I' for Inactive)
REMARK    1  A    between atoms: N_2  and  C1_3 
ROOT
ATOM      1  C1  UNL d   1       5.193   0.952  -5.899  0.00  0.00     0.143 A 
ATOM      2  C2  UNL d   1       3.808   1.136  -5.957  0.00  0.00    -0.057 A 
ATOM      3  C3  UNL d   1       3.244   2.417  -5.946  0.00  0.00     0.033 A 
ATOM      4  C4  UNL d   1       4.058   3.541  -5.847  0.00  0.00    -0.042 A 
ATOM      5  C5  UNL d   1       5.436   3.382  -5.763  0.00  0.00     0.033 A 
ATOM      6  C6  UNL d   1       5.994   2.100  -5.781  0.00  0.00    -0.057 A 
ENDROOT
BRANCH   1   7
ATOM      7  N   UNL d   1       5.809  -0.298  -5.806  0.00  0.00    -0.732 N 
ATOM      8  C   UNL d   1       5.997  -0.934  -4.520  0.00  0.00     0.284 C 
ATOM      9  H3  UNL d   1       5.512  -0.933  -6.544  0.00  0.00     0.395 HD
ENDBRANCH   1   7
TORSDOF 1
ENDMDL
