MODEL 1
REMARK minimizedAffinity 10.4622917
REMARK minimizedRMSD -1
REMARK  2 active torsions:
REMARK  status: ('A' for Active; 'I' for Inactive)
REMARK    1  A    between atoms: C2'_3  and  C1'_4 
REMARK    2  A    between atoms: C1'_4  and  C1_5 
ROOT
ATOM      1  C1  I4B d   1      -4.324  -0.068   0.254  0.00  0.00    -0.075 A 
ATOM      2  C2  I4B d   1      -5.164  -1.143   0.406  0.00  0.00     0.003 A 
ATOM      3  C3  I4B d   1      -5.993  -1.556  -0.665  0.00  0.00     0.002 A 
ATOM      4  C4  I4B d   1      -5.987  -0.840  -1.845  0.00  0.00    -0.004 A 
ATOM      5  C5  I4B d   1      -5.118   0.235  -2.004  0.00  0.00     0.002 A 
ATOM      6  C6  I4B d   1      -4.272   0.617  -0.953  0.00  0.00     0.003 A 
ENDROOT
BRANCH   1   7
ATOM      7  C1' I4B d   1      -3.486   0.361   1.416  0.00  0.00     0.060 C 
BRANCH   7   8
ATOM      8  C2' I4B d   1      -2.213  -0.462   1.404  0.00  0.00    -0.013 C 
ATOM      9  C4' I4B d   1      -1.114   0.223   2.173  0.00  0.00     0.013 C 
ATOM     10  C3' I4B d   1      -2.526  -1.807   1.987  0.00  0.00     0.013 C 
ENDBRANCH   7   8
ENDBRANCH   1   7
TORSDOF 2
ENDMDL
