MODEL 1
REMARK minimizedAffinity 2.4359858
REMARK minimizedRMSD -1
REMARK  2 active torsions:
REMARK  status: ('A' for Active; 'I' for Inactive)
REMARK    1  A    between atoms: C2'_3  and  C1'_4 
REMARK    2  A    between atoms: C1'_4  and  C1_5 
ROOT
ATOM      1  C1  I4B d   1      -3.944   2.189   1.278  0.00  0.00    -0.075 A 
ATOM      2  C2  I4B d   1      -5.101   2.206   2.015  0.00  0.00     0.003 A 
ATOM      3  C3  I4B d   1      -5.999   1.113   1.957  0.00  0.00     0.002 A 
ATOM      4  C4  I4B d   1      -5.728   0.054   1.116  0.00  0.00    -0.004 A 
ATOM      5  C5  I4B d   1      -4.543   0.028   0.386  0.00  0.00     0.002 A 
ATOM      6  C6  I4B d   1      -3.639   1.096   0.477  0.00  0.00     0.003 A 
ENDROOT
BRANCH   1   7
ATOM      7  C1' I4B d   1      -3.033   3.375   1.337  0.00  0.00     0.060 C 
BRANCH   7   8
ATOM      8  C2' I4B d   1      -1.797   2.975   2.116  0.00  0.00    -0.013 C 
ATOM      9  C4' I4B d   1      -0.541   3.363   1.381  0.00  0.00     0.013 C 
ATOM     10  C3' I4B d   1      -1.863   3.635   3.461  0.00  0.00     0.013 C 
ENDBRANCH   7   8
ENDBRANCH   1   7
TORSDOF 2
ENDMDL
