MODEL 1
REMARK minimizedAffinity 4.62221909
REMARK minimizedRMSD -1
REMARK  2 active torsions:
REMARK  status: ('A' for Active; 'I' for Inactive)
REMARK    1  A    between atoms: C2'_3  and  C1'_4 
REMARK    2  A    between atoms: C1'_4  and  C1_5 
ROOT
ATOM      1  C1  I4B d   1      -0.189  -1.047  -1.008  0.00  0.00    -0.075 A 
ATOM      2  C2  I4B d   1      -0.587  -0.246   0.033  0.00  0.00     0.003 A 
ATOM      3  C3  I4B d   1       0.366   0.258   0.950  0.00  0.00     0.002 A 
ATOM      4  C4  I4B d   1       1.692  -0.103   0.820  0.00  0.00    -0.004 A 
ATOM      5  C5  I4B d   1       2.097  -0.896  -0.250  0.00  0.00     0.002 A 
ATOM      6  C6  I4B d   1       1.153  -1.361  -1.177  0.00  0.00     0.003 A 
ENDROOT
BRANCH   1   7
ATOM      7  C1' I4B d   1      -1.227  -1.588  -1.939  0.00  0.00     0.060 C 
BRANCH   7   8
ATOM      8  C2' I4B d   1      -0.833  -3.005  -2.304  0.00  0.00    -0.013 C 
ATOM      9  C4' I4B d   1      -1.017  -3.939  -1.137  0.00  0.00     0.013 C 
ATOM     10  C3' I4B d   1      -1.668  -3.431  -3.475  0.00  0.00     0.013 C 
ENDBRANCH   7   8
ENDBRANCH   1   7
TORSDOF 2
ENDMDL
