MODEL 1
REMARK minimizedAffinity -3.30986214
REMARK minimizedRMSD -1
REMARK  0 active torsions:
REMARK  status: ('A' for Active; 'I' for Inactive)
ROOT
ATOM      1  C   UNL d   1       4.665  -0.872  -1.395  0.00  0.00     0.077 C 
ATOM      2  C1  UNL d   1       3.321  -0.970  -0.736  0.00  0.00    -0.074 A 
ATOM      3  C2  UNL d   1       2.701  -2.210  -0.548  0.00  0.00    -0.005 A 
ATOM      4  C3  UNL d   1       1.456  -2.287   0.074  0.00  0.00     0.006 A 
ATOM      5  C4  UNL d   1       0.818  -1.126   0.515  0.00  0.00    -0.005 A 
ATOM      6  C5  UNL d   1       1.423   0.122   0.337  0.00  0.00    -0.074 A 
ATOM      7  C6  UNL d   1       0.756   1.378   0.813  0.00  0.00     0.077 C 
ATOM      8  C7  UNL d   1       2.678   0.190  -0.284  0.00  0.00    -0.001 A 
ENDROOT
TORSDOF 0
ENDMDL
