MODEL 1
REMARK minimizedAffinity -0.786083281
REMARK minimizedRMSD -1
REMARK  0 active torsions:
REMARK  status: ('A' for Active; 'I' for Inactive)
ROOT
ATOM      1  C   UNL d   1       4.424  -1.529  -1.893  0.00  0.00     0.077 C 
ATOM      2  C1  UNL d   1       3.429  -0.679  -1.162  0.00  0.00    -0.074 A 
ATOM      3  C2  UNL d   1       3.479   0.717  -1.242  0.00  0.00    -0.005 A 
ATOM      4  C3  UNL d   1       2.540   1.494  -0.565  0.00  0.00     0.006 A 
ATOM      5  C4  UNL d   1       1.543   0.886   0.199  0.00  0.00    -0.005 A 
ATOM      6  C5  UNL d   1       1.477  -0.508   0.290  0.00  0.00    -0.074 A 
ATOM      7  C6  UNL d   1       0.406  -1.178   1.098  0.00  0.00     0.077 C 
ATOM      8  C7  UNL d   1       2.419  -1.283  -0.400  0.00  0.00    -0.001 A 
ENDROOT
TORSDOF 0
ENDMDL
