MODEL 1
REMARK minimizedAffinity 1.16557229
REMARK minimizedRMSD -1
REMARK  0 active torsions:
REMARK  status: ('A' for Active; 'I' for Inactive)
ROOT
ATOM      1  C   UNL d   1       3.370   2.135  -2.281  0.00  0.00     0.077 C 
ATOM      2  C1  UNL d   1       2.979   0.833  -1.647  0.00  0.00    -0.074 A 
ATOM      3  C2  UNL d   1       3.663  -0.349  -1.950  0.00  0.00    -0.005 A 
ATOM      4  C3  UNL d   1       3.295  -1.550  -1.345  0.00  0.00     0.006 A 
ATOM      5  C4  UNL d   1       2.240  -1.582  -0.432  0.00  0.00    -0.005 A 
ATOM      6  C5  UNL d   1       1.545  -0.411  -0.115  0.00  0.00    -0.074 A 
ATOM      7  C6  UNL d   1       0.416  -0.426   0.872  0.00  0.00     0.077 C 
ATOM      8  C7  UNL d   1       1.926   0.794  -0.722  0.00  0.00    -0.001 A 
ENDROOT
TORSDOF 0
ENDMDL
