MODEL 1
REMARK minimizedAffinity -1.82942128
REMARK minimizedRMSD -1
REMARK  0 active torsions:
REMARK  status: ('A' for Active; 'I' for Inactive)
ROOT
ATOM      1  C   UNL d   1       4.735  -0.811  -2.024  0.00  0.00     0.077 C 
ATOM      2  C1  UNL d   1       3.471  -0.822  -1.217  0.00  0.00    -0.074 A 
ATOM      3  C2  UNL d   1       2.841  -2.026  -0.884  0.00  0.00    -0.005 A 
ATOM      4  C3  UNL d   1       1.671  -2.020  -0.125  0.00  0.00     0.006 A 
ATOM      5  C4  UNL d   1       1.120  -0.814   0.309  0.00  0.00    -0.005 A 
ATOM      6  C5  UNL d   1       1.736   0.399  -0.014  0.00  0.00    -0.074 A 
ATOM      7  C6  UNL d   1       1.163   1.705   0.452  0.00  0.00     0.077 C 
ATOM      8  C7  UNL d   1       2.916   0.386  -0.771  0.00  0.00    -0.001 A 
ENDROOT
TORSDOF 0
ENDMDL
