MODEL 1
REMARK minimizedAffinity -2.34124804
REMARK minimizedRMSD -1
REMARK  0 active torsions:
REMARK  status: ('A' for Active; 'I' for Inactive)
ROOT
ATOM      1  C   UNL d   1       2.430   1.874  -1.115  0.00  0.00     0.077 C 
ATOM      2  C1  UNL d   1       2.119   0.548  -0.486  0.00  0.00    -0.074 A 
ATOM      3  C2  UNL d   1       2.793  -0.611  -0.882  0.00  0.00    -0.005 A 
ATOM      4  C3  UNL d   1       2.499  -1.836  -0.282  0.00  0.00     0.006 A 
ATOM      5  C4  UNL d   1       1.530  -1.913   0.719  0.00  0.00    -0.005 A 
ATOM      6  C5  UNL d   1       0.846  -0.764   1.129  0.00  0.00    -0.074 A 
ATOM      7  C6  UNL d   1      -0.192  -0.827   2.209  0.00  0.00     0.077 C 
ATOM      8  C7  UNL d   1       1.152   0.464   0.525  0.00  0.00    -0.001 A 
ENDROOT
TORSDOF 0
ENDMDL
