MODEL 1
REMARK minimizedAffinity 1.87371409
REMARK minimizedRMSD -1
REMARK  0 active torsions:
REMARK  status: ('A' for Active; 'I' for Inactive)
ROOT
ATOM      1  C   UNL d   1       3.151  -2.017  -1.375  0.00  0.00     0.077 C 
ATOM      2  C1  UNL d   1       2.236  -1.262  -0.457  0.00  0.00    -0.074 A 
ATOM      3  C2  UNL d   1       1.061  -1.847   0.027  0.00  0.00    -0.005 A 
ATOM      4  C3  UNL d   1       0.225  -1.137   0.888  0.00  0.00     0.006 A 
ATOM      5  C4  UNL d   1       0.553   0.164   1.272  0.00  0.00    -0.005 A 
ATOM      6  C5  UNL d   1       1.723   0.765   0.798  0.00  0.00    -0.074 A 
ATOM      7  C6  UNL d   1       2.096   2.159   1.208  0.00  0.00     0.077 C 
ATOM      8  C7  UNL d   1       2.562   0.042  -0.061  0.00  0.00    -0.001 A 
ENDROOT
TORSDOF 0
ENDMDL
