MODEL 1
REMARK minimizedAffinity -1.02411151
REMARK minimizedRMSD -1
REMARK  0 active torsions:
REMARK  status: ('A' for Active; 'I' for Inactive)
ROOT
ATOM      1  C   UNL d   1       0.312  -1.341   1.910  0.00  0.00     0.077 C 
ATOM      2  C1  UNL d   1       1.091  -0.701   0.800  0.00  0.00    -0.074 A 
ATOM      3  C2  UNL d   1       0.710   0.538   0.276  0.00  0.00    -0.005 A 
ATOM      4  C3  UNL d   1       1.450   1.126  -0.750  0.00  0.00     0.006 A 
ATOM      5  C4  UNL d   1       2.578   0.482  -1.260  0.00  0.00    -0.005 A 
ATOM      6  C5  UNL d   1       2.976  -0.757  -0.747  0.00  0.00    -0.074 A 
ATOM      7  C6  UNL d   1       4.191  -1.457  -1.277  0.00  0.00     0.077 C 
ATOM      8  C7  UNL d   1       2.230  -1.338   0.288  0.00  0.00    -0.001 A 
ENDROOT
TORSDOF 0
ENDMDL
