MODEL 1
REMARK minimizedAffinity -2.85212421
REMARK minimizedRMSD -1
REMARK  0 active torsions:
REMARK  status: ('A' for Active; 'I' for Inactive)
ROOT
ATOM      1  C   UNL d   1       4.816  -0.633  -2.167  0.00  0.00     0.077 C 
ATOM      2  C1  UNL d   1       3.591  -0.456  -1.319  0.00  0.00    -0.074 A 
ATOM      3  C2  UNL d   1       2.960   0.788  -1.218  0.00  0.00    -0.005 A 
ATOM      4  C3  UNL d   1       1.816   0.934  -0.433  0.00  0.00     0.006 A 
ATOM      5  C4  UNL d   1       1.293  -0.160   0.257  0.00  0.00    -0.005 A 
ATOM      6  C5  UNL d   1       1.910  -1.412   0.167  0.00  0.00    -0.074 A 
ATOM      7  C6  UNL d   1       1.355  -2.600   0.895  0.00  0.00     0.077 C 
ATOM      8  C7  UNL d   1       3.055  -1.552  -0.629  0.00  0.00    -0.001 A 
ENDROOT
TORSDOF 0
ENDMDL
