MODEL 1
REMARK minimizedAffinity -3.06164098
REMARK minimizedRMSD -1
REMARK  0 active torsions:
REMARK  status: ('A' for Active; 'I' for Inactive)
ROOT
ATOM      1  C   UNL d   1       5.065  -0.629  -2.268  0.00  0.00     0.077 C 
ATOM      2  C1  UNL d   1       3.815  -0.225  -1.543  0.00  0.00    -0.074 A 
ATOM      3  C2  UNL d   1       3.442   1.120  -1.449  0.00  0.00    -0.005 A 
ATOM      4  C3  UNL d   1       2.272   1.480  -0.780  0.00  0.00     0.006 A 
ATOM      5  C4  UNL d   1       1.465   0.500  -0.200  0.00  0.00    -0.005 A 
ATOM      6  C5  UNL d   1       1.821  -0.849  -0.285  0.00  0.00    -0.074 A 
ATOM      7  C6  UNL d   1       0.960  -1.915   0.324  0.00  0.00     0.077 C 
ATOM      8  C7  UNL d   1       2.995  -1.203  -0.965  0.00  0.00    -0.001 A 
ENDROOT
TORSDOF 0
ENDMDL
