MODEL 1
REMARK minimizedAffinity -2.84610868
REMARK minimizedRMSD -1
REMARK  0 active torsions:
REMARK  status: ('A' for Active; 'I' for Inactive)
ROOT
ATOM      1  C   UNL d   1       5.162  -0.349  -1.893  0.00  0.00     0.077 C 
ATOM      2  C1  UNL d   1       3.876  -0.209  -1.134  0.00  0.00    -0.074 A 
ATOM      3  C2  UNL d   1       3.336   1.052  -0.862  0.00  0.00    -0.005 A 
ATOM      4  C3  UNL d   1       2.134   1.167  -0.163  0.00  0.00     0.006 A 
ATOM      5  C4  UNL d   1       1.462   0.024   0.270  0.00  0.00    -0.005 A 
ATOM      6  C5  UNL d   1       1.986  -1.246   0.007  0.00  0.00    -0.074 A 
ATOM      7  C6  UNL d   1       1.271  -2.485   0.456  0.00  0.00     0.077 C 
ATOM      8  C7  UNL d   1       3.191  -1.353  -0.702  0.00  0.00    -0.001 A 
ENDROOT
TORSDOF 0
ENDMDL
