MODEL 1
REMARK minimizedAffinity -3.16878843
REMARK minimizedRMSD -1
REMARK  0 active torsions:
REMARK  status: ('A' for Active; 'I' for Inactive)
ROOT
ATOM      1  C   UNL d   1       3.489   1.580  -2.291  0.00  0.00     0.077 C 
ATOM      2  C1  UNL d   1       3.013   0.353  -1.572  0.00  0.00    -0.074 A 
ATOM      3  C2  UNL d   1       3.509  -0.912  -1.904  0.00  0.00    -0.005 A 
ATOM      4  C3  UNL d   1       3.064  -2.043  -1.220  0.00  0.00     0.006 A 
ATOM      5  C4  UNL d   1       2.120  -1.921  -0.200  0.00  0.00    -0.005 A 
ATOM      6  C5  UNL d   1       1.613  -0.664   0.146  0.00  0.00    -0.074 A 
ATOM      7  C6  UNL d   1       0.605  -0.515   1.247  0.00  0.00     0.077 C 
ATOM      8  C7  UNL d   1       2.070   0.468  -0.541  0.00  0.00    -0.001 A 
ENDROOT
TORSDOF 0
ENDMDL
