MODEL 1
REMARK minimizedAffinity -0.95794338
REMARK minimizedRMSD -1
REMARK  0 active torsions:
REMARK  status: ('A' for Active; 'I' for Inactive)
ROOT
ATOM      1  C   UNL d   1       2.906   0.825  -2.413  0.00  0.00     0.077 C 
ATOM      2  C1  UNL d   1       2.431   0.032  -1.233  0.00  0.00    -0.074 A 
ATOM      3  C2  UNL d   1       2.858  -1.284  -1.031  0.00  0.00    -0.005 A 
ATOM      4  C3  UNL d   1       2.415  -2.006   0.076  0.00  0.00     0.006 A 
ATOM      5  C4  UNL d   1       1.540  -1.421   0.993  0.00  0.00    -0.005 A 
ATOM      6  C5  UNL d   1       1.102  -0.105   0.808  0.00  0.00    -0.074 A 
ATOM      7  C6  UNL d   1       0.170   0.542   1.789  0.00  0.00     0.077 C 
ATOM      8  C7  UNL d   1       1.558   0.616  -0.303  0.00  0.00    -0.001 A 
ENDROOT
TORSDOF 0
ENDMDL
