MODEL 1
REMARK minimizedAffinity -3.90266871
REMARK minimizedRMSD -1
REMARK  0 active torsions:
REMARK  status: ('A' for Active; 'I' for Inactive)
ROOT
ATOM      1  C   UNL d   1       1.526  -2.699   0.841  0.00  0.00     0.077 C 
ATOM      2  C1  UNL d   1       1.611  -1.380   0.131  0.00  0.00    -0.074 A 
ATOM      3  C2  UNL d   1       0.639  -0.394   0.329  0.00  0.00    -0.005 A 
ATOM      4  C3  UNL d   1       0.736   0.831  -0.331  0.00  0.00     0.006 A 
ATOM      5  C4  UNL d   1       1.804   1.082  -1.193  0.00  0.00    -0.005 A 
ATOM      6  C5  UNL d   1       2.786   0.108  -1.402  0.00  0.00    -0.074 A 
ATOM      7  C6  UNL d   1       3.945   0.366  -2.318  0.00  0.00     0.077 C 
ATOM      8  C7  UNL d   1       2.685  -1.118  -0.730  0.00  0.00    -0.001 A 
ENDROOT
TORSDOF 0
ENDMDL
