MODEL 1
REMARK minimizedAffinity -4.81287813
REMARK minimizedRMSD -1
REMARK  0 active torsions:
REMARK  status: ('A' for Active; 'I' for Inactive)
ROOT
ATOM      1  C   UNL d   1       1.269  -2.937   0.955  0.00  0.00     0.077 C 
ATOM      2  C1  UNL d   1       1.691  -1.663   0.285  0.00  0.00    -0.074 A 
ATOM      3  C2  UNL d   1       0.992  -0.471   0.500  0.00  0.00    -0.005 A 
ATOM      4  C3  UNL d   1       1.402   0.707  -0.123  0.00  0.00     0.006 A 
ATOM      5  C4  UNL d   1       2.513   0.706  -0.966  0.00  0.00    -0.005 A 
ATOM      6  C5  UNL d   1       3.226  -0.476  -1.193  0.00  0.00    -0.074 A 
ATOM      7  C6  UNL d   1       4.429  -0.492  -2.089  0.00  0.00     0.077 C 
ATOM      8  C7  UNL d   1       2.812  -1.655  -0.558  0.00  0.00    -0.001 A 
ENDROOT
TORSDOF 0
ENDMDL
