MODEL 1
REMARK minimizedAffinity 5.70320225
REMARK minimizedRMSD -1
REMARK  1 active torsions:
REMARK  status: ('A' for Active; 'I' for Inactive)
REMARK    1  A    between atoms: N_2  and  C1_3 
ROOT
ATOM      1  C1  UNL d   1      -1.282   0.012   2.976  0.00  0.00     0.143 A 
ATOM      2  C2  UNL d   1      -0.035  -0.030   3.610  0.00  0.00    -0.057 A 
ATOM      3  C3  UNL d   1       0.944  -0.954   3.226  0.00  0.00     0.033 A 
ATOM      4  C4  UNL d   1       0.681  -1.876   2.218  0.00  0.00    -0.042 A 
ATOM      5  C5  UNL d   1      -0.560  -1.869   1.591  0.00  0.00     0.033 A 
ATOM      6  C6  UNL d   1      -1.531  -0.938   1.974  0.00  0.00    -0.057 A 
ENDROOT
BRANCH   1   7
ATOM      7  N   UNL d   1      -2.331   0.842   3.379  0.00  0.00    -0.732 N 
ATOM      8  C   UNL d   1      -3.593   0.832   2.670  0.00  0.00     0.284 C 
ATOM      9  H3  UNL d   1      -2.423   0.889   4.391  0.00  0.00     0.395 HD
ENDBRANCH   1   7
TORSDOF 1
ENDMDL
