MODEL 1
REMARK minimizedAffinity 2.86849904
REMARK minimizedRMSD -1
REMARK  1 active torsions:
REMARK  status: ('A' for Active; 'I' for Inactive)
REMARK    1  A    between atoms: N_2  and  C1_3 
ROOT
ATOM      1  C1  UNL d   1       2.271  -0.562  -0.173  0.00  0.00     0.143 A 
ATOM      2  C2  UNL d   1       1.607  -0.707  -1.396  0.00  0.00    -0.057 A 
ATOM      3  C3  UNL d   1       1.479   0.366  -2.285  0.00  0.00     0.033 A 
ATOM      4  C4  UNL d   1       1.991   1.617  -1.953  0.00  0.00    -0.042 A 
ATOM      5  C5  UNL d   1       2.632   1.791  -0.733  0.00  0.00     0.033 A 
ATOM      6  C6  UNL d   1       2.762   0.713   0.149  0.00  0.00    -0.057 A 
ENDROOT
BRANCH   1   7
ATOM      7  N   UNL d   1       2.344  -1.565   0.796  0.00  0.00    -0.732 N 
ATOM      8  C   UNL d   1       1.636  -1.430   2.051  0.00  0.00     0.284 C 
ATOM      9  H3  UNL d   1       2.303  -2.498   0.394  0.00  0.00     0.395 HD
ENDBRANCH   1   7
TORSDOF 1
ENDMDL
