MODEL 1
REMARK minimizedAffinity 5.98328495
REMARK minimizedRMSD -1
REMARK  1 active torsions:
REMARK  status: ('A' for Active; 'I' for Inactive)
REMARK    1  A    between atoms: N_2  and  C1_3 
ROOT
ATOM      1  C1  UNL d   1       2.190  -0.314   0.465  0.00  0.00     0.143 A 
ATOM      2  C2  UNL d   1       1.638  -0.656  -0.774  0.00  0.00    -0.057 A 
ATOM      3  C3  UNL d   1       1.474   0.299  -1.784  0.00  0.00     0.033 A 
ATOM      4  C4  UNL d   1       1.833   1.624  -1.562  0.00  0.00    -0.042 A 
ATOM      5  C5  UNL d   1       2.360   1.993  -0.329  0.00  0.00     0.033 A 
ATOM      6  C6  UNL d   1       2.528   1.033   0.673  0.00  0.00    -0.057 A 
ENDROOT
BRANCH   1   7
ATOM      7  N   UNL d   1       2.288  -1.196   1.544  0.00  0.00    -0.732 N 
ATOM      8  C   UNL d   1       2.279  -0.702   2.904  0.00  0.00     0.284 C 
ATOM      9  H3  UNL d   1       1.739  -2.041   1.405  0.00  0.00     0.395 HD
ENDBRANCH   1   7
TORSDOF 1
ENDMDL
