MODEL 1
REMARK minimizedAffinity 2.64057946
REMARK minimizedRMSD -1
REMARK  1 active torsions:
REMARK  status: ('A' for Active; 'I' for Inactive)
REMARK    1  A    between atoms: N_2  and  C1_3 
ROOT
ATOM      1  C1  UNL d   1       1.622  -2.461   1.042  0.00  0.00     0.143 A 
ATOM      2  C2  UNL d   1       0.259  -2.460   1.356  0.00  0.00    -0.057 A 
ATOM      3  C3  UNL d   1      -0.256  -1.623   2.353  0.00  0.00     0.033 A 
ATOM      4  C4  UNL d   1       0.591  -0.790   3.076  0.00  0.00    -0.042 A 
ATOM      5  C5  UNL d   1       1.953  -0.792   2.798  0.00  0.00     0.033 A 
ATOM      6  C6  UNL d   1       2.460  -1.625   1.797  0.00  0.00    -0.057 A 
ENDROOT
BRANCH   1   7
ATOM      7  N   UNL d   1       2.210  -3.340   0.130  0.00  0.00    -0.732 N 
ATOM      8  C   UNL d   1       2.195  -4.768   0.368  0.00  0.00     0.284 C 
ATOM      9  H3  UNL d   1       2.027  -3.078  -0.836  0.00  0.00     0.395 HD
ENDBRANCH   1   7
TORSDOF 1
ENDMDL
