MODEL 1
REMARK minimizedAffinity 5.18282032
REMARK minimizedRMSD -1
REMARK  1 active torsions:
REMARK  status: ('A' for Active; 'I' for Inactive)
REMARK    1  A    between atoms: N_2  and  C1_3 
ROOT
ATOM      1  C1  UNL d   1       1.928  -0.260  -0.565  0.00  0.00     0.143 A 
ATOM      2  C2  UNL d   1       0.854  -0.195  -1.458  0.00  0.00    -0.057 A 
ATOM      3  C3  UNL d   1       0.457   1.020  -2.030  0.00  0.00     0.033 A 
ATOM      4  C4  UNL d   1       1.113   2.200  -1.695  0.00  0.00    -0.042 A 
ATOM      5  C5  UNL d   1       2.168   2.163  -0.790  0.00  0.00     0.033 A 
ATOM      6  C6  UNL d   1       2.563   0.945  -0.227  0.00  0.00    -0.057 A 
ENDROOT
BRANCH   1   7
ATOM      7  N   UNL d   1       2.308  -1.422   0.112  0.00  0.00    -0.732 N 
ATOM      8  C   UNL d   1       1.795  -1.704   1.436  0.00  0.00     0.284 C 
ATOM      9  H3  UNL d   1       2.347  -2.233  -0.500  0.00  0.00     0.395 HD
ENDBRANCH   1   7
TORSDOF 1
ENDMDL
