MODEL 1
REMARK minimizedAffinity 2.41831851
REMARK minimizedRMSD -1
REMARK  1 active torsions:
REMARK  status: ('A' for Active; 'I' for Inactive)
REMARK    1  A    between atoms: N_2  and  C1_3 
ROOT
ATOM      1  C1  UNL d   1       1.763  -1.180  -0.061  0.00  0.00     0.143 A 
ATOM      2  C2  UNL d   1       2.873  -1.307  -0.903  0.00  0.00    -0.057 A 
ATOM      3  C3  UNL d   1       3.031  -0.486  -2.026  0.00  0.00     0.033 A 
ATOM      4  C4  UNL d   1       2.062   0.459  -2.345  0.00  0.00    -0.042 A 
ATOM      5  C5  UNL d   1       0.937   0.586  -1.538  0.00  0.00     0.033 A 
ATOM      6  C6  UNL d   1       0.789  -0.232  -0.413  0.00  0.00    -0.057 A 
ENDROOT
BRANCH   1   7
ATOM      7  N   UNL d   1       1.500  -2.032   1.014  0.00  0.00    -0.732 N 
ATOM      8  C   UNL d   1       0.907  -1.521   2.231  0.00  0.00     0.284 C 
ATOM      9  H3  UNL d   1       1.129  -2.931   0.716  0.00  0.00     0.395 HD
ENDBRANCH   1   7
TORSDOF 1
ENDMDL
