MODEL 1
REMARK minimizedAffinity 8.98208427
REMARK minimizedRMSD -1
REMARK  1 active torsions:
REMARK  status: ('A' for Active; 'I' for Inactive)
REMARK    1  A    between atoms: N_2  and  C1_3 
ROOT
ATOM      1  C1  UNL d   1       1.277  -1.872   1.607  0.00  0.00     0.143 A 
ATOM      2  C2  UNL d   1       0.719  -0.785   2.289  0.00  0.00    -0.057 A 
ATOM      3  C3  UNL d   1      -0.362  -0.954   3.162  0.00  0.00     0.033 A 
ATOM      4  C4  UNL d   1      -0.925  -2.212   3.346  0.00  0.00    -0.042 A 
ATOM      5  C5  UNL d   1      -0.403  -3.302   2.660  0.00  0.00     0.033 A 
ATOM      6  C6  UNL d   1       0.681  -3.129   1.795  0.00  0.00    -0.057 A 
ENDROOT
BRANCH   1   7
ATOM      7  N   UNL d   1       2.289  -1.754   0.651  0.00  0.00    -0.732 N 
ATOM      8  C   UNL d   1       2.094  -0.945  -0.533  0.00  0.00     0.284 C 
ATOM      9  H3  UNL d   1       3.211  -1.661   1.071  0.00  0.00     0.395 HD
ENDBRANCH   1   7
TORSDOF 1
ENDMDL
