MODEL 1
REMARK minimizedAffinity 7.05955458
REMARK minimizedRMSD -1
REMARK  1 active torsions:
REMARK  status: ('A' for Active; 'I' for Inactive)
REMARK    1  A    between atoms: N_2  and  C1_3 
ROOT
ATOM      1  C1  UNL d   1       1.270  -1.649   1.749  0.00  0.00     0.143 A 
ATOM      2  C2  UNL d   1       1.074  -0.714   0.726  0.00  0.00    -0.057 A 
ATOM      3  C3  UNL d   1       1.845  -0.745  -0.443  0.00  0.00     0.033 A 
ATOM      4  C4  UNL d   1       2.848  -1.697  -0.597  0.00  0.00    -0.042 A 
ATOM      5  C5  UNL d   1       3.077  -2.619   0.418  0.00  0.00     0.033 A 
ATOM      6  C6  UNL d   1       2.299  -2.588   1.579  0.00  0.00    -0.057 A 
ENDROOT
BRANCH   1   7
ATOM      7  N   UNL d   1       0.603  -1.609   2.976  0.00  0.00    -0.732 N 
ATOM      8  C   UNL d   1       0.123  -0.355   3.514  0.00  0.00     0.284 C 
ATOM      9  H3  UNL d   1      -0.044  -2.386   3.091  0.00  0.00     0.395 HD
ENDBRANCH   1   7
TORSDOF 1
ENDMDL
