MODEL 1
REMARK minimizedAffinity 2.9064703
REMARK minimizedRMSD -1
REMARK  1 active torsions:
REMARK  status: ('A' for Active; 'I' for Inactive)
REMARK    1  A    between atoms: N_2  and  C1_3 
ROOT
ATOM      1  C1  UNL d   1      -1.002  -1.887   1.504  0.00  0.00     0.143 A 
ATOM      2  C2  UNL d   1      -0.778  -2.822   2.519  0.00  0.00    -0.057 A 
ATOM      3  C3  UNL d   1       0.235  -2.637   3.467  0.00  0.00     0.033 A 
ATOM      4  C4  UNL d   1       1.065  -1.522   3.398  0.00  0.00    -0.042 A 
ATOM      5  C5  UNL d   1       0.877  -0.592   2.383  0.00  0.00     0.033 A 
ATOM      6  C6  UNL d   1      -0.141  -0.779   1.443  0.00  0.00    -0.057 A 
ENDROOT
BRANCH   1   7
ATOM      7  N   UNL d   1      -1.929  -2.063   0.473  0.00  0.00    -0.732 N 
ATOM      8  C   UNL d   1      -1.784  -1.352  -0.778  0.00  0.00     0.284 C 
ATOM      9  H3  UNL d   1      -2.213  -3.035   0.369  0.00  0.00     0.395 HD
ENDBRANCH   1   7
TORSDOF 1
ENDMDL
