MODEL 1
REMARK minimizedAffinity 1.30727088
REMARK minimizedRMSD -1
REMARK  1 active torsions:
REMARK  status: ('A' for Active; 'I' for Inactive)
REMARK    1  A    between atoms: N_2  and  C1_3 
ROOT
ATOM      1  C1  UNL d   1       2.201  -0.762  -0.242  0.00  0.00     0.143 A 
ATOM      2  C2  UNL d   1       1.581  -0.903  -1.489  0.00  0.00    -0.057 A 
ATOM      3  C3  UNL d   1       1.397   0.196  -2.337  0.00  0.00     0.033 A 
ATOM      4  C4  UNL d   1       1.804   1.465  -1.939  0.00  0.00    -0.042 A 
ATOM      5  C5  UNL d   1       2.399   1.633  -0.693  0.00  0.00     0.033 A 
ATOM      6  C6  UNL d   1       2.587   0.530   0.146  0.00  0.00    -0.057 A 
ENDROOT
BRANCH   1   7
ATOM      7  N   UNL d   1       2.324  -1.798   0.687  0.00  0.00    -0.732 N 
ATOM      8  C   UNL d   1       1.954  -1.595   2.071  0.00  0.00     0.284 C 
ATOM      9  H3  UNL d   1       2.035  -2.697   0.307  0.00  0.00     0.395 HD
ENDBRANCH   1   7
TORSDOF 1
ENDMDL
