MODEL 1
REMARK minimizedAffinity 2.56026936
REMARK minimizedRMSD -1
REMARK  1 active torsions:
REMARK  status: ('A' for Active; 'I' for Inactive)
REMARK    1  A    between atoms: C1_2  and  C2_3 
ROOT
ATOM      1  C2  UNL d   1      -3.219  -0.279  -0.610  0.00  0.00    -0.077 A 
ATOM      2  C3  UNL d   1      -2.902   0.512   0.503  0.00  0.00     0.002 A 
ATOM      3  C4  UNL d   1      -1.582   0.604   0.950  0.00  0.00     0.002 A 
ATOM      4  C5  UNL d   1      -0.570  -0.088   0.288  0.00  0.00    -0.004 A 
ATOM      5  C6  UNL d   1      -0.877  -0.879  -0.819  0.00  0.00     0.002 A 
ATOM      6  C7  UNL d   1      -2.195  -0.973  -1.266  0.00  0.00     0.002 A 
ENDROOT
BRANCH   1   7
ATOM      7  C1  UNL d   1      -4.634  -0.340  -1.124  0.00  0.00     0.055 C 
ATOM      8  C   UNL d   1      -5.022  -1.760  -1.509  0.00  0.00     0.019 C 
ENDBRANCH   1   7
TORSDOF 1
ENDMDL
