MODEL 1
REMARK minimizedAffinity -3.23298168
REMARK minimizedRMSD -1
REMARK  1 active torsions:
REMARK  status: ('A' for Active; 'I' for Inactive)
REMARK    1  A    between atoms: C1_2  and  C2_3 
ROOT
ATOM      1  C2  UNL d   1       0.761  -0.176  -2.101  0.00  0.00    -0.077 A 
ATOM      2  C3  UNL d   1       2.027   0.339  -2.413  0.00  0.00     0.002 A 
ATOM      3  C4  UNL d   1       2.215   1.099  -3.569  0.00  0.00     0.002 A 
ATOM      4  C5  UNL d   1       1.141   1.354  -4.419  0.00  0.00    -0.004 A 
ATOM      5  C6  UNL d   1      -0.122   0.844  -4.119  0.00  0.00     0.002 A 
ATOM      6  C7  UNL d   1      -0.311   0.083  -2.964  0.00  0.00     0.002 A 
ENDROOT
BRANCH   1   7
ATOM      7  C1  UNL d   1       0.547  -0.955  -0.829  0.00  0.00     0.055 C 
ATOM      8  C   UNL d   1      -0.103  -0.094   0.244  0.00  0.00     0.019 C 
ENDBRANCH   1   7
TORSDOF 1
ENDMDL
