MODEL 1
REMARK minimizedAffinity -3.23934245
REMARK minimizedRMSD -1
REMARK  0 active torsions:
REMARK  status: ('A' for Active; 'I' for Inactive)
ROOT
ATOM      1  C   UNL d   1      -1.635  -4.725  -5.579  0.00  0.00     0.023 A 
ATOM      2  C1  UNL d   1      -1.156  -3.554  -4.993  0.00  0.00     0.003 A 
ATOM      3  C2  UNL d   1      -0.527  -3.602  -3.747  0.00  0.00     0.048 A 
ATOM      4  C3  UNL d   1      -0.381  -4.825  -3.093  0.00  0.00     0.023 A 
ATOM      5  C4  UNL d   1      -0.859  -6.000  -3.676  0.00  0.00     0.048 A 
ATOM      6  C5  UNL d   1      -1.487  -5.947  -4.922  0.00  0.00     0.003 A 
ATOM      7  I   UNL d   1       0.554  -4.900  -1.238  0.00  0.00    -0.146 I 
ENDROOT
TORSDOF 0
ENDMDL
