MODEL 1
REMARK minimizedAffinity 5.32252407
REMARK minimizedRMSD -1
REMARK  0 active torsions:
REMARK  status: ('A' for Active; 'I' for Inactive)
ROOT
ATOM      1  C   UNL d   1       0.325   5.268  -1.633  0.00  0.00     0.023 A 
ATOM      2  C1  UNL d   1       1.088   4.109  -1.771  0.00  0.00     0.003 A 
ATOM      3  C2  UNL d   1       0.801   2.986  -0.992  0.00  0.00     0.048 A 
ATOM      4  C3  UNL d   1      -0.250   3.030  -0.077  0.00  0.00     0.023 A 
ATOM      5  C4  UNL d   1      -1.017   4.187   0.064  0.00  0.00     0.048 A 
ATOM      6  C5  UNL d   1      -0.726   5.308  -0.717  0.00  0.00     0.003 A 
ATOM      7  I   UNL d   1      -0.678   1.360   1.084  0.00  0.00    -0.146 I 
ENDROOT
TORSDOF 0
ENDMDL
