MODEL 1
REMARK minimizedAffinity -0.0021143409
REMARK minimizedRMSD -1
REMARK  0 active torsions:
REMARK  status: ('A' for Active; 'I' for Inactive)
ROOT
ATOM      1  C   UNL d   1      -0.303   1.286   1.068  0.00  0.00     0.023 A 
ATOM      2  C1  UNL d   1      -0.893   1.480  -0.181  0.00  0.00     0.003 A 
ATOM      3  C2  UNL d   1      -0.510   2.563  -0.975  0.00  0.00     0.048 A 
ATOM      4  C3  UNL d   1       0.466   3.447  -0.514  0.00  0.00     0.023 A 
ATOM      5  C4  UNL d   1       1.059   3.256   0.735  0.00  0.00     0.048 A 
ATOM      6  C5  UNL d   1       0.672   2.173   1.525  0.00  0.00     0.003 A 
ATOM      7  I   UNL d   1       1.038   5.059  -1.694  0.00  0.00    -0.146 I 
ENDROOT
TORSDOF 0
ENDMDL
