MODEL 1
REMARK minimizedAffinity 5.40920925
REMARK minimizedRMSD -1
REMARK  0 active torsions:
REMARK  status: ('A' for Active; 'I' for Inactive)
ROOT
ATOM      1  C   UNL d   1       1.215  -3.551   1.040  0.00  0.00     0.023 A 
ATOM      2  C1  UNL d   1       2.263  -2.632   1.084  0.00  0.00     0.003 A 
ATOM      3  C2  UNL d   1       1.992  -1.264   1.151  0.00  0.00     0.048 A 
ATOM      4  C3  UNL d   1       0.669  -0.822   1.176  0.00  0.00     0.023 A 
ATOM      5  C4  UNL d   1      -0.383  -1.738   1.134  0.00  0.00     0.048 A 
ATOM      6  C5  UNL d   1      -0.107  -3.105   1.065  0.00  0.00     0.003 A 
ATOM      7  I   UNL d   1       0.263   1.214   1.277  0.00  0.00    -0.146 I 
ENDROOT
TORSDOF 0
ENDMDL
