MODEL 1
REMARK minimizedAffinity 6.17950201
REMARK minimizedRMSD -1
REMARK  0 active torsions:
REMARK  status: ('A' for Active; 'I' for Inactive)
ROOT
ATOM      1  C   UNL d   1       5.247  -1.875  -2.913  0.00  0.00     0.023 A 
ATOM      2  C1  UNL d   1       4.500  -1.813  -4.090  0.00  0.00     0.003 A 
ATOM      3  C2  UNL d   1       4.502  -2.891  -4.977  0.00  0.00     0.048 A 
ATOM      4  C3  UNL d   1       5.252  -4.029  -4.681  0.00  0.00     0.023 A 
ATOM      5  C4  UNL d   1       6.000  -4.095  -3.504  0.00  0.00     0.048 A 
ATOM      6  C5  UNL d   1       5.996  -3.014  -2.621  0.00  0.00     0.003 A 
ATOM      7  I   UNL d   1       5.255  -5.636  -5.999  0.00  0.00    -0.146 I 
ENDROOT
TORSDOF 0
ENDMDL
