MODEL 1
REMARK minimizedAffinity 16.4636135
REMARK minimizedRMSD -1
REMARK  0 active torsions:
REMARK  status: ('A' for Active; 'I' for Inactive)
ROOT
ATOM      1  N1  IND d   1      -2.456   4.242   4.138  0.00  0.00    -0.196 N 
ATOM      2  C2  IND d   1      -2.808   4.980   5.233  0.00  0.00     0.054 A 
ATOM      3  C3  IND d   1      -3.687   4.295   5.999  0.00  0.00    -0.031 A 
ATOM      4  C4  IND d   1      -4.606   1.909   5.698  0.00  0.00     0.051 A 
ATOM      5  C5  IND d   1      -4.603   0.856   4.828  0.00  0.00    -0.031 A 
ATOM      6  C6  IND d   1      -3.866   0.876   3.661  0.00  0.00     0.015 A 
ATOM      7  C7  IND d   1      -3.094   1.951   3.325  0.00  0.00    -0.016 A 
ATOM      8  C8  IND d   1      -3.100   3.026   4.203  0.00  0.00    -0.047 A 
ATOM      9  C9  IND d   1      -3.879   3.028   5.367  0.00  0.00    -0.096 A 
ATOM     10  HN1 IND d   1      -1.922   4.495   3.513  0.00  0.00     0.298 HD
ENDROOT
TORSDOF 0
ENDMDL
