MODEL 1
REMARK minimizedAffinity 15.0245628
REMARK minimizedRMSD -1
REMARK  0 active torsions:
REMARK  status: ('A' for Active; 'I' for Inactive)
ROOT
ATOM      1  N1  IND d   1      -4.572   3.216  -3.330  0.00  0.00    -0.196 N 
ATOM      2  C2  IND d   1      -4.083   3.852  -4.437  0.00  0.00     0.054 A 
ATOM      3  C3  IND d   1      -2.856   3.377  -4.749  0.00  0.00    -0.031 A 
ATOM      4  C4  IND d   1      -1.506   1.484  -3.643  0.00  0.00     0.051 A 
ATOM      5  C5  IND d   1      -1.524   0.629  -2.577  0.00  0.00    -0.031 A 
ATOM      6  C6  IND d   1      -2.582   0.590  -1.691  0.00  0.00     0.015 A 
ATOM      7  C7  IND d   1      -3.671   1.400  -1.846  0.00  0.00    -0.016 A 
ATOM      8  C8  IND d   1      -3.653   2.275  -2.923  0.00  0.00    -0.047 A 
ATOM      9  C9  IND d   1      -2.563   2.349  -3.801  0.00  0.00    -0.096 A 
ATOM     10  HN1 IND d   1      -5.328   3.377  -2.953  0.00  0.00     0.298 HD
ENDROOT
TORSDOF 0
ENDMDL
