MODEL 1
REMARK minimizedAffinity 14.8889217
REMARK minimizedRMSD -1
REMARK  0 active torsions:
REMARK  status: ('A' for Active; 'I' for Inactive)
ROOT
ATOM      1  N1  IND d   1       1.316  -3.505   0.847  0.00  0.00    -0.196 N 
ATOM      2  C2  IND d   1       2.636  -3.180   0.705  0.00  0.00     0.054 A 
ATOM      3  C3  IND d   1       2.875  -1.951   1.217  0.00  0.00    -0.031 A 
ATOM      4  C4  IND d   1       1.269  -0.342   2.425  0.00  0.00     0.051 A 
ATOM      5  C5  IND d   1      -0.046  -0.185   2.762  0.00  0.00    -0.031 A 
ATOM      6  C6  IND d   1      -0.993  -1.146   2.475  0.00  0.00     0.015 A 
ATOM      7  C7  IND d   1      -0.656  -2.312   1.847  0.00  0.00    -0.016 A 
ATOM      8  C8  IND d   1       0.677  -2.473   1.496  0.00  0.00    -0.047 A 
ATOM      9  C9  IND d   1       1.635  -1.482   1.747  0.00  0.00    -0.096 A 
ATOM     10  HN1 IND d   1       0.947  -4.233   0.575  0.00  0.00     0.298 HD
ENDROOT
TORSDOF 0
ENDMDL
