MODEL 1
REMARK minimizedAffinity 7.72577286
REMARK minimizedRMSD -1
REMARK  0 active torsions:
REMARK  status: ('A' for Active; 'I' for Inactive)
ROOT
ATOM      1  N1  IND d   1       0.973  -3.895   1.353  0.00  0.00    -0.196 N 
ATOM      2  C2  IND d   1       2.145  -3.427   0.829  0.00  0.00     0.054 A 
ATOM      3  C3  IND d   1       2.336  -2.136   1.180  0.00  0.00    -0.031 A 
ATOM      4  C4  IND d   1       0.904  -0.624   2.694  0.00  0.00     0.051 A 
ATOM      5  C5  IND d   1      -0.279  -0.595   3.377  0.00  0.00    -0.031 A 
ATOM      6  C6  IND d   1      -1.122  -1.687   3.423  0.00  0.00     0.015 A 
ATOM      7  C7  IND d   1      -0.805  -2.858   2.795  0.00  0.00    -0.016 A 
ATOM      8  C8  IND d   1       0.393  -2.889   2.095  0.00  0.00    -0.047 A 
ATOM      9  C9  IND d   1       1.231  -1.770   2.009  0.00  0.00    -0.096 A 
ATOM     10  HN1 IND d   1       0.652  -4.684   1.239  0.00  0.00     0.298 HD
ENDROOT
TORSDOF 0
ENDMDL
