MODEL 1
REMARK minimizedAffinity 22.1584492
REMARK minimizedRMSD -1
REMARK  0 active torsions:
REMARK  status: ('A' for Active; 'I' for Inactive)
ROOT
ATOM      1  N1  IND d   1      -2.542   3.081  -3.247  0.00  0.00    -0.196 N 
ATOM      2  C2  IND d   1      -2.535   1.771  -2.857  0.00  0.00     0.054 A 
ATOM      3  C3  IND d   1      -3.542   1.096  -3.455  0.00  0.00    -0.031 A 
ATOM      4  C4  IND d   1      -5.260   1.920  -5.186  0.00  0.00     0.051 A 
ATOM      5  C5  IND d   1      -5.688   3.050  -5.826  0.00  0.00    -0.031 A 
ATOM      6  C6  IND d   1      -5.075   4.271  -5.637  0.00  0.00     0.015 A 
ATOM      7  C7  IND d   1      -3.999   4.407  -4.806  0.00  0.00    -0.016 A 
ATOM      8  C8  IND d   1      -3.566   3.264  -4.149  0.00  0.00    -0.047 A 
ATOM      9  C9  IND d   1      -4.211   2.030  -4.304  0.00  0.00    -0.096 A 
ATOM     10  HN1 IND d   1      -1.998   3.688  -2.974  0.00  0.00     0.298 HD
ENDROOT
TORSDOF 0
ENDMDL
