MODEL 1
REMARK minimizedAffinity 9.28277016
REMARK minimizedRMSD -1
REMARK  0 active torsions:
REMARK  status: ('A' for Active; 'I' for Inactive)
ROOT
ATOM      1  N1  IND d   1      -2.258   2.300   3.835  0.00  0.00    -0.196 N 
ATOM      2  C2  IND d   1      -2.781   1.753   4.974  0.00  0.00     0.054 A 
ATOM      3  C3  IND d   1      -2.710   2.635   5.996  0.00  0.00    -0.031 A 
ATOM      4  C4  IND d   1      -1.868   5.068   6.000  0.00  0.00     0.051 A 
ATOM      5  C5  IND d   1      -1.263   6.000   5.204  0.00  0.00    -0.031 A 
ATOM      6  C6  IND d   1      -0.954   5.742   3.884  0.00  0.00     0.015 A 
ATOM      7  C7  IND d   1      -1.252   4.541   3.305  0.00  0.00    -0.016 A 
ATOM      8  C8  IND d   1      -1.860   3.590   4.112  0.00  0.00    -0.047 A 
ATOM      9  C9  IND d   1      -2.137   3.831   5.464  0.00  0.00    -0.096 A 
ATOM     10  HN1 IND d   1      -2.190   1.905   3.075  0.00  0.00     0.298 HD
ENDROOT
TORSDOF 0
ENDMDL
