MODEL 1
REMARK minimizedAffinity 14.0349026
REMARK minimizedRMSD -1
REMARK  0 active torsions:
REMARK  status: ('A' for Active; 'I' for Inactive)
ROOT
ATOM      1  N1  IND d   1       1.442  -4.313  -1.336  0.00  0.00    -0.196 N 
ATOM      2  C2  IND d   1       2.623  -4.847  -0.899  0.00  0.00     0.054 A 
ATOM      3  C3  IND d   1       3.264  -3.972  -0.092  0.00  0.00    -0.031 A 
ATOM      4  C4  IND d   1       2.513  -1.652   0.731  0.00  0.00     0.051 A 
ATOM      5  C5  IND d   1       1.524  -0.721   0.574  0.00  0.00    -0.031 A 
ATOM      6  C6  IND d   1       0.434  -0.947  -0.241  0.00  0.00     0.015 A 
ATOM      7  C7  IND d   1       0.286  -2.120  -0.925  0.00  0.00    -0.016 A 
ATOM      8  C8  IND d   1       1.292  -3.064  -0.774  0.00  0.00    -0.047 A 
ATOM      9  C9  IND d   1       2.422  -2.824   0.019  0.00  0.00    -0.096 A 
ATOM     10  HN1 IND d   1       0.887  -4.693  -1.871  0.00  0.00     0.298 HD
ENDROOT
TORSDOF 0
ENDMDL
