MODEL 1
REMARK minimizedAffinity 6.008039
REMARK minimizedRMSD -1
REMARK  0 active torsions:
REMARK  status: ('A' for Active; 'I' for Inactive)
ROOT
ATOM      1  N1  IND d   1       1.933  -4.649   0.463  0.00  0.00    -0.196 N 
ATOM      2  C2  IND d   1       1.726  -3.371   0.902  0.00  0.00     0.054 A 
ATOM      3  C3  IND d   1       2.908  -2.755   1.128  0.00  0.00    -0.031 A 
ATOM      4  C4  IND d   1       5.303  -3.619   0.748  0.00  0.00     0.051 A 
ATOM      5  C5  IND d   1       6.000  -4.739   0.392  0.00  0.00    -0.031 A 
ATOM      6  C6  IND d   1       5.364  -5.910   0.031  0.00  0.00     0.015 A 
ATOM      7  C7  IND d   1       4.001  -6.000   0.002  0.00  0.00    -0.016 A 
ATOM      8  C8  IND d   1       3.290  -4.866   0.370  0.00  0.00    -0.047 A 
ATOM      9  C9  IND d   1       3.930  -3.689   0.778  0.00  0.00    -0.096 A 
ATOM     10  HN1 IND d   1       1.319  -5.221   0.276  0.00  0.00     0.298 HD
ENDROOT
TORSDOF 0
ENDMDL
