MODEL 1
REMARK minimizedAffinity 15.6682444
REMARK minimizedRMSD -1
REMARK  0 active torsions:
REMARK  status: ('A' for Active; 'I' for Inactive)
ROOT
ATOM      1  N1  IND d   1       5.836   0.546   0.286  0.00  0.00    -0.196 N 
ATOM      2  C2  IND d   1       5.716  -0.761   0.668  0.00  0.00     0.054 A 
ATOM      3  C3  IND d   1       5.661  -1.565  -0.417  0.00  0.00    -0.031 A 
ATOM      4  C4  IND d   1       5.855  -0.962  -2.912  0.00  0.00     0.051 A 
ATOM      5  C5  IND d   1       5.939   0.109  -3.758  0.00  0.00    -0.031 A 
ATOM      6  C6  IND d   1       5.997   1.405  -3.290  0.00  0.00     0.015 A 
ATOM      7  C7  IND d   1       5.985   1.681  -1.952  0.00  0.00    -0.016 A 
ATOM      8  C8  IND d   1       5.892   0.597  -1.090  0.00  0.00    -0.047 A 
ATOM      9  C9  IND d   1       5.790  -0.719  -1.560  0.00  0.00    -0.096 A 
ATOM     10  HN1 IND d   1       5.871   1.223   0.815  0.00  0.00     0.298 HD
ENDROOT
TORSDOF 0
ENDMDL
