MODEL 1
REMARK minimizedAffinity 3.95598578
REMARK minimizedRMSD -1
REMARK  0 active torsions:
REMARK  status: ('A' for Active; 'I' for Inactive)
ROOT
ATOM      1  N1  IND d   1       1.652  -3.941   1.311  0.00  0.00    -0.196 N 
ATOM      2  C2  IND d   1       2.917  -3.502   1.039  0.00  0.00     0.054 A 
ATOM      3  C3  IND d   1       3.068  -2.220   1.440  0.00  0.00    -0.031 A 
ATOM      4  C4  IND d   1       1.402  -0.682   2.659  0.00  0.00     0.051 A 
ATOM      5  C5  IND d   1       0.107  -0.625   3.092  0.00  0.00    -0.031 A 
ATOM      6  C6  IND d   1      -0.756  -1.693   2.953  0.00  0.00     0.015 A 
ATOM      7  C7  IND d   1      -0.351  -2.867   2.384  0.00  0.00    -0.016 A 
ATOM      8  C8  IND d   1       0.961  -2.926   1.937  0.00  0.00    -0.047 A 
ATOM      9  C9  IND d   1       1.829  -1.831   2.036  0.00  0.00    -0.096 A 
ATOM     10  HN1 IND d   1       1.339  -4.720   1.124  0.00  0.00     0.298 HD
ENDROOT
TORSDOF 0
ENDMDL
