MODEL 1
REMARK minimizedAffinity 14.3303032
REMARK minimizedRMSD -1
REMARK  2 active torsions:
REMARK  status: ('A' for Active; 'I' for Inactive)
REMARK    1  A    between atoms: C1_2  and  C2_3 
REMARK    2  A    between atoms: C2_3  and  C3_4 
ROOT
ATOM      1  C3  UNL d   1       0.049   4.334  -4.561  0.00  0.00    -0.075 A 
ATOM      2  C4  UNL d   1       0.758   3.131  -4.422  0.00  0.00     0.002 A 
ATOM      3  C5  UNL d   1       1.677   2.967  -3.386  0.00  0.00     0.002 A 
ATOM      4  C6  UNL d   1       1.908   4.003  -2.484  0.00  0.00    -0.004 A 
ATOM      5  C7  UNL d   1       1.222   5.208  -2.622  0.00  0.00     0.002 A 
ATOM      6  C8  UNL d   1       0.298   5.374  -3.655  0.00  0.00     0.002 A 
ENDROOT
BRANCH   1   7
ATOM      7  C2  UNL d   1      -0.969   4.508  -5.662  0.00  0.00     0.056 C 
BRANCH   7   8
ATOM      8  C1  UNL d   1      -1.503   5.937  -5.798  0.00  0.00     0.007 C 
ATOM      9  C   UNL d   1      -3.011   5.999  -6.000  0.00  0.00     0.009 C 
ENDBRANCH   7   8
ENDBRANCH   1   7
TORSDOF 2
ENDMDL
