MODEL 1
REMARK minimizedAffinity 12.0410051
REMARK minimizedRMSD -1
REMARK  2 active torsions:
REMARK  status: ('A' for Active; 'I' for Inactive)
REMARK    1  A    between atoms: C1_2  and  C2_3 
REMARK    2  A    between atoms: C2_3  and  C3_4 
ROOT
ATOM      1  C3  UNL d   1       3.866   3.305  -2.819  0.00  0.00    -0.075 A 
ATOM      2  C4  UNL d   1       2.784   3.543  -3.678  0.00  0.00     0.002 A 
ATOM      3  C5  UNL d   1       1.540   2.961  -3.429  0.00  0.00     0.002 A 
ATOM      4  C6  UNL d   1       1.366   2.128  -2.327  0.00  0.00    -0.004 A 
ATOM      5  C7  UNL d   1       2.439   1.871  -1.475  0.00  0.00     0.002 A 
ATOM      6  C8  UNL d   1       3.683   2.456  -1.719  0.00  0.00     0.002 A 
ENDROOT
BRANCH   1   7
ATOM      7  C2  UNL d   1       5.206   3.956  -3.066  0.00  0.00     0.056 C 
BRANCH   7   8
ATOM      8  C1  UNL d   1       5.867   4.521  -1.804  0.00  0.00     0.007 C 
ATOM      9  C   UNL d   1       5.534   5.986  -1.556  0.00  0.00     0.009 C 
ENDBRANCH   7   8
ENDBRANCH   1   7
TORSDOF 2
ENDMDL
