MODEL 1
REMARK minimizedAffinity 12.5705738
REMARK minimizedRMSD -1
REMARK  2 active torsions:
REMARK  status: ('A' for Active; 'I' for Inactive)
REMARK    1  A    between atoms: C1_2  and  C2_3 
REMARK    2  A    between atoms: C2_3  and  C3_4 
ROOT
ATOM      1  C3  UNL d   1       1.234   4.252  -3.219  0.00  0.00    -0.075 A 
ATOM      2  C4  UNL d   1       0.712   3.110  -2.595  0.00  0.00     0.002 A 
ATOM      3  C5  UNL d   1       1.564   2.118  -2.108  0.00  0.00     0.002 A 
ATOM      4  C6  UNL d   1       2.944   2.250  -2.247  0.00  0.00    -0.004 A 
ATOM      5  C7  UNL d   1       3.472   3.373  -2.880  0.00  0.00     0.002 A 
ATOM      6  C8  UNL d   1       2.623   4.369  -3.365  0.00  0.00     0.002 A 
ENDROOT
BRANCH   1   7
ATOM      7  C2  UNL d   1       0.319   5.343  -3.723  0.00  0.00     0.056 C 
BRANCH   7   8
ATOM      8  C1  UNL d   1      -0.793   4.845  -4.652  0.00  0.00     0.007 C 
ATOM      9  C   UNL d   1      -0.821   5.563  -5.994  0.00  0.00     0.009 C 
ENDBRANCH   7   8
ENDBRANCH   1   7
TORSDOF 2
ENDMDL
