MODEL 1
REMARK minimizedAffinity 11.0712233
REMARK minimizedRMSD -1
REMARK  2 active torsions:
REMARK  status: ('A' for Active; 'I' for Inactive)
REMARK    1  A    between atoms: C1_2  and  C2_3 
REMARK    2  A    between atoms: C2_3  and  C3_4 
ROOT
ATOM      1  C3  UNL d   1       0.604   3.420  -3.332  0.00  0.00    -0.075 A 
ATOM      2  C4  UNL d   1       1.888   3.580  -3.874  0.00  0.00     0.002 A 
ATOM      3  C5  UNL d   1       3.008   3.094  -3.198  0.00  0.00     0.002 A 
ATOM      4  C6  UNL d   1       2.860   2.452  -1.970  0.00  0.00    -0.004 A 
ATOM      5  C7  UNL d   1       1.591   2.302  -1.415  0.00  0.00     0.002 A 
ATOM      6  C8  UNL d   1       0.468   2.784  -2.091  0.00  0.00     0.002 A 
ENDROOT
BRANCH   1   7
ATOM      7  C2  UNL d   1      -0.614   3.917  -4.073  0.00  0.00     0.056 C 
BRANCH   7   8
ATOM      8  C1  UNL d   1      -0.312   4.999  -5.115  0.00  0.00     0.007 C 
ATOM      9  C   UNL d   1      -1.540   5.430  -5.906  0.00  0.00     0.009 C 
ENDBRANCH   7   8
ENDBRANCH   1   7
TORSDOF 2
ENDMDL
