MODEL 1
REMARK minimizedAffinity 15.0721951
REMARK minimizedRMSD -1
REMARK  2 active torsions:
REMARK  status: ('A' for Active; 'I' for Inactive)
REMARK    1  A    between atoms: C1_2  and  C2_3 
REMARK    2  A    between atoms: C2_3  and  C3_4 
ROOT
ATOM      1  C3  UNL d   1      -1.241  -1.265   1.967  0.00  0.00    -0.075 A 
ATOM      2  C4  UNL d   1      -0.158  -2.108   1.677  0.00  0.00     0.002 A 
ATOM      3  C5  UNL d   1      -0.362  -3.325   1.026  0.00  0.00     0.002 A 
ATOM      4  C6  UNL d   1      -1.649  -3.718   0.667  0.00  0.00    -0.004 A 
ATOM      5  C7  UNL d   1      -2.734  -2.897   0.965  0.00  0.00     0.002 A 
ATOM      6  C8  UNL d   1      -2.532  -1.676   1.612  0.00  0.00     0.002 A 
ENDROOT
BRANCH   1   7
ATOM      7  C2  UNL d   1      -1.023   0.067   2.646  0.00  0.00     0.056 C 
BRANCH   7   8
ATOM      8  C1  UNL d   1      -2.261   0.609   3.367  0.00  0.00     0.007 C 
ATOM      9  C   UNL d   1      -2.137   0.573   4.884  0.00  0.00     0.009 C 
ENDBRANCH   7   8
ENDBRANCH   1   7
TORSDOF 2
ENDMDL
