MODEL 1
REMARK minimizedAffinity 15.0503016
REMARK minimizedRMSD -1
REMARK  2 active torsions:
REMARK  status: ('A' for Active; 'I' for Inactive)
REMARK    1  A    between atoms: C1_2  and  C2_3 
REMARK    2  A    between atoms: C2_3  and  C3_4 
ROOT
ATOM      1  C3  UNL d   1       0.489   3.566  -3.258  0.00  0.00    -0.075 A 
ATOM      2  C4  UNL d   1       1.806   3.754  -3.703  0.00  0.00     0.002 A 
ATOM      3  C5  UNL d   1       2.860   3.057  -3.111  0.00  0.00     0.002 A 
ATOM      4  C6  UNL d   1       2.613   2.172  -2.064  0.00  0.00    -0.004 A 
ATOM      5  C7  UNL d   1       1.311   1.990  -1.603  0.00  0.00     0.002 A 
ATOM      6  C8  UNL d   1       0.254   2.683  -2.195  0.00  0.00     0.002 A 
ENDROOT
BRANCH   1   7
ATOM      7  C2  UNL d   1      -0.659   4.295  -3.913  0.00  0.00     0.056 C 
BRANCH   7   8
ATOM      8  C1  UNL d   1      -0.249   5.152  -5.115  0.00  0.00     0.007 C 
ATOM      9  C   UNL d   1      -1.425   5.553  -5.996  0.00  0.00     0.009 C 
ENDBRANCH   7   8
ENDBRANCH   1   7
TORSDOF 2
ENDMDL
