MODEL 1
REMARK minimizedAffinity 8.55278778
REMARK minimizedRMSD -1
REMARK  2 active torsions:
REMARK  status: ('A' for Active; 'I' for Inactive)
REMARK    1  A    between atoms: C1_2  and  C2_3 
REMARK    2  A    between atoms: C2_3  and  C3_4 
ROOT
ATOM      1  C3  UNL d   1       3.461   4.152  -2.882  0.00  0.00    -0.075 A 
ATOM      2  C4  UNL d   1       4.418   4.911  -2.193  0.00  0.00     0.002 A 
ATOM      3  C5  UNL d   1       5.677   5.137  -2.749  0.00  0.00     0.002 A 
ATOM      4  C6  UNL d   1       6.000   4.599  -3.993  0.00  0.00    -0.004 A 
ATOM      5  C7  UNL d   1       5.063   3.829  -4.679  0.00  0.00     0.002 A 
ATOM      6  C8  UNL d   1       3.800   3.606  -4.127  0.00  0.00     0.002 A 
ENDROOT
BRANCH   1   7
ATOM      7  C2  UNL d   1       2.086   3.929  -2.300  0.00  0.00     0.056 C 
BRANCH   7   8
ATOM      8  C1  UNL d   1       1.054   4.983  -2.716  0.00  0.00     0.007 C 
ATOM      9  C   UNL d   1       0.670   5.927  -1.584  0.00  0.00     0.009 C 
ENDBRANCH   7   8
ENDBRANCH   1   7
TORSDOF 2
ENDMDL
