MODEL 1
REMARK minimizedAffinity 4.47872114
REMARK minimizedRMSD -1
REMARK  2 active torsions:
REMARK  status: ('A' for Active; 'I' for Inactive)
REMARK    1  A    between atoms: C1_2  and  C2_3 
REMARK    2  A    between atoms: C2_3  and  C3_4 
ROOT
ATOM      1  C3  UNL d   1       4.748   1.804  -3.515  0.00  0.00    -0.075 A 
ATOM      2  C4  UNL d   1       4.770   0.407  -3.397  0.00  0.00     0.002 A 
ATOM      3  C5  UNL d   1       3.604  -0.297  -3.093  0.00  0.00     0.002 A 
ATOM      4  C6  UNL d   1       2.406   0.387  -2.894  0.00  0.00    -0.004 A 
ATOM      5  C7  UNL d   1       2.376   1.776  -2.993  0.00  0.00     0.002 A 
ATOM      6  C8  UNL d   1       3.540   2.482  -3.301  0.00  0.00     0.002 A 
ENDROOT
BRANCH   1   7
ATOM      7  C2  UNL d   1       6.000   2.569  -3.873  0.00  0.00     0.056 C 
BRANCH   7   8
ATOM      8  C1  UNL d   1       5.973   4.042  -3.451  0.00  0.00     0.007 C 
ATOM      9  C   UNL d   1       6.000   4.234  -1.941  0.00  0.00     0.009 C 
ENDBRANCH   7   8
ENDBRANCH   1   7
TORSDOF 2
ENDMDL
