MODEL 1
REMARK minimizedAffinity 10.6292496
REMARK minimizedRMSD -1
REMARK  2 active torsions:
REMARK  status: ('A' for Active; 'I' for Inactive)
REMARK    1  A    between atoms: C1_2  and  C2_3 
REMARK    2  A    between atoms: C2_3  and  C3_4 
ROOT
ATOM      1  C3  UNL d   1      -2.501  -4.656  -5.412  0.00  0.00    -0.075 A 
ATOM      2  C4  UNL d   1      -3.310  -3.511  -5.441  0.00  0.00     0.002 A 
ATOM      3  C5  UNL d   1      -4.672  -3.613  -5.726  0.00  0.00     0.002 A 
ATOM      4  C6  UNL d   1      -5.239  -4.857  -5.994  0.00  0.00    -0.004 A 
ATOM      5  C7  UNL d   1      -4.441  -5.999  -5.983  0.00  0.00     0.002 A 
ATOM      6  C8  UNL d   1      -3.079  -5.900  -5.695  0.00  0.00     0.002 A 
ENDROOT
BRANCH   1   7
ATOM      7  C2  UNL d   1      -1.032  -4.555  -5.076  0.00  0.00     0.056 C 
BRANCH   7   8
ATOM      8  C1  UNL d   1      -0.730  -3.677  -3.857  0.00  0.00     0.007 C 
ATOM      9  C   UNL d   1      -1.604  -4.001  -2.652  0.00  0.00     0.009 C 
ENDBRANCH   7   8
ENDBRANCH   1   7
TORSDOF 2
ENDMDL
