MODEL 1
REMARK minimizedAffinity 2.40608239
REMARK minimizedRMSD -1
REMARK  2 active torsions:
REMARK  status: ('A' for Active; 'I' for Inactive)
REMARK    1  A    between atoms: C1_2  and  C2_3 
REMARK    2  A    between atoms: C2_3  and  C3_4 
ROOT
ATOM      1  C3  UNL d   1       0.060  -2.317   0.983  0.00  0.00    -0.075 A 
ATOM      2  C4  UNL d   1      -1.273  -1.946   0.754  0.00  0.00     0.002 A 
ATOM      3  C5  UNL d   1      -1.903  -1.019   1.584  0.00  0.00     0.002 A 
ATOM      4  C6  UNL d   1      -1.213  -0.460   2.658  0.00  0.00    -0.004 A 
ATOM      5  C7  UNL d   1       0.106  -0.833   2.905  0.00  0.00     0.002 A 
ATOM      6  C8  UNL d   1       0.740  -1.757   2.073  0.00  0.00     0.002 A 
ENDROOT
BRANCH   1   7
ATOM      7  C2  UNL d   1       0.757  -3.297   0.070  0.00  0.00     0.056 C 
BRANCH   7   8
ATOM      8  C1  UNL d   1       2.210  -2.929  -0.248  0.00  0.00     0.007 C 
ATOM      9  C   UNL d   1       3.099  -4.142  -0.486  0.00  0.00     0.009 C 
ENDBRANCH   7   8
ENDBRANCH   1   7
TORSDOF 2
ENDMDL
