MODEL 1
REMARK minimizedAffinity -3.12171483
REMARK minimizedRMSD -1
REMARK  3 active torsions:
REMARK  status: ('A' for Active; 'I' for Inactive)
REMARK    1  A    between atoms: C3'_2  and  C2'_3 
REMARK    2  A    between atoms: C2'_3  and  C1'_4 
REMARK    3  A    between atoms: C1'_4  and  C1_5 
ROOT
ATOM      1  C1  N4B d   1      -1.512   2.112  -1.878  0.00  0.00    -0.075 A 
ATOM      2  C2  N4B d   1      -0.789   3.295  -2.147  0.00  0.00     0.002 A 
ATOM      3  C3  N4B d   1      -0.792   3.828  -3.413  0.00  0.00     0.002 A 
ATOM      4  C4  N4B d   1      -1.491   3.187  -4.425  0.00  0.00    -0.004 A 
ATOM      5  C5  N4B d   1      -2.207   2.059  -4.151  0.00  0.00     0.002 A 
ATOM      6  C6  N4B d   1      -2.217   1.515  -2.882  0.00  0.00     0.002 A 
ENDROOT
BRANCH   1   7
ATOM      7  C1' N4B d   1      -1.469   1.445  -0.530  0.00  0.00     0.057 C 
BRANCH   7   8
ATOM      8  C2' N4B d   1      -0.276   0.495  -0.480  0.00  0.00     0.009 C 
BRANCH   8   9
ATOM      9  C3' N4B d   1      -0.691  -0.919  -0.109  0.00  0.00     0.004 C 
ATOM     10  C4' N4B d   1      -0.333  -1.278   1.302  0.00  0.00     0.003 C 
ENDBRANCH   8   9
ENDBRANCH   7   8
ENDBRANCH   1   7
TORSDOF 3
ENDMDL
