MODEL 1
REMARK minimizedAffinity -2.73968863
REMARK minimizedRMSD -1
REMARK  3 active torsions:
REMARK  status: ('A' for Active; 'I' for Inactive)
REMARK    1  A    between atoms: C3'_2  and  C2'_3 
REMARK    2  A    between atoms: C2'_3  and  C1'_4 
REMARK    3  A    between atoms: C1'_4  and  C1_5 
ROOT
ATOM      1  C1  N4B d   1      -0.261  -0.165   0.040  0.00  0.00    -0.075 A 
ATOM      2  C2  N4B d   1      -0.817  -1.316   0.640  0.00  0.00     0.002 A 
ATOM      3  C3  N4B d   1       0.004  -2.312   1.109  0.00  0.00     0.002 A 
ATOM      4  C4  N4B d   1       1.379  -2.187   0.973  0.00  0.00    -0.004 A 
ATOM      5  C5  N4B d   1       1.910  -1.061   0.416  0.00  0.00     0.002 A 
ATOM      6  C6  N4B d   1       1.096  -0.051  -0.057  0.00  0.00     0.002 A 
ENDROOT
BRANCH   1   7
ATOM      7  C1' N4B d   1      -1.121   0.910  -0.565  0.00  0.00     0.057 C 
BRANCH   7   8
ATOM      8  C2' N4B d   1      -1.172   0.718  -2.078  0.00  0.00     0.009 C 
BRANCH   8   9
ATOM      9  C3' N4B d   1      -2.566   0.949  -2.634  0.00  0.00     0.004 C 
ATOM     10  C4' N4B d   1      -2.593   1.977  -3.726  0.00  0.00     0.003 C 
ENDBRANCH   8   9
ENDBRANCH   7   8
ENDBRANCH   1   7
TORSDOF 3
ENDMDL
