MODEL 1
REMARK minimizedAffinity -0.511207819
REMARK minimizedRMSD -1
REMARK  3 active torsions:
REMARK  status: ('A' for Active; 'I' for Inactive)
REMARK    1  A    between atoms: C3'_2  and  C2'_3 
REMARK    2  A    between atoms: C2'_3  and  C1'_4 
REMARK    3  A    between atoms: C1'_4  and  C1_5 
ROOT
ATOM      1  C1  N4B d   1      -0.252   1.906  -1.096  0.00  0.00    -0.075 A 
ATOM      2  C2  N4B d   1      -0.166   3.284  -0.799  0.00  0.00     0.002 A 
ATOM      3  C3  N4B d   1       1.002   3.808  -0.304  0.00  0.00     0.002 A 
ATOM      4  C4  N4B d   1       2.088   2.975  -0.081  0.00  0.00    -0.004 A 
ATOM      5  C5  N4B d   1       2.006   1.650  -0.395  0.00  0.00     0.002 A 
ATOM      6  C6  N4B d   1       0.839   1.109  -0.897  0.00  0.00     0.002 A 
ENDROOT
BRANCH   1   7
ATOM      7  C1' N4B d   1      -1.535   1.271  -1.558  0.00  0.00     0.057 C 
BRANCH   7   8
ATOM      8  C2' N4B d   1      -2.198   2.177  -2.591  0.00  0.00     0.009 C 
BRANCH   8   9
ATOM      9  C3' N4B d   1      -1.594   1.999  -3.974  0.00  0.00     0.004 C 
ATOM     10  C4' N4B d   1      -0.943   3.248  -4.488  0.00  0.00     0.003 C 
ENDBRANCH   8   9
ENDBRANCH   7   8
ENDBRANCH   1   7
TORSDOF 3
ENDMDL
