MODEL 1
REMARK minimizedAffinity -1.65930557
REMARK minimizedRMSD -1
REMARK  3 active torsions:
REMARK  status: ('A' for Active; 'I' for Inactive)
REMARK    1  A    between atoms: C3'_2  and  C2'_3 
REMARK    2  A    between atoms: C2'_3  and  C1'_4 
REMARK    3  A    between atoms: C1'_4  and  C1_5 
ROOT
ATOM      1  C1  N4B d   1      -1.312   1.643  -1.634  0.00  0.00    -0.075 A 
ATOM      2  C2  N4B d   1      -1.088   2.811  -2.396  0.00  0.00     0.002 A 
ATOM      3  C3  N4B d   1      -1.838   3.051  -3.521  0.00  0.00     0.002 A 
ATOM      4  C4  N4B d   1      -2.799   2.133  -3.914  0.00  0.00    -0.004 A 
ATOM      5  C5  N4B d   1      -3.027   1.019  -3.158  0.00  0.00     0.002 A 
ATOM      6  C6  N4B d   1      -2.284   0.767  -2.023  0.00  0.00     0.002 A 
ENDROOT
BRANCH   1   7
ATOM      7  C1' N4B d   1      -0.460   1.295  -0.445  0.00  0.00     0.057 C 
BRANCH   7   8
ATOM      8  C2' N4B d   1      -0.658  -0.178  -0.101  0.00  0.00     0.009 C 
BRANCH   8   9
ATOM      9  C3' N4B d   1       0.660  -0.933  -0.058  0.00  0.00     0.004 C 
ATOM     10  C4' N4B d   1       0.491  -2.373   0.326  0.00  0.00     0.003 C 
ENDBRANCH   8   9
ENDBRANCH   7   8
ENDBRANCH   1   7
TORSDOF 3
ENDMDL
