MODEL 1
REMARK minimizedAffinity -3.29027414
REMARK minimizedRMSD -1
REMARK  3 active torsions:
REMARK  status: ('A' for Active; 'I' for Inactive)
REMARK    1  A    between atoms: C3'_2  and  C2'_3 
REMARK    2  A    between atoms: C2'_3  and  C1'_4 
REMARK    3  A    between atoms: C1'_4  and  C1_5 
ROOT
ATOM      1  C1  N4B d   1      -0.542   0.185  -0.140  0.00  0.00    -0.075 A 
ATOM      2  C2  N4B d   1      -1.231  -0.118   1.054  0.00  0.00     0.002 A 
ATOM      3  C3  N4B d   1      -0.753  -1.094   1.894  0.00  0.00     0.002 A 
ATOM      4  C4  N4B d   1       0.397  -1.790   1.553  0.00  0.00    -0.004 A 
ATOM      5  C5  N4B d   1       1.071  -1.473   0.410  0.00  0.00     0.002 A 
ATOM      6  C6  N4B d   1       0.604  -0.492  -0.442  0.00  0.00     0.002 A 
ENDROOT
BRANCH   1   7
ATOM      7  C1' N4B d   1      -1.073   1.184  -1.132  0.00  0.00     0.057 C 
BRANCH   7   8
ATOM      8  C2' N4B d   1      -1.813   0.443  -2.242  0.00  0.00     0.009 C 
BRANCH   8   9
ATOM      9  C3' N4B d   1      -2.856   1.320  -2.912  0.00  0.00     0.004 C 
ATOM     10  C4' N4B d   1      -2.253   2.472  -3.659  0.00  0.00     0.003 C 
ENDBRANCH   8   9
ENDBRANCH   7   8
ENDBRANCH   1   7
TORSDOF 3
ENDMDL
