MODEL 1
REMARK minimizedAffinity -3.76895213
REMARK minimizedRMSD -1
REMARK  3 active torsions:
REMARK  status: ('A' for Active; 'I' for Inactive)
REMARK    1  A    between atoms: C3'_2  and  C2'_3 
REMARK    2  A    between atoms: C2'_3  and  C1'_4 
REMARK    3  A    between atoms: C1'_4  and  C1_5 
ROOT
ATOM      1  C1  N4B d   1       1.466  -0.052   0.130  0.00  0.00    -0.075 A 
ATOM      2  C2  N4B d   1       0.269  -0.296  -0.578  0.00  0.00     0.002 A 
ATOM      3  C3  N4B d   1      -0.372  -1.503  -0.447  0.00  0.00     0.002 A 
ATOM      4  C4  N4B d   1       0.173  -2.484   0.368  0.00  0.00    -0.004 A 
ATOM      5  C5  N4B d   1       1.316  -2.232   1.067  0.00  0.00     0.002 A 
ATOM      6  C6  N4B d   1       1.969  -1.021   0.948  0.00  0.00     0.002 A 
ENDROOT
BRANCH   1   7
ATOM      7  C1' N4B d   1       2.249   1.220  -0.048  0.00  0.00     0.057 C 
BRANCH   7   8
ATOM      8  C2' N4B d   1       1.343   2.411   0.249  0.00  0.00     0.009 C 
BRANCH   8   9
ATOM      9  C3' N4B d   1       2.138   3.665   0.569  0.00  0.00     0.004 C 
ATOM     10  C4' N4B d   1       3.479   3.690  -0.102  0.00  0.00     0.003 C 
ENDBRANCH   8   9
ENDBRANCH   7   8
ENDBRANCH   1   7
TORSDOF 3
ENDMDL
