MODEL 1
REMARK minimizedAffinity -4.71887684
REMARK minimizedRMSD -1
REMARK  3 active torsions:
REMARK  status: ('A' for Active; 'I' for Inactive)
REMARK    1  A    between atoms: C3'_2  and  C2'_3 
REMARK    2  A    between atoms: C2'_3  and  C1'_4 
REMARK    3  A    between atoms: C1'_4  and  C1_5 
ROOT
ATOM      1  C1  N4B d   1       1.584  -0.330  -0.026  0.00  0.00    -0.075 A 
ATOM      2  C2  N4B d   1       2.412  -1.215   0.700  0.00  0.00     0.002 A 
ATOM      3  C3  N4B d   1       1.863  -2.298   1.342  0.00  0.00     0.002 A 
ATOM      4  C4  N4B d   1       0.493  -2.504   1.288  0.00  0.00    -0.004 A 
ATOM      5  C5  N4B d   1      -0.297  -1.659   0.564  0.00  0.00     0.002 A 
ATOM      6  C6  N4B d   1       0.242  -0.569  -0.089  0.00  0.00     0.002 A 
ENDROOT
BRANCH   1   7
ATOM      7  C1' N4B d   1       2.127   0.915  -0.672  0.00  0.00     0.057 C 
BRANCH   7   8
ATOM      8  C2' N4B d   1       1.189   2.082  -0.379  0.00  0.00     0.009 C 
BRANCH   8   9
ATOM      9  C3' N4B d   1       1.948   3.337   0.013  0.00  0.00     0.004 C 
ATOM     10  C4' N4B d   1       3.427   3.214  -0.205  0.00  0.00     0.003 C 
ENDBRANCH   8   9
ENDBRANCH   7   8
ENDBRANCH   1   7
TORSDOF 3
ENDMDL
