MODEL 1
REMARK minimizedAffinity -2.78880405
REMARK minimizedRMSD -1
REMARK  3 active torsions:
REMARK  status: ('A' for Active; 'I' for Inactive)
REMARK    1  A    between atoms: C3'_2  and  C2'_3 
REMARK    2  A    between atoms: C2'_3  and  C1'_4 
REMARK    3  A    between atoms: C1'_4  and  C1_5 
ROOT
ATOM      1  C1  N4B d   1      -2.103   0.608  -2.383  0.00  0.00    -0.075 A 
ATOM      2  C2  N4B d   1      -3.176   1.410  -1.934  0.00  0.00     0.002 A 
ATOM      3  C3  N4B d   1      -3.604   2.470  -2.694  0.00  0.00     0.002 A 
ATOM      4  C4  N4B d   1      -2.967   2.758  -3.892  0.00  0.00    -0.004 A 
ATOM      5  C5  N4B d   1      -1.949   1.963  -4.331  0.00  0.00     0.002 A 
ATOM      6  C6  N4B d   1      -1.510   0.891  -3.579  0.00  0.00     0.002 A 
ENDROOT
BRANCH   1   7
ATOM      7  C1' N4B d   1      -1.543  -0.510  -1.546  0.00  0.00     0.057 C 
BRANCH   7   8
ATOM      8  C2' N4B d   1      -0.377   0.021  -0.718  0.00  0.00     0.009 C 
BRANCH   8   9
ATOM      9  C3' N4B d   1      -0.438  -0.460   0.722  0.00  0.00     0.004 C 
ATOM     10  C4' N4B d   1       0.577  -1.522   1.023  0.00  0.00     0.003 C 
ENDBRANCH   8   9
ENDBRANCH   7   8
ENDBRANCH   1   7
TORSDOF 3
ENDMDL
