MODEL 1
REMARK minimizedAffinity -5.5508914
REMARK minimizedRMSD -1
REMARK  3 active torsions:
REMARK  status: ('A' for Active; 'I' for Inactive)
REMARK    1  A    between atoms: C3'_2  and  C2'_3 
REMARK    2  A    between atoms: C2'_3  and  C1'_4 
REMARK    3  A    between atoms: C1'_4  and  C1_5 
ROOT
ATOM      1  C1  N4B d   1       1.522   1.156  -0.304  0.00  0.00    -0.075 A 
ATOM      2  C2  N4B d   1       0.222   1.699  -0.213  0.00  0.00     0.002 A 
ATOM      3  C3  N4B d   1       0.050   3.011   0.156  0.00  0.00     0.002 A 
ATOM      4  C4  N4B d   1       1.158   3.790   0.456  0.00  0.00    -0.004 A 
ATOM      5  C5  N4B d   1       2.412   3.265   0.341  0.00  0.00     0.002 A 
ATOM      6  C6  N4B d   1       2.599   1.949  -0.033  0.00  0.00     0.002 A 
ENDROOT
BRANCH   1   7
ATOM      7  C1' N4B d   1       1.756  -0.296  -0.620  0.00  0.00     0.057 C 
BRANCH   7   8
ATOM      8  C2' N4B d   1       0.676  -1.136   0.056  0.00  0.00     0.009 C 
BRANCH   8   9
ATOM      9  C3' N4B d   1       1.069  -2.600   0.147  0.00  0.00     0.004 C 
ATOM     10  C4' N4B d   1       2.294  -2.822   0.985  0.00  0.00     0.003 C 
ENDBRANCH   8   9
ENDBRANCH   7   8
ENDBRANCH   1   7
TORSDOF 3
ENDMDL
