MODEL 1
REMARK minimizedAffinity 4.04243755
REMARK minimizedRMSD -1
REMARK  0 active torsions:
REMARK  status: ('A' for Active; 'I' for Inactive)
ROOT
ATOM      1  C1  DEN d   1       4.448   4.483   0.515  0.00  0.00     0.130 A 
ATOM      2  C2  DEN d   1       5.622   3.991   1.230  0.00  0.00    -0.031 A 
ATOM      3  C3  DEN d   1       5.243   2.750   1.933  0.00  0.00     0.027 A 
ATOM      4  C4  DEN d   1       2.963   1.544   1.980  0.00  0.00     0.027 A 
ATOM      5  C5  DEN d   1       1.661   1.588   1.534  0.00  0.00    -0.003 A 
ATOM      6  C6  DEN d   1       1.191   2.609   0.752  0.00  0.00     0.001 A 
ATOM      7  C7  DEN d   1       2.042   3.606   0.354  0.00  0.00     0.017 A 
ATOM      8  C8  DEN d   1       3.355   3.572   0.805  0.00  0.00    -0.094 A 
ATOM      9  C9  DEN d   1       3.814   2.525   1.585  0.00  0.00    -0.072 A 
ENDROOT
TORSDOF 0
ENDMDL
