MODEL 1
REMARK minimizedAffinity -1.39966953
REMARK minimizedRMSD -1
REMARK  0 active torsions:
REMARK  status: ('A' for Active; 'I' for Inactive)
ROOT
ATOM      1  C1  DEN d   1       2.384  -5.792  -5.993  0.00  0.00     0.130 A 
ATOM      2  C2  DEN d   1       1.427  -5.999  -4.910  0.00  0.00    -0.031 A 
ATOM      3  C3  DEN d   1       2.150  -5.857  -3.630  0.00  0.00     0.027 A 
ATOM      4  C4  DEN d   1       4.643  -5.334  -3.223  0.00  0.00     0.027 A 
ATOM      5  C5  DEN d   1       5.852  -5.089  -3.834  0.00  0.00    -0.003 A 
ATOM      6  C6  DEN d   1       5.997  -5.094  -5.196  0.00  0.00     0.001 A 
ATOM      7  C7  DEN d   1       4.903  -5.306  -5.994  0.00  0.00     0.017 A 
ATOM      8  C8  DEN d   1       3.682  -5.561  -5.385  0.00  0.00    -0.094 A 
ATOM      9  C9  DEN d   1       3.554  -5.539  -4.006  0.00  0.00    -0.072 A 
ENDROOT
TORSDOF 0
ENDMDL
