MODEL 1
REMARK minimizedAffinity 3.58910799
REMARK minimizedRMSD -1
REMARK  0 active torsions:
REMARK  status: ('A' for Active; 'I' for Inactive)
ROOT
ATOM      1  C1  DEN d   1       2.178  -5.140  -3.802  0.00  0.00     0.130 A 
ATOM      2  C2  DEN d   1       1.590  -5.855  -4.931  0.00  0.00    -0.031 A 
ATOM      3  C3  DEN d   1       2.611  -5.948  -5.994  0.00  0.00     0.027 A 
ATOM      4  C4  DEN d   1       5.034  -5.061  -5.999  0.00  0.00     0.027 A 
ATOM      5  C5  DEN d   1       5.980  -4.377  -5.268  0.00  0.00    -0.003 A 
ATOM      6  C6  DEN d   1       5.716  -3.873  -4.022  0.00  0.00     0.001 A 
ATOM      7  C7  DEN d   1       4.490  -4.086  -3.449  0.00  0.00     0.017 A 
ATOM      8  C8  DEN d   1       3.529  -4.769  -4.182  0.00  0.00    -0.094 A 
ATOM      9  C9  DEN d   1       3.818  -5.281  -5.436  0.00  0.00    -0.072 A 
ENDROOT
TORSDOF 0
ENDMDL
