MODEL 1
REMARK minimizedAffinity 19.9247036
REMARK minimizedRMSD -1
REMARK  0 active torsions:
REMARK  status: ('A' for Active; 'I' for Inactive)
ROOT
ATOM      1  C1  DEN d   1      -1.392  -2.960   2.017  0.00  0.00     0.130 A 
ATOM      2  C2  DEN d   1      -1.586  -1.514   1.945  0.00  0.00    -0.031 A 
ATOM      3  C3  DEN d   1      -1.785  -1.150   0.528  0.00  0.00     0.027 A 
ATOM      4  C4  DEN d   1      -1.815  -2.677  -1.550  0.00  0.00     0.027 A 
ATOM      5  C5  DEN d   1      -1.684  -3.975  -1.992  0.00  0.00    -0.003 A 
ATOM      6  C6  DEN d   1      -1.415  -5.013  -1.139  0.00  0.00     0.001 A 
ATOM      7  C7  DEN d   1      -1.312  -4.776   0.207  0.00  0.00     0.017 A 
ATOM      8  C8  DEN d   1      -1.436  -3.469   0.658  0.00  0.00    -0.094 A 
ATOM      9  C9  DEN d   1      -1.721  -2.436  -0.218  0.00  0.00    -0.072 A 
ENDROOT
TORSDOF 0
ENDMDL
