MODEL 1
REMARK minimizedAffinity 18.2210445
REMARK minimizedRMSD -1
REMARK  0 active torsions:
REMARK  status: ('A' for Active; 'I' for Inactive)
ROOT
ATOM      1  C1  DEN d   1       2.634   1.605   2.435  0.00  0.00     0.130 A 
ATOM      2  C2  DEN d   1       2.133   1.872   3.781  0.00  0.00    -0.031 A 
ATOM      3  C3  DEN d   1       0.724   2.298   3.667  0.00  0.00     0.027 A 
ATOM      4  C4  DEN d   1      -0.725   2.563   1.549  0.00  0.00     0.027 A 
ATOM      5  C5  DEN d   1      -0.734   2.463   0.175  0.00  0.00    -0.003 A 
ATOM      6  C6  DEN d   1       0.380   2.106  -0.538  0.00  0.00     0.001 A 
ATOM      7  C7  DEN d   1       1.538   1.792   0.123  0.00  0.00     0.017 A 
ATOM      8  C8  DEN d   1       1.556   1.898   1.508  0.00  0.00    -0.094 A 
ATOM      9  C9  DEN d   1       0.417   2.249   2.212  0.00  0.00    -0.072 A 
ENDROOT
TORSDOF 0
ENDMDL
