MODEL 1
REMARK minimizedAffinity 18.3868999
REMARK minimizedRMSD -1
REMARK  0 active torsions:
REMARK  status: ('A' for Active; 'I' for Inactive)
ROOT
ATOM      1  C1  DEN d   1       5.246  -2.920  -4.525  0.00  0.00     0.130 A 
ATOM      2  C2  DEN d   1       5.194  -2.621  -3.097  0.00  0.00    -0.031 A 
ATOM      3  C3  DEN d   1       4.140  -3.461  -2.493  0.00  0.00     0.027 A 
ATOM      4  C4  DEN d   1       2.597  -5.191  -3.623  0.00  0.00     0.027 A 
ATOM      5  C5  DEN d   1       2.262  -5.783  -4.821  0.00  0.00    -0.003 A 
ATOM      6  C6  DEN d   1       2.869  -5.440  -6.000  0.00  0.00     0.001 A 
ATOM      7  C7  DEN d   1       3.876  -4.512  -6.000  0.00  0.00     0.017 A 
ATOM      8  C8  DEN d   1       4.215  -3.905  -4.797  0.00  0.00    -0.094 A 
ATOM      9  C9  DEN d   1       3.597  -4.274  -3.614  0.00  0.00    -0.072 A 
ENDROOT
TORSDOF 0
ENDMDL
