MODEL 1
REMARK minimizedAffinity 12.8366699
REMARK minimizedRMSD -1
REMARK  0 active torsions:
REMARK  status: ('A' for Active; 'I' for Inactive)
ROOT
ATOM      1  C1  DEN d   1       3.388   2.222   2.593  0.00  0.00     0.130 A 
ATOM      2  C2  DEN d   1       2.661   1.578   1.502  0.00  0.00    -0.031 A 
ATOM      3  C3  DEN d   1       2.510   2.562   0.411  0.00  0.00     0.027 A 
ATOM      4  C4  DEN d   1       3.332   5.005   0.304  0.00  0.00     0.027 A 
ATOM      5  C5  DEN d   1       3.988   6.000   0.995  0.00  0.00    -0.003 A 
ATOM      6  C6  DEN d   1       4.456   5.818   2.269  0.00  0.00     0.001 A 
ATOM      7  C7  DEN d   1       4.314   4.598   2.876  0.00  0.00     0.017 A 
ATOM      8  C8  DEN d   1       3.648   3.592   2.189  0.00  0.00    -0.094 A 
ATOM      9  C9  DEN d   1       3.193   3.792   0.897  0.00  0.00    -0.072 A 
ENDROOT
TORSDOF 0
ENDMDL
