MODEL 1
REMARK minimizedAffinity 10.1387749
REMARK minimizedRMSD -1
REMARK  0 active torsions:
REMARK  status: ('A' for Active; 'I' for Inactive)
ROOT
ATOM      1  C1  DEN d   1       3.957  -4.609  -2.259  0.00  0.00     0.130 A 
ATOM      2  C2  DEN d   1       2.977  -5.254  -1.389  0.00  0.00    -0.031 A 
ATOM      3  C3  DEN d   1       1.970  -5.913  -2.245  0.00  0.00     0.027 A 
ATOM      4  C4  DEN d   1       1.835  -5.999  -4.819  0.00  0.00     0.027 A 
ATOM      5  C5  DEN d   1       2.435  -5.589  -5.989  0.00  0.00    -0.003 A 
ATOM      6  C6  DEN d   1       3.556  -4.801  -5.997  0.00  0.00     0.001 A 
ATOM      7  C7  DEN d   1       4.138  -4.436  -4.812  0.00  0.00     0.017 A 
ATOM      8  C8  DEN d   1       3.535  -4.840  -3.628  0.00  0.00    -0.094 A 
ATOM      9  C9  DEN d   1       2.409  -5.646  -3.641  0.00  0.00    -0.072 A 
ENDROOT
TORSDOF 0
ENDMDL
