MODEL 1
REMARK minimizedAffinity 6.87396097
REMARK minimizedRMSD -1
REMARK  0 active torsions:
REMARK  status: ('A' for Active; 'I' for Inactive)
ROOT
ATOM      1  C1  DEN d   1      -2.425   6.000  -4.948  0.00  0.00     0.130 A 
ATOM      2  C2  DEN d   1      -1.490   5.609  -3.897  0.00  0.00    -0.031 A 
ATOM      3  C3  DEN d   1      -1.849   4.248  -3.450  0.00  0.00     0.027 A 
ATOM      4  C4  DEN d   1      -3.749   2.715  -4.282  0.00  0.00     0.027 A 
ATOM      5  C5  DEN d   1      -4.810   2.615  -5.154  0.00  0.00    -0.003 A 
ATOM      6  C6  DEN d   1      -5.169   3.641  -5.988  0.00  0.00     0.001 A 
ATOM      7  C7  DEN d   1      -4.433   4.796  -5.999  0.00  0.00     0.017 A 
ATOM      8  C8  DEN d   1      -3.365   4.906  -5.118  0.00  0.00    -0.094 A 
ATOM      9  C9  DEN d   1      -3.010   3.853  -4.292  0.00  0.00    -0.072 A 
ENDROOT
TORSDOF 0
ENDMDL
