MODEL 1
REMARK minimizedAffinity -1.77588332
REMARK minimizedRMSD -1
REMARK  0 active torsions:
REMARK  status: ('A' for Active; 'I' for Inactive)
ROOT
ATOM      1  C1  DEN d   1       5.978  -5.596  -4.632  0.00  0.00     0.130 A 
ATOM      2  C2  DEN d   1       5.552  -5.949  -5.984  0.00  0.00    -0.031 A 
ATOM      3  C3  DEN d   1       4.077  -6.000  -5.999  0.00  0.00     0.027 A 
ATOM      4  C4  DEN d   1       2.418  -5.564  -4.072  0.00  0.00     0.027 A 
ATOM      5  C5  DEN d   1       2.308  -5.243  -2.737  0.00  0.00    -0.003 A 
ATOM      6  C6  DEN d   1       3.405  -5.053  -1.938  0.00  0.00     0.001 A 
ATOM      7  C7  DEN d   1       4.661  -5.137  -2.479  0.00  0.00     0.017 A 
ATOM      8  C8  DEN d   1       4.780  -5.467  -3.823  0.00  0.00    -0.094 A 
ATOM      9  C9  DEN d   1       3.659  -5.644  -4.616  0.00  0.00    -0.072 A 
ENDROOT
TORSDOF 0
ENDMDL
