MODEL 1
REMARK minimizedAffinity 13.7375565
REMARK minimizedRMSD -1
REMARK  0 active torsions:
REMARK  status: ('A' for Active; 'I' for Inactive)
ROOT
ATOM      1  C1  DEN d   1      -4.576   4.315  -5.999  0.00  0.00     0.130 A 
ATOM      2  C2  DEN d   1      -5.972   3.946  -5.778  0.00  0.00    -0.031 A 
ATOM      3  C3  DEN d   1      -5.997   2.778  -4.875  0.00  0.00     0.027 A 
ATOM      4  C4  DEN d   1      -4.022   1.514  -3.801  0.00  0.00     0.027 A 
ATOM      5  C5  DEN d   1      -2.650   1.451  -3.704  0.00  0.00    -0.003 A 
ATOM      6  C6  DEN d   1      -1.829   2.309  -4.385  0.00  0.00     0.001 A 
ATOM      7  C7  DEN d   1      -2.375   3.298  -5.161  0.00  0.00     0.017 A 
ATOM      8  C8  DEN d   1      -3.758   3.363  -5.270  0.00  0.00    -0.094 A 
ATOM      9  C9  DEN d   1      -4.571   2.494  -4.563  0.00  0.00    -0.072 A 
ENDROOT
TORSDOF 0
ENDMDL
