MODEL 1
REMARK minimizedAffinity 8.28101158
REMARK minimizedRMSD -1
REMARK  0 active torsions:
REMARK  status: ('A' for Active; 'I' for Inactive)
ROOT
ATOM      1  C1  DEN d   1      -2.038  -6.000   0.768  0.00  0.00     0.130 A 
ATOM      2  C2  DEN d   1      -1.970  -5.125  -0.400  0.00  0.00    -0.031 A 
ATOM      3  C3  DEN d   1      -0.928  -4.110  -0.150  0.00  0.00     0.027 A 
ATOM      4  C4  DEN d   1       0.583  -3.811   1.919  0.00  0.00     0.027 A 
ATOM      5  C5  DEN d   1       0.884  -4.303   3.169  0.00  0.00    -0.003 A 
ATOM      6  C6  DEN d   1       0.215  -5.365   3.716  0.00  0.00     0.001 A 
ATOM      7  C7  DEN d   1      -0.760  -5.999   2.992  0.00  0.00     0.017 A 
ATOM      8  C8  DEN d   1      -1.075  -5.504   1.734  0.00  0.00    -0.094 A 
ATOM      9  C9  DEN d   1      -0.378  -4.436   1.193  0.00  0.00    -0.072 A 
ENDROOT
TORSDOF 0
ENDMDL
