MODEL 1
REMARK minimizedAffinity 12.3467646
REMARK minimizedRMSD -1
REMARK  0 active torsions:
REMARK  status: ('A' for Active; 'I' for Inactive)
ROOT
ATOM      1  C1  DEN d   1       1.826   1.824   1.934  0.00  0.00     0.130 A 
ATOM      2  C2  DEN d   1       3.098   2.158   1.299  0.00  0.00    -0.031 A 
ATOM      3  C3  DEN d   1       2.810   2.963   0.095  0.00  0.00     0.027 A 
ATOM      4  C4  DEN d   1       0.530   3.724  -0.841  0.00  0.00     0.027 A 
ATOM      5  C5  DEN d   1      -0.834   3.674  -0.652  0.00  0.00    -0.003 A 
ATOM      6  C6  DEN d   1      -1.403   2.981   0.383  0.00  0.00     0.001 A 
ATOM      7  C7  DEN d   1      -0.604   2.347   1.297  0.00  0.00     0.017 A 
ATOM      8  C8  DEN d   1       0.772   2.387   1.109  0.00  0.00    -0.094 A 
ATOM      9  C9  DEN d   1       1.329   3.103   0.063  0.00  0.00    -0.072 A 
ENDROOT
TORSDOF 0
ENDMDL
