MODEL 1
REMARK minimizedAffinity 4.10773849
REMARK minimizedRMSD -1
REMARK  0 active torsions:
REMARK  status: ('A' for Active; 'I' for Inactive)
ROOT
ATOM      1  C1  DEN d   1       1.609   1.054  -3.050  0.00  0.00     0.130 A 
ATOM      2  C2  DEN d   1       1.611  -0.366  -3.392  0.00  0.00    -0.031 A 
ATOM      3  C3  DEN d   1       2.069  -1.120  -2.207  0.00  0.00     0.027 A 
ATOM      4  C4  DEN d   1       2.766  -0.231   0.112  0.00  0.00     0.027 A 
ATOM      5  C5  DEN d   1       2.939   0.903   0.874  0.00  0.00    -0.003 A 
ATOM      6  C6  DEN d   1       2.716   2.159   0.375  0.00  0.00     0.001 A 
ATOM      7  C7  DEN d   1       2.263   2.309  -0.910  0.00  0.00     0.017 A 
ATOM      8  C8  DEN d   1       2.093   1.170  -1.686  0.00  0.00    -0.094 A 
ATOM      9  C9  DEN d   1       2.312  -0.092  -1.160  0.00  0.00    -0.072 A 
ENDROOT
TORSDOF 0
ENDMDL
