MODEL 1
REMARK minimizedAffinity 3.68147779
REMARK minimizedRMSD -1
REMARK  0 active torsions:
REMARK  status: ('A' for Active; 'I' for Inactive)
ROOT
ATOM      1  C   UNL d   1      -0.751   3.187   4.149  0.00  0.00     0.172 C 
ATOM      2  N   UNL d   1      -1.004   3.343   2.736  0.00  0.00    -0.070 N 
ATOM      3  C1  UNL d   1      -0.084   3.728   1.798  0.00  0.00    -0.004 A 
ATOM      4  C2  UNL d   1      -0.715   3.756   0.573  0.00  0.00    -0.047 A 
ATOM      5  C3  UNL d   1      -2.063   3.377   0.783  0.00  0.00    -0.047 A 
ATOM      6  C4  UNL d   1      -2.214   3.127   2.130  0.00  0.00    -0.004 A 
ENDROOT
TORSDOF 0
ENDMDL
