MODEL 1
REMARK minimizedAffinity 6.04283667
REMARK minimizedRMSD -1
REMARK  0 active torsions:
REMARK  status: ('A' for Active; 'I' for Inactive)
ROOT
ATOM      1  C   UNL d   1       2.772   0.251  -0.822  0.00  0.00     0.172 C 
ATOM      2  N   UNL d   1       3.950   1.040  -1.097  0.00  0.00    -0.070 N 
ATOM      3  C1  UNL d   1       4.443   1.332  -2.340  0.00  0.00    -0.004 A 
ATOM      4  C2  UNL d   1       5.573   2.104  -2.176  0.00  0.00    -0.047 A 
ATOM      5  C3  UNL d   1       5.766   2.282  -0.786  0.00  0.00    -0.047 A 
ATOM      6  C4  UNL d   1       4.747   1.613  -0.141  0.00  0.00    -0.004 A 
ENDROOT
TORSDOF 0
ENDMDL
