MODEL 1
REMARK minimizedAffinity -1.01139688
REMARK minimizedRMSD -1
REMARK  0 active torsions:
REMARK  status: ('A' for Active; 'I' for Inactive)
ROOT
ATOM      1  C   UNL d   1      -0.382  -1.411  -0.875  0.00  0.00     0.172 C 
ATOM      2  N   UNL d   1       0.708  -0.481  -0.693  0.00  0.00    -0.070 N 
ATOM      3  C1  UNL d   1       0.580   0.852  -0.404  0.00  0.00    -0.004 A 
ATOM      4  C2  UNL d   1       1.847   1.386  -0.310  0.00  0.00    -0.047 A 
ATOM      5  C3  UNL d   1       2.768   0.339  -0.552  0.00  0.00    -0.047 A 
ATOM      6  C4  UNL d   1       2.035  -0.806  -0.786  0.00  0.00    -0.004 A 
ENDROOT
TORSDOF 0
ENDMDL
