MODEL 1
REMARK minimizedAffinity 1.63522482
REMARK minimizedRMSD -1
REMARK  0 active torsions:
REMARK  status: ('A' for Active; 'I' for Inactive)
ROOT
ATOM      1  C   UNL d   1       3.961   3.022   5.998  0.00  0.00     0.172 C 
ATOM      2  N   UNL d   1       4.641   4.135   5.377  0.00  0.00    -0.070 N 
ATOM      3  C1  UNL d   1       4.465   4.558   4.087  0.00  0.00    -0.004 A 
ATOM      4  C2  UNL d   1       5.291   5.641   3.881  0.00  0.00    -0.047 A 
ATOM      5  C3  UNL d   1       5.988   5.877   5.090  0.00  0.00    -0.047 A 
ATOM      6  C4  UNL d   1       5.567   4.930   5.999  0.00  0.00    -0.004 A 
ENDROOT
TORSDOF 0
ENDMDL
