MODEL 1
REMARK minimizedAffinity -1.01667845
REMARK minimizedRMSD -1
REMARK  0 active torsions:
REMARK  status: ('A' for Active; 'I' for Inactive)
ROOT
ATOM      1  C   UNL d   1      -0.456  -0.600  -1.498  0.00  0.00     0.172 C 
ATOM      2  N   UNL d   1       0.101   0.518  -0.772  0.00  0.00    -0.070 N 
ATOM      3  C1  UNL d   1       1.131   0.452   0.128  0.00  0.00    -0.004 A 
ATOM      4  C2  UNL d   1       1.363   1.726   0.598  0.00  0.00    -0.047 A 
ATOM      5  C3  UNL d   1       0.440   2.588  -0.042  0.00  0.00    -0.047 A 
ATOM      6  C4  UNL d   1      -0.329   1.814  -0.884  0.00  0.00    -0.004 A 
ENDROOT
TORSDOF 0
ENDMDL
