MODEL 1
REMARK minimizedAffinity 4.76122093
REMARK minimizedRMSD -1
REMARK  0 active torsions:
REMARK  status: ('A' for Active; 'I' for Inactive)
ROOT
ATOM      1  C   UNL d   1       5.978   5.781   5.833  0.00  0.00     0.172 C 
ATOM      2  N   UNL d   1       5.032   4.838   5.286  0.00  0.00    -0.070 N 
ATOM      3  C1  UNL d   1       4.083   4.154   5.998  0.00  0.00    -0.004 A 
ATOM      4  C2  UNL d   1       3.385   3.358   5.115  0.00  0.00    -0.047 A 
ATOM      5  C3  UNL d   1       3.934   3.571   3.828  0.00  0.00    -0.047 A 
ATOM      6  C4  UNL d   1       4.952   4.491   3.963  0.00  0.00    -0.004 A 
ENDROOT
TORSDOF 0
ENDMDL
