MODEL 1
REMARK minimizedAffinity 5.77357388
REMARK minimizedRMSD -1
REMARK  0 active torsions:
REMARK  status: ('A' for Active; 'I' for Inactive)
ROOT
ATOM      1  C   UNL d   1       0.803   5.056   2.415  0.00  0.00     0.172 C 
ATOM      2  N   UNL d   1       1.078   3.868   3.190  0.00  0.00    -0.070 N 
ATOM      3  C1  UNL d   1       0.213   3.269   4.067  0.00  0.00    -0.004 A 
ATOM      4  C2  UNL d   1       0.848   2.168   4.600  0.00  0.00    -0.047 A 
ATOM      5  C3  UNL d   1       2.139   2.104   4.024  0.00  0.00    -0.047 A 
ATOM      6  C4  UNL d   1       2.255   3.168   3.155  0.00  0.00    -0.004 A 
ENDROOT
TORSDOF 0
ENDMDL
