MODEL 1
REMARK minimizedAffinity -2.01181984
REMARK minimizedRMSD -1
REMARK  0 active torsions:
REMARK  status: ('A' for Active; 'I' for Inactive)
ROOT
ATOM      1  C   UNL d   1       5.296   5.978   6.000  0.00  0.00     0.172 C 
ATOM      2  N   UNL d   1       4.367   5.433   5.038  0.00  0.00    -0.070 N 
ATOM      3  C1  UNL d   1       4.545   4.279   4.321  0.00  0.00    -0.004 A 
ATOM      4  C2  UNL d   1       3.439   4.107   3.517  0.00  0.00    -0.047 A 
ATOM      5  C3  UNL d   1       2.566   5.195   3.759  0.00  0.00    -0.047 A 
ATOM      6  C4  UNL d   1       3.166   6.000   4.704  0.00  0.00    -0.004 A 
ENDROOT
TORSDOF 0
ENDMDL
