MODEL 1
REMARK minimizedAffinity 2.7760489
REMARK minimizedRMSD -1
REMARK  0 active torsions:
REMARK  status: ('A' for Active; 'I' for Inactive)
ROOT
ATOM      1  C   UNL d   1       0.082   3.244   0.730  0.00  0.00     0.172 C 
ATOM      2  N   UNL d   1       1.147   2.349   0.342  0.00  0.00    -0.070 N 
ATOM      3  C1  UNL d   1       2.307   2.140   1.039  0.00  0.00    -0.004 A 
ATOM      4  C2  UNL d   1       3.058   1.219   0.342  0.00  0.00    -0.047 A 
ATOM      5  C3  UNL d   1       2.325   0.863  -0.815  0.00  0.00    -0.047 A 
ATOM      6  C4  UNL d   1       1.146   1.577  -0.789  0.00  0.00    -0.004 A 
ENDROOT
TORSDOF 0
ENDMDL
