MODEL 1
REMARK minimizedAffinity 1.5088979
REMARK minimizedRMSD -1
REMARK  0 active torsions:
REMARK  status: ('A' for Active; 'I' for Inactive)
ROOT
ATOM      1  C   UNL d   1       5.662   2.472  -2.964  0.00  0.00     0.172 C 
ATOM      2  N   UNL d   1       4.893   1.590  -2.119  0.00  0.00    -0.070 N 
ATOM      3  C1  UNL d   1       3.856   0.794  -2.528  0.00  0.00    -0.004 A 
ATOM      4  C2  UNL d   1       3.390   0.109  -1.427  0.00  0.00    -0.047 A 
ATOM      5  C3  UNL d   1       4.173   0.507  -0.318  0.00  0.00    -0.047 A 
ATOM      6  C4  UNL d   1       5.096   1.424  -0.774  0.00  0.00    -0.004 A 
ENDROOT
TORSDOF 0
ENDMDL
