MODEL 1
REMARK minimizedAffinity 2.26701283
REMARK minimizedRMSD -1
REMARK  0 active torsions:
REMARK  status: ('A' for Active; 'I' for Inactive)
ROOT
ATOM      1  C   UNL d   1      -1.269   1.429  -1.236  0.00  0.00     0.172 C 
ATOM      2  N   UNL d   1      -1.061   2.547  -0.346  0.00  0.00    -0.070 N 
ATOM      3  C1  UNL d   1       0.056   2.763   0.417  0.00  0.00    -0.004 A 
ATOM      4  C2  UNL d   1      -0.135   3.931   1.123  0.00  0.00    -0.047 A 
ATOM      5  C3  UNL d   1      -1.411   4.434   0.773  0.00  0.00    -0.047 A 
ATOM      6  C4  UNL d   1      -1.962   3.557  -0.137  0.00  0.00    -0.004 A 
ENDROOT
TORSDOF 0
ENDMDL
