MODEL 1
REMARK minimizedAffinity 0.757347703
REMARK minimizedRMSD -1
REMARK  0 active torsions:
REMARK  status: ('A' for Active; 'I' for Inactive)
ROOT
ATOM      1  C   UNL d   1      -1.791  -0.608  -2.099  0.00  0.00     0.172 C 
ATOM      2  N   UNL d   1      -1.349   0.568  -1.387  0.00  0.00    -0.070 N 
ATOM      3  C1  UNL d   1      -0.084   1.091  -1.418  0.00  0.00    -0.004 A 
ATOM      4  C2  UNL d   1      -0.069   2.207  -0.610  0.00  0.00    -0.047 A 
ATOM      5  C3  UNL d   1      -1.369   2.359  -0.073  0.00  0.00    -0.047 A 
ATOM      6  C4  UNL d   1      -2.141   1.331  -0.571  0.00  0.00    -0.004 A 
ENDROOT
TORSDOF 0
ENDMDL
