MODEL 1
REMARK minimizedAffinity 10.2839117
REMARK minimizedRMSD -1
REMARK  0 active torsions:
REMARK  status: ('A' for Active; 'I' for Inactive)
ROOT
ATOM      1  C   UNL d   1      -5.784   4.355  -2.437  0.00  0.00     0.124 A 
ATOM      2  C1  UNL d   1      -5.702   3.041  -1.997  0.00  0.00     0.062 A 
ATOM      3  C2  UNL d   1      -5.479   2.011  -2.906  0.00  0.00     0.162 A 
ATOM      4  C3  UNL d   1      -5.336   2.291  -4.266  0.00  0.00    -0.034 A 
ATOM      5  C4  UNL d   1      -5.420   3.615  -4.700  0.00  0.00     0.162 A 
ATOM      6  C5  UNL d   1      -5.643   4.640  -3.788  0.00  0.00     0.062 A 
ATOM      7  F   UNL d   1      -5.722   5.909  -4.214  0.00  0.00    -0.097 F 
ATOM      8  F1  UNL d   1      -5.287   3.919  -6.000  0.00  0.00    -0.096 F 
ATOM      9  I   UNL d   1      -5.003   0.753  -5.628  0.00  0.00    -0.060 I 
ATOM     10  F2  UNL d   1      -5.404   0.751  -2.453  0.00  0.00    -0.096 F 
ATOM     11  F3  UNL d   1      -5.838   2.762  -0.693  0.00  0.00    -0.097 F 
ATOM     12  F4  UNL d   1      -5.999   5.344  -1.560  0.00  0.00    -0.092 F 
ENDROOT
TORSDOF 0
ENDMDL
