MODEL 1
REMARK minimizedAffinity 14.3823462
REMARK minimizedRMSD -1
REMARK  0 active torsions:
REMARK  status: ('A' for Active; 'I' for Inactive)
ROOT
ATOM      1  C   UNL d   1       1.600  -3.463   3.508  0.00  0.00     0.124 A 
ATOM      2  C1  UNL d   1       1.539  -2.247   4.173  0.00  0.00     0.062 A 
ATOM      3  C2  UNL d   1       1.087  -1.109   3.511  0.00  0.00     0.162 A 
ATOM      4  C3  UNL d   1       0.690  -1.183   2.176  0.00  0.00    -0.034 A 
ATOM      5  C4  UNL d   1       0.755  -2.410   1.513  0.00  0.00     0.162 A 
ATOM      6  C5  UNL d   1       1.208  -3.544   2.179  0.00  0.00     0.062 A 
ATOM      7  F   UNL d   1       1.266  -4.719   1.535  0.00  0.00    -0.097 F 
ATOM      8  F1  UNL d   1       0.381  -2.516   0.229  0.00  0.00    -0.096 F 
ATOM      9  I   UNL d   1       0.013   0.516   1.182  0.00  0.00    -0.060 I 
ATOM     10  F2  UNL d   1       1.039   0.054   4.178  0.00  0.00    -0.096 F 
ATOM     11  F3  UNL d   1       1.919  -2.166   5.456  0.00  0.00    -0.097 F 
ATOM     12  F4  UNL d   1       2.037  -4.556   4.147  0.00  0.00    -0.092 F 
ENDROOT
TORSDOF 0
ENDMDL
