MODEL 1
REMARK minimizedAffinity 26.8523827
REMARK minimizedRMSD -1
REMARK  0 active torsions:
REMARK  status: ('A' for Active; 'I' for Inactive)
ROOT
ATOM      1  C   UNL d   1      -1.354  -0.536   0.811  0.00  0.00     0.124 A 
ATOM      2  C1  UNL d   1      -0.151  -0.260   1.445  0.00  0.00     0.062 A 
ATOM      3  C2  UNL d   1       0.348   1.039   1.464  0.00  0.00     0.162 A 
ATOM      4  C3  UNL d   1      -0.356   2.073   0.847  0.00  0.00    -0.034 A 
ATOM      5  C4  UNL d   1      -1.565   1.787   0.210  0.00  0.00     0.162 A 
ATOM      6  C5  UNL d   1      -2.060   0.487   0.194  0.00  0.00     0.062 A 
ATOM      7  F   UNL d   1      -3.223   0.222  -0.419  0.00  0.00    -0.097 F 
ATOM      8  F1  UNL d   1      -2.268   2.757  -0.394  0.00  0.00    -0.096 F 
ATOM      9  I   UNL d   1       0.387   4.016   0.872  0.00  0.00    -0.060 I 
ATOM     10  F2  UNL d   1       1.513   1.277   2.084  0.00  0.00    -0.096 F 
ATOM     11  F3  UNL d   1       0.533  -1.247   2.042  0.00  0.00    -0.097 F 
ATOM     12  F4  UNL d   1      -1.832  -1.787   0.794  0.00  0.00    -0.092 F 
ENDROOT
TORSDOF 0
ENDMDL
