MODEL 1
REMARK minimizedAffinity 16.1333237
REMARK minimizedRMSD -1
REMARK  0 active torsions:
REMARK  status: ('A' for Active; 'I' for Inactive)
ROOT
ATOM      1  C   UNL d   1      -3.105  -2.177  -0.567  0.00  0.00     0.124 A 
ATOM      2  C1  UNL d   1      -2.942  -0.827  -0.293  0.00  0.00     0.062 A 
ATOM      3  C2  UNL d   1      -1.773  -0.371   0.310  0.00  0.00     0.162 A 
ATOM      4  C3  UNL d   1      -0.757  -1.268   0.641  0.00  0.00    -0.034 A 
ATOM      5  C4  UNL d   1      -0.929  -2.625   0.363  0.00  0.00     0.162 A 
ATOM      6  C5  UNL d   1      -2.099  -3.075  -0.240  0.00  0.00     0.062 A 
ATOM      7  F   UNL d   1      -2.256  -4.380  -0.504  0.00  0.00    -0.097 F 
ATOM      8  F1  UNL d   1       0.028  -3.514   0.668  0.00  0.00    -0.096 F 
ATOM      9  I   UNL d   1       0.993  -0.591   1.542  0.00  0.00    -0.060 I 
ATOM     10  F2  UNL d   1      -1.642   0.939   0.563  0.00  0.00    -0.096 F 
ATOM     11  F3  UNL d   1      -3.913   0.043  -0.608  0.00  0.00    -0.097 F 
ATOM     12  F4  UNL d   1      -4.232  -2.613  -1.146  0.00  0.00    -0.092 F 
ENDROOT
TORSDOF 0
ENDMDL
