MODEL 1
REMARK minimizedAffinity 23.9545956
REMARK minimizedRMSD -1
REMARK  0 active torsions:
REMARK  status: ('A' for Active; 'I' for Inactive)
ROOT
ATOM      1  C   UNL d   1      -1.572   2.262   0.120  0.00  0.00     0.124 A 
ATOM      2  C1  UNL d   1      -0.397   2.707   0.711  0.00  0.00     0.062 A 
ATOM      3  C2  UNL d   1       0.377   1.837   1.473  0.00  0.00     0.162 A 
ATOM      4  C3  UNL d   1      -0.021   0.511   1.648  0.00  0.00    -0.034 A 
ATOM      5  C4  UNL d   1      -1.205   0.071   1.052  0.00  0.00     0.162 A 
ATOM      6  C5  UNL d   1      -1.975   0.945   0.292  0.00  0.00     0.062 A 
ATOM      7  F   UNL d   1      -3.109   0.514  -0.278  0.00  0.00    -0.097 F 
ATOM      8  F1  UNL d   1      -1.617  -1.197   1.201  0.00  0.00    -0.096 F 
ATOM      9  I   UNL d   1       1.133  -0.794   2.787  0.00  0.00    -0.060 I 
ATOM     10  F2  UNL d   1       1.507   2.294   2.031  0.00  0.00    -0.096 F 
ATOM     11  F3  UNL d   1      -0.007   3.979   0.547  0.00  0.00    -0.097 F 
ATOM     12  F4  UNL d   1      -2.315   3.102  -0.611  0.00  0.00    -0.092 F 
ENDROOT
TORSDOF 0
ENDMDL
