MODEL 1
REMARK minimizedAffinity 3.35287786
REMARK minimizedRMSD -1
REMARK  0 active torsions:
REMARK  status: ('A' for Active; 'I' for Inactive)
ROOT
ATOM      1  C   UNL d   1      -2.179  -0.878  -0.537  0.00  0.00     0.124 A 
ATOM      2  C1  UNL d   1      -1.340   0.051   0.063  0.00  0.00     0.062 A 
ATOM      3  C2  UNL d   1      -0.419  -0.356   1.024  0.00  0.00     0.162 A 
ATOM      4  C3  UNL d   1      -0.332  -1.698   1.392  0.00  0.00    -0.034 A 
ATOM      5  C4  UNL d   1      -1.180  -2.627   0.785  0.00  0.00     0.162 A 
ATOM      6  C5  UNL d   1      -2.098  -2.216  -0.176  0.00  0.00     0.062 A 
ATOM      7  F   UNL d   1      -2.908  -3.114  -0.754  0.00  0.00    -0.097 F 
ATOM      8  F1  UNL d   1      -1.122  -3.926   1.115  0.00  0.00    -0.096 F 
ATOM      9  I   UNL d   1       1.043  -2.310   2.829  0.00  0.00    -0.060 I 
ATOM     10  F2  UNL d   1       0.379   0.564   1.588  0.00  0.00    -0.096 F 
ATOM     11  F3  UNL d   1      -1.417   1.344  -0.284  0.00  0.00    -0.097 F 
ATOM     12  F4  UNL d   1      -3.064  -0.484  -1.462  0.00  0.00    -0.092 F 
ENDROOT
TORSDOF 0
ENDMDL
