MODEL 1
REMARK minimizedAffinity 7.19993639
REMARK minimizedRMSD -1
REMARK  1 active torsions:
REMARK  status: ('A' for Active; 'I' for Inactive)
REMARK    1  A    between atoms: C1_2  and  C2_3 
ROOT
ATOM      1  C2  UNL d   1      -0.989  -2.938  -0.488  0.00  0.00    -0.076 A 
ATOM      2  C3  UNL d   1      -2.359  -2.851  -0.188  0.00  0.00     0.004 A 
ATOM      3  C4  UNL d   1      -3.312  -2.769  -1.203  0.00  0.00    -0.003 A 
ATOM      4  C5  UNL d   1      -2.909  -2.775  -2.534  0.00  0.00     0.000 A 
ATOM      5  C6  UNL d   1      -1.555  -2.879  -2.850  0.00  0.00     0.000 A 
ATOM      6  C7  UNL d   1      -0.583  -2.978  -1.839  0.00  0.00    -0.073 A 
ATOM      7  C8  UNL d   1       0.864  -3.082  -2.237  0.00  0.00     0.078 C 
ENDROOT
BRANCH   1   8
ATOM      8  C1  UNL d   1       0.000  -2.996   0.654  0.00  0.00     0.053 C 
ATOM      9  C   UNL d   1       0.430  -1.615   1.124  0.00  0.00     0.018 C 
ENDBRANCH   1   8
TORSDOF 1
ENDMDL
