MODEL 1
REMARK minimizedAffinity -2.12948561
REMARK minimizedRMSD -1
REMARK  1 active torsions:
REMARK  status: ('A' for Active; 'I' for Inactive)
REMARK    1  A    between atoms: C1_2  and  C2_3 
ROOT
ATOM      1  C2  UNL d   1       1.429   1.753   0.496  0.00  0.00    -0.076 A 
ATOM      2  C3  UNL d   1       2.618   2.209  -0.101  0.00  0.00     0.004 A 
ATOM      3  C4  UNL d   1       2.634   3.368  -0.875  0.00  0.00    -0.003 A 
ATOM      4  C5  UNL d   1       1.461   4.091  -1.064  0.00  0.00     0.000 A 
ATOM      5  C6  UNL d   1       0.276   3.663  -0.466  0.00  0.00     0.000 A 
ATOM      6  C7  UNL d   1       0.247   2.506   0.331  0.00  0.00    -0.073 A 
ATOM      7  C8  UNL d   1      -1.060   2.087   0.948  0.00  0.00     0.078 C 
ENDROOT
BRANCH   1   8
ATOM      8  C1  UNL d   1       1.468   0.475   1.302  0.00  0.00     0.053 C 
ATOM      9  C   UNL d   1       2.768   0.311   2.073  0.00  0.00     0.018 C 
ENDBRANCH   1   8
TORSDOF 1
ENDMDL
