MODEL 1
REMARK minimizedAffinity 0.804940462
REMARK minimizedRMSD -1
REMARK  1 active torsions:
REMARK  status: ('A' for Active; 'I' for Inactive)
REMARK    1  A    between atoms: C1_2  and  C2_3 
ROOT
ATOM      1  C2  UNL d   1       1.203   2.549   0.207  0.00  0.00    -0.076 A 
ATOM      2  C3  UNL d   1       0.003   1.974   0.659  0.00  0.00     0.004 A 
ATOM      3  C4  UNL d   1      -1.212   2.642   0.515  0.00  0.00    -0.003 A 
ATOM      4  C5  UNL d   1      -1.246   3.896  -0.084  0.00  0.00     0.000 A 
ATOM      5  C6  UNL d   1      -0.068   4.474  -0.555  0.00  0.00     0.000 A 
ATOM      6  C7  UNL d   1       1.163   3.807  -0.433  0.00  0.00    -0.073 A 
ATOM      7  C8  UNL d   1       2.404   4.480  -0.953  0.00  0.00     0.078 C 
ENDROOT
BRANCH   1   8
ATOM      8  C1  UNL d   1       2.494   1.790   0.415  0.00  0.00     0.053 C 
ATOM      9  C   UNL d   1       2.269   0.414   1.023  0.00  0.00     0.018 C 
ENDBRANCH   1   8
TORSDOF 1
ENDMDL
