MODEL 1
REMARK minimizedAffinity 3.28563809
REMARK minimizedRMSD -1
REMARK  1 active torsions:
REMARK  status: ('A' for Active; 'I' for Inactive)
REMARK    1  A    between atoms: C1_2  and  C2_3 
ROOT
ATOM      1  C2  UNL d   1      -0.164  -3.687  -1.426  0.00  0.00    -0.076 A 
ATOM      2  C3  UNL d   1      -0.355  -2.315  -1.665  0.00  0.00     0.004 A 
ATOM      3  C4  UNL d   1      -1.635  -1.783  -1.811  0.00  0.00    -0.003 A 
ATOM      4  C5  UNL d   1      -2.745  -2.615  -1.720  0.00  0.00     0.000 A 
ATOM      5  C6  UNL d   1      -2.576  -3.975  -1.466  0.00  0.00     0.000 A 
ATOM      6  C7  UNL d   1      -1.293  -4.525  -1.300  0.00  0.00    -0.073 A 
ATOM      7  C8  UNL d   1      -1.168  -6.000  -1.033  0.00  0.00     0.078 C 
ENDROOT
BRANCH   1   8
ATOM      8  C1  UNL d   1       1.249  -4.211  -1.303  0.00  0.00     0.053 C 
ATOM      9  C   UNL d   1       2.184  -3.216  -0.633  0.00  0.00     0.018 C 
ENDBRANCH   1   8
TORSDOF 1
ENDMDL
