MODEL 1
REMARK minimizedAffinity 0.502832472
REMARK minimizedRMSD -1
REMARK  1 active torsions:
REMARK  status: ('A' for Active; 'I' for Inactive)
REMARK    1  A    between atoms: C1_2  and  C2_3 
ROOT
ATOM      1  C2  UNL d   1       0.302  -0.282   1.312  0.00  0.00    -0.076 A 
ATOM      2  C3  UNL d   1       0.959  -1.405   1.845  0.00  0.00     0.004 A 
ATOM      3  C4  UNL d   1       2.329  -1.380   2.102  0.00  0.00    -0.003 A 
ATOM      4  C5  UNL d   1       3.064  -0.231   1.831  0.00  0.00     0.000 A 
ATOM      5  C6  UNL d   1       2.425   0.898   1.319  0.00  0.00     0.000 A 
ATOM      6  C7  UNL d   1       1.042   0.895   1.069  0.00  0.00    -0.073 A 
ATOM      7  C8  UNL d   1       0.406   2.138   0.511  0.00  0.00     0.078 C 
ENDROOT
BRANCH   1   8
ATOM      8  C1  UNL d   1      -1.180  -0.378   1.028  0.00  0.00     0.053 C 
ATOM      9  C   UNL d   1      -1.715  -1.792   1.191  0.00  0.00     0.018 C 
ENDBRANCH   1   8
TORSDOF 1
ENDMDL
