MODEL 1
REMARK minimizedAffinity 12.7821465
REMARK minimizedRMSD -1
REMARK  1 active torsions:
REMARK  status: ('A' for Active; 'I' for Inactive)
REMARK    1  A    between atoms: C1_2  and  C2_3 
ROOT
ATOM      1  C2  UNL d   1       2.772   1.910   0.056  0.00  0.00    -0.076 A 
ATOM      2  C3  UNL d   1       2.435   2.173   1.395  0.00  0.00     0.004 A 
ATOM      3  C4  UNL d   1       2.481   1.167   2.357  0.00  0.00    -0.003 A 
ATOM      4  C5  UNL d   1       2.867  -0.120   1.997  0.00  0.00     0.000 A 
ATOM      5  C6  UNL d   1       3.222  -0.395   0.677  0.00  0.00     0.000 A 
ATOM      6  C7  UNL d   1       3.196   0.613  -0.303  0.00  0.00    -0.073 A 
ATOM      7  C8  UNL d   1       3.584   0.259  -1.713  0.00  0.00     0.078 C 
ENDROOT
BRANCH   1   8
ATOM      8  C1  UNL d   1       2.677   3.036  -0.950  0.00  0.00     0.053 C 
ATOM      9  C   UNL d   1       1.917   4.237  -0.409  0.00  0.00     0.018 C 
ENDBRANCH   1   8
TORSDOF 1
ENDMDL
