MODEL 1
REMARK minimizedAffinity 5.33444023
REMARK minimizedRMSD -1
REMARK  1 active torsions:
REMARK  status: ('A' for Active; 'I' for Inactive)
REMARK    1  A    between atoms: C1_2  and  C2_3 
ROOT
ATOM      1  C2  UNL d   1       1.359  -0.096   1.274  0.00  0.00    -0.076 A 
ATOM      2  C3  UNL d   1       0.465   0.859   1.787  0.00  0.00     0.004 A 
ATOM      3  C4  UNL d   1       0.103   1.978   1.040  0.00  0.00    -0.003 A 
ATOM      4  C5  UNL d   1       0.629   2.160  -0.235  0.00  0.00     0.000 A 
ATOM      5  C6  UNL d   1       1.503   1.213  -0.768  0.00  0.00     0.000 A 
ATOM      6  C7  UNL d   1       1.866   0.071  -0.033  0.00  0.00    -0.073 A 
ATOM      7  C8  UNL d   1       2.817  -0.915  -0.654  0.00  0.00     0.078 C 
ENDROOT
BRANCH   1   8
ATOM      8  C1  UNL d   1       1.736  -1.276   2.141  0.00  0.00     0.053 C 
ATOM      9  C   UNL d   1       0.582  -2.245   2.341  0.00  0.00     0.018 C 
ENDBRANCH   1   8
TORSDOF 1
ENDMDL
