MODEL 1
REMARK minimizedAffinity -3.1088748
REMARK minimizedRMSD -1
REMARK  1 active torsions:
REMARK  status: ('A' for Active; 'I' for Inactive)
REMARK    1  A    between atoms: C3_4  and  O_7 
ROOT
ATOM      1  C   UNL d   1       5.127  -1.792  -5.212  0.00  0.00    -0.033 A 
ATOM      2  C1  UNL d   1       4.157  -2.416  -6.000  0.00  0.00     0.039 A 
ATOM      3  C2  UNL d   1       4.046  -3.808  -6.000  0.00  0.00    -0.080 A 
ATOM      4  C3  UNL d   1       4.907  -4.563  -5.208  0.00  0.00     0.150 A 
ATOM      5  C4  UNL d   1       5.872  -3.948  -4.418  0.00  0.00    -0.007 A 
ATOM      6  C5  UNL d   1       5.983  -2.558  -4.420  0.00  0.00     0.039 A 
ENDROOT
BRANCH   4   7
ATOM      7  O   UNL d   1       4.839  -5.924  -5.179  0.00  0.00    -0.526 OA
ATOM      8  H5  UNL d   1       4.145  -6.211  -5.796  0.00  0.00     0.418 HD
ENDBRANCH   4   7
TORSDOF 1
ENDMDL
