MODEL 1
REMARK minimizedAffinity -3.04770184
REMARK minimizedRMSD -1
REMARK  1 active torsions:
REMARK  status: ('A' for Active; 'I' for Inactive)
REMARK    1  A    between atoms: C3_4  and  O_7 
ROOT
ATOM      1  C   UNL d   1       4.380  -5.990  -4.504  0.00  0.00    -0.033 A 
ATOM      2  C1  UNL d   1       3.849  -5.318  -5.606  0.00  0.00     0.039 A 
ATOM      3  C2  UNL d   1       4.383  -4.089  -6.000  0.00  0.00    -0.080 A 
ATOM      4  C3  UNL d   1       5.447  -3.546  -5.285  0.00  0.00     0.150 A 
ATOM      5  C4  UNL d   1       5.983  -4.213  -4.189  0.00  0.00    -0.007 A 
ATOM      6  C5  UNL d   1       5.448  -5.439  -3.796  0.00  0.00     0.039 A 
ENDROOT
BRANCH   4   7
ATOM      7  O   UNL d   1       5.998  -2.347  -5.629  0.00  0.00    -0.526 OA
ATOM      8  H5  UNL d   1       5.507  -1.989  -6.388  0.00  0.00     0.418 HD
ENDBRANCH   4   7
TORSDOF 1
ENDMDL
