MODEL 1
REMARK minimizedAffinity -2.67982244
REMARK minimizedRMSD -1
REMARK  1 active torsions:
REMARK  status: ('A' for Active; 'I' for Inactive)
REMARK    1  A    between atoms: C3_4  and  O_7 
ROOT
ATOM      1  C   UNL d   1       4.879  -5.989  -5.654  0.00  0.00    -0.033 A 
ATOM      2  C1  UNL d   1       5.999  -5.228  -5.993  0.00  0.00     0.039 A 
ATOM      3  C2  UNL d   1       5.984  -3.843  -5.818  0.00  0.00    -0.080 A 
ATOM      4  C3  UNL d   1       4.843  -3.232  -5.304  0.00  0.00     0.150 A 
ATOM      5  C4  UNL d   1       3.725  -3.984  -4.961  0.00  0.00    -0.007 A 
ATOM      6  C5  UNL d   1       3.742  -5.367  -5.137  0.00  0.00     0.039 A 
ENDROOT
BRANCH   4   7
ATOM      7  O   UNL d   1       4.779  -1.882  -5.120  0.00  0.00    -0.526 OA
ATOM      8  H5  UNL d   1       5.613  -1.490  -5.428  0.00  0.00     0.418 HD
ENDBRANCH   4   7
TORSDOF 1
ENDMDL
