MODEL 1
REMARK minimizedAffinity -3.46040487
REMARK minimizedRMSD -1
REMARK  1 active torsions:
REMARK  status: ('A' for Active; 'I' for Inactive)
REMARK    1  A    between atoms: C3_4  and  O_7 
ROOT
ATOM      1  C   UNL d   1       5.133  -1.706  -5.615  0.00  0.00    -0.033 A 
ATOM      2  C1  UNL d   1       5.998  -2.736  -5.990  0.00  0.00     0.039 A 
ATOM      3  C2  UNL d   1       5.551  -4.059  -5.994  0.00  0.00    -0.080 A 
ATOM      4  C3  UNL d   1       4.238  -4.338  -5.623  0.00  0.00     0.150 A 
ATOM      5  C4  UNL d   1       3.370  -3.317  -5.252  0.00  0.00    -0.007 A 
ATOM      6  C5  UNL d   1       3.818  -1.996  -5.247  0.00  0.00     0.039 A 
ENDROOT
BRANCH   4   7
ATOM      7  O   UNL d   1       3.758  -5.614  -5.607  0.00  0.00    -0.526 OA
ATOM      8  H5  UNL d   1       4.478  -6.217  -5.858  0.00  0.00     0.418 HD
ENDBRANCH   4   7
TORSDOF 1
ENDMDL
