MODEL 1
REMARK minimizedAffinity -3.4614768
REMARK minimizedRMSD -1
REMARK  1 active torsions:
REMARK  status: ('A' for Active; 'I' for Inactive)
REMARK    1  A    between atoms: C3_4  and  O_7 
ROOT
ATOM      1  C   UNL d   1       4.725  -3.253  -4.866  0.00  0.00    -0.033 A 
ATOM      2  C1  UNL d   1       3.564  -2.584  -5.260  0.00  0.00     0.039 A 
ATOM      3  C2  UNL d   1       3.619  -1.234  -5.610  0.00  0.00    -0.080 A 
ATOM      4  C3  UNL d   1       4.839  -0.565  -5.564  0.00  0.00     0.150 A 
ATOM      5  C4  UNL d   1       6.000  -1.226  -5.177  0.00  0.00    -0.007 A 
ATOM      6  C5  UNL d   1       5.943  -2.574  -4.826  0.00  0.00     0.039 A 
ENDROOT
BRANCH   4   7
ATOM      7  O   UNL d   1       4.941   0.754  -5.893  0.00  0.00    -0.526 OA
ATOM      8  H5  UNL d   1       4.055   1.086  -6.113  0.00  0.00     0.418 HD
ENDBRANCH   4   7
TORSDOF 1
ENDMDL
