MODEL 1
REMARK minimizedAffinity -2.4139266
REMARK minimizedRMSD -1
REMARK  1 active torsions:
REMARK  status: ('A' for Active; 'I' for Inactive)
REMARK    1  A    between atoms: C3_4  and  O_7 
ROOT
ATOM      1  C   UNL d   1       5.288  -5.915  -4.348  0.00  0.00    -0.033 A 
ATOM      2  C1  UNL d   1       5.999  -4.873  -3.750  0.00  0.00     0.039 A 
ATOM      3  C2  UNL d   1       5.925  -3.583  -4.277  0.00  0.00    -0.080 A 
ATOM      4  C3  UNL d   1       5.137  -3.347  -5.400  0.00  0.00     0.150 A 
ATOM      5  C4  UNL d   1       4.423  -4.380  -5.998  0.00  0.00    -0.007 A 
ATOM      6  C5  UNL d   1       4.499  -5.668  -5.471  0.00  0.00     0.039 A 
ENDROOT
BRANCH   4   7
ATOM      7  O   UNL d   1       5.037  -2.105  -5.953  0.00  0.00    -0.526 OA
ATOM      8  H5  UNL d   1       5.607  -1.498  -5.451  0.00  0.00     0.418 HD
ENDBRANCH   4   7
TORSDOF 1
ENDMDL
