MODEL 1
REMARK minimizedAffinity -3.25216293
REMARK minimizedRMSD -1
REMARK  1 active torsions:
REMARK  status: ('A' for Active; 'I' for Inactive)
REMARK    1  A    between atoms: C3_4  and  O_7 
ROOT
ATOM      1  C   UNL d   1       4.764  -6.000  -5.234  0.00  0.00    -0.033 A 
ATOM      2  C1  UNL d   1       5.569  -5.822  -4.107  0.00  0.00     0.039 A 
ATOM      3  C2  UNL d   1       5.994  -4.541  -3.745  0.00  0.00    -0.080 A 
ATOM      4  C3  UNL d   1       5.606  -3.450  -4.518  0.00  0.00     0.150 A 
ATOM      5  C4  UNL d   1       4.802  -3.620  -5.639  0.00  0.00    -0.007 A 
ATOM      6  C5  UNL d   1       4.379  -4.899  -5.999  0.00  0.00     0.039 A 
ENDROOT
BRANCH   4   7
ATOM      7  O   UNL d   1       6.000  -2.182  -4.207  0.00  0.00    -0.526 OA
ATOM      8  H5  UNL d   1       6.575  -2.221  -3.425  0.00  0.00     0.418 HD
ENDBRANCH   4   7
TORSDOF 1
ENDMDL
