MODEL 1
REMARK minimizedAffinity -3.44269443
REMARK minimizedRMSD -1
REMARK  1 active torsions:
REMARK  status: ('A' for Active; 'I' for Inactive)
REMARK    1  A    between atoms: C3_4  and  O_7 
ROOT
ATOM      1  C   UNL d   1       4.979  -3.312  -4.901  0.00  0.00    -0.033 A 
ATOM      2  C1  UNL d   1       3.904  -2.832  -5.651  0.00  0.00     0.039 A 
ATOM      3  C2  UNL d   1       3.828  -1.476  -5.977  0.00  0.00    -0.080 A 
ATOM      4  C3  UNL d   1       4.832  -0.613  -5.548  0.00  0.00     0.150 A 
ATOM      5  C4  UNL d   1       5.908  -1.085  -4.804  0.00  0.00    -0.007 A 
ATOM      6  C5  UNL d   1       5.982  -2.439  -4.479  0.00  0.00     0.039 A 
ENDROOT
BRANCH   4   7
ATOM      7  O   UNL d   1       4.799   0.719  -5.837  0.00  0.00    -0.526 OA
ATOM      8  H5  UNL d   1       3.984   0.906  -6.331  0.00  0.00     0.418 HD
ENDBRANCH   4   7
TORSDOF 1
ENDMDL
