MODEL 1
REMARK minimizedAffinity -3.05263638
REMARK minimizedRMSD -1
REMARK  1 active torsions:
REMARK  status: ('A' for Active; 'I' for Inactive)
REMARK    1  A    between atoms: C3_4  and  O_7 
ROOT
ATOM      1  C   UNL d   1       4.995  -4.298  -4.709  0.00  0.00    -0.033 A 
ATOM      2  C1  UNL d   1       6.000  -3.481  -5.230  0.00  0.00     0.039 A 
ATOM      3  C2  UNL d   1       5.725  -2.149  -5.547  0.00  0.00    -0.080 A 
ATOM      4  C3  UNL d   1       4.443  -1.648  -5.338  0.00  0.00     0.150 A 
ATOM      5  C4  UNL d   1       3.438  -2.455  -4.815  0.00  0.00    -0.007 A 
ATOM      6  C5  UNL d   1       3.715  -3.785  -4.500  0.00  0.00     0.039 A 
ENDROOT
BRANCH   4   7
ATOM      7  O   UNL d   1       4.126  -0.356  -5.636  0.00  0.00    -0.526 OA
ATOM      8  H5  UNL d   1       4.910   0.074  -6.015  0.00  0.00     0.418 HD
ENDBRANCH   4   7
TORSDOF 1
ENDMDL
