MODEL 1
REMARK minimizedAffinity -5.88271189
REMARK minimizedRMSD -1
REMARK  0 active torsions:
REMARK  status: ('A' for Active; 'I' for Inactive)
ROOT
ATOM      1  O1  BZF d   1       1.994  -2.335  -0.111  0.00  0.00    -0.204 OA
ATOM      2  C2  BZF d   1       0.904  -3.097   0.262  0.00  0.00     0.174 A 
ATOM      3  C3  BZF d   1      -0.146  -2.309   0.574  0.00  0.00    -0.012 A 
ATOM      4  C3A BZF d   1       0.289  -0.975   0.295  0.00  0.00    -0.107 A 
ATOM      5  C4  BZF d   1      -0.313   0.247   0.389  0.00  0.00     0.055 A 
ATOM      6  C5  BZF d   1       0.411   1.363   0.109  0.00  0.00    -0.016 A 
ATOM      7  C6  BZF d   1       1.738   1.294  -0.261  0.00  0.00     0.022 A 
ATOM      8  C7  BZF d   1       2.376   0.103  -0.373  0.00  0.00     0.029 A 
ATOM      9  C7A BZF d   1       1.639  -1.028  -0.123  0.00  0.00     0.058 A 
ENDROOT
TORSDOF 0
ENDMDL
