MODEL 1
REMARK minimizedAffinity -4.97559595
REMARK minimizedRMSD -1
REMARK  0 active torsions:
REMARK  status: ('A' for Active; 'I' for Inactive)
ROOT
ATOM      1  O1  BZF d   1      -0.890   1.412   0.275  0.00  0.00    -0.204 OA
ATOM      2  C2  BZF d   1      -1.268   1.628  -1.036  0.00  0.00     0.174 A 
ATOM      3  C3  BZF d   1      -0.692   0.725  -1.855  0.00  0.00    -0.012 A 
ATOM      4  C3A BZF d   1       0.022  -0.165  -0.991  0.00  0.00    -0.107 A 
ATOM      5  C4  BZF d   1       0.783  -1.277  -1.210  0.00  0.00     0.055 A 
ATOM      6  C5  BZF d   1       1.401  -1.873  -0.157  0.00  0.00    -0.016 A 
ATOM      7  C6  BZF d   1       1.284  -1.380   1.126  0.00  0.00     0.022 A 
ATOM      8  C7  BZF d   1       0.537  -0.282   1.394  0.00  0.00     0.029 A 
ATOM      9  C7A BZF d   1      -0.116   0.302   0.336  0.00  0.00     0.058 A 
ENDROOT
TORSDOF 0
ENDMDL
