MODEL 1
REMARK minimizedAffinity -3.21017718
REMARK minimizedRMSD -1
REMARK  0 active torsions:
REMARK  status: ('A' for Active; 'I' for Inactive)
ROOT
ATOM      1  O1  BZF d   1       2.312  -1.855   0.139  0.00  0.00    -0.204 OA
ATOM      2  C2  BZF d   1       1.435  -2.834   0.565  0.00  0.00     0.174 A 
ATOM      3  C3  BZF d   1       0.207  -2.317   0.777  0.00  0.00    -0.012 A 
ATOM      4  C3A BZF d   1       0.302  -0.946   0.377  0.00  0.00    -0.107 A 
ATOM      5  C4  BZF d   1      -0.593   0.085   0.338  0.00  0.00     0.055 A 
ATOM      6  C5  BZF d   1      -0.163   1.318  -0.036  0.00  0.00    -0.016 A 
ATOM      7  C6  BZF d   1       1.153   1.558  -0.373  0.00  0.00     0.022 A 
ATOM      8  C7  BZF d   1       2.076   0.566  -0.354  0.00  0.00     0.029 A 
ATOM      9  C7A BZF d   1       1.638  -0.689  -0.008  0.00  0.00     0.058 A 
ENDROOT
TORSDOF 0
ENDMDL
