MODEL 1
REMARK minimizedAffinity -2.77023172
REMARK minimizedRMSD -1
REMARK  0 active torsions:
REMARK  status: ('A' for Active; 'I' for Inactive)
ROOT
ATOM      1  O1  BZF d   1       1.976  -0.485  -0.185  0.00  0.00    -0.204 OA
ATOM      2  C2  BZF d   1       2.414  -1.604   0.496  0.00  0.00     0.174 A 
ATOM      3  C3  BZF d   1       1.532  -1.958   1.453  0.00  0.00    -0.012 A 
ATOM      4  C3A BZF d   1       0.432  -1.055   1.303  0.00  0.00    -0.107 A 
ATOM      5  C4  BZF d   1      -0.760  -0.913   1.953  0.00  0.00     0.055 A 
ATOM      6  C5  BZF d   1      -1.580   0.115   1.611  0.00  0.00    -0.016 A 
ATOM      7  C6  BZF d   1      -1.237   1.022   0.629  0.00  0.00     0.022 A 
ATOM      8  C7  BZF d   1      -0.067   0.918  -0.047  0.00  0.00     0.029 A 
ATOM      9  C7A BZF d   1       0.749  -0.139   0.274  0.00  0.00     0.058 A 
ENDROOT
TORSDOF 0
ENDMDL
