MODEL 1
REMARK minimizedAffinity -4.58526373
REMARK minimizedRMSD -1
REMARK  0 active torsions:
REMARK  status: ('A' for Active; 'I' for Inactive)
ROOT
ATOM      1  O1  BZF d   1      -2.099   0.297  -3.762  0.00  0.00    -0.204 OA
ATOM      2  C2  BZF d   1      -2.161  -0.940  -3.150  0.00  0.00     0.174 A 
ATOM      3  C3  BZF d   1      -1.695  -0.873  -1.887  0.00  0.00    -0.012 A 
ATOM      4  C3A BZF d   1      -1.404   0.510  -1.666  0.00  0.00    -0.107 A 
ATOM      5  C4  BZF d   1      -0.927   1.210  -0.595  0.00  0.00     0.055 A 
ATOM      6  C5  BZF d   1      -0.686   2.541  -0.729  0.00  0.00    -0.016 A 
ATOM      7  C6  BZF d   1      -0.907   3.202  -1.920  0.00  0.00     0.022 A 
ATOM      8  C7  BZF d   1      -1.384   2.551  -3.009  0.00  0.00     0.029 A 
ATOM      9  C7A BZF d   1      -1.659   1.213  -2.866  0.00  0.00     0.058 A 
ENDROOT
TORSDOF 0
ENDMDL
