MODEL 1
REMARK minimizedAffinity -2.30534697
REMARK minimizedRMSD -1
REMARK  0 active torsions:
REMARK  status: ('A' for Active; 'I' for Inactive)
ROOT
ATOM      1  O1  BZF d   1       1.948  -1.558   0.565  0.00  0.00    -0.204 OA
ATOM      2  C2  BZF d   1       1.257  -2.631   1.094  0.00  0.00     0.174 A 
ATOM      3  C3  BZF d   1      -0.067  -2.378   1.127  0.00  0.00    -0.012 A 
ATOM      4  C3A BZF d   1      -0.222  -1.102   0.499  0.00  0.00    -0.107 A 
ATOM      5  C4  BZF d   1      -1.305  -0.319   0.218  0.00  0.00     0.055 A 
ATOM      6  C5  BZF d   1      -1.109   0.906  -0.337  0.00  0.00    -0.016 A 
ATOM      7  C6  BZF d   1       0.155   1.382  -0.618  0.00  0.00     0.022 A 
ATOM      8  C7  BZF d   1       1.260   0.639  -0.361  0.00  0.00     0.029 A 
ATOM      9  C7A BZF d   1       1.063  -0.612   0.168  0.00  0.00     0.058 A 
ENDROOT
TORSDOF 0
ENDMDL
