MODEL 1
REMARK minimizedAffinity -2.03933835
REMARK minimizedRMSD -1
REMARK  0 active torsions:
REMARK  status: ('A' for Active; 'I' for Inactive)
ROOT
ATOM      1  O1  BZF d   1       0.313   1.185  -0.779  0.00  0.00    -0.204 OA
ATOM      2  C2  BZF d   1      -0.923   1.750  -0.526  0.00  0.00     0.174 A 
ATOM      3  C3  BZF d   1      -1.679   0.927   0.230  0.00  0.00    -0.012 A 
ATOM      4  C3A BZF d   1      -0.832  -0.183   0.540  0.00  0.00    -0.107 A 
ATOM      5  C4  BZF d   1      -1.008  -1.322   1.273  0.00  0.00     0.055 A 
ATOM      6  C5  BZF d   1      -0.006  -2.240   1.318  0.00  0.00    -0.016 A 
ATOM      7  C6  BZF d   1       1.180  -2.053   0.640  0.00  0.00     0.022 A 
ATOM      8  C7  BZF d   1       1.403  -0.937  -0.096  0.00  0.00     0.029 A 
ATOM      9  C7A BZF d   1       0.406   0.007  -0.117  0.00  0.00     0.058 A 
ENDROOT
TORSDOF 0
ENDMDL
