MODEL 1
REMARK minimizedAffinity -3.3874464
REMARK minimizedRMSD -1
REMARK  0 active torsions:
REMARK  status: ('A' for Active; 'I' for Inactive)
ROOT
ATOM      1  O1  BZF d   1       0.398  -1.709   0.520  0.00  0.00    -0.204 OA
ATOM      2  C2  BZF d   1      -0.711  -2.104   1.242  0.00  0.00     0.174 A 
ATOM      3  C3  BZF d   1      -1.546  -1.065   1.443  0.00  0.00    -0.012 A 
ATOM      4  C3A BZF d   1      -0.965   0.029   0.727  0.00  0.00    -0.107 A 
ATOM      5  C4  BZF d   1      -1.338   1.328   0.533  0.00  0.00     0.055 A 
ATOM      6  C5  BZF d   1      -0.511   2.157  -0.157  0.00  0.00    -0.016 A 
ATOM      7  C6  BZF d   1       0.697   1.721  -0.662  0.00  0.00     0.022 A 
ATOM      8  C7  BZF d   1       1.107   0.440  -0.500  0.00  0.00     0.029 A 
ATOM      9  C7A BZF d   1       0.259  -0.408   0.169  0.00  0.00     0.058 A 
ENDROOT
TORSDOF 0
ENDMDL
