MODEL 1
REMARK minimizedAffinity -1.78441024
REMARK minimizedRMSD -1
REMARK  0 active torsions:
REMARK  status: ('A' for Active; 'I' for Inactive)
ROOT
ATOM      1  O1  BZF d   1      -0.549   2.142  -0.460  0.00  0.00    -0.204 OA
ATOM      2  C2  BZF d   1      -1.442   2.141  -1.514  0.00  0.00     0.174 A 
ATOM      3  C3  BZF d   1      -1.396   0.968  -2.178  0.00  0.00    -0.012 A 
ATOM      4  C3A BZF d   1      -0.479   0.153  -1.441  0.00  0.00    -0.107 A 
ATOM      5  C4  BZF d   1      -0.027  -1.126  -1.594  0.00  0.00     0.055 A 
ATOM      6  C5  BZF d   1       0.922  -1.597  -0.744  0.00  0.00    -0.016 A 
ATOM      7  C6  BZF d   1       1.445  -0.817   0.266  0.00  0.00     0.022 A 
ATOM      8  C7  BZF d   1       1.024   0.457   0.461  0.00  0.00     0.029 A 
ATOM      9  C7A BZF d   1       0.041   0.925  -0.376  0.00  0.00     0.058 A 
ENDROOT
TORSDOF 0
ENDMDL
