MODEL 1
REMARK minimizedAffinity -4.59354544
REMARK minimizedRMSD -1
REMARK  0 active torsions:
REMARK  status: ('A' for Active; 'I' for Inactive)
ROOT
ATOM      1  O1  BZF d   1       0.960   1.137  -0.698  0.00  0.00    -0.204 OA
ATOM      2  C2  BZF d   1      -0.368   1.477  -0.870  0.00  0.00     0.174 A 
ATOM      3  C3  BZF d   1      -1.169   0.422  -0.616  0.00  0.00    -0.012 A 
ATOM      4  C3A BZF d   1      -0.292  -0.619  -0.174  0.00  0.00    -0.107 A 
ATOM      5  C4  BZF d   1      -0.495  -1.904   0.239  0.00  0.00     0.055 A 
ATOM      6  C5  BZF d   1       0.581  -2.681   0.533  0.00  0.00    -0.016 A 
ATOM      7  C6  BZF d   1       1.872  -2.206   0.419  0.00  0.00     0.022 A 
ATOM      8  C7  BZF d   1       2.122  -0.936   0.018  0.00  0.00     0.029 A 
ATOM      9  C7A BZF d   1       1.036  -0.139  -0.248  0.00  0.00     0.058 A 
ENDROOT
TORSDOF 0
ENDMDL
