MODEL 1
REMARK minimizedAffinity -4.8175478
REMARK minimizedRMSD -1
REMARK  0 active torsions:
REMARK  status: ('A' for Active; 'I' for Inactive)
ROOT
ATOM      1  O1  BZF d   1       2.243  -1.720   0.695  0.00  0.00    -0.204 OA
ATOM      2  C2  BZF d   1       1.562  -2.742   1.329  0.00  0.00     0.174 A 
ATOM      3  C3  BZF d   1       0.253  -2.442   1.450  0.00  0.00    -0.012 A 
ATOM      4  C3A BZF d   1       0.089  -1.193   0.773  0.00  0.00    -0.107 A 
ATOM      5  C4  BZF d   1      -0.988  -0.387   0.536  0.00  0.00     0.055 A 
ATOM      6  C5  BZF d   1      -0.798   0.802  -0.093  0.00  0.00    -0.016 A 
ATOM      7  C6  BZF d   1       0.455   1.220  -0.494  0.00  0.00     0.022 A 
ATOM      8  C7  BZF d   1       1.553   0.453  -0.285  0.00  0.00     0.029 A 
ATOM      9  C7A BZF d   1       1.359  -0.765   0.321  0.00  0.00     0.058 A 
ENDROOT
TORSDOF 0
ENDMDL
