MODEL 1
REMARK minimizedAffinity -3.53838515
REMARK minimizedRMSD -1
REMARK  0 active torsions:
REMARK  status: ('A' for Active; 'I' for Inactive)
ROOT
ATOM      1  O1  BZF d   1       0.353   1.060   0.222  0.00  0.00    -0.204 OA
ATOM      2  C2  BZF d   1       1.622   1.010  -0.320  0.00  0.00     0.174 A 
ATOM      3  C3  BZF d   1       2.143  -0.229  -0.204  0.00  0.00    -0.012 A 
ATOM      4  C3A BZF d   1       1.101  -1.023   0.369  0.00  0.00    -0.107 A 
ATOM      5  C4  BZF d   1       1.005  -2.342   0.712  0.00  0.00     0.055 A 
ATOM      6  C5  BZF d   1      -0.126  -2.786   1.319  0.00  0.00    -0.016 A 
ATOM      7  C6  BZF d   1      -1.179  -1.941   1.601  0.00  0.00     0.022 A 
ATOM      8  C7  BZF d   1      -1.133  -0.626   1.275  0.00  0.00     0.029 A 
ATOM      9  C7A BZF d   1      -0.004  -0.180   0.633  0.00  0.00     0.058 A 
ENDROOT
TORSDOF 0
ENDMDL
