MODEL 1
REMARK minimizedAffinity -2.91672039
REMARK minimizedRMSD -1
REMARK  0 active torsions:
REMARK  status: ('A' for Active; 'I' for Inactive)
ROOT
ATOM      1  O1  BZF d   1       2.247  -1.634  -0.013  0.00  0.00    -0.204 OA
ATOM      2  C2  BZF d   1       1.653  -2.724   0.594  0.00  0.00     0.174 A 
ATOM      3  C3  BZF d   1       0.347  -2.487   0.830  0.00  0.00    -0.012 A 
ATOM      4  C3A BZF d   1       0.088  -1.202   0.256  0.00  0.00    -0.107 A 
ATOM      5  C4  BZF d   1      -1.033  -0.428   0.156  0.00  0.00     0.055 A 
ATOM      6  C5  BZF d   1      -0.933   0.809  -0.399  0.00  0.00    -0.016 A 
ATOM      7  C6  BZF d   1       0.270   1.304  -0.858  0.00  0.00     0.022 A 
ATOM      8  C7  BZF d   1       1.407   0.571  -0.784  0.00  0.00     0.029 A 
ATOM      9  C7A BZF d   1       1.304  -0.692  -0.254  0.00  0.00     0.058 A 
ENDROOT
TORSDOF 0
ENDMDL
