MODEL 1
REMARK minimizedAffinity -4.29843569
REMARK minimizedRMSD -1
REMARK  0 active torsions:
REMARK  status: ('A' for Active; 'I' for Inactive)
ROOT
ATOM      1  O1  BZF d   1       2.461  -1.732   0.394  0.00  0.00    -0.204 OA
ATOM      2  C2  BZF d   1       1.860  -2.850   0.939  0.00  0.00     0.174 A 
ATOM      3  C3  BZF d   1       0.524  -2.684   1.020  0.00  0.00    -0.012 A 
ATOM      4  C3A BZF d   1       0.265  -1.417   0.408  0.00  0.00    -0.107 A 
ATOM      5  C4  BZF d   1      -0.876  -0.704   0.171  0.00  0.00     0.055 A 
ATOM      6  C5  BZF d   1      -0.779   0.534  -0.381  0.00  0.00    -0.016 A 
ATOM      7  C6  BZF d   1       0.441   1.091  -0.703  0.00  0.00     0.022 A 
ATOM      8  C7  BZF d   1       1.600   0.421  -0.491  0.00  0.00     0.029 A 
ATOM      9  C7A BZF d   1       1.503  -0.844   0.036  0.00  0.00     0.058 A 
ENDROOT
TORSDOF 0
ENDMDL
