MODEL 1
REMARK minimizedAffinity -5.10453463
REMARK minimizedRMSD -1
REMARK  0 active torsions:
REMARK  status: ('A' for Active; 'I' for Inactive)
ROOT
ATOM      1  O1  BZF d   1       0.452   1.056  -1.085  0.00  0.00    -0.204 OA
ATOM      2  C2  BZF d   1      -0.902   1.251  -0.896  0.00  0.00     0.174 A 
ATOM      3  C3  BZF d   1      -1.451   0.201  -0.251  0.00  0.00    -0.012 A 
ATOM      4  C3A BZF d   1      -0.355  -0.665   0.059  0.00  0.00    -0.107 A 
ATOM      5  C4  BZF d   1      -0.260  -1.862   0.709  0.00  0.00     0.055 A 
ATOM      6  C5  BZF d   1       0.948  -2.481   0.779  0.00  0.00    -0.016 A 
ATOM      7  C6  BZF d   1       2.078  -1.934   0.207  0.00  0.00     0.022 A 
ATOM      8  C7  BZF d   1       2.034  -0.746  -0.444  0.00  0.00     0.029 A 
ATOM      9  C7A BZF d   1       0.821  -0.102  -0.487  0.00  0.00     0.058 A 
ENDROOT
TORSDOF 0
ENDMDL
