MODEL 1
REMARK minimizedAffinity -4.46008492
REMARK minimizedRMSD -1
REMARK  0 active torsions:
REMARK  status: ('A' for Active; 'I' for Inactive)
ROOT
ATOM      1  O1  BZF d   1      -0.852   0.537   0.529  0.00  0.00    -0.204 OA
ATOM      2  C2  BZF d   1      -0.118   1.292  -0.365  0.00  0.00     0.174 A 
ATOM      3  C3  BZF d   1       1.029   0.663  -0.694  0.00  0.00    -0.012 A 
ATOM      4  C3A BZF d   1       0.967  -0.604  -0.031  0.00  0.00    -0.107 A 
ATOM      5  C4  BZF d   1       1.805  -1.681   0.016  0.00  0.00     0.055 A 
ATOM      6  C5  BZF d   1       1.486  -2.732   0.815  0.00  0.00    -0.016 A 
ATOM      7  C6  BZF d   1       0.340  -2.738   1.584  0.00  0.00     0.022 A 
ATOM      8  C7  BZF d   1      -0.525  -1.694   1.567  0.00  0.00     0.029 A 
ATOM      9  C7A BZF d   1      -0.221  -0.644   0.735  0.00  0.00     0.058 A 
ENDROOT
TORSDOF 0
ENDMDL
