MODEL 1
REMARK minimizedAffinity -5.02233744
REMARK minimizedRMSD -1
REMARK  0 active torsions:
REMARK  status: ('A' for Active; 'I' for Inactive)
ROOT
ATOM      1  O1  BZF d   1       0.232  -2.579   1.045  0.00  0.00    -0.204 OA
ATOM      2  C2  BZF d   1       1.564  -2.826   0.776  0.00  0.00     0.174 A 
ATOM      3  C3  BZF d   1       2.138  -1.759   0.183  0.00  0.00    -0.012 A 
ATOM      4  C3A BZF d   1       1.122  -0.751   0.157  0.00  0.00    -0.107 A 
ATOM      5  C4  BZF d   1       1.090   0.537  -0.294  0.00  0.00     0.055 A 
ATOM      6  C5  BZF d   1      -0.080   1.227  -0.237  0.00  0.00    -0.016 A 
ATOM      7  C6  BZF d   1      -1.235   0.659   0.258  0.00  0.00     0.022 A 
ATOM      8  C7  BZF d   1      -1.250  -0.615   0.722  0.00  0.00     0.029 A 
ATOM      9  C7A BZF d   1      -0.062  -1.304   0.696  0.00  0.00     0.058 A 
ENDROOT
TORSDOF 0
ENDMDL
