MODEL 1
REMARK minimizedAffinity -4.29138565
REMARK minimizedRMSD -1
REMARK  0 active torsions:
REMARK  status: ('A' for Active; 'I' for Inactive)
ROOT
ATOM      1  O1  BZF d   1      -1.540  -0.350  -0.229  0.00  0.00    -0.204 OA
ATOM      2  C2  BZF d   1      -1.562   0.840  -0.930  0.00  0.00     0.174 A 
ATOM      3  C3  BZF d   1      -0.321   1.358  -1.031  0.00  0.00    -0.012 A 
ATOM      4  C3A BZF d   1       0.542   0.388  -0.431  0.00  0.00    -0.107 A 
ATOM      5  C4  BZF d   1       1.893   0.322  -0.241  0.00  0.00     0.055 A 
ATOM      6  C5  BZF d   1       2.413  -0.729   0.444  0.00  0.00    -0.016 A 
ATOM      7  C6  BZF d   1       1.613  -1.729   0.957  0.00  0.00     0.022 A 
ATOM      8  C7  BZF d   1       0.269  -1.710   0.790  0.00  0.00     0.029 A 
ATOM      9  C7A BZF d   1      -0.257  -0.666   0.069  0.00  0.00     0.058 A 
ENDROOT
TORSDOF 0
ENDMDL
