MODEL 1
REMARK minimizedAffinity -4.63404179
REMARK minimizedRMSD -1
REMARK  1 active torsions:
REMARK  status: ('A' for Active; 'I' for Inactive)
REMARK    1  A    between atoms: C1_2  and  C2_3 
ROOT
ATOM      1  C2  UNL d   1      -0.631  -0.255   0.211  0.00  0.00    -0.076 A 
ATOM      2  C3  UNL d   1      -1.763   0.129   0.951  0.00  0.00     0.004 A 
ATOM      3  C4  UNL d   1      -2.364  -0.749   1.851  0.00  0.00    -0.003 A 
ATOM      4  C5  UNL d   1      -1.842  -2.026   2.026  0.00  0.00     0.000 A 
ATOM      5  C6  UNL d   1      -0.710  -2.418   1.313  0.00  0.00     0.000 A 
ATOM      6  C7  UNL d   1      -0.082  -1.539   0.414  0.00  0.00    -0.073 A 
ATOM      7  C8  UNL d   1       1.133  -2.017  -0.333  0.00  0.00     0.078 C 
ENDROOT
BRANCH   1   8
ATOM      8  C1  UNL d   1      -0.039   0.731  -0.771  0.00  0.00     0.053 C 
ATOM      9  C   UNL d   1       0.057   2.136  -0.199  0.00  0.00     0.018 C 
ENDBRANCH   1   8
TORSDOF 1
ENDMDL
