MODEL 1
REMARK minimizedAffinity -3.07901692
REMARK minimizedRMSD -1
REMARK  1 active torsions:
REMARK  status: ('A' for Active; 'I' for Inactive)
REMARK    1  A    between atoms: C1_2  and  C2_3 
ROOT
ATOM      1  C2  UNL d   1      -0.161   0.434   0.551  0.00  0.00    -0.076 A 
ATOM      2  C3  UNL d   1       0.842  -0.486   0.199  0.00  0.00     0.004 A 
ATOM      3  C4  UNL d   1       0.761  -1.821   0.592  0.00  0.00    -0.003 A 
ATOM      4  C5  UNL d   1      -0.324  -2.258   1.342  0.00  0.00     0.000 A 
ATOM      5  C6  UNL d   1      -1.338  -1.363   1.685  0.00  0.00     0.000 A 
ATOM      6  C7  UNL d   1      -1.280  -0.018   1.284  0.00  0.00    -0.073 A 
ATOM      7  C8  UNL d   1      -2.397   0.905   1.687  0.00  0.00     0.078 C 
ENDROOT
BRANCH   1   8
ATOM      8  C1  UNL d   1      -0.006   1.875   0.120  0.00  0.00     0.053 C 
ATOM      9  C   UNL d   1       0.932   2.031  -1.066  0.00  0.00     0.018 C 
ENDBRANCH   1   8
TORSDOF 1
ENDMDL
