MODEL 1
REMARK minimizedAffinity -1.89821804
REMARK minimizedRMSD -1
REMARK  1 active torsions:
REMARK  status: ('A' for Active; 'I' for Inactive)
REMARK    1  A    between atoms: C1_2  and  C2_3 
ROOT
ATOM      1  C2  UNL d   1       1.331   2.174  -1.571  0.00  0.00    -0.076 A 
ATOM      2  C3  UNL d   1       2.694   1.835  -1.610  0.00  0.00     0.004 A 
ATOM      3  C4  UNL d   1       3.420   1.914  -2.798  0.00  0.00    -0.003 A 
ATOM      4  C5  UNL d   1       2.793   2.334  -3.966  0.00  0.00     0.000 A 
ATOM      5  C6  UNL d   1       1.445   2.691  -3.942  0.00  0.00     0.000 A 
ATOM      6  C7  UNL d   1       0.704   2.633  -2.749  0.00  0.00    -0.073 A 
ATOM      7  C8  UNL d   1      -0.748   3.024  -2.783  0.00  0.00     0.078 C 
ENDROOT
BRANCH   1   8
ATOM      8  C1  UNL d   1       0.589   2.043  -0.260  0.00  0.00     0.053 C 
ATOM      9  C   UNL d   1       0.515   0.603   0.226  0.00  0.00     0.018 C 
ENDBRANCH   1   8
TORSDOF 1
ENDMDL
