MODEL 1
REMARK minimizedAffinity -3.09097385
REMARK minimizedRMSD -1
REMARK  1 active torsions:
REMARK  status: ('A' for Active; 'I' for Inactive)
REMARK    1  A    between atoms: C1_2  and  C2_3 
ROOT
ATOM      1  C2  UNL d   1      -0.926  -0.195   0.361  0.00  0.00    -0.076 A 
ATOM      2  C3  UNL d   1      -1.928   0.092   1.305  0.00  0.00     0.004 A 
ATOM      3  C4  UNL d   1      -2.355  -0.875   2.214  0.00  0.00    -0.003 A 
ATOM      4  C5  UNL d   1      -1.788  -2.144   2.193  0.00  0.00     0.000 A 
ATOM      5  C6  UNL d   1      -0.781  -2.441   1.275  0.00  0.00     0.000 A 
ATOM      6  C7  UNL d   1      -0.327  -1.473   0.363  0.00  0.00    -0.073 A 
ATOM      7  C8  UNL d   1       0.757  -1.849  -0.609  0.00  0.00     0.078 C 
ENDROOT
BRANCH   1   8
ATOM      8  C1  UNL d   1      -0.523   0.885  -0.617  0.00  0.00     0.053 C 
ATOM      9  C   UNL d   1       0.631   1.733  -0.105  0.00  0.00     0.018 C 
ENDBRANCH   1   8
TORSDOF 1
ENDMDL
