MODEL 1
REMARK minimizedAffinity -3.4933176
REMARK minimizedRMSD -1
REMARK  1 active torsions:
REMARK  status: ('A' for Active; 'I' for Inactive)
REMARK    1  A    between atoms: C1_2  and  C2_3 
ROOT
ATOM      1  C2  UNL d   1       0.777   0.996  -1.744  0.00  0.00    -0.076 A 
ATOM      2  C3  UNL d   1       0.683  -0.201  -2.476  0.00  0.00     0.004 A 
ATOM      3  C4  UNL d   1       0.640  -1.435  -1.831  0.00  0.00    -0.003 A 
ATOM      4  C5  UNL d   1       0.690  -1.493  -0.442  0.00  0.00     0.000 A 
ATOM      5  C6  UNL d   1       0.766  -0.316   0.301  0.00  0.00     0.000 A 
ATOM      6  C7  UNL d   1       0.794   0.938  -0.334  0.00  0.00    -0.073 A 
ATOM      7  C8  UNL d   1       0.882   2.176   0.516  0.00  0.00     0.078 C 
ENDROOT
BRANCH   1   8
ATOM      8  C1  UNL d   1       0.848   2.304  -2.500  0.00  0.00     0.053 C 
ATOM      9  C   UNL d   1       0.942   2.103  -4.004  0.00  0.00     0.018 C 
ENDBRANCH   1   8
TORSDOF 1
ENDMDL
