MODEL 1
REMARK minimizedAffinity -4.35208607
REMARK minimizedRMSD -1
REMARK  1 active torsions:
REMARK  status: ('A' for Active; 'I' for Inactive)
REMARK    1  A    between atoms: C1_2  and  C2_3 
ROOT
ATOM      1  C2  UNL d   1      -0.524  -0.300   0.610  0.00  0.00    -0.076 A 
ATOM      2  C3  UNL d   1      -1.634   0.330   1.198  0.00  0.00     0.004 A 
ATOM      3  C4  UNL d   1      -2.414  -0.330   2.146  0.00  0.00    -0.003 A 
ATOM      4  C5  UNL d   1      -2.096  -1.631   2.521  0.00  0.00     0.000 A 
ATOM      5  C6  UNL d   1      -0.988  -2.265   1.961  0.00  0.00     0.000 A 
ATOM      6  C7  UNL d   1      -0.181  -1.607   1.016  0.00  0.00    -0.073 A 
ATOM      7  C8  UNL d   1       0.998  -2.341   0.439  0.00  0.00     0.078 C 
ENDROOT
BRANCH   1   8
ATOM      8  C1  UNL d   1       0.269   0.456  -0.432  0.00  0.00     0.053 C 
ATOM      9  C   UNL d   1      -0.332   0.333  -1.824  0.00  0.00     0.018 C 
ENDBRANCH   1   8
TORSDOF 1
ENDMDL
