MODEL 1
REMARK minimizedAffinity -1.8936615
REMARK minimizedRMSD -1
REMARK  1 active torsions:
REMARK  status: ('A' for Active; 'I' for Inactive)
REMARK    1  A    between atoms: C1_2  and  C2_3 
ROOT
ATOM      1  C2  UNL d   1       0.442  -1.148   0.400  0.00  0.00    -0.076 A 
ATOM      2  C3  UNL d   1      -0.585  -0.209   0.204  0.00  0.00     0.004 A 
ATOM      3  C4  UNL d   1      -0.334   1.008  -0.429  0.00  0.00    -0.003 A 
ATOM      4  C5  UNL d   1       0.949   1.304  -0.877  0.00  0.00     0.000 A 
ATOM      5  C6  UNL d   1       1.976   0.377  -0.707  0.00  0.00     0.000 A 
ATOM      6  C7  UNL d   1       1.736  -0.861  -0.085  0.00  0.00    -0.073 A 
ATOM      7  C8  UNL d   1       2.883  -1.821   0.077  0.00  0.00     0.078 C 
ENDROOT
BRANCH   1   8
ATOM      8  C1  UNL d   1       0.116  -2.439   1.116  0.00  0.00     0.053 C 
ATOM      9  C   UNL d   1      -1.032  -2.284   2.102  0.00  0.00     0.018 C 
ENDBRANCH   1   8
TORSDOF 1
ENDMDL
