MODEL 1
REMARK minimizedAffinity -4.1103816
REMARK minimizedRMSD -1
REMARK  1 active torsions:
REMARK  status: ('A' for Active; 'I' for Inactive)
REMARK    1  A    between atoms: C1_2  and  C2_3 
ROOT
ATOM      1  C2  UNL d   1       0.498   0.457  -0.793  0.00  0.00    -0.076 A 
ATOM      2  C3  UNL d   1       1.066  -0.753  -1.228  0.00  0.00     0.004 A 
ATOM      3  C4  UNL d   1       1.032  -1.891  -0.425  0.00  0.00    -0.003 A 
ATOM      4  C5  UNL d   1       0.427  -1.839   0.826  0.00  0.00     0.000 A 
ATOM      5  C6  UNL d   1      -0.157  -0.652   1.266  0.00  0.00     0.000 A 
ATOM      6  C7  UNL d   1      -0.145   0.501   0.462  0.00  0.00    -0.073 A 
ATOM      7  C8  UNL d   1      -0.785   1.756   0.989  0.00  0.00     0.078 C 
ENDROOT
BRANCH   1   8
ATOM      8  C1  UNL d   1       0.590   1.666  -1.697  0.00  0.00     0.053 C 
ATOM      9  C   UNL d   1       2.002   1.904  -2.210  0.00  0.00     0.018 C 
ENDBRANCH   1   8
TORSDOF 1
ENDMDL
