MODEL 1
REMARK minimizedAffinity -3.69057417
REMARK minimizedRMSD -1
REMARK  1 active torsions:
REMARK  status: ('A' for Active; 'I' for Inactive)
REMARK    1  A    between atoms: C1_2  and  C2_3 
ROOT
ATOM      1  C2  UNL d   1       0.298   0.630  -1.646  0.00  0.00    -0.076 A 
ATOM      2  C3  UNL d   1       0.374  -0.698  -2.101  0.00  0.00     0.004 A 
ATOM      3  C4  UNL d   1       0.254  -1.768  -1.216  0.00  0.00    -0.003 A 
ATOM      4  C5  UNL d   1       0.054  -1.527   0.139  0.00  0.00     0.000 A 
ATOM      5  C6  UNL d   1      -0.041  -0.217   0.606  0.00  0.00     0.000 A 
ATOM      6  C7  UNL d   1       0.062   0.873  -0.276  0.00  0.00    -0.073 A 
ATOM      7  C8  UNL d   1      -0.043   2.266   0.283  0.00  0.00     0.078 C 
ENDROOT
BRANCH   1   8
ATOM      8  C1  UNL d   1       0.463   1.750  -2.648  0.00  0.00     0.053 C 
ATOM      9  C   UNL d   1       1.919   2.139  -2.853  0.00  0.00     0.018 C 
ENDBRANCH   1   8
TORSDOF 1
ENDMDL
