MODEL 1
REMARK minimizedAffinity -5.7236433
REMARK minimizedRMSD -1
REMARK  1 active torsions:
REMARK  status: ('A' for Active; 'I' for Inactive)
REMARK    1  A    between atoms: C1_2  and  C2_3 
ROOT
ATOM      1  C2  UNL d   1       0.256   0.171  -0.912  0.00  0.00    -0.076 A 
ATOM      2  C3  UNL d   1       0.589  -1.136  -1.307  0.00  0.00     0.004 A 
ATOM      3  C4  UNL d   1       0.450  -2.209  -0.428  0.00  0.00    -0.003 A 
ATOM      4  C5  UNL d   1      -0.024  -1.991   0.861  0.00  0.00     0.000 A 
ATOM      5  C6  UNL d   1      -0.376  -0.704   1.264  0.00  0.00     0.000 A 
ATOM      6  C7  UNL d   1      -0.258   0.386   0.385  0.00  0.00    -0.073 A 
ATOM      7  C8  UNL d   1      -0.646   1.754   0.874  0.00  0.00     0.078 C 
ENDROOT
BRANCH   1   8
ATOM      8  C1  UNL d   1       0.453   1.299  -1.900  0.00  0.00     0.053 C 
ATOM      9  C   UNL d   1       1.786   2.007  -1.718  0.00  0.00     0.018 C 
ENDBRANCH   1   8
TORSDOF 1
ENDMDL
