MODEL 1
REMARK minimizedAffinity -1.66618371
REMARK minimizedRMSD -1
REMARK  1 active torsions:
REMARK  status: ('A' for Active; 'I' for Inactive)
REMARK    1  A    between atoms: C1_2  and  C2_3 
ROOT
ATOM      1  C2  UNL d   1       0.616   0.638  -1.190  0.00  0.00    -0.076 A 
ATOM      2  C3  UNL d   1       1.005  -0.661  -1.560  0.00  0.00     0.004 A 
ATOM      3  C4  UNL d   1       0.835  -1.736  -0.689  0.00  0.00    -0.003 A 
ATOM      4  C5  UNL d   1       0.272  -1.530   0.565  0.00  0.00     0.000 A 
ATOM      5  C6  UNL d   1      -0.137  -0.251   0.942  0.00  0.00     0.000 A 
ATOM      6  C7  UNL d   1       0.013   0.841   0.070  0.00  0.00    -0.073 A 
ATOM      7  C8  UNL d   1      -0.439   2.200   0.530  0.00  0.00     0.078 C 
ENDROOT
BRANCH   1   8
ATOM      8  C1  UNL d   1       0.850   1.769  -2.166  0.00  0.00     0.053 C 
ATOM      9  C   UNL d   1       1.039   1.278  -3.593  0.00  0.00     0.018 C 
ENDBRANCH   1   8
TORSDOF 1
ENDMDL
