MODEL 1
REMARK minimizedAffinity -5.73548365
REMARK minimizedRMSD -1
REMARK  1 active torsions:
REMARK  status: ('A' for Active; 'I' for Inactive)
REMARK    1  A    between atoms: C1_2  and  C2_3 
ROOT
ATOM      1  C2  UNL d   1      -0.780  -1.125  -0.186  0.00  0.00    -0.076 A 
ATOM      2  C3  UNL d   1       0.115  -1.539  -1.187  0.00  0.00     0.004 A 
ATOM      3  C4  UNL d   1       0.852  -0.610  -1.919  0.00  0.00    -0.003 A 
ATOM      4  C5  UNL d   1       0.707   0.749  -1.661  0.00  0.00     0.000 A 
ATOM      5  C6  UNL d   1      -0.163   1.177  -0.659  0.00  0.00     0.000 A 
ATOM      6  C7  UNL d   1      -0.902   0.252   0.100  0.00  0.00    -0.073 A 
ATOM      7  C8  UNL d   1      -1.830   0.769   1.164  0.00  0.00     0.078 C 
ENDROOT
BRANCH   1   8
ATOM      8  C1  UNL d   1      -1.573  -2.177   0.557  0.00  0.00     0.053 C 
ATOM      9  C   UNL d   1      -0.864  -2.664   1.811  0.00  0.00     0.018 C 
ENDBRANCH   1   8
TORSDOF 1
ENDMDL
