MODEL 1
REMARK minimizedAffinity -0.877898753
REMARK minimizedRMSD -1
REMARK  0 active torsions:
REMARK  status: ('A' for Active; 'I' for Inactive)
ROOT
ATOM      1  C1  DEN d   1      -1.495   0.893  -1.050  0.00  0.00     0.130 A 
ATOM      2  C2  DEN d   1      -0.773   0.473  -2.248  0.00  0.00    -0.031 A 
ATOM      3  C3  DEN d   1       0.327  -0.419  -1.828  0.00  0.00     0.027 A 
ATOM      4  C4  DEN d   1       0.975  -1.189   0.547  0.00  0.00     0.027 A 
ATOM      5  C5  DEN d   1       0.663  -1.086   1.884  0.00  0.00    -0.003 A 
ATOM      6  C6  DEN d   1      -0.360  -0.296   2.337  0.00  0.00     0.001 A 
ATOM      7  C7  DEN d   1      -1.138   0.388   1.440  0.00  0.00     0.017 A 
ATOM      8  C8  DEN d   1      -0.825   0.295   0.090  0.00  0.00    -0.094 A 
ATOM      9  C9  DEN d   1       0.206  -0.519  -0.349  0.00  0.00    -0.072 A 
ENDROOT
TORSDOF 0
ENDMDL
