MODEL 1
REMARK minimizedAffinity -1.83558571
REMARK minimizedRMSD -1
REMARK  0 active torsions:
REMARK  status: ('A' for Active; 'I' for Inactive)
ROOT
ATOM      1  C1  DEN d   1       1.964  -0.843   2.150  0.00  0.00     0.130 A 
ATOM      2  C2  DEN d   1       1.284  -1.084   3.420  0.00  0.00    -0.031 A 
ATOM      3  C3  DEN d   1      -0.153  -0.802   3.230  0.00  0.00     0.027 A 
ATOM      4  C4  DEN d   1      -1.386  -0.024   1.103  0.00  0.00     0.027 A 
ATOM      5  C5  DEN d   1      -1.230   0.327  -0.220  0.00  0.00    -0.003 A 
ATOM      6  C6  DEN d   1      -0.005   0.346  -0.831  0.00  0.00     0.001 A 
ATOM      7  C7  DEN d   1       1.109  -0.037  -0.131  0.00  0.00     0.017 A 
ATOM      8  C8  DEN d   1       0.961  -0.385   1.205  0.00  0.00    -0.094 A 
ATOM      9  C9  DEN d   1      -0.289  -0.410   1.802  0.00  0.00    -0.072 A 
ENDROOT
TORSDOF 0
ENDMDL
