MODEL 1
REMARK minimizedAffinity -2.50799966
REMARK minimizedRMSD -1
REMARK  0 active torsions:
REMARK  status: ('A' for Active; 'I' for Inactive)
ROOT
ATOM      1  C1  DEN d   1      -1.327   0.418  -0.019  0.00  0.00     0.130 A 
ATOM      2  C2  DEN d   1      -0.848   0.742  -1.360  0.00  0.00    -0.031 A 
ATOM      3  C3  DEN d   1       0.599   0.451  -1.411  0.00  0.00     0.027 A 
ATOM      4  C4  DEN d   1       2.135  -0.470   0.445  0.00  0.00     0.027 A 
ATOM      5  C5  DEN d   1       2.185  -0.885   1.758  0.00  0.00    -0.003 A 
ATOM      6  C6  DEN d   1       1.085  -0.864   2.573  0.00  0.00     0.001 A 
ATOM      7  C7  DEN d   1      -0.124  -0.460   2.071  0.00  0.00     0.017 A 
ATOM      8  C8  DEN d   1      -0.181  -0.033   0.751  0.00  0.00    -0.094 A 
ATOM      9  C9  DEN d   1       0.940  -0.073  -0.061  0.00  0.00    -0.072 A 
ENDROOT
TORSDOF 0
ENDMDL
