MODEL 1
REMARK minimizedAffinity -3.09750772
REMARK minimizedRMSD -1
REMARK  0 active torsions:
REMARK  status: ('A' for Active; 'I' for Inactive)
ROOT
ATOM      1  C1  DEN d   1      -1.262   0.115  -0.139  0.00  0.00     0.130 A 
ATOM      2  C2  DEN d   1      -0.594   0.094  -1.437  0.00  0.00    -0.031 A 
ATOM      3  C3  DEN d   1       0.836  -0.195  -1.209  0.00  0.00     0.027 A 
ATOM      4  C4  DEN d   1       2.073  -0.614   1.015  0.00  0.00     0.027 A 
ATOM      5  C5  DEN d   1       1.929  -0.686   2.383  0.00  0.00    -0.003 A 
ATOM      6  C6  DEN d   1       0.728  -0.465   3.004  0.00  0.00     0.001 A 
ATOM      7  C7  DEN d   1      -0.387  -0.205   2.251  0.00  0.00     0.017 A 
ATOM      8  C8  DEN d   1      -0.248  -0.123   0.872  0.00  0.00    -0.094 A 
ATOM      9  C9  DEN d   1       0.972  -0.362   0.263  0.00  0.00    -0.072 A 
ENDROOT
TORSDOF 0
ENDMDL
