MODEL 1
REMARK minimizedAffinity -5.25372648
REMARK minimizedRMSD -1
REMARK  0 active torsions:
REMARK  status: ('A' for Active; 'I' for Inactive)
ROOT
ATOM      1  C1  DEN d   1       1.885  -0.807   1.771  0.00  0.00     0.130 A 
ATOM      2  C2  DEN d   1       1.198  -1.069   3.033  0.00  0.00    -0.031 A 
ATOM      3  C3  DEN d   1      -0.226  -0.719   2.859  0.00  0.00     0.027 A 
ATOM      4  C4  DEN d   1      -1.429   0.194   0.768  0.00  0.00     0.027 A 
ATOM      5  C5  DEN d   1      -1.261   0.589  -0.540  0.00  0.00    -0.003 A 
ATOM      6  C6  DEN d   1      -0.037   0.580  -1.155  0.00  0.00     0.001 A 
ATOM      7  C7  DEN d   1       1.061   0.123  -0.474  0.00  0.00     0.017 A 
ATOM      8  C8  DEN d   1       0.901  -0.271   0.848  0.00  0.00    -0.094 A 
ATOM      9  C9  DEN d   1      -0.347  -0.265   1.448  0.00  0.00    -0.072 A 
ENDROOT
TORSDOF 0
ENDMDL
