MODEL 1
REMARK minimizedAffinity -2.37727523
REMARK minimizedRMSD -1
REMARK  0 active torsions:
REMARK  status: ('A' for Active; 'I' for Inactive)
ROOT
ATOM      1  C1  DEN d   1      -1.809  -0.241  -0.083  0.00  0.00     0.130 A 
ATOM      2  C2  DEN d   1      -2.580  -0.259   1.157  0.00  0.00    -0.031 A 
ATOM      3  C3  DEN d   1      -1.634  -0.151   2.285  0.00  0.00     0.027 A 
ATOM      4  C4  DEN d   1       0.938   0.046   2.232  0.00  0.00     0.027 A 
ATOM      5  C5  DEN d   1       2.043   0.092   1.412  0.00  0.00    -0.003 A 
ATOM      6  C6  DEN d   1       1.946  -0.003   0.049  0.00  0.00     0.001 A 
ATOM      7  C7  DEN d   1       0.712  -0.104  -0.538  0.00  0.00     0.017 A 
ATOM      8  C8  DEN d   1      -0.407  -0.158   0.283  0.00  0.00    -0.094 A 
ATOM      9  C9  DEN d   1      -0.288  -0.048   1.658  0.00  0.00    -0.072 A 
ENDROOT
TORSDOF 0
ENDMDL
