MODEL 1
REMARK minimizedAffinity -4.94186831
REMARK minimizedRMSD -1
REMARK  0 active torsions:
REMARK  status: ('A' for Active; 'I' for Inactive)
ROOT
ATOM      1  C1  DEN d   1       1.908  -0.828  -0.532  0.00  0.00     0.130 A 
ATOM      2  C2  DEN d   1       0.913  -0.635  -1.584  0.00  0.00    -0.031 A 
ATOM      3  C3  DEN d   1      -0.365  -0.269  -0.943  0.00  0.00     0.027 A 
ATOM      4  C4  DEN d   1      -0.898   0.022   1.564  0.00  0.00     0.027 A 
ATOM      5  C5  DEN d   1      -0.378  -0.047   2.838  0.00  0.00    -0.003 A 
ATOM      6  C6  DEN d   1       0.921  -0.411   3.077  0.00  0.00     0.001 A 
ATOM      7  C7  DEN d   1       1.756  -0.677   2.025  0.00  0.00     0.017 A 
ATOM      8  C8  DEN d   1       1.237  -0.616   0.738  0.00  0.00    -0.094 A 
ATOM      9  C9  DEN d   1      -0.075  -0.234   0.516  0.00  0.00    -0.072 A 
ENDROOT
TORSDOF 0
ENDMDL
