MODEL 1
REMARK minimizedAffinity -3.22372389
REMARK minimizedRMSD -1
REMARK  0 active torsions:
REMARK  status: ('A' for Active; 'I' for Inactive)
ROOT
ATOM      1  C   UNL d   1      -1.707  -2.214   1.382  0.00  0.00     0.020 A 
ATOM      2  C1  UNL d   1      -1.618  -3.230   0.430  0.00  0.00     0.020 A 
ATOM      3  C2  UNL d   1      -1.062  -2.966  -0.823  0.00  0.00     0.034 A 
ATOM      4  C3  UNL d   1      -0.592  -1.684  -1.129  0.00  0.00     0.017 A 
ATOM      5  C4  UNL d   1      -0.682  -0.665  -0.173  0.00  0.00     0.017 A 
ATOM      6  C5  UNL d   1      -1.240  -0.935   1.080  0.00  0.00     0.034 A 
ATOM      7 Cl   UNL d   1      -0.124   0.943  -0.477  0.00  0.00    -0.070 Cl
ATOM      8 Cl1  UNL d   1       0.084  -1.429  -2.698  0.00  0.00    -0.070 Cl
ENDROOT
TORSDOF 0
ENDMDL
