MODEL 1
REMARK minimizedAffinity -0.465896398
REMARK minimizedRMSD -1
REMARK  0 active torsions:
REMARK  status: ('A' for Active; 'I' for Inactive)
ROOT
ATOM      1  C   UNL d   1      -0.211   0.786  -0.171  0.00  0.00     0.020 A 
ATOM      2  C1  UNL d   1       1.067   0.308  -0.455  0.00  0.00     0.020 A 
ATOM      3  C2  UNL d   1       1.377  -1.035  -0.228  0.00  0.00     0.034 A 
ATOM      4  C3  UNL d   1       0.407  -1.905   0.283  0.00  0.00     0.017 A 
ATOM      5  C4  UNL d   1      -0.877  -1.424   0.567  0.00  0.00     0.017 A 
ATOM      6  C5  UNL d   1      -1.181  -0.078   0.338  0.00  0.00     0.034 A 
ATOM      7 Cl   UNL d   1      -2.127  -2.436   1.200  0.00  0.00    -0.070 Cl
ATOM      8 Cl1  UNL d   1       0.859  -3.553   0.538  0.00  0.00    -0.070 Cl
ENDROOT
TORSDOF 0
ENDMDL
