MODEL 1
REMARK minimizedAffinity -1.61347008
REMARK minimizedRMSD -1
REMARK  0 active torsions:
REMARK  status: ('A' for Active; 'I' for Inactive)
ROOT
ATOM      1  C   UNL d   1       0.398   4.685   2.283  0.00  0.00     0.020 A 
ATOM      2  C1  UNL d   1      -0.771   3.965   2.045  0.00  0.00     0.020 A 
ATOM      3  C2  UNL d   1      -0.790   2.969   1.066  0.00  0.00     0.034 A 
ATOM      4  C3  UNL d   1       0.362   2.691   0.321  0.00  0.00     0.017 A 
ATOM      5  C4  UNL d   1       1.535   3.415   0.562  0.00  0.00     0.017 A 
ATOM      6  C5  UNL d   1       1.549   4.411   1.543  0.00  0.00     0.034 A 
ATOM      7 Cl   UNL d   1       2.997   3.129  -0.316  0.00  0.00    -0.070 Cl
ATOM      8 Cl1  UNL d   1       0.266   1.446  -0.873  0.00  0.00    -0.070 Cl
ENDROOT
TORSDOF 0
ENDMDL
