MODEL 1
REMARK minimizedAffinity -4.53902435
REMARK minimizedRMSD -1
REMARK  0 active torsions:
REMARK  status: ('A' for Active; 'I' for Inactive)
ROOT
ATOM      1  C   UNL d   1      -1.600  -1.656   2.161  0.00  0.00     0.020 A 
ATOM      2  C1  UNL d   1      -1.651  -2.757   1.308  0.00  0.00     0.020 A 
ATOM      3  C2  UNL d   1      -0.854  -2.791   0.162  0.00  0.00     0.034 A 
ATOM      4  C3  UNL d   1      -0.002  -1.721  -0.134  0.00  0.00     0.017 A 
ATOM      5  C4  UNL d   1       0.050  -0.616   0.723  0.00  0.00     0.017 A 
ATOM      6  C5  UNL d   1      -0.751  -0.587   1.869  0.00  0.00     0.034 A 
ATOM      7 Cl   UNL d   1       1.077   0.742   0.424  0.00  0.00    -0.070 Cl
ATOM      8 Cl1  UNL d   1       0.956  -1.830  -1.568  0.00  0.00    -0.070 Cl
ENDROOT
TORSDOF 0
ENDMDL
