MODEL 1
REMARK minimizedAffinity -4.32029057
REMARK minimizedRMSD -1
REMARK  0 active torsions:
REMARK  status: ('A' for Active; 'I' for Inactive)
ROOT
ATOM      1  C   UNL d   1       0.467  -2.530  -0.640  0.00  0.00     0.020 A 
ATOM      2  C1  UNL d   1      -0.540  -3.069   0.159  0.00  0.00     0.020 A 
ATOM      3  C2  UNL d   1      -1.332  -2.230   0.946  0.00  0.00     0.034 A 
ATOM      4  C3  UNL d   1      -1.117  -0.847   0.936  0.00  0.00     0.017 A 
ATOM      5  C4  UNL d   1      -0.105  -0.307   0.135  0.00  0.00     0.017 A 
ATOM      6  C5  UNL d   1       0.684  -1.152  -0.652  0.00  0.00     0.034 A 
ATOM      7 Cl   UNL d   1       0.219   1.390   0.070  0.00  0.00    -0.070 Cl
ATOM      8 Cl1  UNL d   1      -2.134   0.131   1.934  0.00  0.00    -0.070 Cl
ENDROOT
TORSDOF 0
ENDMDL
