MODEL 1
REMARK minimizedAffinity -4.32762909
REMARK minimizedRMSD -1
REMARK  0 active torsions:
REMARK  status: ('A' for Active; 'I' for Inactive)
ROOT
ATOM      1  C   UNL d   1      -1.466  -1.122   2.066  0.00  0.00     0.020 A 
ATOM      2  C1  UNL d   1      -1.606  -2.225   1.225  0.00  0.00     0.020 A 
ATOM      3  C2  UNL d   1      -0.894  -2.282   0.025  0.00  0.00     0.034 A 
ATOM      4  C3  UNL d   1      -0.039  -1.235  -0.337  0.00  0.00     0.017 A 
ATOM      5  C4  UNL d   1       0.101  -0.129   0.508  0.00  0.00     0.017 A 
ATOM      6  C5  UNL d   1      -0.614  -0.076   1.709  0.00  0.00     0.034 A 
ATOM      7 Cl   UNL d   1       1.137   1.202   0.129  0.00  0.00    -0.070 Cl
ATOM      8 Cl1  UNL d   1       0.810  -1.373  -1.835  0.00  0.00    -0.070 Cl
ENDROOT
TORSDOF 0
ENDMDL
