MODEL 1
REMARK minimizedAffinity -0.926726282
REMARK minimizedRMSD -1
REMARK  0 active torsions:
REMARK  status: ('A' for Active; 'I' for Inactive)
ROOT
ATOM      1  C   UNL d   1      -1.761  -1.767   1.609  0.00  0.00     0.020 A 
ATOM      2  C1  UNL d   1      -1.527  -2.671   0.574  0.00  0.00     0.020 A 
ATOM      3  C2  UNL d   1      -0.826  -2.265  -0.563  0.00  0.00     0.034 A 
ATOM      4  C3  UNL d   1      -0.357  -0.950  -0.668  0.00  0.00     0.017 A 
ATOM      5  C4  UNL d   1      -0.592  -0.043   0.371  0.00  0.00     0.017 A 
ATOM      6  C5  UNL d   1      -1.295  -0.456   1.508  0.00  0.00     0.034 A 
ATOM      7 Cl   UNL d   1      -0.045   1.595   0.314  0.00  0.00    -0.070 Cl
ATOM      8 Cl1  UNL d   1       0.503  -0.516  -2.103  0.00  0.00    -0.070 Cl
ENDROOT
TORSDOF 0
ENDMDL
