MODEL 1
REMARK minimizedAffinity -3.22609735
REMARK minimizedRMSD -1
REMARK  0 active torsions:
REMARK  status: ('A' for Active; 'I' for Inactive)
ROOT
ATOM      1  C   UNL d   1      -2.146  -1.402   1.442  0.00  0.00     0.020 A 
ATOM      2  C1  UNL d   1      -1.809  -2.616   0.846  0.00  0.00     0.020 A 
ATOM      3  C2  UNL d   1      -0.713  -2.691  -0.017  0.00  0.00     0.034 A 
ATOM      4  C3  UNL d   1       0.049  -1.548  -0.287  0.00  0.00     0.017 A 
ATOM      5  C4  UNL d   1      -0.290  -0.329   0.312  0.00  0.00     0.017 A 
ATOM      6  C5  UNL d   1      -1.388  -0.261   1.175  0.00  0.00     0.034 A 
ATOM      7 Cl   UNL d   1       0.602   1.123   0.027  0.00  0.00    -0.070 Cl
ATOM      8 Cl1  UNL d   1       1.390  -1.713  -1.363  0.00  0.00    -0.070 Cl
ENDROOT
TORSDOF 0
ENDMDL
