MODEL 1
REMARK minimizedAffinity -3.65833974
REMARK minimizedRMSD -1
REMARK  0 active torsions:
REMARK  status: ('A' for Active; 'I' for Inactive)
ROOT
ATOM      1  C   UNL d   1       1.071   0.018  -0.863  0.00  0.00     0.020 A 
ATOM      2  C1  UNL d   1       0.266   0.887  -0.127  0.00  0.00     0.020 A 
ATOM      3  C2  UNL d   1      -0.625   0.380   0.821  0.00  0.00     0.034 A 
ATOM      4  C3  UNL d   1      -0.714  -1.000   1.035  0.00  0.00     0.017 A 
ATOM      5  C4  UNL d   1       0.094  -1.872   0.296  0.00  0.00     0.017 A 
ATOM      6  C5  UNL d   1       0.985  -1.359  -0.652  0.00  0.00     0.034 A 
ATOM      7 Cl   UNL d   1       0.041  -3.587   0.505  0.00  0.00    -0.070 Cl
ATOM      8 Cl1  UNL d   1      -1.837  -1.558   2.224  0.00  0.00    -0.070 Cl
ENDROOT
TORSDOF 0
ENDMDL
