MODEL 1
REMARK minimizedAffinity -5.04638243
REMARK minimizedRMSD -1
REMARK  0 active torsions:
REMARK  status: ('A' for Active; 'I' for Inactive)
ROOT
ATOM      1  C   UNL d   1       1.005  -2.450   0.092  0.00  0.00     0.020 A 
ATOM      2  C1  UNL d   1      -0.084  -3.105   0.664  0.00  0.00     0.020 A 
ATOM      3  C2  UNL d   1      -1.220  -2.380   1.033  0.00  0.00     0.034 A 
ATOM      4  C3  UNL d   1      -1.268  -0.997   0.830  0.00  0.00     0.017 A 
ATOM      5  C4  UNL d   1      -0.174  -0.340   0.255  0.00  0.00     0.017 A 
ATOM      6  C5  UNL d   1       0.960  -1.070  -0.113  0.00  0.00     0.034 A 
ATOM      7 Cl   UNL d   1      -0.160   1.365  -0.027  0.00  0.00    -0.070 Cl
ATOM      8 Cl1  UNL d   1      -2.704  -0.164   1.310  0.00  0.00    -0.070 Cl
ENDROOT
TORSDOF 0
ENDMDL
