MODEL 1
REMARK minimizedAffinity -3.76093793
REMARK minimizedRMSD -1
REMARK  0 active torsions:
REMARK  status: ('A' for Active; 'I' for Inactive)
ROOT
ATOM      1  C   UNL d   1       0.364  -2.015   1.473  0.00  0.00     0.020 A 
ATOM      2  C1  UNL d   1       0.143  -2.735   0.300  0.00  0.00     0.020 A 
ATOM      3  C2  UNL d   1       0.168  -2.083  -0.935  0.00  0.00     0.034 A 
ATOM      4  C3  UNL d   1       0.413  -0.707  -1.000  0.00  0.00     0.017 A 
ATOM      5  C4  UNL d   1       0.634   0.015   0.179  0.00  0.00     0.017 A 
ATOM      6  C5  UNL d   1       0.609  -0.642   1.412  0.00  0.00     0.034 A 
ATOM      7 Cl   UNL d   1       0.943   1.716   0.179  0.00  0.00    -0.070 Cl
ATOM      8 Cl1  UNL d   1       0.429   0.034  -2.560  0.00  0.00    -0.070 Cl
ENDROOT
TORSDOF 0
ENDMDL
