MODEL 1
REMARK minimizedAffinity -3.70346117
REMARK minimizedRMSD -1
REMARK  0 active torsions:
REMARK  status: ('A' for Active; 'I' for Inactive)
ROOT
ATOM      1  C   UNL d   1       0.560   1.651  -0.203  0.00  0.00     0.020 A 
ATOM      2  C1  UNL d   1       0.260   1.120   1.051  0.00  0.00     0.020 A 
ATOM      3  C2  UNL d   1       0.087  -0.257   1.203  0.00  0.00     0.034 A 
ATOM      4  C3  UNL d   1       0.212  -1.109   0.099  0.00  0.00     0.017 A 
ATOM      5  C4  UNL d   1       0.512  -0.575  -1.160  0.00  0.00     0.017 A 
ATOM      6  C5  UNL d   1       0.685   0.805  -1.306  0.00  0.00     0.034 A 
ATOM      7 Cl   UNL d   1       0.682  -1.562  -2.568  0.00  0.00    -0.070 Cl
ATOM      8 Cl1  UNL d   1      -0.016  -2.801   0.360  0.00  0.00    -0.070 Cl
ENDROOT
TORSDOF 0
ENDMDL
