MODEL 1
REMARK minimizedAffinity -2.07666779
REMARK minimizedRMSD -1
REMARK  0 active torsions:
REMARK  status: ('A' for Active; 'I' for Inactive)
ROOT
ATOM      1  C   UNL d   1      -0.743   0.750   0.380  0.00  0.00     0.020 A 
ATOM      2  C1  UNL d   1      -0.401   1.258  -0.873  0.00  0.00     0.020 A 
ATOM      3  C2  UNL d   1       0.198   0.427  -1.823  0.00  0.00     0.034 A 
ATOM      4  C3  UNL d   1       0.457  -0.915  -1.521  0.00  0.00     0.017 A 
ATOM      5  C4  UNL d   1       0.114  -1.423  -0.263  0.00  0.00     0.017 A 
ATOM      6  C5  UNL d   1      -0.486  -0.587   0.684  0.00  0.00     0.034 A 
ATOM      7 Cl   UNL d   1       0.402  -3.068   0.183  0.00  0.00    -0.070 Cl
ATOM      8 Cl1  UNL d   1       1.200  -1.884  -2.743  0.00  0.00    -0.070 Cl
ENDROOT
TORSDOF 0
ENDMDL
