MODEL 1
REMARK minimizedAffinity -2.74207258
REMARK minimizedRMSD -1
REMARK  0 active torsions:
REMARK  status: ('A' for Active; 'I' for Inactive)
ROOT
ATOM      1  C   UNL d   1      -0.996  -2.852   1.024  0.00  0.00     0.020 A 
ATOM      2  C1  UNL d   1      -1.511  -1.688   1.593  0.00  0.00     0.020 A 
ATOM      3  C2  UNL d   1      -1.023  -0.442   1.195  0.00  0.00     0.034 A 
ATOM      4  C3  UNL d   1      -0.017  -0.356   0.226  0.00  0.00     0.017 A 
ATOM      5  C4  UNL d   1       0.500  -1.526  -0.344  0.00  0.00     0.017 A 
ATOM      6  C5  UNL d   1       0.008  -2.771   0.058  0.00  0.00     0.034 A 
ATOM      7 Cl   UNL d   1       1.742  -1.500  -1.546  0.00  0.00    -0.070 Cl
ATOM      8 Cl1  UNL d   1       0.539   1.218  -0.219  0.00  0.00    -0.070 Cl
ENDROOT
TORSDOF 0
ENDMDL
