MODEL 1
REMARK minimizedAffinity -3.99980521
REMARK minimizedRMSD -1
REMARK  0 active torsions:
REMARK  status: ('A' for Active; 'I' for Inactive)
ROOT
ATOM      1  C   UNL d   1       0.206  -3.262   0.668  0.00  0.00     0.020 A 
ATOM      2  C1  UNL d   1       1.154  -2.664  -0.162  0.00  0.00     0.020 A 
ATOM      3  C2  UNL d   1       1.041  -1.311  -0.489  0.00  0.00     0.034 A 
ATOM      4  C3  UNL d   1      -0.022  -0.552   0.013  0.00  0.00     0.017 A 
ATOM      5  C4  UNL d   1      -0.974  -1.153   0.846  0.00  0.00     0.017 A 
ATOM      6  C5  UNL d   1      -0.856  -2.508   1.170  0.00  0.00     0.034 A 
ATOM      7 Cl   UNL d   1      -2.313  -0.281   1.504  0.00  0.00    -0.070 Cl
ATOM      8 Cl1  UNL d   1      -0.100   1.116  -0.432  0.00  0.00    -0.070 Cl
ENDROOT
TORSDOF 0
ENDMDL
