MODEL 1
REMARK minimizedAffinity -4.18400908
REMARK minimizedRMSD -1
REMARK  0 active torsions:
REMARK  status: ('A' for Active; 'I' for Inactive)
ROOT
ATOM      1  C   UNL d   1      -0.088  -2.258  -1.719  0.00  0.00     0.020 A 
ATOM      2  C1  UNL d   1      -0.826  -3.093  -0.882  0.00  0.00     0.020 A 
ATOM      3  C2  UNL d   1      -1.395  -2.583   0.287  0.00  0.00     0.034 A 
ATOM      4  C3  UNL d   1      -1.226  -1.235   0.622  0.00  0.00     0.017 A 
ATOM      5  C4  UNL d   1      -0.485  -0.397  -0.219  0.00  0.00     0.017 A 
ATOM      6  C5  UNL d   1       0.082  -0.913  -1.389  0.00  0.00     0.034 A 
ATOM      7 Cl   UNL d   1      -0.234   1.277   0.127  0.00  0.00    -0.070 Cl
ATOM      8 Cl1  UNL d   1      -1.958  -0.672   2.083  0.00  0.00    -0.070 Cl
ENDROOT
TORSDOF 0
ENDMDL
