MODEL 1
REMARK minimizedAffinity -1.73752606
REMARK minimizedRMSD -1
REMARK  0 active torsions:
REMARK  status: ('A' for Active; 'I' for Inactive)
ROOT
ATOM      1  C   UNL d   1       1.341  -1.514  -0.044  0.00  0.00     0.020 A 
ATOM      2  C1  UNL d   1       1.086  -2.742   0.566  0.00  0.00     0.020 A 
ATOM      3  C2  UNL d   1      -0.183  -3.016   1.080  0.00  0.00     0.034 A 
ATOM      4  C3  UNL d   1      -1.202  -2.061   0.986  0.00  0.00     0.017 A 
ATOM      5  C4  UNL d   1      -0.945  -0.829   0.373  0.00  0.00     0.017 A 
ATOM      6  C5  UNL d   1       0.327  -0.560  -0.140  0.00  0.00     0.034 A 
ATOM      7 Cl   UNL d   1      -2.152   0.398   0.219  0.00  0.00    -0.070 Cl
ATOM      8 Cl1  UNL d   1      -2.747  -2.468   1.643  0.00  0.00    -0.070 Cl
ENDROOT
TORSDOF 0
ENDMDL
