MODEL 1
REMARK minimizedAffinity -4.84195232
REMARK minimizedRMSD -1
REMARK  0 active torsions:
REMARK  status: ('A' for Active; 'I' for Inactive)
ROOT
ATOM      1  C   UNL d   1       0.898  -2.228  -0.921  0.00  0.00     0.020 A 
ATOM      2  C1  UNL d   1       0.025  -2.870  -0.044  0.00  0.00     0.020 A 
ATOM      3  C2  UNL d   1      -0.808  -2.117   0.787  0.00  0.00     0.034 A 
ATOM      4  C3  UNL d   1      -0.768  -0.719   0.743  0.00  0.00     0.017 A 
ATOM      5  C4  UNL d   1       0.109  -0.076  -0.138  0.00  0.00     0.017 A 
ATOM      6  C5  UNL d   1       0.940  -0.834  -0.968  0.00  0.00     0.034 A 
ATOM      7 Cl   UNL d   1       0.214   1.646  -0.249  0.00  0.00    -0.070 Cl
ATOM      8 Cl1  UNL d   1      -1.826   0.149   1.799  0.00  0.00    -0.070 Cl
ENDROOT
TORSDOF 0
ENDMDL
