MODEL 1
REMARK minimizedAffinity -3.11401939
REMARK minimizedRMSD -1
REMARK  0 active torsions:
REMARK  status: ('A' for Active; 'I' for Inactive)
ROOT
ATOM      1  C   UNL d   1      -1.483  -1.815   1.065  0.00  0.00     0.020 A 
ATOM      2  C1  UNL d   1      -1.007  -1.026   2.112  0.00  0.00     0.020 A 
ATOM      3  C2  UNL d   1      -0.192   0.075   1.841  0.00  0.00     0.034 A 
ATOM      4  C3  UNL d   1       0.150   0.391   0.521  0.00  0.00     0.017 A 
ATOM      5  C4  UNL d   1      -0.328  -0.401  -0.529  0.00  0.00     0.017 A 
ATOM      6  C5  UNL d   1      -1.144  -1.503  -0.252  0.00  0.00     0.034 A 
ATOM      7 Cl   UNL d   1       0.051  -0.075  -2.183  0.00  0.00    -0.070 Cl
ATOM      8 Cl1  UNL d   1       1.162   1.767   0.261  0.00  0.00    -0.070 Cl
ENDROOT
TORSDOF 0
ENDMDL
