MODEL 1
REMARK minimizedAffinity 0.211519793
REMARK minimizedRMSD -1
REMARK  2 active torsions:
REMARK  status: ('A' for Active; 'I' for Inactive)
REMARK    1  A    between atoms: C2'_3  and  C1'_4 
REMARK    2  A    between atoms: C1'_4  and  C1_5 
ROOT
ATOM      1  C1  I4B d   1      -2.285  -5.793  -3.415  0.00  0.00    -0.075 A 
ATOM      2  C2  I4B d   1      -0.947  -5.523  -3.558  0.00  0.00     0.003 A 
ATOM      3  C3  I4B d   1      -0.385  -5.367  -4.848  0.00  0.00     0.002 A 
ATOM      4  C4  I4B d   1      -1.183  -5.538  -5.961  0.00  0.00    -0.004 A 
ATOM      5  C5  I4B d   1      -2.544  -5.788  -5.814  0.00  0.00     0.002 A 
ATOM      6  C6  I4B d   1      -3.102  -5.905  -4.533  0.00  0.00     0.003 A 
ENDROOT
BRANCH   1   7
ATOM      7  C1' I4B d   1      -2.839  -5.985  -2.038  0.00  0.00     0.060 C 
BRANCH   7   8
ATOM      8  C2' I4B d   1      -4.256  -5.450  -2.027  0.00  0.00    -0.013 C 
ATOM      9  C4' I4B d   1      -5.056  -6.000  -3.178  0.00  0.00     0.013 C 
ATOM     10  C3' I4B d   1      -4.878  -5.816  -0.712  0.00  0.00     0.013 C 
ENDBRANCH   7   8
ENDBRANCH   1   7
TORSDOF 2
ENDMDL
