MODEL 1
REMARK minimizedAffinity 1.38724661
REMARK minimizedRMSD -1
REMARK  2 active torsions:
REMARK  status: ('A' for Active; 'I' for Inactive)
REMARK    1  A    between atoms: C2'_3  and  C1'_4 
REMARK    2  A    between atoms: C1'_4  and  C1_5 
ROOT
ATOM      1  C1  I4B d   1      -1.663  -5.953  -3.437  0.00  0.00    -0.075 A 
ATOM      2  C2  I4B d   1      -2.370  -5.999  -4.612  0.00  0.00     0.003 A 
ATOM      3  C3  I4B d   1      -1.694  -5.926  -5.854  0.00  0.00     0.002 A 
ATOM      4  C4  I4B d   1      -0.324  -5.758  -5.874  0.00  0.00    -0.004 A 
ATOM      5  C5  I4B d   1       0.393  -5.734  -4.681  0.00  0.00     0.002 A 
ATOM      6  C6  I4B d   1      -0.278  -5.845  -3.455  0.00  0.00     0.003 A 
ENDROOT
BRANCH   1   7
ATOM      7  C1' I4B d   1      -2.412  -6.000  -2.143  0.00  0.00     0.060 C 
BRANCH   7   8
ATOM      8  C2' I4B d   1      -3.882  -5.799  -2.447  0.00  0.00    -0.013 C 
ATOM      9  C4' I4B d   1      -4.726  -5.999  -1.216  0.00  0.00     0.013 C 
ATOM     10  C3' I4B d   1      -4.056  -4.418  -3.004  0.00  0.00     0.013 C 
ENDBRANCH   7   8
ENDBRANCH   1   7
TORSDOF 2
ENDMDL
