MODEL 1
REMARK minimizedAffinity 14.4465208
REMARK minimizedRMSD -1
REMARK  2 active torsions:
REMARK  status: ('A' for Active; 'I' for Inactive)
REMARK    1  A    between atoms: C2'_3  and  C1'_4 
REMARK    2  A    between atoms: C1'_4  and  C1_5 
ROOT
ATOM      1  C1  I4B d   1      -0.257  -4.619  -2.007  0.00  0.00    -0.075 A 
ATOM      2  C2  I4B d   1      -1.454  -5.282  -2.120  0.00  0.00     0.003 A 
ATOM      3  C3  I4B d   1      -1.763  -5.999  -3.301  0.00  0.00     0.002 A 
ATOM      4  C4  I4B d   1      -0.875  -5.985  -4.357  0.00  0.00    -0.004 A 
ATOM      5  C5  I4B d   1       0.348  -5.331  -4.232  0.00  0.00     0.002 A 
ATOM      6  C6  I4B d   1       0.664  -4.654  -3.045  0.00  0.00     0.003 A 
ENDROOT
BRANCH   1   7
ATOM      7  C1' I4B d   1       0.023  -3.845  -0.758  0.00  0.00     0.060 C 
BRANCH   7   8
ATOM      8  C2' I4B d   1      -0.962  -2.695  -0.691  0.00  0.00    -0.013 C 
ATOM      9  C4' I4B d   1      -1.998  -2.927   0.378  0.00  0.00     0.013 C 
ATOM     10  C3' I4B d   1      -0.188  -1.437  -0.432  0.00  0.00     0.013 C 
ENDBRANCH   7   8
ENDBRANCH   1   7
TORSDOF 2
ENDMDL
