MODEL 1
REMARK minimizedAffinity 16.5120029
REMARK minimizedRMSD -1
REMARK  2 active torsions:
REMARK  status: ('A' for Active; 'I' for Inactive)
REMARK    1  A    between atoms: C2'_3  and  C1'_4 
REMARK    2  A    between atoms: C1'_4  and  C1_5 
ROOT
ATOM      1  C1  I4B d   1      -1.629   2.294  -3.288  0.00  0.00    -0.075 A 
ATOM      2  C2  I4B d   1      -2.209   3.430  -3.796  0.00  0.00     0.003 A 
ATOM      3  C3  I4B d   1      -1.403   4.471  -4.315  0.00  0.00     0.002 A 
ATOM      4  C4  I4B d   1      -0.029   4.358  -4.261  0.00  0.00    -0.004 A 
ATOM      5  C5  I4B d   1       0.557   3.196  -3.768  0.00  0.00     0.002 A 
ATOM      6  C6  I4B d   1      -0.247   2.152  -3.289  0.00  0.00     0.003 A 
ENDROOT
BRANCH   1   7
ATOM      7  C1' I4B d   1      -2.509   1.228  -2.718  0.00  0.00     0.060 C 
BRANCH   7   8
ATOM      8  C2' I4B d   1      -3.677   1.032  -3.663  0.00  0.00    -0.013 C 
ATOM      9  C4' I4B d   1      -4.481  -0.187  -3.292  0.00  0.00     0.013 C 
ATOM     10  C3' I4B d   1      -4.521   2.271  -3.619  0.00  0.00     0.013 C 
ENDBRANCH   7   8
ENDBRANCH   1   7
TORSDOF 2
ENDMDL
