MODEL 1
REMARK minimizedAffinity -3.37443948
REMARK minimizedRMSD -1
REMARK  2 active torsions:
REMARK  status: ('A' for Active; 'I' for Inactive)
REMARK    1  A    between atoms: C2'_3  and  C1'_4 
REMARK    2  A    between atoms: C1'_4  and  C1_5 
ROOT
ATOM      1  C1  I4B d   1      -1.408  -5.723  -3.561  0.00  0.00    -0.075 A 
ATOM      2  C2  I4B d   1      -0.117  -5.260  -3.584  0.00  0.00     0.003 A 
ATOM      3  C3  I4B d   1       0.539  -5.037  -4.819  0.00  0.00     0.002 A 
ATOM      4  C4  I4B d   1      -0.112  -5.337  -5.998  0.00  0.00    -0.004 A 
ATOM      5  C5  I4B d   1      -1.430  -5.785  -5.974  0.00  0.00     0.002 A 
ATOM      6  C6  I4B d   1      -2.087  -5.968  -4.748  0.00  0.00     0.003 A 
ENDROOT
BRANCH   1   7
ATOM      7  C1' I4B d   1      -2.059  -5.979  -2.239  0.00  0.00     0.060 C 
BRANCH   7   8
ATOM      8  C2' I4B d   1      -3.547  -5.736  -2.396  0.00  0.00    -0.013 C 
ATOM      9  C4' I4B d   1      -4.281  -6.000  -1.108  0.00  0.00     0.013 C 
ATOM     10  C3' I4B d   1      -3.739  -4.320  -2.849  0.00  0.00     0.013 C 
ENDBRANCH   7   8
ENDBRANCH   1   7
TORSDOF 2
ENDMDL
