MODEL 1
REMARK minimizedAffinity -0.764267921
REMARK minimizedRMSD -1
REMARK  2 active torsions:
REMARK  status: ('A' for Active; 'I' for Inactive)
REMARK    1  A    between atoms: C2'_3  and  C1'_4 
REMARK    2  A    between atoms: C1'_4  and  C1_5 
ROOT
ATOM      1  C1  I4B d   1      -0.361  -5.796  -3.529  0.00  0.00    -0.075 A 
ATOM      2  C2  I4B d   1       0.993  -6.000  -3.631  0.00  0.00     0.003 A 
ATOM      3  C3  I4B d   1       1.645  -5.845  -4.878  0.00  0.00     0.002 A 
ATOM      4  C4  I4B d   1       0.903  -5.537  -5.999  0.00  0.00    -0.004 A 
ATOM      5  C5  I4B d   1      -0.466  -5.307  -5.890  0.00  0.00     0.002 A 
ATOM      6  C6  I4B d   1      -1.100  -5.425  -4.645  0.00  0.00     0.003 A 
ENDROOT
BRANCH   1   7
ATOM      7  C1' I4B d   1      -1.023  -6.000  -2.203  0.00  0.00     0.060 C 
BRANCH   7   8
ATOM      8  C2' I4B d   1      -1.934  -4.816  -1.949  0.00  0.00    -0.013 C 
ATOM      9  C4' I4B d   1      -3.362  -5.257  -1.765  0.00  0.00     0.013 C 
ATOM     10  C3' I4B d   1      -1.429  -4.096  -0.735  0.00  0.00     0.013 C 
ENDBRANCH   7   8
ENDBRANCH   1   7
TORSDOF 2
ENDMDL
