MODEL 1
REMARK minimizedAffinity 0.704862177
REMARK minimizedRMSD -1
REMARK  2 active torsions:
REMARK  status: ('A' for Active; 'I' for Inactive)
REMARK    1  A    between atoms: C2'_3  and  C1'_4 
REMARK    2  A    between atoms: C1'_4  and  C1_5 
ROOT
ATOM      1  C1  I4B d   1      -1.355  -5.929  -3.517  0.00  0.00    -0.075 A 
ATOM      2  C2  I4B d   1      -1.916  -5.996  -4.768  0.00  0.00     0.003 A 
ATOM      3  C3  I4B d   1      -1.098  -5.914  -5.921  0.00  0.00     0.002 A 
ATOM      4  C4  I4B d   1       0.261  -5.716  -5.778  0.00  0.00    -0.004 A 
ATOM      5  C5  I4B d   1       0.830  -5.672  -4.509  0.00  0.00     0.002 A 
ATOM      6  C6  I4B d   1       0.019  -5.792  -3.371  0.00  0.00     0.003 A 
ENDROOT
BRANCH   1   7
ATOM      7  C1' I4B d   1      -2.252  -5.986  -2.322  0.00  0.00     0.060 C 
BRANCH   7   8
ATOM      8  C2' I4B d   1      -3.457  -5.111  -2.601  0.00  0.00    -0.013 C 
ATOM      9  C4' I4B d   1      -3.142  -4.061  -3.632  0.00  0.00     0.013 C 
ATOM     10  C3' I4B d   1      -4.578  -5.998  -3.056  0.00  0.00     0.013 C 
ENDBRANCH   7   8
ENDBRANCH   1   7
TORSDOF 2
ENDMDL
