MODEL 1
REMARK minimizedAffinity -0.402703315
REMARK minimizedRMSD -1
REMARK  2 active torsions:
REMARK  status: ('A' for Active; 'I' for Inactive)
REMARK    1  A    between atoms: C2'_3  and  C1'_4 
REMARK    2  A    between atoms: C1'_4  and  C1_5 
ROOT
ATOM      1  C1  I4B d   1      -0.783  -5.991  -3.627  0.00  0.00    -0.075 A 
ATOM      2  C2  I4B d   1      -1.277  -5.992  -2.346  0.00  0.00     0.003 A 
ATOM      3  C3  I4B d   1      -2.675  -5.981  -2.122  0.00  0.00     0.002 A 
ATOM      4  C4  I4B d   1      -3.536  -5.917  -3.199  0.00  0.00    -0.004 A 
ATOM      5  C5  I4B d   1      -3.033  -5.938  -4.497  0.00  0.00     0.002 A 
ATOM      6  C6  I4B d   1      -1.648  -5.988  -4.713  0.00  0.00     0.003 A 
ENDROOT
BRANCH   1   7
ATOM      7  C1' I4B d   1       0.700  -5.970  -3.827  0.00  0.00     0.060 C 
BRANCH   7   8
ATOM      8  C2' I4B d   1       0.971  -5.567  -5.262  0.00  0.00    -0.013 C 
ATOM      9  C4' I4B d   1      -0.300  -5.178  -5.969  0.00  0.00     0.013 C 
ATOM     10  C3' I4B d   1       1.951  -4.431  -5.246  0.00  0.00     0.013 C 
ENDBRANCH   7   8
ENDBRANCH   1   7
TORSDOF 2
ENDMDL
