MODEL 1
REMARK minimizedAffinity 8.83751106
REMARK minimizedRMSD -1
REMARK  2 active torsions:
REMARK  status: ('A' for Active; 'I' for Inactive)
REMARK    1  A    between atoms: C2'_3  and  C1'_4 
REMARK    2  A    between atoms: C1'_4  and  C1_5 
ROOT
ATOM      1  C1  I4B d   1      -1.714   2.887  -4.316  0.00  0.00    -0.075 A 
ATOM      2  C2  I4B d   1      -0.632   2.424  -3.609  0.00  0.00     0.003 A 
ATOM      3  C3  I4B d   1       0.582   3.152  -3.607  0.00  0.00     0.002 A 
ATOM      4  C4  I4B d   1       0.686   4.303  -4.361  0.00  0.00    -0.004 A 
ATOM      5  C5  I4B d   1      -0.419   4.783  -5.058  0.00  0.00     0.002 A 
ATOM      6  C6  I4B d   1      -1.631   4.077  -5.026  0.00  0.00     0.003 A 
ENDROOT
BRANCH   1   7
ATOM      7  C1' I4B d   1      -2.971   2.076  -4.322  0.00  0.00     0.060 C 
BRANCH   7   8
ATOM      8  C2' I4B d   1      -3.341   1.777  -2.884  0.00  0.00    -0.013 C 
ATOM      9  C4' I4B d   1      -3.895   2.997  -2.197  0.00  0.00     0.013 C 
ATOM     10  C3' I4B d   1      -4.339   0.657  -2.886  0.00  0.00     0.013 C 
ENDBRANCH   7   8
ENDBRANCH   1   7
TORSDOF 2
ENDMDL
