MODEL 1
REMARK minimizedAffinity 16.3074455
REMARK minimizedRMSD -1
REMARK  2 active torsions:
REMARK  status: ('A' for Active; 'I' for Inactive)
REMARK    1  A    between atoms: C2'_3  and  C1'_4 
REMARK    2  A    between atoms: C1'_4  and  C1_5 
ROOT
ATOM      1  C1  I4B d   1      -0.304   1.408  -2.867  0.00  0.00    -0.075 A 
ATOM      2  C2  I4B d   1      -1.667   1.560  -2.897  0.00  0.00     0.003 A 
ATOM      3  C3  I4B d   1      -2.240   2.762  -3.377  0.00  0.00     0.002 A 
ATOM      4  C4  I4B d   1      -1.417   3.799  -3.766  0.00  0.00    -0.004 A 
ATOM      5  C5  I4B d   1      -0.035   3.635  -3.756  0.00  0.00     0.002 A 
ATOM      6  C6  I4B d   1       0.525   2.428  -3.316  0.00  0.00     0.003 A 
ENDROOT
BRANCH   1   7
ATOM      7  C1' I4B d   1       0.268   0.137  -2.324  0.00  0.00     0.060 C 
BRANCH   7   8
ATOM      8  C2' I4B d   1      -0.033   0.086  -0.840  0.00  0.00    -0.013 C 
ATOM      9  C4' I4B d   1      -0.571  -1.262  -0.439  0.00  0.00     0.013 C 
ATOM     10  C3' I4B d   1       1.231   0.407  -0.100  0.00  0.00     0.013 C 
ENDBRANCH   7   8
ENDBRANCH   1   7
TORSDOF 2
ENDMDL
