MODEL 1
REMARK minimizedAffinity 6.22448254
REMARK minimizedRMSD -1
REMARK  2 active torsions:
REMARK  status: ('A' for Active; 'I' for Inactive)
REMARK    1  A    between atoms: C2'_3  and  C1'_4 
REMARK    2  A    between atoms: C1'_4  and  C1_5 
ROOT
ATOM      1  C1  I4B d   1      -0.112   1.490  -2.522  0.00  0.00    -0.075 A 
ATOM      2  C2  I4B d   1       0.589   2.622  -2.856  0.00  0.00     0.003 A 
ATOM      3  C3  I4B d   1      -0.084   3.745  -3.394  0.00  0.00     0.002 A 
ATOM      4  C4  I4B d   1      -1.442   3.676  -3.628  0.00  0.00    -0.004 A 
ATOM      5  C5  I4B d   1      -2.155   2.536  -3.267  0.00  0.00     0.002 A 
ATOM      6  C6  I4B d   1      -1.489   1.441  -2.700  0.00  0.00     0.003 A 
ENDROOT
BRANCH   1   7
ATOM      7  C1' I4B d   1       0.636   0.311  -1.987  0.00  0.00     0.060 C 
BRANCH   7   8
ATOM      8  C2' I4B d   1       0.124   0.029  -0.589  0.00  0.00    -0.013 C 
ATOM      9  C4' I4B d   1       0.069  -1.451  -0.316  0.00  0.00     0.013 C 
ATOM     10  C3' I4B d   1       1.029   0.725   0.384  0.00  0.00     0.013 C 
ENDBRANCH   7   8
ENDBRANCH   1   7
TORSDOF 2
ENDMDL
