MODEL 1
REMARK minimizedAffinity -0.0841848999
REMARK minimizedRMSD -1
REMARK  2 active torsions:
REMARK  status: ('A' for Active; 'I' for Inactive)
REMARK    1  A    between atoms: C2'_3  and  C1'_4 
REMARK    2  A    between atoms: C1'_4  and  C1_5 
ROOT
ATOM      1  C1  I4B d   1      -1.764  -5.681  -3.345  0.00  0.00    -0.075 A 
ATOM      2  C2  I4B d   1      -1.825  -5.659  -4.716  0.00  0.00     0.003 A 
ATOM      3  C3  I4B d   1      -3.070  -5.795  -5.376  0.00  0.00     0.002 A 
ATOM      4  C4  I4B d   1      -4.215  -5.999  -4.633  0.00  0.00    -0.004 A 
ATOM      5  C5  I4B d   1      -4.154  -5.997  -3.242  0.00  0.00     0.002 A 
ATOM      6  C6  I4B d   1      -2.923  -5.825  -2.593  0.00  0.00     0.003 A 
ENDROOT
BRANCH   1   7
ATOM      7  C1' I4B d   1      -0.428  -5.568  -2.681  0.00  0.00     0.060 C 
BRANCH   7   8
ATOM      8  C2' I4B d   1       0.628  -5.984  -3.684  0.00  0.00    -0.013 C 
ATOM      9  C4' I4B d   1       0.641  -5.062  -4.876  0.00  0.00     0.013 C 
ATOM     10  C3' I4B d   1       1.955  -5.984  -2.986  0.00  0.00     0.013 C 
ENDBRANCH   7   8
ENDBRANCH   1   7
TORSDOF 2
ENDMDL
