MODEL 1
REMARK minimizedAffinity -4.40517521
REMARK minimizedRMSD -1
REMARK  1 active torsions:
REMARK  status: ('A' for Active; 'I' for Inactive)
REMARK    1  A    between atoms: C1_2  and  C2_3 
ROOT
ATOM      1  C2  UNL d   1       0.167   0.247  -0.106  0.00  0.00    -0.077 A 
ATOM      2  C3  UNL d   1      -1.051  -0.443  -0.034  0.00  0.00     0.002 A 
ATOM      3  C4  UNL d   1      -1.152  -1.624   0.704  0.00  0.00     0.002 A 
ATOM      4  C5  UNL d   1      -0.039  -2.123   1.379  0.00  0.00    -0.004 A 
ATOM      5  C6  UNL d   1       1.178  -1.445   1.311  0.00  0.00     0.002 A 
ATOM      6  C7  UNL d   1       1.280  -0.266   0.573  0.00  0.00     0.002 A 
ENDROOT
BRANCH   1   7
ATOM      7  C1  UNL d   1       0.266   1.547  -0.861  0.00  0.00     0.055 C 
ATOM      8  C   UNL d   1       1.463   1.553  -1.799  0.00  0.00     0.019 C 
ENDBRANCH   1   7
TORSDOF 1
ENDMDL
