MODEL 1
REMARK minimizedAffinity -3.82080197
REMARK minimizedRMSD -1
REMARK  1 active torsions:
REMARK  status: ('A' for Active; 'I' for Inactive)
REMARK    1  A    between atoms: C1_2  and  C2_3 
ROOT
ATOM      1  C2  UNL d   1      -0.237   0.424  -0.247  0.00  0.00    -0.077 A 
ATOM      2  C3  UNL d   1       0.062  -0.933  -0.060  0.00  0.00     0.002 A 
ATOM      3  C4  UNL d   1      -0.898  -1.803   0.461  0.00  0.00     0.002 A 
ATOM      4  C5  UNL d   1      -2.164  -1.326   0.795  0.00  0.00    -0.004 A 
ATOM      5  C6  UNL d   1      -2.471   0.022   0.614  0.00  0.00     0.002 A 
ATOM      6  C7  UNL d   1      -1.512   0.893   0.095  0.00  0.00     0.002 A 
ENDROOT
BRANCH   1   7
ATOM      7  C1  UNL d   1       0.781   1.353  -0.854  0.00  0.00     0.055 C 
ATOM      8  C   UNL d   1       0.443   1.674  -2.303  0.00  0.00     0.019 C 
ENDBRANCH   1   7
TORSDOF 1
ENDMDL
