MODEL 1
REMARK minimizedAffinity -3.98460579
REMARK minimizedRMSD -1
REMARK  1 active torsions:
REMARK  status: ('A' for Active; 'I' for Inactive)
REMARK    1  A    between atoms: C1_2  and  C2_3 
ROOT
ATOM      1  C2  UNL d   1      -0.768  -0.739   0.143  0.00  0.00    -0.077 A 
ATOM      2  C3  UNL d   1      -1.706   0.248   0.477  0.00  0.00     0.002 A 
ATOM      3  C4  UNL d   1      -1.353   1.598   0.446  0.00  0.00     0.002 A 
ATOM      4  C5  UNL d   1      -0.063   1.974   0.078  0.00  0.00    -0.004 A 
ATOM      5  C6  UNL d   1       0.878   1.000  -0.254  0.00  0.00     0.002 A 
ATOM      6  C7  UNL d   1       0.527  -0.350  -0.223  0.00  0.00     0.002 A 
ENDROOT
BRANCH   1   7
ATOM      7  C1  UNL d   1      -1.162  -2.193   0.128  0.00  0.00     0.055 C 
ATOM      8  C   UNL d   1      -0.799  -2.878   1.437  0.00  0.00     0.019 C 
ENDBRANCH   1   7
TORSDOF 1
ENDMDL
