MODEL 1
REMARK minimizedAffinity -5.6508441
REMARK minimizedRMSD -1
REMARK  1 active torsions:
REMARK  status: ('A' for Active; 'I' for Inactive)
REMARK    1  A    between atoms: C1_2  and  C2_3 
ROOT
ATOM      1  C2  UNL d   1      -0.355  -0.444   0.391  0.00  0.00    -0.077 A 
ATOM      2  C3  UNL d   1      -1.551  -0.079   1.026  0.00  0.00     0.002 A 
ATOM      3  C4  UNL d   1      -2.378  -1.054   1.587  0.00  0.00     0.002 A 
ATOM      4  C5  UNL d   1      -2.017  -2.398   1.524  0.00  0.00    -0.004 A 
ATOM      5  C6  UNL d   1      -0.831  -2.771   0.893  0.00  0.00     0.002 A 
ATOM      6  C7  UNL d   1      -0.003  -1.798   0.330  0.00  0.00     0.002 A 
ENDROOT
BRANCH   1   7
ATOM      7  C1  UNL d   1       0.563   0.609  -0.172  0.00  0.00     0.055 C 
ATOM      8  C   UNL d   1       0.449   0.690  -1.687  0.00  0.00     0.019 C 
ENDBRANCH   1   7
TORSDOF 1
ENDMDL
