MODEL 1
REMARK minimizedAffinity -3.28782606
REMARK minimizedRMSD -1
REMARK  1 active torsions:
REMARK  status: ('A' for Active; 'I' for Inactive)
REMARK    1  A    between atoms: C1_2  and  C2_3 
ROOT
ATOM      1  C2  UNL d   1      -0.573  -1.547   0.779  0.00  0.00    -0.077 A 
ATOM      2  C3  UNL d   1       0.792  -1.406   0.490  0.00  0.00     0.002 A 
ATOM      3  C4  UNL d   1       1.275  -0.226  -0.078  0.00  0.00     0.002 A 
ATOM      4  C5  UNL d   1       0.401   0.823  -0.358  0.00  0.00    -0.004 A 
ATOM      5  C6  UNL d   1      -0.958   0.692  -0.076  0.00  0.00     0.002 A 
ATOM      6  C7  UNL d   1      -1.443  -0.488   0.491  0.00  0.00     0.002 A 
ENDROOT
BRANCH   1   7
ATOM      7  C1  UNL d   1      -1.088  -2.800   1.438  0.00  0.00     0.055 C 
ATOM      8  C   UNL d   1      -0.606  -2.907   2.877  0.00  0.00     0.019 C 
ENDBRANCH   1   7
TORSDOF 1
ENDMDL
