MODEL 1
REMARK minimizedAffinity -3.81708336
REMARK minimizedRMSD -1
REMARK  1 active torsions:
REMARK  status: ('A' for Active; 'I' for Inactive)
REMARK    1  A    between atoms: C1_2  and  C2_3 
ROOT
ATOM      1  C2  UNL d   1       0.008   0.004   0.096  0.00  0.00    -0.077 A 
ATOM      2  C3  UNL d   1      -1.389   0.073   0.009  0.00  0.00     0.002 A 
ATOM      3  C4  UNL d   1      -2.178  -0.999   0.431  0.00  0.00     0.002 A 
ATOM      4  C5  UNL d   1      -1.578  -2.145   0.948  0.00  0.00    -0.004 A 
ATOM      5  C6  UNL d   1      -0.189  -2.225   1.037  0.00  0.00     0.002 A 
ATOM      6  C7  UNL d   1       0.600  -1.155   0.614  0.00  0.00     0.002 A 
ENDROOT
BRANCH   1   7
ATOM      7  C1  UNL d   1       0.858   1.178  -0.313  0.00  0.00     0.055 C 
ATOM      8  C   UNL d   1       0.714   1.475  -1.799  0.00  0.00     0.019 C 
ENDBRANCH   1   7
TORSDOF 1
ENDMDL
