MODEL 1
REMARK minimizedAffinity -4.34145927
REMARK minimizedRMSD -1
REMARK  1 active torsions:
REMARK  status: ('A' for Active; 'I' for Inactive)
REMARK    1  A    between atoms: C1_2  and  C2_3 
ROOT
ATOM      1  C2  UNL d   1      -0.846  -0.546   0.365  0.00  0.00    -0.077 A 
ATOM      2  C3  UNL d   1       0.396  -0.075  -0.085  0.00  0.00     0.002 A 
ATOM      3  C4  UNL d   1       0.722   1.277   0.031  0.00  0.00     0.002 A 
ATOM      4  C5  UNL d   1      -0.185   2.169   0.598  0.00  0.00    -0.004 A 
ATOM      5  C6  UNL d   1      -1.424   1.711   1.046  0.00  0.00     0.002 A 
ATOM      6  C7  UNL d   1      -1.752   0.360   0.931  0.00  0.00     0.002 A 
ENDROOT
BRANCH   1   7
ATOM      7  C1  UNL d   1      -1.180  -2.013   0.286  0.00  0.00     0.055 C 
ATOM      8  C   UNL d   1      -0.776  -2.741   1.560  0.00  0.00     0.019 C 
ENDBRANCH   1   7
TORSDOF 1
ENDMDL
