MODEL 1
REMARK minimizedAffinity -5.40101051
REMARK minimizedRMSD -1
REMARK  1 active torsions:
REMARK  status: ('A' for Active; 'I' for Inactive)
REMARK    1  A    between atoms: C1_2  and  C2_3 
ROOT
ATOM      1  C2  UNL d   1       0.105   0.103   0.078  0.00  0.00    -0.077 A 
ATOM      2  C3  UNL d   1       0.868  -1.071   0.135  0.00  0.00     0.002 A 
ATOM      3  C4  UNL d   1       0.276  -2.282   0.500  0.00  0.00     0.002 A 
ATOM      4  C5  UNL d   1      -1.082  -2.330   0.807  0.00  0.00    -0.004 A 
ATOM      5  C6  UNL d   1      -1.849  -1.168   0.756  0.00  0.00     0.002 A 
ATOM      6  C7  UNL d   1      -1.259   0.044   0.393  0.00  0.00     0.002 A 
ENDROOT
BRANCH   1   7
ATOM      7  C1  UNL d   1       0.730   1.400  -0.363  0.00  0.00     0.055 C 
ATOM      8  C   UNL d   1       0.763   1.511  -1.880  0.00  0.00     0.019 C 
ENDBRANCH   1   7
TORSDOF 1
ENDMDL
