MODEL 1
REMARK minimizedAffinity -5.60825777
REMARK minimizedRMSD -1
REMARK  1 active torsions:
REMARK  status: ('A' for Active; 'I' for Inactive)
REMARK    1  A    between atoms: C1_2  and  C2_3 
ROOT
ATOM      1  C2  UNL d   1      -1.297  -1.200   0.842  0.00  0.00    -0.077 A 
ATOM      2  C3  UNL d   1      -0.362  -2.215   0.596  0.00  0.00     0.002 A 
ATOM      3  C4  UNL d   1       0.882  -1.909   0.040  0.00  0.00     0.002 A 
ATOM      4  C5  UNL d   1       1.203  -0.589  -0.269  0.00  0.00    -0.004 A 
ATOM      5  C6  UNL d   1       0.279   0.427  -0.029  0.00  0.00     0.002 A 
ATOM      6  C7  UNL d   1      -0.965   0.123   0.525  0.00  0.00     0.002 A 
ENDROOT
BRANCH   1   7
ATOM      7  C1  UNL d   1      -2.620  -1.521   1.487  0.00  0.00     0.055 C 
ATOM      8  C   UNL d   1      -3.398  -0.255   1.816  0.00  0.00     0.019 C 
ENDBRANCH   1   7
TORSDOF 1
ENDMDL
