MODEL 1
REMARK minimizedAffinity -3.81336141
REMARK minimizedRMSD -1
REMARK  1 active torsions:
REMARK  status: ('A' for Active; 'I' for Inactive)
REMARK    1  A    between atoms: C1_2  and  C2_3 
ROOT
ATOM      1  C2  UNL d   1       0.141   0.176  -0.392  0.00  0.00    -0.077 A 
ATOM      2  C3  UNL d   1      -1.117  -0.367  -0.096  0.00  0.00     0.002 A 
ATOM      3  C4  UNL d   1      -1.220  -1.551   0.638  0.00  0.00     0.002 A 
ATOM      4  C5  UNL d   1      -0.070  -2.198   1.085  0.00  0.00    -0.004 A 
ATOM      5  C6  UNL d   1       1.186  -1.666   0.794  0.00  0.00     0.002 A 
ATOM      6  C7  UNL d   1       1.291  -0.484   0.059  0.00  0.00     0.002 A 
ENDROOT
BRANCH   1   7
ATOM      7  C1  UNL d   1       0.253   1.478  -1.141  0.00  0.00     0.055 C 
ATOM      8  C   UNL d   1       1.705   1.820  -1.443  0.00  0.00     0.019 C 
ENDBRANCH   1   7
TORSDOF 1
ENDMDL
