MODEL 1
REMARK minimizedAffinity -5.36178207
REMARK minimizedRMSD -1
REMARK  1 active torsions:
REMARK  status: ('A' for Active; 'I' for Inactive)
REMARK    1  A    between atoms: C1_2  and  C2_3 
ROOT
ATOM      1  C2  UNL d   1      -0.574   0.054   0.574  0.00  0.00    -0.077 A 
ATOM      2  C3  UNL d   1      -1.952  -0.193   0.641  0.00  0.00     0.002 A 
ATOM      3  C4  UNL d   1      -2.427  -1.466   0.963  0.00  0.00     0.002 A 
ATOM      4  C5  UNL d   1      -1.530  -2.500   1.224  0.00  0.00    -0.004 A 
ATOM      5  C6  UNL d   1      -0.158  -2.265   1.157  0.00  0.00     0.002 A 
ATOM      6  C7  UNL d   1       0.319  -0.993   0.835  0.00  0.00     0.002 A 
ENDROOT
BRANCH   1   7
ATOM      7  C1  UNL d   1      -0.060   1.439   0.276  0.00  0.00     0.055 C 
ATOM      8  C   UNL d   1       1.055   1.404  -0.759  0.00  0.00     0.019 C 
ENDBRANCH   1   7
TORSDOF 1
ENDMDL
