MODEL 1
REMARK minimizedAffinity -5.28533506
REMARK minimizedRMSD -1
REMARK  1 active torsions:
REMARK  status: ('A' for Active; 'I' for Inactive)
REMARK    1  A    between atoms: C1_2  and  C2_3 
ROOT
ATOM      1  C2  UNL d   1      -1.028  -0.526   0.791  0.00  0.00    -0.077 A 
ATOM      2  C3  UNL d   1       0.244  -0.376   0.221  0.00  0.00     0.002 A 
ATOM      3  C4  UNL d   1       0.796   0.896   0.052  0.00  0.00     0.002 A 
ATOM      4  C5  UNL d   1       0.086   2.025   0.454  0.00  0.00    -0.004 A 
ATOM      5  C6  UNL d   1      -1.181   1.886   1.020  0.00  0.00     0.002 A 
ATOM      6  C7  UNL d   1      -1.735   0.616   1.189  0.00  0.00     0.002 A 
ENDROOT
BRANCH   1   7
ATOM      7  C1  UNL d   1      -1.604  -1.899   1.020  0.00  0.00     0.055 C 
ATOM      8  C   UNL d   1      -0.834  -2.651   2.096  0.00  0.00     0.019 C 
ENDBRANCH   1   7
TORSDOF 1
ENDMDL
