MODEL 1
REMARK minimizedAffinity 8.94520664
REMARK minimizedRMSD -1
REMARK  1 active torsions:
REMARK  status: ('A' for Active; 'I' for Inactive)
REMARK    1  A    between atoms: C1_2  and  C2_3 
ROOT
ATOM      1  C2  UNL d   1      -4.517   4.879  -4.421  0.00  0.00    -0.081 A 
ATOM      2  C3  UNL d   1      -4.335   5.686  -5.550  0.00  0.00     0.006 A 
ATOM      3  C4  UNL d   1      -3.048   5.999  -5.997  0.00  0.00     0.002 A 
ATOM      4  C5  UNL d   1      -1.924   5.503  -5.327  0.00  0.00    -0.080 A 
ATOM      5  C6  UNL d   1      -0.539   5.806  -5.815  0.00  0.00     0.076 C 
ATOM      6  C7  UNL d   1      -2.106   4.711  -4.189  0.00  0.00     0.002 A 
ATOM      7  C8  UNL d   1      -3.392   4.399  -3.741  0.00  0.00     0.006 A 
ENDROOT
BRANCH   1   8
ATOM      8  C1  UNL d   1      -5.902   4.487  -3.975  0.00  0.00     0.054 C 
ATOM      9  C   UNL d   1      -5.879   3.850  -2.593  0.00  0.00     0.018 C 
ENDBRANCH   1   8
TORSDOF 1
ENDMDL
