MODEL 1
REMARK minimizedAffinity 11.321579
REMARK minimizedRMSD -1
REMARK  1 active torsions:
REMARK  status: ('A' for Active; 'I' for Inactive)
REMARK    1  A    between atoms: C1_2  and  C2_3 
ROOT
ATOM      1  C2  UNL d   1      -3.601   5.882  -5.047  0.00  0.00    -0.081 A 
ATOM      2  C3  UNL d   1      -2.576   5.796  -5.998  0.00  0.00     0.006 A 
ATOM      3  C4  UNL d   1      -1.247   5.646  -5.595  0.00  0.00     0.002 A 
ATOM      4  C5  UNL d   1      -0.921   5.571  -4.237  0.00  0.00    -0.080 A 
ATOM      5  C6  UNL d   1       0.498   5.379  -3.792  0.00  0.00     0.076 C 
ATOM      6  C7  UNL d   1      -1.943   5.674  -3.287  0.00  0.00     0.002 A 
ATOM      7  C8  UNL d   1      -3.272   5.825  -3.689  0.00  0.00     0.006 A 
ENDROOT
BRANCH   1   8
ATOM      8  C1  UNL d   1      -5.042   5.979  -5.480  0.00  0.00     0.054 C 
ATOM      9  C   UNL d   1      -5.982   5.940  -4.283  0.00  0.00     0.018 C 
ENDBRANCH   1   8
TORSDOF 1
ENDMDL
