MODEL 1
REMARK minimizedAffinity 15.9408264
REMARK minimizedRMSD -1
REMARK  1 active torsions:
REMARK  status: ('A' for Active; 'I' for Inactive)
REMARK    1  A    between atoms: C1_2  and  C2_3 
ROOT
ATOM      1  C2  UNL d   1      -3.148  -0.031   1.382  0.00  0.00    -0.081 A 
ATOM      2  C3  UNL d   1      -2.771  -1.235   0.775  0.00  0.00     0.006 A 
ATOM      3  C4  UNL d   1      -1.610  -1.899   1.178  0.00  0.00     0.002 A 
ATOM      4  C5  UNL d   1      -0.811  -1.374   2.199  0.00  0.00    -0.080 A 
ATOM      5  C6  UNL d   1       0.422  -2.092   2.662  0.00  0.00     0.076 C 
ATOM      6  C7  UNL d   1      -1.177  -0.162   2.793  0.00  0.00     0.002 A 
ATOM      7  C8  UNL d   1      -2.338   0.503   2.390  0.00  0.00     0.006 A 
ENDROOT
BRANCH   1   8
ATOM      8  C1  UNL d   1      -4.433   0.654   0.994  0.00  0.00     0.054 C 
ATOM      9  C   UNL d   1      -5.091  -0.035  -0.193  0.00  0.00     0.018 C 
ENDBRANCH   1   8
TORSDOF 1
ENDMDL
