MODEL 1
REMARK minimizedAffinity 13.3414364
REMARK minimizedRMSD -1
REMARK  1 active torsions:
REMARK  status: ('A' for Active; 'I' for Inactive)
REMARK    1  A    between atoms: C1_2  and  C2_3 
ROOT
ATOM      1  C2  UNL d   1       3.750   1.799  -0.170  0.00  0.00    -0.081 A 
ATOM      2  C3  UNL d   1       4.934   2.501  -0.425  0.00  0.00     0.006 A 
ATOM      3  C4  UNL d   1       5.659   3.073   0.623  0.00  0.00     0.002 A 
ATOM      4  C5  UNL d   1       5.216   2.946   1.944  0.00  0.00    -0.080 A 
ATOM      5  C6  UNL d   1       6.000   3.529   3.082  0.00  0.00     0.076 C 
ATOM      6  C7  UNL d   1       4.023   2.259   2.198  0.00  0.00     0.002 A 
ATOM      7  C8  UNL d   1       3.298   1.688   1.150  0.00  0.00     0.006 A 
ENDROOT
BRANCH   1   8
ATOM      8  C1  UNL d   1       3.001   1.126  -1.292  0.00  0.00     0.054 C 
ATOM      9  C   UNL d   1       2.390   2.147  -2.240  0.00  0.00     0.018 C 
ENDBRANCH   1   8
TORSDOF 1
ENDMDL
