MODEL 1
REMARK minimizedAffinity 14.0962048
REMARK minimizedRMSD -1
REMARK  1 active torsions:
REMARK  status: ('A' for Active; 'I' for Inactive)
REMARK    1  A    between atoms: C1_2  and  C2_3 
ROOT
ATOM      1  C2  UNL d   1       5.001   5.253  -2.359  0.00  0.00    -0.081 A 
ATOM      2  C3  UNL d   1       3.812   4.546  -2.577  0.00  0.00     0.006 A 
ATOM      3  C4  UNL d   1       3.629   3.812  -3.751  0.00  0.00     0.002 A 
ATOM      4  C5  UNL d   1       4.634   3.766  -4.723  0.00  0.00    -0.080 A 
ATOM      5  C6  UNL d   1       4.463   2.957  -5.974  0.00  0.00     0.076 C 
ATOM      6  C7  UNL d   1       5.815   4.486  -4.514  0.00  0.00     0.002 A 
ATOM      7  C8  UNL d   1       5.999   5.221  -3.340  0.00  0.00     0.006 A 
ENDROOT
BRANCH   1   8
ATOM      8  C1  UNL d   1       5.228   5.993  -1.066  0.00  0.00     0.054 C 
ATOM      9  C   UNL d   1       3.978   5.983  -0.197  0.00  0.00     0.018 C 
ENDBRANCH   1   8
TORSDOF 1
ENDMDL
