MODEL 1
REMARK minimizedAffinity 15.0117979
REMARK minimizedRMSD -1
REMARK  1 active torsions:
REMARK  status: ('A' for Active; 'I' for Inactive)
REMARK    1  A    between atoms: C1_2  and  C2_3 
ROOT
ATOM      1  C2  UNL d   1      -0.199  -2.669   1.806  0.00  0.00    -0.081 A 
ATOM      2  C3  UNL d   1       0.609  -2.112   2.805  0.00  0.00     0.006 A 
ATOM      3  C4  UNL d   1       0.090  -1.163   3.688  0.00  0.00     0.002 A 
ATOM      4  C5  UNL d   1      -1.247  -0.761   3.592  0.00  0.00    -0.080 A 
ATOM      5  C6  UNL d   1      -1.825   0.235   4.553  0.00  0.00     0.076 C 
ATOM      6  C7  UNL d   1      -2.049  -1.304   2.584  0.00  0.00     0.002 A 
ATOM      7  C8  UNL d   1      -1.530  -2.253   1.700  0.00  0.00     0.006 A 
ENDROOT
BRANCH   1   8
ATOM      8  C1  UNL d   1       0.340  -3.741   0.893  0.00  0.00     0.054 C 
ATOM      9  C   UNL d   1      -0.678  -4.126  -0.170  0.00  0.00     0.018 C 
ENDBRANCH   1   8
TORSDOF 1
ENDMDL
