MODEL 1
REMARK minimizedAffinity 11.0173368
REMARK minimizedRMSD -1
REMARK  1 active torsions:
REMARK  status: ('A' for Active; 'I' for Inactive)
REMARK    1  A    between atoms: C1_2  and  C2_3 
ROOT
ATOM      1  C2  UNL d   1      -5.753   0.773  -1.795  0.00  0.00    -0.081 A 
ATOM      2  C3  UNL d   1      -5.705  -0.561  -2.219  0.00  0.00     0.006 A 
ATOM      3  C4  UNL d   1      -5.796  -0.876  -3.577  0.00  0.00     0.002 A 
ATOM      4  C5  UNL d   1      -5.930   0.137  -4.533  0.00  0.00    -0.080 A 
ATOM      5  C6  UNL d   1      -5.999  -0.186  -5.997  0.00  0.00     0.076 C 
ATOM      6  C7  UNL d   1      -5.996   1.468  -4.108  0.00  0.00     0.002 A 
ATOM      7  C8  UNL d   1      -5.905   1.784  -2.751  0.00  0.00     0.006 A 
ENDROOT
BRANCH   1   8
ATOM      8  C1  UNL d   1      -5.590   1.120  -0.338  0.00  0.00     0.054 C 
ATOM      9  C   UNL d   1      -5.470  -0.132   0.519  0.00  0.00     0.018 C 
ENDBRANCH   1   8
TORSDOF 1
ENDMDL
