MODEL 1
REMARK minimizedAffinity 12.0295725
REMARK minimizedRMSD -1
REMARK  1 active torsions:
REMARK  status: ('A' for Active; 'I' for Inactive)
REMARK    1  A    between atoms: C1_2  and  C2_3 
ROOT
ATOM      1  C2  UNL d   1      -4.329   1.142   3.578  0.00  0.00    -0.081 A 
ATOM      2  C3  UNL d   1      -4.823   0.436   2.474  0.00  0.00     0.006 A 
ATOM      3  C4  UNL d   1      -4.019  -0.494   1.810  0.00  0.00     0.002 A 
ATOM      4  C5  UNL d   1      -2.711  -0.739   2.244  0.00  0.00    -0.080 A 
ATOM      5  C6  UNL d   1      -1.848  -1.756   1.559  0.00  0.00     0.076 C 
ATOM      6  C7  UNL d   1      -2.212  -0.021   3.336  0.00  0.00     0.002 A 
ATOM      7  C8  UNL d   1      -3.016   0.909   4.000  0.00  0.00     0.006 A 
ENDROOT
BRANCH   1   8
ATOM      8  C1  UNL d   1      -5.216   2.097   4.335  0.00  0.00     0.054 C 
ATOM      9  C   UNL d   1      -4.646   2.408   5.712  0.00  0.00     0.018 C 
ENDBRANCH   1   8
TORSDOF 1
ENDMDL
