MODEL 1
REMARK minimizedAffinity 13.4914808
REMARK minimizedRMSD -1
REMARK  1 active torsions:
REMARK  status: ('A' for Active; 'I' for Inactive)
REMARK    1  A    between atoms: C1_2  and  C2_3 
ROOT
ATOM      1  C2  UNL d   1      -3.610  -3.367   2.685  0.00  0.00    -0.081 A 
ATOM      2  C3  UNL d   1      -3.933  -2.991   3.995  0.00  0.00     0.006 A 
ATOM      3  C4  UNL d   1      -4.695  -3.836   4.806  0.00  0.00     0.002 A 
ATOM      4  C5  UNL d   1      -5.140  -5.071   4.325  0.00  0.00    -0.080 A 
ATOM      5  C6  UNL d   1      -5.934  -6.000   5.195  0.00  0.00     0.076 C 
ATOM      6  C7  UNL d   1      -4.833  -5.438   3.010  0.00  0.00     0.002 A 
ATOM      7  C8  UNL d   1      -4.072  -4.595   2.198  0.00  0.00     0.006 A 
ENDROOT
BRANCH   1   8
ATOM      8  C1  UNL d   1      -2.734  -2.488   1.830  0.00  0.00     0.054 C 
ATOM      9  C   UNL d   1      -1.530  -1.980   2.610  0.00  0.00     0.018 C 
ENDBRANCH   1   8
TORSDOF 1
ENDMDL
