MODEL 1
REMARK minimizedAffinity -1.23790824
REMARK minimizedRMSD -1
REMARK  2 active torsions:
REMARK  status: ('A' for Active; 'I' for Inactive)
REMARK    1  A    between atoms: C1_2  and  C2_3 
REMARK    2  A    between atoms: C2_3  and  C3_4 
ROOT
ATOM      1  C3  UNL d   1       0.586   0.750  -1.341  0.00  0.00    -0.075 A 
ATOM      2  C4  UNL d   1      -0.218   1.891  -1.214  0.00  0.00     0.002 A 
ATOM      3  C5  UNL d   1      -0.188   2.653  -0.045  0.00  0.00     0.002 A 
ATOM      4  C6  UNL d   1       0.638   2.279   1.012  0.00  0.00    -0.004 A 
ATOM      5  C7  UNL d   1       1.430   1.138   0.904  0.00  0.00     0.002 A 
ATOM      6  C8  UNL d   1       1.404   0.376  -0.266  0.00  0.00     0.002 A 
ENDROOT
BRANCH   1   7
ATOM      7  C2  UNL d   1       0.580  -0.062  -2.614  0.00  0.00     0.056 C 
BRANCH   7   8
ATOM      8  C1  UNL d   1      -0.594   0.251  -3.547  0.00  0.00     0.007 C 
ATOM      9  C   UNL d   1      -1.219  -0.993  -4.165  0.00  0.00     0.009 C 
ENDBRANCH   7   8
ENDBRANCH   1   7
TORSDOF 2
ENDMDL
