MODEL 1
REMARK minimizedAffinity 6.45033646
REMARK minimizedRMSD -1
REMARK  2 active torsions:
REMARK  status: ('A' for Active; 'I' for Inactive)
REMARK    1  A    between atoms: C1_2  and  C2_3 
REMARK    2  A    between atoms: C2_3  and  C3_4 
ROOT
ATOM      1  C3  UNL d   1       1.275   0.426   0.473  0.00  0.00    -0.075 A 
ATOM      2  C4  UNL d   1       0.959   1.701   0.963  0.00  0.00     0.002 A 
ATOM      3  C5  UNL d   1       0.228   2.599   0.183  0.00  0.00     0.002 A 
ATOM      4  C6  UNL d   1      -0.186   2.237  -1.097  0.00  0.00    -0.004 A 
ATOM      5  C7  UNL d   1       0.138   0.979  -1.601  0.00  0.00     0.002 A 
ATOM      6  C8  UNL d   1       0.865   0.078  -0.821  0.00  0.00     0.002 A 
ENDROOT
BRANCH   1   7
ATOM      7  C2  UNL d   1       2.040  -0.560   1.322  0.00  0.00     0.056 C 
BRANCH   7   8
ATOM      8  C1  UNL d   1       2.582  -1.764   0.545  0.00  0.00     0.007 C 
ATOM      9  C   UNL d   1       3.971  -1.529  -0.035  0.00  0.00     0.009 C 
ENDBRANCH   7   8
ENDBRANCH   1   7
TORSDOF 2
ENDMDL
