MODEL 1
REMARK minimizedAffinity 10.6702852
REMARK minimizedRMSD -1
REMARK  2 active torsions:
REMARK  status: ('A' for Active; 'I' for Inactive)
REMARK    1  A    between atoms: C1_2  and  C2_3 
REMARK    2  A    between atoms: C2_3  and  C3_4 
ROOT
ATOM      1  C3  UNL d   1      -0.932   3.342  -0.118  0.00  0.00    -0.075 A 
ATOM      2  C4  UNL d   1      -1.530   3.396   1.150  0.00  0.00     0.002 A 
ATOM      3  C5  UNL d   1      -2.844   2.966   1.332  0.00  0.00     0.002 A 
ATOM      4  C6  UNL d   1      -3.580   2.488   0.250  0.00  0.00    -0.004 A 
ATOM      5  C7  UNL d   1      -3.002   2.445  -1.017  0.00  0.00     0.002 A 
ATOM      6  C8  UNL d   1      -1.686   2.871  -1.201  0.00  0.00     0.002 A 
ENDROOT
BRANCH   1   7
ATOM      7  C2  UNL d   1       0.500   3.778  -0.316  0.00  0.00     0.056 C 
BRANCH   7   8
ATOM      8  C1  UNL d   1       1.522   2.931   0.450  0.00  0.00     0.007 C 
ATOM      9  C   UNL d   1       1.169   1.450   0.484  0.00  0.00     0.009 C 
ENDBRANCH   7   8
ENDBRANCH   1   7
TORSDOF 2
ENDMDL
