MODEL 1
REMARK minimizedAffinity 12.7796545
REMARK minimizedRMSD -1
REMARK  2 active torsions:
REMARK  status: ('A' for Active; 'I' for Inactive)
REMARK    1  A    between atoms: C1_2  and  C2_3 
REMARK    2  A    between atoms: C2_3  and  C3_4 
ROOT
ATOM      1  C3  UNL d   1      -0.254   2.114   0.653  0.00  0.00    -0.075 A 
ATOM      2  C4  UNL d   1      -1.322   1.803   1.507  0.00  0.00     0.002 A 
ATOM      3  C5  UNL d   1      -2.622   2.199   1.189  0.00  0.00     0.002 A 
ATOM      4  C6  UNL d   1      -2.868   2.917   0.021  0.00  0.00    -0.004 A 
ATOM      5  C7  UNL d   1      -1.812   3.246  -0.826  0.00  0.00     0.002 A 
ATOM      6  C8  UNL d   1      -0.512   2.847  -0.513  0.00  0.00     0.002 A 
ENDROOT
BRANCH   1   7
ATOM      7  C2  UNL d   1       1.150   1.663   0.977  0.00  0.00     0.056 C 
BRANCH   7   8
ATOM      8  C1  UNL d   1       1.509   0.285   0.411  0.00  0.00     0.007 C 
ATOM      9  C   UNL d   1       1.958  -0.704   1.478  0.00  0.00     0.009 C 
ENDBRANCH   7   8
ENDBRANCH   1   7
TORSDOF 2
ENDMDL
