MODEL 1
REMARK minimizedAffinity 4.21743536
REMARK minimizedRMSD -1
REMARK  2 active torsions:
REMARK  status: ('A' for Active; 'I' for Inactive)
REMARK    1  A    between atoms: C1_2  and  C2_3 
REMARK    2  A    between atoms: C2_3  and  C3_4 
ROOT
ATOM      1  C3  UNL d   1      -1.627   1.998  -4.627  0.00  0.00    -0.075 A 
ATOM      2  C4  UNL d   1      -1.887   1.905  -3.252  0.00  0.00     0.002 A 
ATOM      3  C5  UNL d   1      -1.105   1.086  -2.437  0.00  0.00     0.002 A 
ATOM      4  C6  UNL d   1      -0.061   0.344  -2.986  0.00  0.00    -0.004 A 
ATOM      5  C7  UNL d   1       0.196   0.416  -4.353  0.00  0.00     0.002 A 
ATOM      6  C8  UNL d   1      -0.583   1.238  -5.170  0.00  0.00     0.002 A 
ENDROOT
BRANCH   1   7
ATOM      7  C2  UNL d   1      -2.451   2.905  -5.509  0.00  0.00     0.056 C 
BRANCH   7   8
ATOM      8  C1  UNL d   1      -2.223   4.399  -5.254  0.00  0.00     0.007 C 
ATOM      9  C   UNL d   1      -3.468   5.119  -4.754  0.00  0.00     0.009 C 
ENDBRANCH   7   8
ENDBRANCH   1   7
TORSDOF 2
ENDMDL
