MODEL 1
REMARK minimizedAffinity 8.52561188
REMARK minimizedRMSD -1
REMARK  2 active torsions:
REMARK  status: ('A' for Active; 'I' for Inactive)
REMARK    1  A    between atoms: C2'_3  and  C1'_4 
REMARK    2  A    between atoms: C1'_4  and  C1_5 
ROOT
ATOM      1  C1  I4B d   1      -3.188   1.476  -2.129  0.00  0.00    -0.075 A 
ATOM      2  C2  I4B d   1      -1.964   1.871  -1.652  0.00  0.00     0.003 A 
ATOM      3  C3  I4B d   1      -0.891   0.949  -1.591  0.00  0.00     0.002 A 
ATOM      4  C4  I4B d   1      -1.099  -0.362  -1.968  0.00  0.00    -0.004 A 
ATOM      5  C5  I4B d   1      -2.335  -0.756  -2.473  0.00  0.00     0.002 A 
ATOM      6  C6  I4B d   1      -3.383   0.172  -2.566  0.00  0.00     0.003 A 
ENDROOT
BRANCH   1   7
ATOM      7  C1' I4B d   1      -4.308   2.467  -2.149  0.00  0.00     0.060 C 
BRANCH   7   8
ATOM      8  C2' I4B d   1      -3.830   3.697  -2.893  0.00  0.00    -0.013 C 
ATOM      9  C4' I4B d   1      -4.265   3.664  -4.335  0.00  0.00     0.013 C 
ATOM     10  C3' I4B d   1      -4.375   4.904  -2.191  0.00  0.00     0.013 C 
ENDBRANCH   7   8
ENDBRANCH   1   7
TORSDOF 2
ENDMDL
