MODEL 1
REMARK minimizedAffinity 2.26843619
REMARK minimizedRMSD -1
REMARK  2 active torsions:
REMARK  status: ('A' for Active; 'I' for Inactive)
REMARK    1  A    between atoms: C2'_3  and  C1'_4 
REMARK    2  A    between atoms: C1'_4  and  C1_5 
ROOT
ATOM      1  C1  I4B d   1       0.180   2.480   1.815  0.00  0.00    -0.075 A 
ATOM      2  C2  I4B d   1       0.945   1.935   2.816  0.00  0.00     0.003 A 
ATOM      3  C3  I4B d   1       1.986   2.690   3.409  0.00  0.00     0.002 A 
ATOM      4  C4  I4B d   1       2.258   3.958   2.939  0.00  0.00    -0.004 A 
ATOM      5  C5  I4B d   1       1.467   4.518   1.940  0.00  0.00     0.002 A 
ATOM      6  C6  I4B d   1       0.414   3.779   1.382  0.00  0.00     0.003 A 
ENDROOT
BRANCH   1   7
ATOM      7  C1' I4B d   1      -0.890   1.643   1.188  0.00  0.00     0.060 C 
BRANCH   7   8
ATOM      8  C2' I4B d   1      -0.220   0.640   0.271  0.00  0.00    -0.013 C 
ATOM      9  C4' I4B d   1      -0.312  -0.756   0.829  0.00  0.00     0.013 C 
ATOM     10  C3' I4B d   1      -0.879   0.730  -1.073  0.00  0.00     0.013 C 
ENDBRANCH   7   8
ENDBRANCH   1   7
TORSDOF 2
ENDMDL
