MODEL 1
REMARK minimizedAffinity 3.4561801
REMARK minimizedRMSD -1
REMARK  2 active torsions:
REMARK  status: ('A' for Active; 'I' for Inactive)
REMARK    1  A    between atoms: C2'_3  and  C1'_4 
REMARK    2  A    between atoms: C1'_4  and  C1_5 
ROOT
ATOM      1  C1  I4B d   1      -3.193   1.793  -2.143  0.00  0.00    -0.075 A 
ATOM      2  C2  I4B d   1      -3.270   0.461  -1.821  0.00  0.00     0.003 A 
ATOM      3  C3  I4B d   1      -2.097  -0.265  -1.504  0.00  0.00     0.002 A 
ATOM      4  C4  I4B d   1      -0.870   0.364  -1.569  0.00  0.00    -0.004 A 
ATOM      5  C5  I4B d   1      -0.796   1.720  -1.873  0.00  0.00     0.002 A 
ATOM      6  C6  I4B d   1      -1.965   2.442  -2.150  0.00  0.00     0.003 A 
ENDROOT
BRANCH   1   7
ATOM      7  C1' I4B d   1      -4.449   2.521  -2.505  0.00  0.00     0.060 C 
BRANCH   7   8
ATOM      8  C2' I4B d   1      -4.067   3.713  -3.358  0.00  0.00    -0.013 C 
ATOM      9  C4' I4B d   1      -4.354   3.456  -4.814  0.00  0.00     0.013 C 
ATOM     10  C3' I4B d   1      -4.830   4.904  -2.858  0.00  0.00     0.013 C 
ENDBRANCH   7   8
ENDBRANCH   1   7
TORSDOF 2
ENDMDL
