MODEL 1
REMARK minimizedAffinity 2.7260139
REMARK minimizedRMSD -1
REMARK  2 active torsions:
REMARK  status: ('A' for Active; 'I' for Inactive)
REMARK    1  A    between atoms: C2'_3  and  C1'_4 
REMARK    2  A    between atoms: C1'_4  and  C1_5 
ROOT
ATOM      1  C1  I4B d   1      -0.693   3.458   0.526  0.00  0.00    -0.075 A 
ATOM      2  C2  I4B d   1      -0.284   3.915  -0.702  0.00  0.00     0.003 A 
ATOM      3  C3  I4B d   1      -0.643   5.215  -1.134  0.00  0.00     0.002 A 
ATOM      4  C4  I4B d   1      -1.447   6.000  -0.334  0.00  0.00    -0.004 A 
ATOM      5  C5  I4B d   1      -1.841   5.544   0.921  0.00  0.00     0.002 A 
ATOM      6  C6  I4B d   1      -1.452   4.270   1.360  0.00  0.00     0.003 A 
ENDROOT
BRANCH   1   7
ATOM      7  C1' I4B d   1      -0.324   2.068   0.938  0.00  0.00     0.060 C 
BRANCH   7   8
ATOM      8  C2' I4B d   1      -0.967   1.793   2.282  0.00  0.00    -0.013 C 
ATOM      9  C4' I4B d   1      -2.153   0.875   2.142  0.00  0.00     0.013 C 
ATOM     10  C3' I4B d   1       0.076   1.198   3.180  0.00  0.00     0.013 C 
ENDBRANCH   7   8
ENDBRANCH   1   7
TORSDOF 2
ENDMDL
