MODEL 1
REMARK minimizedAffinity 5.38097954
REMARK minimizedRMSD -1
REMARK  2 active torsions:
REMARK  status: ('A' for Active; 'I' for Inactive)
REMARK    1  A    between atoms: C2'_3  and  C1'_4 
REMARK    2  A    between atoms: C1'_4  and  C1_5 
ROOT
ATOM      1  C1  I4B d   1      -0.302   1.439  -0.348  0.00  0.00    -0.075 A 
ATOM      2  C2  I4B d   1       0.324   0.397  -0.987  0.00  0.00     0.003 A 
ATOM      3  C3  I4B d   1       0.910  -0.651  -0.236  0.00  0.00     0.002 A 
ATOM      4  C4  I4B d   1       0.891  -0.592   1.142  0.00  0.00    -0.004 A 
ATOM      5  C5  I4B d   1       0.236   0.453   1.788  0.00  0.00     0.002 A 
ATOM      6  C6  I4B d   1      -0.375   1.469   1.038  0.00  0.00     0.003 A 
ENDROOT
BRANCH   1   7
ATOM      7  C1' I4B d   1      -0.882   2.545  -1.171  0.00  0.00     0.060 C 
BRANCH   7   8
ATOM      8  C2' I4B d   1       0.190   3.600  -1.357  0.00  0.00    -0.013 C 
ATOM      9  C4' I4B d   1      -0.349   4.804  -2.083  0.00  0.00     0.013 C 
ATOM     10  C3' I4B d   1       0.711   3.973  -0.001  0.00  0.00     0.013 C 
ENDBRANCH   7   8
ENDBRANCH   1   7
TORSDOF 2
ENDMDL
