MODEL 1
REMARK minimizedAffinity -1.00806785
REMARK minimizedRMSD -1
REMARK  1 active torsions:
REMARK  status: ('A' for Active; 'I' for Inactive)
REMARK    1  A    between atoms: C1_2  and  C2_3 
ROOT
ATOM      1  C2  UNL d   1      -0.723   0.362  -0.213  0.00  0.00    -0.081 A 
ATOM      2  C3  UNL d   1      -0.464  -0.972  -0.553  0.00  0.00     0.006 A 
ATOM      3  C4  UNL d   1       0.721  -1.590  -0.146  0.00  0.00     0.002 A 
ATOM      4  C5  UNL d   1       1.663  -0.887   0.614  0.00  0.00    -0.080 A 
ATOM      5  C6  UNL d   1       2.925  -1.548   1.083  0.00  0.00     0.076 C 
ATOM      6  C7  UNL d   1       1.413   0.450   0.939  0.00  0.00     0.002 A 
ATOM      7  C8  UNL d   1       0.228   1.069   0.531  0.00  0.00     0.006 A 
ENDROOT
BRANCH   1   8
ATOM      8  C1  UNL d   1      -2.028   1.011  -0.595  0.00  0.00     0.054 C 
ATOM      9  C   UNL d   1      -3.147   0.603   0.352  0.00  0.00     0.018 C 
ENDBRANCH   1   8
TORSDOF 1
ENDMDL
