MODEL 1
REMARK minimizedAffinity -1.25427032
REMARK minimizedRMSD -1
REMARK  1 active torsions:
REMARK  status: ('A' for Active; 'I' for Inactive)
REMARK    1  A    between atoms: C1_2  and  C2_3 
ROOT
ATOM      1  C2  UNL d   1      -0.479   0.203   0.354  0.00  0.00    -0.081 A 
ATOM      2  C3  UNL d   1      -0.296  -1.015  -0.312  0.00  0.00     0.006 A 
ATOM      3  C4  UNL d   1       0.925  -1.689  -0.232  0.00  0.00     0.002 A 
ATOM      4  C5  UNL d   1       1.979  -1.161   0.521  0.00  0.00    -0.080 A 
ATOM      5  C6  UNL d   1       3.285  -1.889   0.640  0.00  0.00     0.076 C 
ATOM      6  C7  UNL d   1       1.802   0.064   1.172  0.00  0.00     0.002 A 
ATOM      7  C8  UNL d   1       0.582   0.739   1.092  0.00  0.00     0.006 A 
ENDROOT
BRANCH   1   8
ATOM      8  C1  UNL d   1      -1.815   0.900   0.322  0.00  0.00     0.054 C 
ATOM      9  C   UNL d   1      -2.511   0.826   1.674  0.00  0.00     0.018 C 
ENDBRANCH   1   8
TORSDOF 1
ENDMDL
