MODEL 1
REMARK minimizedAffinity -3.93228865
REMARK minimizedRMSD -1
REMARK  1 active torsions:
REMARK  status: ('A' for Active; 'I' for Inactive)
REMARK    1  A    between atoms: C1_2  and  C2_3 
ROOT
ATOM      1  C2  UNL d   1       0.511  -0.754   0.393  0.00  0.00    -0.081 A 
ATOM      2  C3  UNL d   1      -0.030   0.025  -0.637  0.00  0.00     0.006 A 
ATOM      3  C4  UNL d   1      -1.176   0.793  -0.416  0.00  0.00     0.002 A 
ATOM      4  C5  UNL d   1      -1.795   0.800   0.838  0.00  0.00    -0.080 A 
ATOM      5  C6  UNL d   1      -3.009   1.643   1.097  0.00  0.00     0.076 C 
ATOM      6  C7  UNL d   1      -1.265   0.007   1.862  0.00  0.00     0.002 A 
ATOM      7  C8  UNL d   1      -0.119  -0.761   1.642  0.00  0.00     0.006 A 
ENDROOT
BRANCH   1   8
ATOM      8  C1  UNL d   1       1.784  -1.532   0.177  0.00  0.00     0.054 C 
ATOM      9  C   UNL d   1       2.601  -1.623   1.457  0.00  0.00     0.018 C 
ENDBRANCH   1   8
TORSDOF 1
ENDMDL
