MODEL 1
REMARK minimizedAffinity -4.12859154
REMARK minimizedRMSD -1
REMARK  1 active torsions:
REMARK  status: ('A' for Active; 'I' for Inactive)
REMARK    1  A    between atoms: C1_2  and  C2_3 
ROOT
ATOM      1  C2  UNL d   1      -0.834  -0.033  -0.372  0.00  0.00    -0.081 A 
ATOM      2  C3  UNL d   1      -0.481  -1.386  -0.447  0.00  0.00     0.006 A 
ATOM      3  C4  UNL d   1       0.835  -1.789  -0.208  0.00  0.00     0.002 A 
ATOM      4  C5  UNL d   1       1.818  -0.848   0.116  0.00  0.00    -0.080 A 
ATOM      5  C6  UNL d   1       3.228  -1.271   0.404  0.00  0.00     0.076 C 
ATOM      6  C7  UNL d   1       1.469   0.506   0.173  0.00  0.00     0.002 A 
ATOM      7  C8  UNL d   1       0.154   0.909  -0.065  0.00  0.00     0.006 A 
ENDROOT
BRANCH   1   8
ATOM      8  C1  UNL d   1      -2.265   0.397  -0.565  0.00  0.00     0.054 C 
ATOM      9  C   UNL d   1      -2.918   0.757   0.762  0.00  0.00     0.018 C 
ENDBRANCH   1   8
TORSDOF 1
ENDMDL
