MODEL 1
REMARK minimizedAffinity -5.40940237
REMARK minimizedRMSD -1
REMARK  1 active torsions:
REMARK  status: ('A' for Active; 'I' for Inactive)
REMARK    1  A    between atoms: C1_2  and  C2_3 
ROOT
ATOM      1  C2  UNL d   1       0.030   0.488  -0.229  0.00  0.00    -0.081 A 
ATOM      2  C3  UNL d   1       0.122  -0.909  -0.210  0.00  0.00     0.006 A 
ATOM      3  C4  UNL d   1       1.303  -1.535   0.196  0.00  0.00     0.002 A 
ATOM      4  C5  UNL d   1       2.408  -0.777   0.597  0.00  0.00    -0.080 A 
ATOM      5  C6  UNL d   1       3.671  -1.437   1.063  0.00  0.00     0.076 C 
ATOM      6  C7  UNL d   1       2.322   0.619   0.561  0.00  0.00     0.002 A 
ATOM      7  C8  UNL d   1       1.142   1.246   0.155  0.00  0.00     0.006 A 
ENDROOT
BRANCH   1   8
ATOM      8  C1  UNL d   1      -1.263   1.166  -0.604  0.00  0.00     0.054 C 
ATOM      9  C   UNL d   1      -2.233   1.194   0.568  0.00  0.00     0.018 C 
ENDBRANCH   1   8
TORSDOF 1
ENDMDL
