MODEL 1
REMARK minimizedAffinity -4.77246666
REMARK minimizedRMSD -1
REMARK  1 active torsions:
REMARK  status: ('A' for Active; 'I' for Inactive)
REMARK    1  A    between atoms: C1_2  and  C2_3 
ROOT
ATOM      1  C2  UNL d   1       1.401  -0.713  -0.440  0.00  0.00    -0.081 A 
ATOM      2  C3  UNL d   1       1.003   0.595  -0.744  0.00  0.00     0.006 A 
ATOM      3  C4  UNL d   1      -0.299   1.021  -0.469  0.00  0.00     0.002 A 
ATOM      4  C5  UNL d   1      -1.221   0.149   0.121  0.00  0.00    -0.080 A 
ATOM      5  C6  UNL d   1      -2.612   0.603   0.449  0.00  0.00     0.076 C 
ATOM      6  C7  UNL d   1      -0.828  -1.162   0.408  0.00  0.00     0.002 A 
ATOM      7  C8  UNL d   1       0.473  -1.589   0.133  0.00  0.00     0.006 A 
ENDROOT
BRANCH   1   8
ATOM      8  C1  UNL d   1       2.823  -1.155  -0.676  0.00  0.00     0.054 C 
ATOM      9  C   UNL d   1       3.802  -0.010  -0.460  0.00  0.00     0.018 C 
ENDBRANCH   1   8
TORSDOF 1
ENDMDL
