MODEL 1
REMARK minimizedAffinity 3.64414382
REMARK minimizedRMSD -1
REMARK  1 active torsions:
REMARK  status: ('A' for Active; 'I' for Inactive)
REMARK    1  A    between atoms: C3_4  and  O_7 
ROOT
ATOM      1  C   UNL d   1       3.831   0.002  -0.001  0.00  0.00    -0.033 A 
ATOM      2  C1  UNL d   1       4.832   0.681  -0.699  0.00  0.00     0.039 A 
ATOM      3  C2  UNL d   1       5.016   0.445  -2.063  0.00  0.00    -0.080 A 
ATOM      4  C3  UNL d   1       4.194  -0.469  -2.716  0.00  0.00     0.150 A 
ATOM      5  C4  UNL d   1       3.193  -1.146  -2.027  0.00  0.00    -0.007 A 
ATOM      6  C5  UNL d   1       3.011  -0.910  -0.665  0.00  0.00     0.039 A 
ENDROOT
BRANCH   4   7
ATOM      7  O   UNL d   1       4.339  -0.736  -4.045  0.00  0.00    -0.526 OA
ATOM      8  H5  UNL d   1       5.089  -0.217  -4.383  0.00  0.00     0.418 HD
ENDBRANCH   4   7
TORSDOF 1
ENDMDL
