MODEL 1
REMARK minimizedAffinity 11.63515
REMARK minimizedRMSD -1
REMARK  1 active torsions:
REMARK  status: ('A' for Active; 'I' for Inactive)
REMARK    1  A    between atoms: C3_4  and  O_7 
ROOT
ATOM      1  C   UNL d   1       0.813  -2.998  -1.654  0.00  0.00    -0.033 A 
ATOM      2  C1  UNL d   1       0.375  -4.108  -0.930  0.00  0.00     0.039 A 
ATOM      3  C2  UNL d   1      -0.530  -5.005  -1.502  0.00  0.00    -0.080 A 
ATOM      4  C3  UNL d   1      -0.988  -4.780  -2.797  0.00  0.00     0.150 A 
ATOM      5  C4  UNL d   1      -0.552  -3.678  -3.526  0.00  0.00    -0.007 A 
ATOM      6  C5  UNL d   1       0.351  -2.784  -2.953  0.00  0.00     0.039 A 
ENDROOT
BRANCH   4   7
ATOM      7  O   UNL d   1      -1.875  -5.624  -3.396  0.00  0.00    -0.526 OA
ATOM      8  H5  UNL d   1      -2.109  -6.324  -2.763  0.00  0.00     0.418 HD
ENDBRANCH   4   7
TORSDOF 1
ENDMDL
