MODEL 1
REMARK minimizedAffinity 8.53215313
REMARK minimizedRMSD -1
REMARK  1 active torsions:
REMARK  status: ('A' for Active; 'I' for Inactive)
REMARK    1  A    between atoms: C3_4  and  O_7 
ROOT
ATOM      1  C   UNL d   1       4.201   0.990  -0.725  0.00  0.00    -0.033 A 
ATOM      2  C1  UNL d   1       5.214   0.373   0.012  0.00  0.00     0.039 A 
ATOM      3  C2  UNL d   1       5.016  -0.904   0.541  0.00  0.00    -0.080 A 
ATOM      4  C3  UNL d   1       3.803  -1.552   0.326  0.00  0.00     0.150 A 
ATOM      5  C4  UNL d   1       2.791  -0.945  -0.410  0.00  0.00    -0.007 A 
ATOM      6  C5  UNL d   1       2.990   0.331  -0.937  0.00  0.00     0.039 A 
ENDROOT
BRANCH   4   7
ATOM      7  O   UNL d   1       3.561  -2.797   0.827  0.00  0.00    -0.526 OA
ATOM      8  H5  UNL d   1       4.338  -3.079   1.338  0.00  0.00     0.418 HD
ENDBRANCH   4   7
TORSDOF 1
ENDMDL
