MODEL 1
REMARK minimizedAffinity 2.87784696
REMARK minimizedRMSD -1
REMARK  1 active torsions:
REMARK  status: ('A' for Active; 'I' for Inactive)
REMARK    1  A    between atoms: C3_4  and  O_7 
ROOT
ATOM      1  C   UNL d   1       1.648  -2.936   4.412  0.00  0.00    -0.033 A 
ATOM      2  C1  UNL d   1       0.375  -3.028   3.846  0.00  0.00     0.039 A 
ATOM      3  C2  UNL d   1      -0.553  -3.939   4.354  0.00  0.00    -0.080 A 
ATOM      4  C3  UNL d   1      -0.196  -4.751   5.427  0.00  0.00     0.150 A 
ATOM      5  C4  UNL d   1       1.069  -4.662   5.998  0.00  0.00    -0.007 A 
ATOM      6  C5  UNL d   1       1.995  -3.753   5.489  0.00  0.00     0.039 A 
ENDROOT
BRANCH   4   7
ATOM      7  O   UNL d   1      -1.066  -5.658   5.954  0.00  0.00    -0.526 OA
ATOM      8  H5  UNL d   1      -1.891  -5.628   5.441  0.00  0.00     0.418 HD
ENDBRANCH   4   7
TORSDOF 1
ENDMDL
