MODEL 1
REMARK minimizedAffinity 4.58307886
REMARK minimizedRMSD -1
REMARK  1 active torsions:
REMARK  status: ('A' for Active; 'I' for Inactive)
REMARK    1  A    between atoms: C3_4  and  O_7 
ROOT
ATOM      1  C   UNL d   1       1.684  -2.649   4.374  0.00  0.00    -0.033 A 
ATOM      2  C1  UNL d   1       2.288  -3.328   5.434  0.00  0.00     0.039 A 
ATOM      3  C2  UNL d   1       1.668  -4.448   5.992  0.00  0.00    -0.080 A 
ATOM      4  C3  UNL d   1       0.447  -4.879   5.480  0.00  0.00     0.150 A 
ATOM      5  C4  UNL d   1      -0.158  -4.210   4.422  0.00  0.00    -0.007 A 
ATOM      6  C5  UNL d   1       0.461  -3.090   3.867  0.00  0.00     0.039 A 
ENDROOT
BRANCH   4   7
ATOM      7  O   UNL d   1      -0.198  -5.964   5.995  0.00  0.00    -0.526 OA
ATOM      8  H5  UNL d   1       0.324  -6.308   6.739  0.00  0.00     0.418 HD
ENDBRANCH   4   7
TORSDOF 1
ENDMDL
