MODEL 1
REMARK minimizedAffinity 10.133399
REMARK minimizedRMSD -1
REMARK  1 active torsions:
REMARK  status: ('A' for Active; 'I' for Inactive)
REMARK    1  A    between atoms: C3_4  and  O_7 
ROOT
ATOM      1  C   UNL d   1       5.118   0.752   0.449  0.00  0.00    -0.033 A 
ATOM      2  C1  UNL d   1       5.572   1.873   1.146  0.00  0.00     0.039 A 
ATOM      3  C2  UNL d   1       5.623   3.117   0.514  0.00  0.00    -0.080 A 
ATOM      4  C3  UNL d   1       5.215   3.227  -0.813  0.00  0.00     0.150 A 
ATOM      5  C4  UNL d   1       4.757   2.115  -1.512  0.00  0.00    -0.007 A 
ATOM      6  C5  UNL d   1       4.709   0.873  -0.880  0.00  0.00     0.039 A 
ENDROOT
BRANCH   4   7
ATOM      7  O   UNL d   1       5.250   4.419  -1.473  0.00  0.00    -0.526 OA
ATOM      8  H5  UNL d   1       5.615   5.092  -0.874  0.00  0.00     0.418 HD
ENDBRANCH   4   7
TORSDOF 1
ENDMDL
