MODEL 1
REMARK minimizedAffinity 12.1285906
REMARK minimizedRMSD -1
REMARK  1 active torsions:
REMARK  status: ('A' for Active; 'I' for Inactive)
REMARK    1  A    between atoms: C3_4  and  O_7 
ROOT
ATOM      1  C   UNL d   1       5.936   1.079  -0.279  0.00  0.00    -0.033 A 
ATOM      2  C1  UNL d   1       5.732   0.605  -1.576  0.00  0.00     0.039 A 
ATOM      3  C2  UNL d   1       4.501   0.050  -1.933  0.00  0.00    -0.080 A 
ATOM      4  C3  UNL d   1       3.484  -0.023  -0.984  0.00  0.00     0.150 A 
ATOM      5  C4  UNL d   1       3.680   0.451   0.309  0.00  0.00    -0.007 A 
ATOM      6  C5  UNL d   1       4.910   1.004   0.663  0.00  0.00     0.039 A 
ENDROOT
BRANCH   4   7
ATOM      7  O   UNL d   1       2.268  -0.560  -1.284  0.00  0.00    -0.526 OA
ATOM      8  H5  UNL d   1       2.287  -0.872  -2.204  0.00  0.00     0.418 HD
ENDBRANCH   4   7
TORSDOF 1
ENDMDL
