MODEL 1
REMARK minimizedAffinity 7.93213129
REMARK minimizedRMSD -1
REMARK  1 active torsions:
REMARK  status: ('A' for Active; 'I' for Inactive)
REMARK    1  A    between atoms: C3_4  and  O_7 
ROOT
ATOM      1  C   UNL d   1       5.709  -0.825  -2.296  0.00  0.00    -0.033 A 
ATOM      2  C1  UNL d   1       4.383  -0.430  -2.109  0.00  0.00     0.039 A 
ATOM      3  C2  UNL d   1       3.342  -1.201  -2.632  0.00  0.00    -0.080 A 
ATOM      4  C3  UNL d   1       3.641  -2.363  -3.338  0.00  0.00     0.150 A 
ATOM      5  C4  UNL d   1       4.960  -2.764  -3.525  0.00  0.00    -0.007 A 
ATOM      6  C5  UNL d   1       5.997  -1.993  -3.003  0.00  0.00     0.039 A 
ENDROOT
BRANCH   4   7
ATOM      7  O   UNL d   1       2.660  -3.145  -3.871  0.00  0.00    -0.526 OA
ATOM      8  H5  UNL d   1       1.801  -2.729  -3.688  0.00  0.00     0.418 HD
ENDBRANCH   4   7
TORSDOF 1
ENDMDL
