MODEL 1
REMARK minimizedAffinity -4.29016781
REMARK minimizedRMSD -1
REMARK  0 active torsions:
REMARK  status: ('A' for Active; 'I' for Inactive)
ROOT
ATOM      1  C1  DEN d   1      -0.510  -0.633   0.425  0.00  0.00     0.130 A 
ATOM      2  C2  DEN d   1      -0.565   0.826   0.408  0.00  0.00    -0.031 A 
ATOM      3  C3  DEN d   1       0.523   1.314  -0.464  0.00  0.00     0.027 A 
ATOM      4  C4  DEN d   1       2.274  -0.041  -1.787  0.00  0.00     0.027 A 
ATOM      5  C5  DEN d   1       2.727  -1.309  -2.076  0.00  0.00    -0.003 A 
ATOM      6  C6  DEN d   1       2.159  -2.430  -1.530  0.00  0.00     0.001 A 
ATOM      7  C7  DEN d   1       1.076  -2.307  -0.701  0.00  0.00     0.017 A 
ATOM      8  C8  DEN d   1       0.618  -1.031  -0.398  0.00  0.00    -0.094 A 
ATOM      9  C9  DEN d   1       1.198   0.089  -0.970  0.00  0.00    -0.072 A 
ENDROOT
TORSDOF 0
ENDMDL
