MODEL 1
REMARK minimizedAffinity -1.62204099
REMARK minimizedRMSD -1
REMARK  0 active torsions:
REMARK  status: ('A' for Active; 'I' for Inactive)
ROOT
ATOM      1  C1  DEN d   1      -1.287   1.010   1.102  0.00  0.00     0.130 A 
ATOM      2  C2  DEN d   1      -1.407  -0.170   1.955  0.00  0.00    -0.031 A 
ATOM      3  C3  DEN d   1      -0.393  -1.152   1.520  0.00  0.00     0.027 A 
ATOM      4  C4  DEN d   1       1.344  -0.960  -0.377  0.00  0.00     0.027 A 
ATOM      5  C5  DEN d   1       1.820  -0.151  -1.384  0.00  0.00    -0.003 A 
ATOM      6  C6  DEN d   1       1.277   1.077  -1.654  0.00  0.00     0.001 A 
ATOM      7  C7  DEN d   1       0.254   1.551  -0.877  0.00  0.00     0.017 A 
ATOM      8  C8  DEN d   1      -0.237   0.739   0.136  0.00  0.00    -0.094 A 
ATOM      9  C9  DEN d   1       0.333  -0.495   0.401  0.00  0.00    -0.072 A 
ENDROOT
TORSDOF 0
ENDMDL
