MODEL 1
REMARK minimizedAffinity -5.05424213
REMARK minimizedRMSD -1
REMARK  0 active torsions:
REMARK  status: ('A' for Active; 'I' for Inactive)
ROOT
ATOM      1  C1  DEN d   1       0.718   0.978   0.698  0.00  0.00     0.130 A 
ATOM      2  C2  DEN d   1       0.009  -0.005   1.511  0.00  0.00    -0.031 A 
ATOM      3  C3  DEN d   1       0.005  -1.287   0.777  0.00  0.00     0.027 A 
ATOM      4  C4  DEN d   1       1.029  -1.842  -1.524  0.00  0.00     0.027 A 
ATOM      5  C5  DEN d   1       1.721  -1.328  -2.598  0.00  0.00    -0.003 A 
ATOM      6  C6  DEN d   1       2.095  -0.012  -2.664  0.00  0.00     0.001 A 
ATOM      7  C7  DEN d   1       1.817   0.826  -1.616  0.00  0.00     0.017 A 
ATOM      8  C8  DEN d   1       1.114   0.316  -0.532  0.00  0.00    -0.094 A 
ATOM      9  C9  DEN d   1       0.756  -1.020  -0.479  0.00  0.00    -0.072 A 
ENDROOT
TORSDOF 0
ENDMDL
