MODEL 1
REMARK minimizedAffinity -2.53220797
REMARK minimizedRMSD -1
REMARK  0 active torsions:
REMARK  status: ('A' for Active; 'I' for Inactive)
ROOT
ATOM      1  C1  DEN d   1       2.170   0.303  -1.536  0.00  0.00     0.130 A 
ATOM      2  C2  DEN d   1       1.779   1.703  -1.391  0.00  0.00    -0.031 A 
ATOM      3  C3  DEN d   1       0.698   1.774  -0.388  0.00  0.00     0.027 A 
ATOM      4  C4  DEN d   1      -0.399  -0.137   0.953  0.00  0.00     0.027 A 
ATOM      5  C5  DEN d   1      -0.410  -1.498   1.164  0.00  0.00    -0.003 A 
ATOM      6  C6  DEN d   1       0.408  -2.351   0.472  0.00  0.00     0.001 A 
ATOM      7  C7  DEN d   1       1.304  -1.846  -0.434  0.00  0.00     0.017 A 
ATOM      8  C8  DEN d   1       1.315  -0.476  -0.658  0.00  0.00    -0.094 A 
ATOM      9  C9  DEN d   1       0.489   0.371   0.061  0.00  0.00    -0.072 A 
ENDROOT
TORSDOF 0
ENDMDL
