MODEL 1
REMARK minimizedAffinity -3.7917695
REMARK minimizedRMSD -1
REMARK  0 active torsions:
REMARK  status: ('A' for Active; 'I' for Inactive)
ROOT
ATOM      1  C1  DEN d   1      -0.263  -0.631   0.246  0.00  0.00     0.130 A 
ATOM      2  C2  DEN d   1      -0.267   0.826   0.140  0.00  0.00    -0.031 A 
ATOM      3  C3  DEN d   1       0.837   1.221  -0.758  0.00  0.00     0.027 A 
ATOM      4  C4  DEN d   1       2.540  -0.272  -1.991  0.00  0.00     0.027 A 
ATOM      5  C5  DEN d   1       2.948  -1.571  -2.202  0.00  0.00    -0.003 A 
ATOM      6  C6  DEN d   1       2.342  -2.635  -1.590  0.00  0.00     0.001 A 
ATOM      7  C7  DEN d   1       1.264  -2.424  -0.772  0.00  0.00     0.017 A 
ATOM      8  C8  DEN d   1       0.851  -1.117  -0.549  0.00  0.00    -0.094 A 
ATOM      9  C9  DEN d   1       1.469  -0.055  -1.187  0.00  0.00    -0.072 A 
ENDROOT
TORSDOF 0
ENDMDL
