MODEL 1
REMARK minimizedAffinity -3.90621853
REMARK minimizedRMSD -1
REMARK  0 active torsions:
REMARK  status: ('A' for Active; 'I' for Inactive)
ROOT
ATOM      1  C1  DEN d   1      -1.098   2.250  -0.584  0.00  0.00     0.130 A 
ATOM      2  C2  DEN d   1       0.118   1.480  -0.832  0.00  0.00    -0.031 A 
ATOM      3  C3  DEN d   1       0.026   0.221  -0.066  0.00  0.00     0.027 A 
ATOM      4  C4  DEN d   1      -1.874  -0.610   1.467  0.00  0.00     0.027 A 
ATOM      5  C5  DEN d   1      -3.107  -0.298   1.998  0.00  0.00    -0.003 A 
ATOM      6  C6  DEN d   1      -3.735   0.890   1.734  0.00  0.00     0.001 A 
ATOM      7  C7  DEN d   1      -3.154   1.791   0.882  0.00  0.00     0.017 A 
ATOM      8  C8  DEN d   1      -1.908   1.487   0.349  0.00  0.00    -0.094 A 
ATOM      9  C9  DEN d   1      -1.294   0.275   0.618  0.00  0.00    -0.072 A 
ENDROOT
TORSDOF 0
ENDMDL
