MODEL 1
REMARK minimizedAffinity -2.97066998
REMARK minimizedRMSD -1
REMARK  0 active torsions:
REMARK  status: ('A' for Active; 'I' for Inactive)
ROOT
ATOM      1  C1  DEN d   1      -1.087   0.772  -1.063  0.00  0.00     0.130 A 
ATOM      2  C2  DEN d   1       0.279   0.515  -0.614  0.00  0.00    -0.031 A 
ATOM      3  C3  DEN d   1       0.259   0.386   0.857  0.00  0.00     0.027 A 
ATOM      4  C4  DEN d   1      -1.743   0.552   2.474  0.00  0.00     0.027 A 
ATOM      5  C5  DEN d   1      -3.100   0.770   2.561  0.00  0.00    -0.003 A 
ATOM      6  C6  DEN d   1      -3.869   1.036   1.460  0.00  0.00     0.001 A 
ATOM      7  C7  DEN d   1      -3.294   1.046   0.217  0.00  0.00     0.017 A 
ATOM      8  C8  DEN d   1      -1.925   0.834   0.121  0.00  0.00    -0.094 A 
ATOM      9  C9  DEN d   1      -1.167   0.555   1.245  0.00  0.00    -0.072 A 
ENDROOT
TORSDOF 0
ENDMDL
