MODEL 1
REMARK minimizedAffinity -3.78808045
REMARK minimizedRMSD -1
REMARK  0 active torsions:
REMARK  status: ('A' for Active; 'I' for Inactive)
ROOT
ATOM      1  C1  DEN d   1       2.461  -1.923  -1.837  0.00  0.00     0.130 A 
ATOM      2  C2  DEN d   1       1.682  -2.945  -1.142  0.00  0.00    -0.031 A 
ATOM      3  C3  DEN d   1       0.710  -2.260  -0.266  0.00  0.00     0.027 A 
ATOM      4  C4  DEN d   1       0.335   0.269   0.076  0.00  0.00     0.027 A 
ATOM      5  C5  DEN d   1       0.763   1.526  -0.287  0.00  0.00    -0.003 A 
ATOM      6  C6  DEN d   1       1.801   1.721  -1.159  0.00  0.00     0.001 A 
ATOM      7  C7  DEN d   1       2.417   0.640  -1.733  0.00  0.00     0.017 A 
ATOM      8  C8  DEN d   1       1.996  -0.631  -1.366  0.00  0.00    -0.094 A 
ATOM      9  C9  DEN d   1       0.937  -0.807  -0.492  0.00  0.00    -0.072 A 
ENDROOT
TORSDOF 0
ENDMDL
