MODEL 1
REMARK minimizedAffinity -0.325717449
REMARK minimizedRMSD -1
REMARK  0 active torsions:
REMARK  status: ('A' for Active; 'I' for Inactive)
ROOT
ATOM      1  C1  DEN d   1      -0.203   1.380  -0.696  0.00  0.00     0.130 A 
ATOM      2  C2  DEN d   1       1.020   0.661  -1.044  0.00  0.00    -0.031 A 
ATOM      3  C3  DEN d   1       1.075  -0.569  -0.228  0.00  0.00     0.027 A 
ATOM      4  C4  DEN d   1      -0.608  -1.427   1.528  0.00  0.00     0.027 A 
ATOM      5  C5  DEN d   1      -1.793  -1.154   2.175  0.00  0.00    -0.003 A 
ATOM      6  C6  DEN d   1      -2.508  -0.010   1.937  0.00  0.00     0.001 A 
ATOM      7  C7  DEN d   1      -2.067   0.883   0.996  0.00  0.00     0.017 A 
ATOM      8  C8  DEN d   1      -0.869   0.618   0.345  0.00  0.00    -0.094 A 
ATOM      9  C9  DEN d   1      -0.168  -0.550   0.590  0.00  0.00    -0.072 A 
ENDROOT
TORSDOF 0
ENDMDL
