MODEL 1
REMARK minimizedAffinity -2.34744167
REMARK minimizedRMSD -1
REMARK  0 active torsions:
REMARK  status: ('A' for Active; 'I' for Inactive)
ROOT
ATOM      1  C1  DEN d   1      -0.610  -1.007   1.031  0.00  0.00     0.130 A 
ATOM      2  C2  DEN d   1      -1.781  -0.157   1.231  0.00  0.00    -0.031 A 
ATOM      3  C3  DEN d   1      -1.617   1.049   0.393  0.00  0.00     0.027 A 
ATOM      4  C4  DEN d   1       0.321   1.675  -1.188  0.00  0.00     0.027 A 
ATOM      5  C5  DEN d   1       1.544   1.273  -1.679  0.00  0.00    -0.003 A 
ATOM      6  C6  DEN d   1       2.145   0.109  -1.280  0.00  0.00     0.001 A 
ATOM      7  C7  DEN d   1       1.503  -0.717  -0.395  0.00  0.00     0.017 A 
ATOM      8  C8  DEN d   1       0.273  -0.315   0.111  0.00  0.00    -0.094 A 
ATOM      9  C9  DEN d   1      -0.323   0.860  -0.315  0.00  0.00    -0.072 A 
ENDROOT
TORSDOF 0
ENDMDL
