MODEL 1
REMARK minimizedAffinity -2.35294271
REMARK minimizedRMSD -1
REMARK  0 active torsions:
REMARK  status: ('A' for Active; 'I' for Inactive)
ROOT
ATOM      1  C1  DEN d   1       0.629  -2.123  -0.283  0.00  0.00     0.130 A 
ATOM      2  C2  DEN d   1      -0.051  -1.898   0.990  0.00  0.00    -0.031 A 
ATOM      3  C3  DEN d   1      -0.071  -0.443   1.246  0.00  0.00     0.027 A 
ATOM      4  C4  DEN d   1       0.877   1.471  -0.199  0.00  0.00     0.027 A 
ATOM      5  C5  DEN d   1       1.553   1.772  -1.361  0.00  0.00    -0.003 A 
ATOM      6  C6  DEN d   1       1.994   0.802  -2.221  0.00  0.00     0.001 A 
ATOM      7  C7  DEN d   1       1.725  -0.515  -1.955  0.00  0.00     0.017 A 
ATOM      8  C8  DEN d   1       1.051  -0.826  -0.782  0.00  0.00    -0.094 A 
ATOM      9  C9  DEN d   1       0.602   0.170   0.069  0.00  0.00    -0.072 A 
ENDROOT
TORSDOF 0
ENDMDL
