MODEL 1
REMARK minimizedAffinity -4.47716141
REMARK minimizedRMSD -1
REMARK  0 active torsions:
REMARK  status: ('A' for Active; 'I' for Inactive)
ROOT
ATOM      1  C1  DEN d   1      -0.035  -0.204   1.483  0.00  0.00     0.130 A 
ATOM      2  C2  DEN d   1      -1.458   0.081   1.648  0.00  0.00    -0.031 A 
ATOM      3  C3  DEN d   1      -1.960   0.647   0.380  0.00  0.00     0.027 A 
ATOM      4  C4  DEN d   1      -0.680   1.105  -1.812  0.00  0.00     0.027 A 
ATOM      5  C5  DEN d   1       0.550   1.038  -2.429  0.00  0.00    -0.003 A 
ATOM      6  C6  DEN d   1       1.669   0.588  -1.780  0.00  0.00     0.001 A 
ATOM      7  C7  DEN d   1       1.571   0.144  -0.487  0.00  0.00     0.017 A 
ATOM      8  C8  DEN d   1       0.336   0.216   0.144  0.00  0.00    -0.094 A 
ATOM      9  C9  DEN d   1      -0.786   0.662  -0.533  0.00  0.00    -0.072 A 
ENDROOT
TORSDOF 0
ENDMDL
