MODEL 1
REMARK minimizedAffinity 0.480066359
REMARK minimizedRMSD -1
REMARK  0 active torsions:
REMARK  status: ('A' for Active; 'I' for Inactive)
ROOT
ATOM      1  C1  BNZ d   1      -2.563   1.039   1.855  0.00  0.00     0.000 A 
ATOM      2  C2  BNZ d   1      -1.951   0.877   3.070  0.00  0.00     0.000 A 
ATOM      3  C3  BNZ d   1      -0.962  -0.052   3.237  0.00  0.00     0.000 A 
ATOM      4  C4  BNZ d   1      -0.615  -0.844   2.202  0.00  0.00     0.000 A 
ATOM      5  C5  BNZ d   1      -1.229  -0.700   0.974  0.00  0.00     0.000 A 
ATOM      6  C6  BNZ d   1      -2.197   0.262   0.799  0.00  0.00     0.000 A 
ENDROOT
TORSDOF 0
ENDMDL
