MODEL 1
REMARK minimizedAffinity -4.06048632
REMARK minimizedRMSD -1
REMARK  0 active torsions:
REMARK  status: ('A' for Active; 'I' for Inactive)
ROOT
ATOM      1  C1  BNZ d   1      -1.786   0.731  -4.732  0.00  0.00     0.000 A 
ATOM      2  C2  BNZ d   1      -0.831   1.704  -4.858  0.00  0.00     0.000 A 
ATOM      3  C3  BNZ d   1       0.442   1.389  -5.243  0.00  0.00     0.000 A 
ATOM      4  C4  BNZ d   1       0.769   0.099  -5.462  0.00  0.00     0.000 A 
ATOM      5  C5  BNZ d   1      -0.181  -0.895  -5.330  0.00  0.00     0.000 A 
ATOM      6  C6  BNZ d   1      -1.471  -0.570  -4.980  0.00  0.00     0.000 A 
ENDROOT
TORSDOF 0
ENDMDL
