MODEL 1
REMARK minimizedAffinity -2.08914137
REMARK minimizedRMSD -1
REMARK  0 active torsions:
REMARK  status: ('A' for Active; 'I' for Inactive)
ROOT
ATOM      1  C1  BNZ d   1       2.016  -2.850  -3.014  0.00  0.00     0.000 A 
ATOM      2  C2  BNZ d   1       1.039  -2.607  -3.943  0.00  0.00     0.000 A 
ATOM      3  C3  BNZ d   1      -0.266  -2.464  -3.565  0.00  0.00     0.000 A 
ATOM      4  C4  BNZ d   1      -0.600  -2.603  -2.266  0.00  0.00     0.000 A 
ATOM      5  C5  BNZ d   1       0.372  -2.857  -1.319  0.00  0.00     0.000 A 
ATOM      6  C6  BNZ d   1       1.690  -2.962  -1.697  0.00  0.00     0.000 A 
ENDROOT
TORSDOF 0
ENDMDL
