MODEL 1
REMARK minimizedAffinity -3.45570397
REMARK minimizedRMSD -1
REMARK  0 active torsions:
REMARK  status: ('A' for Active; 'I' for Inactive)
ROOT
ATOM      1  C1  BNZ d   1       1.365  -0.266  -5.615  0.00  0.00     0.000 A 
ATOM      2  C2  BNZ d   1       1.498  -1.232  -4.653  0.00  0.00     0.000 A 
ATOM      3  C3  BNZ d   1       0.549  -1.387  -3.681  0.00  0.00     0.000 A 
ATOM      4  C4  BNZ d   1      -0.509  -0.552  -3.648  0.00  0.00     0.000 A 
ATOM      5  C5  BNZ d   1      -0.652   0.432  -4.605  0.00  0.00     0.000 A 
ATOM      6  C6  BNZ d   1       0.285   0.561  -5.605  0.00  0.00     0.000 A 
ENDROOT
TORSDOF 0
ENDMDL
