MODEL 1
REMARK minimizedAffinity -0.691521466
REMARK minimizedRMSD -1
REMARK  0 active torsions:
REMARK  status: ('A' for Active; 'I' for Inactive)
ROOT
ATOM      1  C1  BNZ d   1       5.015   2.605   4.991  0.00  0.00     0.000 A 
ATOM      2  C2  BNZ d   1       4.991   3.811   4.343  0.00  0.00     0.000 A 
ATOM      3  C3  BNZ d   1       4.737   3.880   3.002  0.00  0.00     0.000 A 
ATOM      4  C4  BNZ d   1       4.548   2.742   2.303  0.00  0.00     0.000 A 
ATOM      5  C5  BNZ d   1       4.578   1.518   2.941  0.00  0.00     0.000 A 
ATOM      6  C6  BNZ d   1       4.794   1.455   4.298  0.00  0.00     0.000 A 
ENDROOT
TORSDOF 0
ENDMDL
