MODEL 1
REMARK minimizedAffinity -1.84899795
REMARK minimizedRMSD -1
REMARK  0 active torsions:
REMARK  status: ('A' for Active; 'I' for Inactive)
ROOT
ATOM      1  C1  BNZ d   1      -2.948  -1.227  -5.856  0.00  0.00     0.000 A 
ATOM      2  C2  BNZ d   1      -3.118   0.131  -5.830  0.00  0.00     0.000 A 
ATOM      3  C3  BNZ d   1      -2.146   0.949  -5.327  0.00  0.00     0.000 A 
ATOM      4  C4  BNZ d   1      -1.022   0.407  -4.815  0.00  0.00     0.000 A 
ATOM      5  C5  BNZ d   1      -0.839  -0.962  -4.826  0.00  0.00     0.000 A 
ATOM      6  C6  BNZ d   1      -1.804  -1.780  -5.368  0.00  0.00     0.000 A 
ENDROOT
TORSDOF 0
ENDMDL
