MODEL 1
REMARK minimizedAffinity -2.67079353
REMARK minimizedRMSD -1
REMARK  0 active torsions:
REMARK  status: ('A' for Active; 'I' for Inactive)
ROOT
ATOM      1  C1  BNZ d   1      -1.857   0.419  -4.879  0.00  0.00     0.000 A 
ATOM      2  C2  BNZ d   1      -2.028  -0.446  -3.831  0.00  0.00     0.000 A 
ATOM      3  C3  BNZ d   1      -1.100  -1.413  -3.563  0.00  0.00     0.000 A 
ATOM      4  C4  BNZ d   1      -0.024  -1.540  -4.365  0.00  0.00     0.000 A 
ATOM      5  C5  BNZ d   1       0.159  -0.681  -5.431  0.00  0.00     0.000 A 
ATOM      6  C6  BNZ d   1      -0.758   0.315  -5.675  0.00  0.00     0.000 A 
ENDROOT
TORSDOF 0
ENDMDL
