MODEL 1
REMARK minimizedAffinity -1.75496542
REMARK minimizedRMSD -1
REMARK  0 active torsions:
REMARK  status: ('A' for Active; 'I' for Inactive)
ROOT
ATOM      1  C1  BNZ d   1      -0.933  -1.134  -4.879  0.00  0.00     0.000 A 
ATOM      2  C2  BNZ d   1       0.307  -1.094  -5.457  0.00  0.00     0.000 A 
ATOM      3  C3  BNZ d   1       0.790   0.064  -6.000  0.00  0.00     0.000 A 
ATOM      4  C4  BNZ d   1       0.017   1.169  -6.000  0.00  0.00     0.000 A 
ATOM      5  C5  BNZ d   1      -1.240   1.142  -5.429  0.00  0.00     0.000 A 
ATOM      6  C6  BNZ d   1      -1.707  -0.015  -4.849  0.00  0.00     0.000 A 
ENDROOT
TORSDOF 0
ENDMDL
