MODEL 1
REMARK minimizedAffinity -1.37117362
REMARK minimizedRMSD -1
REMARK  0 active torsions:
REMARK  status: ('A' for Active; 'I' for Inactive)
ROOT
ATOM      1  C1  BNZ d   1      -1.410  -0.303   3.261  0.00  0.00     0.000 A 
ATOM      2  C2  BNZ d   1      -2.675  -0.635   3.667  0.00  0.00     0.000 A 
ATOM      3  C3  BNZ d   1      -2.898  -1.762   4.408  0.00  0.00     0.000 A 
ATOM      4  C4  BNZ d   1      -1.864  -2.575   4.707  0.00  0.00     0.000 A 
ATOM      5  C5  BNZ d   1      -0.585  -2.258   4.297  0.00  0.00     0.000 A 
ATOM      6  C6  BNZ d   1      -0.358  -1.103   3.584  0.00  0.00     0.000 A 
ENDROOT
TORSDOF 0
ENDMDL
