MODEL 1
REMARK minimizedAffinity 1.64545751
REMARK minimizedRMSD -1
REMARK  0 active torsions:
REMARK  status: ('A' for Active; 'I' for Inactive)
ROOT
ATOM      1  C1  BNZ d   1      -0.516   0.595  -5.999  0.00  0.00     0.000 A 
ATOM      2  C2  BNZ d   1       0.488  -0.336  -5.999  0.00  0.00     0.000 A 
ATOM      3  C3  BNZ d   1       0.377  -1.486  -5.268  0.00  0.00     0.000 A 
ATOM      4  C4  BNZ d   1      -0.719  -1.685  -4.508  0.00  0.00     0.000 A 
ATOM      5  C5  BNZ d   1      -1.736  -0.751  -4.490  0.00  0.00     0.000 A 
ATOM      6  C6  BNZ d   1      -1.638   0.386  -5.258  0.00  0.00     0.000 A 
ENDROOT
TORSDOF 0
ENDMDL
