MODEL 1
REMARK minimizedAffinity -5.49916697
REMARK minimizedRMSD -1
REMARK  1 active torsions:
REMARK  status: ('A' for Active; 'I' for Inactive)
REMARK    1  A    between atoms: C1_2  and  C2_3 
ROOT
ATOM      1  C2  UNL d   1      -0.453  -0.069  -0.352  0.00  0.00    -0.077 A 
ATOM      2  C3  UNL d   1      -1.252  -0.891   0.455  0.00  0.00     0.002 A 
ATOM      3  C4  UNL d   1      -2.641  -0.887   0.312  0.00  0.00     0.002 A 
ATOM      4  C5  UNL d   1      -3.242  -0.067  -0.640  0.00  0.00    -0.004 A 
ATOM      5  C6  UNL d   1      -2.457   0.756  -1.446  0.00  0.00     0.002 A 
ATOM      6  C7  UNL d   1      -1.069   0.755  -1.304  0.00  0.00     0.002 A 
ENDROOT
BRANCH   1   7
ATOM      7  C1  UNL d   1       1.048  -0.108  -0.233  0.00  0.00     0.055 C 
ATOM      8  C   UNL d   1       1.596   1.208   0.300  0.00  0.00     0.019 C 
ENDBRANCH   1   7
TORSDOF 1
ENDMDL
