MODEL 1
REMARK minimizedAffinity -4.27576065
REMARK minimizedRMSD -1
REMARK  1 active torsions:
REMARK  status: ('A' for Active; 'I' for Inactive)
REMARK    1  A    between atoms: C1_2  and  C2_3 
ROOT
ATOM      1  C2  UNL d   1       0.171   0.071  -0.269  0.00  0.00    -0.077 A 
ATOM      2  C3  UNL d   1      -0.567  -0.685   0.652  0.00  0.00     0.002 A 
ATOM      3  C4  UNL d   1      -1.915  -0.966   0.417  0.00  0.00     0.002 A 
ATOM      4  C5  UNL d   1      -2.534  -0.497  -0.740  0.00  0.00    -0.004 A 
ATOM      5  C6  UNL d   1      -1.809   0.258  -1.661  0.00  0.00     0.002 A 
ATOM      6  C7  UNL d   1      -0.462   0.540  -1.427  0.00  0.00     0.002 A 
ENDROOT
BRANCH   1   7
ATOM      7  C1  UNL d   1       1.637   0.333  -0.041  0.00  0.00     0.055 C 
ATOM      8  C   UNL d   1       1.850   1.409   1.014  0.00  0.00     0.019 C 
ENDBRANCH   1   7
TORSDOF 1
ENDMDL
