MODEL 1
REMARK minimizedAffinity -0.757650316
REMARK minimizedRMSD -1
REMARK  1 active torsions:
REMARK  status: ('A' for Active; 'I' for Inactive)
REMARK    1  A    between atoms: C1_2  and  C2_3 
ROOT
ATOM      1  C2  UNL d   1       0.270   0.847   0.230  0.00  0.00    -0.077 A 
ATOM      2  C3  UNL d   1       0.762  -0.090  -0.689  0.00  0.00     0.002 A 
ATOM      3  C4  UNL d   1      -0.065  -0.594  -1.695  0.00  0.00     0.002 A 
ATOM      4  C5  UNL d   1      -1.387  -0.163  -1.793  0.00  0.00    -0.004 A 
ATOM      5  C6  UNL d   1      -1.885   0.768  -0.882  0.00  0.00     0.002 A 
ATOM      6  C7  UNL d   1      -1.060   1.271   0.124  0.00  0.00     0.002 A 
ENDROOT
BRANCH   1   7
ATOM      7  C1  UNL d   1       1.175   1.428   1.286  0.00  0.00     0.055 C 
ATOM      8  C   UNL d   1       1.853   2.699   0.795  0.00  0.00     0.019 C 
ENDBRANCH   1   7
TORSDOF 1
ENDMDL
