MODEL 1
REMARK minimizedAffinity -5.83324718
REMARK minimizedRMSD -1
REMARK  1 active torsions:
REMARK  status: ('A' for Active; 'I' for Inactive)
REMARK    1  A    between atoms: C1_2  and  C2_3 
ROOT
ATOM      1  C2  UNL d   1       0.444  -0.160  -0.097  0.00  0.00    -0.077 A 
ATOM      2  C3  UNL d   1       0.217   0.484  -1.322  0.00  0.00     0.002 A 
ATOM      3  C4  UNL d   1      -1.068   0.537  -1.865  0.00  0.00     0.002 A 
ATOM      4  C5  UNL d   1      -2.136  -0.048  -1.189  0.00  0.00    -0.004 A 
ATOM      5  C6  UNL d   1      -1.921  -0.693   0.029  0.00  0.00     0.002 A 
ATOM      6  C7  UNL d   1      -0.637  -0.748   0.572  0.00  0.00     0.002 A 
ENDROOT
BRANCH   1   7
ATOM      7  C1  UNL d   1       1.820  -0.176   0.514  0.00  0.00     0.055 C 
ATOM      8  C   UNL d   1       2.180   1.181   1.102  0.00  0.00     0.019 C 
ENDBRANCH   1   7
TORSDOF 1
ENDMDL
