MODEL 1
REMARK minimizedAffinity -3.45016456
REMARK minimizedRMSD -1
REMARK  1 active torsions:
REMARK  status: ('A' for Active; 'I' for Inactive)
REMARK    1  A    between atoms: C1_2  and  C2_3 
ROOT
ATOM      1  C2  UNL d   1      -0.250   0.066  -0.268  0.00  0.00    -0.077 A 
ATOM      2  C3  UNL d   1      -0.865  -0.294   0.940  0.00  0.00     0.002 A 
ATOM      3  C4  UNL d   1      -2.164  -0.805   0.946  0.00  0.00     0.002 A 
ATOM      4  C5  UNL d   1      -2.857  -0.966  -0.252  0.00  0.00    -0.004 A 
ATOM      5  C6  UNL d   1      -2.256  -0.609  -1.458  0.00  0.00     0.002 A 
ATOM      6  C7  UNL d   1      -0.958  -0.097  -1.466  0.00  0.00     0.002 A 
ENDROOT
BRANCH   1   7
ATOM      7  C1  UNL d   1       1.169   0.571  -0.282  0.00  0.00     0.055 C 
ATOM      8  C   UNL d   1       1.312   1.841   0.545  0.00  0.00     0.019 C 
ENDBRANCH   1   7
TORSDOF 1
ENDMDL
