MODEL 1
REMARK minimizedAffinity -4.49373102
REMARK minimizedRMSD -1
REMARK  1 active torsions:
REMARK  status: ('A' for Active; 'I' for Inactive)
REMARK    1  A    between atoms: C1_2  and  C2_3 
ROOT
ATOM      1  C2  UNL d   1      -0.195  -0.200  -0.155  0.00  0.00    -0.077 A 
ATOM      2  C3  UNL d   1      -0.910  -0.766   0.910  0.00  0.00     0.002 A 
ATOM      3  C4  UNL d   1      -2.250  -1.125   0.750  0.00  0.00     0.002 A 
ATOM      4  C5  UNL d   1      -2.885  -0.925  -0.474  0.00  0.00    -0.004 A 
ATOM      5  C6  UNL d   1      -2.184  -0.360  -1.538  0.00  0.00     0.002 A 
ATOM      6  C7  UNL d   1      -0.845   0.000  -1.380  0.00  0.00     0.002 A 
ENDROOT
BRANCH   1   7
ATOM      7  C1  UNL d   1       1.263   0.142   0.000  0.00  0.00     0.055 C 
ATOM      8  C   UNL d   1       1.452   1.605   0.375  0.00  0.00     0.019 C 
ENDBRANCH   1   7
TORSDOF 1
ENDMDL
