MODEL 1
REMARK minimizedAffinity -4.54868841
REMARK minimizedRMSD -1
REMARK  1 active torsions:
REMARK  status: ('A' for Active; 'I' for Inactive)
REMARK    1  A    between atoms: C1_2  and  C2_3 
ROOT
ATOM      1  C2  UNL d   1       0.154   0.085  -0.066  0.00  0.00    -0.077 A 
ATOM      2  C3  UNL d   1      -0.946  -0.564   0.512  0.00  0.00     0.002 A 
ATOM      3  C4  UNL d   1      -2.138  -0.705  -0.201  0.00  0.00     0.002 A 
ATOM      4  C5  UNL d   1      -2.239  -0.204  -1.497  0.00  0.00    -0.004 A 
ATOM      5  C6  UNL d   1      -1.152   0.445  -2.080  0.00  0.00     0.002 A 
ATOM      6  C7  UNL d   1       0.040   0.588  -1.368  0.00  0.00     0.002 A 
ENDROOT
BRANCH   1   7
ATOM      7  C1  UNL d   1       1.456   0.195   0.684  0.00  0.00     0.055 C 
ATOM      8  C   UNL d   1       1.990   1.620   0.660  0.00  0.00     0.019 C 
ENDBRANCH   1   7
TORSDOF 1
ENDMDL
