MODEL 1
REMARK minimizedAffinity -4.76246452
REMARK minimizedRMSD -1
REMARK  1 active torsions:
REMARK  status: ('A' for Active; 'I' for Inactive)
REMARK    1  A    between atoms: C1_2  and  C2_3 
ROOT
ATOM      1  C2  UNL d   1       0.820   0.496   0.543  0.00  0.00    -0.077 A 
ATOM      2  C3  UNL d   1      -0.394   0.929  -0.009  0.00  0.00     0.002 A 
ATOM      3  C4  UNL d   1      -1.526   0.114   0.049  0.00  0.00     0.002 A 
ATOM      4  C5  UNL d   1      -1.457  -1.136   0.660  0.00  0.00    -0.004 A 
ATOM      5  C6  UNL d   1      -0.253  -1.576   1.209  0.00  0.00     0.002 A 
ATOM      6  C7  UNL d   1       0.880  -0.764   1.152  0.00  0.00     0.002 A 
ENDROOT
BRANCH   1   7
ATOM      7  C1  UNL d   1       2.030   1.394   0.526  0.00  0.00     0.055 C 
ATOM      8  C   UNL d   1       2.142   2.196   1.814  0.00  0.00     0.019 C 
ENDBRANCH   1   7
TORSDOF 1
ENDMDL
