MODEL 1
REMARK minimizedAffinity -4.32071924
REMARK minimizedRMSD -1
REMARK  1 active torsions:
REMARK  status: ('A' for Active; 'I' for Inactive)
REMARK    1  A    between atoms: C1_2  and  C2_3 
ROOT
ATOM      1  C2  UNL d   1       0.872   0.468   0.927  0.00  0.00    -0.077 A 
ATOM      2  C3  UNL d   1       0.946   1.040   2.204  0.00  0.00     0.002 A 
ATOM      3  C4  UNL d   1       1.749   2.160   2.430  0.00  0.00     0.002 A 
ATOM      4  C5  UNL d   1       2.479   2.719   1.384  0.00  0.00    -0.004 A 
ATOM      5  C6  UNL d   1       2.413   2.156   0.110  0.00  0.00     0.002 A 
ATOM      6  C7  UNL d   1       1.613   1.036  -0.118  0.00  0.00     0.002 A 
ENDROOT
BRANCH   1   7
ATOM      7  C1  UNL d   1      -0.032  -0.710   0.669  0.00  0.00     0.055 C 
ATOM      8  C   UNL d   1      -1.268  -0.298  -0.116  0.00  0.00     0.019 C 
ENDBRANCH   1   7
TORSDOF 1
ENDMDL
