MODEL 1
REMARK minimizedAffinity -4.88040161
REMARK minimizedRMSD -1
REMARK  0 active torsions:
REMARK  status: ('A' for Active; 'I' for Inactive)
ROOT
ATOM      1  C   UNL d   1       2.580  -1.324   0.806  0.00  0.00     0.023 A 
ATOM      2  C1  UNL d   1       2.775  -0.133   0.107  0.00  0.00     0.003 A 
ATOM      3  C2  UNL d   1       1.680   0.560  -0.414  0.00  0.00     0.048 A 
ATOM      4  C3  UNL d   1       0.392   0.056  -0.230  0.00  0.00     0.023 A 
ATOM      5  C4  UNL d   1       0.193  -1.134   0.470  0.00  0.00     0.048 A 
ATOM      6  C5  UNL d   1       1.291  -1.824   0.988  0.00  0.00     0.003 A 
ATOM      7  I   UNL d   1      -1.239   1.086  -1.003  0.00  0.00    -0.146 I 
ENDROOT
TORSDOF 0
ENDMDL
