MODEL 1
REMARK minimizedAffinity 1.30150533
REMARK minimizedRMSD -1
REMARK  0 active torsions:
REMARK  status: ('A' for Active; 'I' for Inactive)
ROOT
ATOM      1  C   UNL d   1      -2.250  -4.456   2.098  0.00  0.00     0.023 A 
ATOM      2  C1  UNL d   1      -1.980  -4.845   0.786  0.00  0.00     0.003 A 
ATOM      3  C2  UNL d   1      -3.015  -5.289  -0.040  0.00  0.00     0.048 A 
ATOM      4  C3  UNL d   1      -4.318  -5.340   0.452  0.00  0.00     0.023 A 
ATOM      5  C4  UNL d   1      -4.594  -4.951   1.764  0.00  0.00     0.048 A 
ATOM      6  C5  UNL d   1      -3.556  -4.509   2.586  0.00  0.00     0.003 A 
ATOM      7  I   UNL d   1      -5.860  -6.000  -0.775  0.00  0.00    -0.146 I 
ENDROOT
TORSDOF 0
ENDMDL
