MODEL 1
REMARK minimizedAffinity -3.69975233
REMARK minimizedRMSD -1
REMARK  0 active torsions:
REMARK  status: ('A' for Active; 'I' for Inactive)
ROOT
ATOM      1  C   UNL d   1       1.157  -2.319   1.871  0.00  0.00     0.023 A 
ATOM      2  C1  UNL d   1       1.863  -1.717   0.830  0.00  0.00     0.003 A 
ATOM      3  C2  UNL d   1       1.269  -0.700   0.079  0.00  0.00     0.048 A 
ATOM      4  C3  UNL d   1      -0.030  -0.290   0.376  0.00  0.00     0.023 A 
ATOM      5  C4  UNL d   1      -0.740  -0.889   1.417  0.00  0.00     0.048 A 
ATOM      6  C5  UNL d   1      -0.143  -1.906   2.164  0.00  0.00     0.003 A 
ATOM      7  I   UNL d   1      -0.915   1.224  -0.741  0.00  0.00    -0.146 I 
ENDROOT
TORSDOF 0
ENDMDL
