MODEL 1
REMARK minimizedAffinity -1.42968667
REMARK minimizedRMSD -1
REMARK  0 active torsions:
REMARK  status: ('A' for Active; 'I' for Inactive)
ROOT
ATOM      1  C   UNL d   1       1.649  -0.222  -0.377  0.00  0.00     0.023 A 
ATOM      2  C1  UNL d   1       1.692  -1.183   0.633  0.00  0.00     0.003 A 
ATOM      3  C2  UNL d   1       0.586  -1.376   1.462  0.00  0.00     0.048 A 
ATOM      4  C3  UNL d   1      -0.562  -0.606   1.275  0.00  0.00     0.023 A 
ATOM      5  C4  UNL d   1      -0.610   0.356   0.265  0.00  0.00     0.048 A 
ATOM      6  C5  UNL d   1       0.499   0.547  -0.561  0.00  0.00     0.003 A 
ATOM      7  I   UNL d   1      -2.210  -0.892   2.508  0.00  0.00    -0.146 I 
ENDROOT
TORSDOF 0
ENDMDL
