MODEL 1
REMARK minimizedAffinity -3.14655256
REMARK minimizedRMSD -1
REMARK  0 active torsions:
REMARK  status: ('A' for Active; 'I' for Inactive)
ROOT
ATOM      1  C   UNL d   1      -1.152   1.036   0.143  0.00  0.00     0.023 A 
ATOM      2  C1  UNL d   1       0.098   0.841  -0.445  0.00  0.00     0.003 A 
ATOM      3  C2  UNL d   1       0.840  -0.303  -0.147  0.00  0.00     0.048 A 
ATOM      4  C3  UNL d   1       0.327  -1.249   0.739  0.00  0.00     0.023 A 
ATOM      5  C4  UNL d   1      -0.924  -1.059   1.329  0.00  0.00     0.048 A 
ATOM      6  C5  UNL d   1      -1.663   0.087   1.029  0.00  0.00     0.003 A 
ATOM      7  I   UNL d   1       1.430  -2.953   1.184  0.00  0.00    -0.146 I 
ENDROOT
TORSDOF 0
ENDMDL
