MODEL 1
REMARK minimizedAffinity -2.11014748
REMARK minimizedRMSD -1
REMARK  0 active torsions:
REMARK  status: ('A' for Active; 'I' for Inactive)
ROOT
ATOM      1  C   UNL d   1       1.853  -2.216   1.177  0.00  0.00     0.023 A 
ATOM      2  C1  UNL d   1       0.467  -2.374   1.193  0.00  0.00     0.003 A 
ATOM      3  C2  UNL d   1      -0.355  -1.402   0.618  0.00  0.00     0.048 A 
ATOM      4  C3  UNL d   1       0.216  -0.275   0.029  0.00  0.00     0.023 A 
ATOM      5  C4  UNL d   1       1.603  -0.113   0.010  0.00  0.00     0.048 A 
ATOM      6  C5  UNL d   1       2.420  -1.087   0.587  0.00  0.00     0.003 A 
ATOM      7  I   UNL d   1      -1.004   1.173  -0.827  0.00  0.00    -0.146 I 
ENDROOT
TORSDOF 0
ENDMDL
