MODEL 1
REMARK minimizedAffinity -3.95038152
REMARK minimizedRMSD -1
REMARK  0 active torsions:
REMARK  status: ('A' for Active; 'I' for Inactive)
ROOT
ATOM      1  C   UNL d   1       1.374  -2.558   1.373  0.00  0.00     0.023 A 
ATOM      2  C1  UNL d   1       1.890  -1.998   0.204  0.00  0.00     0.003 A 
ATOM      3  C2  UNL d   1       1.216  -0.948  -0.425  0.00  0.00     0.048 A 
ATOM      4  C3  UNL d   1       0.029  -0.463   0.121  0.00  0.00     0.023 A 
ATOM      5  C4  UNL d   1      -0.490  -1.019   1.292  0.00  0.00     0.048 A 
ATOM      6  C5  UNL d   1       0.186  -2.069   1.916  0.00  0.00     0.003 A 
ATOM      7  I   UNL d   1      -0.975   1.099  -0.813  0.00  0.00    -0.146 I 
ENDROOT
TORSDOF 0
ENDMDL
