MODEL 1
REMARK minimizedAffinity -2.81374407
REMARK minimizedRMSD -1
REMARK  0 active torsions:
REMARK  status: ('A' for Active; 'I' for Inactive)
ROOT
ATOM      1  C   UNL d   1       0.482  -2.652   2.047  0.00  0.00     0.023 A 
ATOM      2  C1  UNL d   1      -0.724  -1.986   2.268  0.00  0.00     0.003 A 
ATOM      3  C2  UNL d   1      -1.108  -0.937   1.431  0.00  0.00     0.048 A 
ATOM      4  C3  UNL d   1      -0.282  -0.559   0.373  0.00  0.00     0.023 A 
ATOM      5  C4  UNL d   1       0.925  -1.223   0.147  0.00  0.00     0.048 A 
ATOM      6  C5  UNL d   1       1.306  -2.271   0.987  0.00  0.00     0.003 A 
ATOM      7  I   UNL d   1      -0.851   1.003  -0.875  0.00  0.00    -0.146 I 
ENDROOT
TORSDOF 0
ENDMDL
