MODEL 1
REMARK minimizedAffinity -4.00106621
REMARK minimizedRMSD -1
REMARK  0 active torsions:
REMARK  status: ('A' for Active; 'I' for Inactive)
ROOT
ATOM      1  C   UNL d   1       1.764  -2.740   1.420  0.00  0.00     0.023 A 
ATOM      2  C1  UNL d   1       2.343  -2.013   0.380  0.00  0.00     0.003 A 
ATOM      3  C2  UNL d   1       1.641  -0.962  -0.214  0.00  0.00     0.048 A 
ATOM      4  C3  UNL d   1       0.361  -0.643   0.238  0.00  0.00     0.023 A 
ATOM      5  C4  UNL d   1      -0.222  -1.367   1.279  0.00  0.00     0.048 A 
ATOM      6  C5  UNL d   1       0.484  -2.417   1.869  0.00  0.00     0.003 A 
ATOM      7  I   UNL d   1      -0.686   0.921  -0.644  0.00  0.00    -0.146 I 
ENDROOT
TORSDOF 0
ENDMDL
