MODEL 1
REMARK minimizedAffinity -3.47803879
REMARK minimizedRMSD -1
REMARK  0 active torsions:
REMARK  status: ('A' for Active; 'I' for Inactive)
ROOT
ATOM      1  C   UNL d   1       1.369  -2.861   1.979  0.00  0.00     0.023 A 
ATOM      2  C1  UNL d   1       2.089  -2.045   1.106  0.00  0.00     0.003 A 
ATOM      3  C2  UNL d   1       1.464  -0.961   0.486  0.00  0.00     0.048 A 
ATOM      4  C3  UNL d   1       0.119  -0.698   0.744  0.00  0.00     0.023 A 
ATOM      5  C4  UNL d   1      -0.605  -1.511   1.617  0.00  0.00     0.048 A 
ATOM      6  C5  UNL d   1       0.023  -2.594   2.234  0.00  0.00     0.003 A 
ATOM      7  I   UNL d   1      -0.813   0.915  -0.178  0.00  0.00    -0.146 I 
ENDROOT
TORSDOF 0
ENDMDL
