MODEL 1
REMARK minimizedAffinity -4.27565813
REMARK minimizedRMSD -1
REMARK  0 active torsions:
REMARK  status: ('A' for Active; 'I' for Inactive)
ROOT
ATOM      1  C   UNL d   1       0.929  -2.859   1.613  0.00  0.00     0.023 A 
ATOM      2  C1  UNL d   1       1.550  -2.340   0.477  0.00  0.00     0.003 A 
ATOM      3  C2  UNL d   1       1.157  -1.100  -0.030  0.00  0.00     0.048 A 
ATOM      4  C3  UNL d   1       0.142  -0.384   0.604  0.00  0.00     0.023 A 
ATOM      5  C4  UNL d   1      -0.482  -0.900   1.741  0.00  0.00     0.048 A 
ATOM      6  C5  UNL d   1      -0.086  -2.140   2.244  0.00  0.00     0.003 A 
ATOM      7  I   UNL d   1      -0.446   1.462  -0.149  0.00  0.00    -0.146 I 
ENDROOT
TORSDOF 0
ENDMDL
