MODEL 1
REMARK minimizedAffinity -4.22812414
REMARK minimizedRMSD -1
REMARK  0 active torsions:
REMARK  status: ('A' for Active; 'I' for Inactive)
ROOT
ATOM      1  C   UNL d   1       0.705  -3.358   1.961  0.00  0.00     0.023 A 
ATOM      2  C1  UNL d   1       1.400  -3.043   0.793  0.00  0.00     0.003 A 
ATOM      3  C2  UNL d   1       1.123  -1.855   0.114  0.00  0.00     0.048 A 
ATOM      4  C3  UNL d   1       0.151  -0.986   0.608  0.00  0.00     0.023 A 
ATOM      5  C4  UNL d   1      -0.546  -1.296   1.777  0.00  0.00     0.048 A 
ATOM      6  C5  UNL d   1      -0.267  -2.486   2.452  0.00  0.00     0.003 A 
ATOM      7  I   UNL d   1      -0.261   0.784  -0.401  0.00  0.00    -0.146 I 
ENDROOT
TORSDOF 0
ENDMDL
