MODEL 1
REMARK minimizedAffinity -3.02381802
REMARK minimizedRMSD -1
REMARK  0 active torsions:
REMARK  status: ('A' for Active; 'I' for Inactive)
ROOT
ATOM      1  C   UNL d   1       1.671  -2.317   1.068  0.00  0.00     0.023 A 
ATOM      2  C1  UNL d   1       2.296  -1.126   0.696  0.00  0.00     0.003 A 
ATOM      3  C2  UNL d   1       1.568  -0.126   0.048  0.00  0.00     0.048 A 
ATOM      4  C3  UNL d   1       0.214  -0.323  -0.224  0.00  0.00     0.023 A 
ATOM      5  C4  UNL d   1      -0.416  -1.512   0.148  0.00  0.00     0.048 A 
ATOM      6  C5  UNL d   1       0.317  -2.509   0.794  0.00  0.00     0.003 A 
ATOM      7  I   UNL d   1      -0.872   1.164  -1.187  0.00  0.00    -0.146 I 
ENDROOT
TORSDOF 0
ENDMDL
