MODEL 1
REMARK minimizedAffinity -3.05831218
REMARK minimizedRMSD -1
REMARK  2 active torsions:
REMARK  status: ('A' for Active; 'I' for Inactive)
REMARK    1  A    between atoms: C1_2  and  C2_3 
REMARK    2  A    between atoms: C2_3  and  C3_4 
ROOT
ATOM      1  C3  UNL d   1      -5.045   4.506  -4.661  0.00  0.00    -0.075 A 
ATOM      2  C4  UNL d   1      -3.916   4.982  -5.343  0.00  0.00     0.002 A 
ATOM      3  C5  UNL d   1      -3.056   4.097  -5.995  0.00  0.00     0.002 A 
ATOM      4  C6  UNL d   1      -3.308   2.727  -5.964  0.00  0.00    -0.004 A 
ATOM      5  C7  UNL d   1      -4.418   2.242  -5.275  0.00  0.00     0.002 A 
ATOM      6  C8  UNL d   1      -5.282   3.125  -4.626  0.00  0.00     0.002 A 
ENDROOT
BRANCH   1   7
ATOM      7  C2  UNL d   1      -5.995   5.461  -3.979  0.00  0.00     0.056 C 
BRANCH   7   8
ATOM      8  C1  UNL d   1      -5.589   5.829  -2.548  0.00  0.00     0.007 C 
ATOM      9  C   UNL d   1      -5.998   4.782  -1.520  0.00  0.00     0.009 C 
ENDBRANCH   7   8
ENDBRANCH   1   7
TORSDOF 2
ENDMDL
