MODEL 1
REMARK minimizedAffinity 11.4848852
REMARK minimizedRMSD -1
REMARK  2 active torsions:
REMARK  status: ('A' for Active; 'I' for Inactive)
REMARK    1  A    between atoms: C1_2  and  C2_3 
REMARK    2  A    between atoms: C2_3  and  C3_4 
ROOT
ATOM      1  C3  UNL d   1      -3.719  -4.806  -1.541  0.00  0.00    -0.075 A 
ATOM      2  C4  UNL d   1      -4.796  -4.969  -0.658  0.00  0.00     0.002 A 
ATOM      3  C5  UNL d   1      -5.931  -4.165  -0.770  0.00  0.00     0.002 A 
ATOM      4  C6  UNL d   1      -6.000  -3.184  -1.757  0.00  0.00    -0.004 A 
ATOM      5  C7  UNL d   1      -4.929  -3.003  -2.629  0.00  0.00     0.002 A 
ATOM      6  C8  UNL d   1      -3.794  -3.809  -2.522  0.00  0.00     0.002 A 
ENDROOT
BRANCH   1   7
ATOM      7  C2  UNL d   1      -2.500  -5.693  -1.444  0.00  0.00     0.056 C 
BRANCH   7   8
ATOM      8  C1  UNL d   1      -1.482  -5.477  -2.568  0.00  0.00     0.007 C 
ATOM      9  C   UNL d   1      -1.957  -6.000  -3.917  0.00  0.00     0.009 C 
ENDBRANCH   7   8
ENDBRANCH   1   7
TORSDOF 2
ENDMDL
