MODEL 1
REMARK minimizedAffinity -4.12422132
REMARK minimizedRMSD -1
REMARK  2 active torsions:
REMARK  status: ('A' for Active; 'I' for Inactive)
REMARK    1  A    between atoms: C1_2  and  C2_3 
REMARK    2  A    between atoms: C2_3  and  C3_4 
ROOT
ATOM      1  C3  UNL d   1      -5.352   3.327  -2.921  0.00  0.00    -0.075 A 
ATOM      2  C4  UNL d   1      -5.804   4.652  -3.004  0.00  0.00     0.002 A 
ATOM      3  C5  UNL d   1      -5.221   5.544  -3.905  0.00  0.00     0.002 A 
ATOM      4  C6  UNL d   1      -4.175   5.127  -4.725  0.00  0.00    -0.004 A 
ATOM      5  C7  UNL d   1      -3.707   3.817  -4.639  0.00  0.00     0.002 A 
ATOM      6  C8  UNL d   1      -4.291   2.922  -3.741  0.00  0.00     0.002 A 
ENDROOT
BRANCH   1   7
ATOM      7  C2  UNL d   1      -5.998   2.349  -1.969  0.00  0.00     0.056 C 
BRANCH   7   8
ATOM      8  C1  UNL d   1      -5.828   2.713  -0.490  0.00  0.00     0.007 C 
ATOM      9  C   UNL d   1      -5.609   1.500   0.405  0.00  0.00     0.009 C 
ENDBRANCH   7   8
ENDBRANCH   1   7
TORSDOF 2
ENDMDL
