MODEL 1
REMARK minimizedAffinity 7.93729353
REMARK minimizedRMSD -1
REMARK  2 active torsions:
REMARK  status: ('A' for Active; 'I' for Inactive)
REMARK    1  A    between atoms: C1_2  and  C2_3 
REMARK    2  A    between atoms: C2_3  and  C3_4 
ROOT
ATOM      1  C3  UNL d   1       4.855   3.921  -0.069  0.00  0.00    -0.075 A 
ATOM      2  C4  UNL d   1       4.734   3.592   1.289  0.00  0.00     0.002 A 
ATOM      3  C5  UNL d   1       5.198   4.465   2.273  0.00  0.00     0.002 A 
ATOM      4  C6  UNL d   1       5.797   5.670   1.914  0.00  0.00    -0.004 A 
ATOM      5  C7  UNL d   1       5.937   6.000   0.568  0.00  0.00     0.002 A 
ATOM      6  C8  UNL d   1       5.469   5.131  -0.420  0.00  0.00     0.002 A 
ENDROOT
BRANCH   1   7
ATOM      7  C2  UNL d   1       4.328   2.995  -1.139  0.00  0.00     0.056 C 
BRANCH   7   8
ATOM      8  C1  UNL d   1       2.798   2.945  -1.223  0.00  0.00     0.007 C 
ATOM      9  C   UNL d   1       2.266   3.189  -2.629  0.00  0.00     0.009 C 
ENDBRANCH   7   8
ENDBRANCH   1   7
TORSDOF 2
ENDMDL
