MODEL 1
REMARK minimizedAffinity -2.33773446
REMARK minimizedRMSD -1
REMARK  2 active torsions:
REMARK  status: ('A' for Active; 'I' for Inactive)
REMARK    1  A    between atoms: C1_2  and  C2_3 
REMARK    2  A    between atoms: C2_3  and  C3_4 
ROOT
ATOM      1  C3  UNL d   1      -5.104   5.611  -3.340  0.00  0.00    -0.075 A 
ATOM      2  C4  UNL d   1      -3.829   5.999  -3.777  0.00  0.00     0.002 A 
ATOM      3  C5  UNL d   1      -3.433   5.775  -5.096  0.00  0.00     0.002 A 
ATOM      4  C6  UNL d   1      -4.301   5.151  -5.990  0.00  0.00    -0.004 A 
ATOM      5  C7  UNL d   1      -5.564   4.747  -5.562  0.00  0.00     0.002 A 
ATOM      6  C8  UNL d   1      -5.964   4.974  -4.244  0.00  0.00     0.002 A 
ENDROOT
BRANCH   1   7
ATOM      7  C2  UNL d   1      -5.549   5.878  -1.922  0.00  0.00     0.056 C 
BRANCH   7   8
ATOM      8  C1  UNL d   1      -6.000   4.625  -1.164  0.00  0.00     0.007 C 
ATOM      9  C   UNL d   1      -5.219   4.387   0.122  0.00  0.00     0.009 C 
ENDBRANCH   7   8
ENDBRANCH   1   7
TORSDOF 2
ENDMDL
