MODEL 1
REMARK minimizedAffinity -1.8516413
REMARK minimizedRMSD -1
REMARK  2 active torsions:
REMARK  status: ('A' for Active; 'I' for Inactive)
REMARK    1  A    between atoms: C1_2  and  C2_3 
REMARK    2  A    between atoms: C2_3  and  C3_4 
ROOT
ATOM      1  C3  UNL d   1      -5.669   4.050  -4.325  0.00  0.00    -0.075 A 
ATOM      2  C4  UNL d   1      -5.842   5.036  -3.344  0.00  0.00     0.002 A 
ATOM      3  C5  UNL d   1      -6.000   4.683  -2.004  0.00  0.00     0.002 A 
ATOM      4  C6  UNL d   1      -5.997   3.341  -1.629  0.00  0.00    -0.004 A 
ATOM      5  C7  UNL d   1      -5.842   2.351  -2.598  0.00  0.00     0.002 A 
ATOM      6  C8  UNL d   1      -5.679   2.703  -3.939  0.00  0.00     0.002 A 
ENDROOT
BRANCH   1   7
ATOM      7  C2  UNL d   1      -5.468   4.427  -5.773  0.00  0.00     0.056 C 
BRANCH   7   8
ATOM      8  C1  UNL d   1      -4.879   5.827  -5.977  0.00  0.00     0.007 C 
ATOM      9  C   UNL d   1      -3.357   5.843  -5.986  0.00  0.00     0.009 C 
ENDBRANCH   7   8
ENDBRANCH   1   7
TORSDOF 2
ENDMDL
