MODEL 1
REMARK minimizedAffinity -2.03723907
REMARK minimizedRMSD -1
REMARK  2 active torsions:
REMARK  status: ('A' for Active; 'I' for Inactive)
REMARK    1  A    between atoms: C1_2  and  C2_3 
REMARK    2  A    between atoms: C2_3  and  C3_4 
ROOT
ATOM      1  C3  UNL d   1      -5.975   3.300  -0.868  0.00  0.00    -0.075 A 
ATOM      2  C4  UNL d   1      -5.937   2.106  -1.601  0.00  0.00     0.002 A 
ATOM      3  C5  UNL d   1      -5.944   0.873  -0.947  0.00  0.00     0.002 A 
ATOM      4  C6  UNL d   1      -5.978   0.819   0.444  0.00  0.00    -0.004 A 
ATOM      5  C7  UNL d   1      -5.999   2.000   1.183  0.00  0.00     0.002 A 
ATOM      6  C8  UNL d   1      -5.997   3.235   0.532  0.00  0.00     0.002 A 
ENDROOT
BRANCH   1   7
ATOM      7  C2  UNL d   1      -5.998   4.637  -1.570  0.00  0.00     0.056 C 
BRANCH   7   8
ATOM      8  C1  UNL d   1      -5.999   4.539  -3.099  0.00  0.00     0.007 C 
ATOM      9  C   UNL d   1      -5.302   5.711  -3.776  0.00  0.00     0.009 C 
ENDBRANCH   7   8
ENDBRANCH   1   7
TORSDOF 2
ENDMDL
