MODEL 1
REMARK minimizedAffinity 1.07016182
REMARK minimizedRMSD -1
REMARK  2 active torsions:
REMARK  status: ('A' for Active; 'I' for Inactive)
REMARK    1  A    between atoms: C1_2  and  C2_3 
REMARK    2  A    between atoms: C2_3  and  C3_4 
ROOT
ATOM      1  C3  UNL d   1      -1.539  -1.983  -0.015  0.00  0.00    -0.075 A 
ATOM      2  C4  UNL d   1      -0.231  -1.489   0.092  0.00  0.00     0.002 A 
ATOM      3  C5  UNL d   1       0.097  -0.560   1.080  0.00  0.00     0.002 A 
ATOM      4  C6  UNL d   1      -0.879  -0.106   1.964  0.00  0.00    -0.004 A 
ATOM      5  C7  UNL d   1      -2.185  -0.577   1.857  0.00  0.00     0.002 A 
ATOM      6  C8  UNL d   1      -2.515  -1.510   0.872  0.00  0.00     0.002 A 
ENDROOT
BRANCH   1   7
ATOM      7  C2  UNL d   1      -1.894  -3.011  -1.063  0.00  0.00     0.056 C 
BRANCH   7   8
ATOM      8  C1  UNL d   1      -3.389  -3.072  -1.396  0.00  0.00     0.007 C 
ATOM      9  C   UNL d   1      -4.055  -4.359  -0.928  0.00  0.00     0.009 C 
ENDBRANCH   7   8
ENDBRANCH   1   7
TORSDOF 2
ENDMDL
