MODEL 1
REMARK minimizedAffinity 15.3743267
REMARK minimizedRMSD -1
REMARK  2 active torsions:
REMARK  status: ('A' for Active; 'I' for Inactive)
REMARK    1  A    between atoms: C1_2  and  C2_3 
REMARK    2  A    between atoms: C2_3  and  C3_4 
ROOT
ATOM      1  C3  UNL d   1      -2.749   5.355  -5.105  0.00  0.00    -0.075 A 
ATOM      2  C4  UNL d   1      -1.720   5.931  -5.864  0.00  0.00     0.002 A 
ATOM      3  C5  UNL d   1      -0.467   5.322  -5.937  0.00  0.00     0.002 A 
ATOM      4  C6  UNL d   1      -0.223   4.138  -5.245  0.00  0.00    -0.004 A 
ATOM      5  C7  UNL d   1      -1.233   3.565  -4.474  0.00  0.00     0.002 A 
ATOM      6  C8  UNL d   1      -2.489   4.170  -4.403  0.00  0.00     0.002 A 
ENDROOT
BRANCH   1   7
ATOM      7  C2  UNL d   1      -4.116   5.993  -5.045  0.00  0.00     0.056 C 
BRANCH   7   8
ATOM      8  C1  UNL d   1      -5.173   5.139  -4.339  0.00  0.00     0.007 C 
ATOM      9  C   UNL d   1      -5.787   5.824  -3.125  0.00  0.00     0.009 C 
ENDBRANCH   7   8
ENDBRANCH   1   7
TORSDOF 2
ENDMDL
