MODEL 1
REMARK minimizedAffinity 3.23478675
REMARK minimizedRMSD -1
REMARK  2 active torsions:
REMARK  status: ('A' for Active; 'I' for Inactive)
REMARK    1  A    between atoms: C1_2  and  C2_3 
REMARK    2  A    between atoms: C2_3  and  C3_4 
ROOT
ATOM      1  C3  UNL d   1      -2.218   5.406  -4.687  0.00  0.00    -0.075 A 
ATOM      2  C4  UNL d   1      -1.428   6.000  -5.682  0.00  0.00     0.002 A 
ATOM      3  C5  UNL d   1      -0.174   5.475  -5.998  0.00  0.00     0.002 A 
ATOM      4  C6  UNL d   1       0.309   4.360  -5.317  0.00  0.00    -0.004 A 
ATOM      5  C7  UNL d   1      -0.460   3.772  -4.315  0.00  0.00     0.002 A 
ATOM      6  C8  UNL d   1      -1.717   4.292  -4.001  0.00  0.00     0.002 A 
ENDROOT
BRANCH   1   7
ATOM      7  C2  UNL d   1      -3.589   5.950  -4.362  0.00  0.00     0.056 C 
BRANCH   7   8
ATOM      8  C1  UNL d   1      -4.542   5.997  -5.560  0.00  0.00     0.007 C 
ATOM      9  C   UNL d   1      -5.987   5.687  -5.191  0.00  0.00     0.009 C 
ENDBRANCH   7   8
ENDBRANCH   1   7
TORSDOF 2
ENDMDL
