MODEL 1
REMARK minimizedAffinity 7.64143944
REMARK minimizedRMSD -1
REMARK  2 active torsions:
REMARK  status: ('A' for Active; 'I' for Inactive)
REMARK    1  A    between atoms: C1_2  and  C2_3 
REMARK    2  A    between atoms: C2_3  and  C3_4 
ROOT
ATOM      1  C3  UNL d   1       4.935   4.820   0.807  0.00  0.00    -0.075 A 
ATOM      2  C4  UNL d   1       4.842   5.999   0.053  0.00  0.00     0.002 A 
ATOM      3  C5  UNL d   1       4.279   5.982  -1.223  0.00  0.00     0.002 A 
ATOM      4  C6  UNL d   1       3.812   4.786  -1.766  0.00  0.00    -0.004 A 
ATOM      5  C7  UNL d   1       3.914   3.606  -1.033  0.00  0.00     0.002 A 
ATOM      6  C8  UNL d   1       4.473   3.621   0.247  0.00  0.00     0.002 A 
ENDROOT
BRANCH   1   7
ATOM      7  C2  UNL d   1       5.516   4.837   2.200  0.00  0.00     0.056 C 
BRANCH   7   8
ATOM      8  C1  UNL d   1       6.000   3.469   2.692  0.00  0.00     0.007 C 
ATOM      9  C   UNL d   1       5.971   3.331   4.208  0.00  0.00     0.009 C 
ENDBRANCH   7   8
ENDBRANCH   1   7
TORSDOF 2
ENDMDL
