MODEL 1
REMARK minimizedAffinity 7.99504948
REMARK minimizedRMSD -1
REMARK  2 active torsions:
REMARK  status: ('A' for Active; 'I' for Inactive)
REMARK    1  A    between atoms: C1_2  and  C2_3 
REMARK    2  A    between atoms: C2_3  and  C3_4 
ROOT
ATOM      1  C3  UNL d   1      -1.196  -1.620   1.005  0.00  0.00    -0.075 A 
ATOM      2  C4  UNL d   1      -2.010  -0.856   1.854  0.00  0.00     0.002 A 
ATOM      3  C5  UNL d   1      -1.677   0.465   2.154  0.00  0.00     0.002 A 
ATOM      4  C6  UNL d   1      -0.525   1.035   1.617  0.00  0.00    -0.004 A 
ATOM      5  C7  UNL d   1       0.300   0.280   0.786  0.00  0.00     0.002 A 
ATOM      6  C8  UNL d   1      -0.033  -1.041   0.481  0.00  0.00     0.002 A 
ENDROOT
BRANCH   1   7
ATOM      7  C2  UNL d   1      -1.566  -3.042   0.654  0.00  0.00     0.056 C 
BRANCH   7   8
ATOM      8  C1  UNL d   1      -2.744  -3.157  -0.320  0.00  0.00     0.007 C 
ATOM      9  C   UNL d   1      -2.840  -4.523  -0.986  0.00  0.00     0.009 C 
ENDBRANCH   7   8
ENDBRANCH   1   7
TORSDOF 2
ENDMDL
