MODEL 1
REMARK minimizedAffinity 7.36839771
REMARK minimizedRMSD -1
REMARK  2 active torsions:
REMARK  status: ('A' for Active; 'I' for Inactive)
REMARK    1  A    between atoms: C1_2  and  C2_3 
REMARK    2  A    between atoms: C2_3  and  C3_4 
ROOT
ATOM      1  C3  UNL d   1       0.709   0.008  -1.436  0.00  0.00    -0.075 A 
ATOM      2  C4  UNL d   1       1.079   0.449  -2.715  0.00  0.00     0.002 A 
ATOM      3  C5  UNL d   1       2.051  -0.235  -3.446  0.00  0.00     0.002 A 
ATOM      4  C6  UNL d   1       2.670  -1.360  -2.906  0.00  0.00    -0.004 A 
ATOM      5  C7  UNL d   1       2.321  -1.797  -1.630  0.00  0.00     0.002 A 
ATOM      6  C8  UNL d   1       1.347  -1.117  -0.897  0.00  0.00     0.002 A 
ENDROOT
BRANCH   1   7
ATOM      7  C2  UNL d   1      -0.363   0.727  -0.652  0.00  0.00     0.056 C 
BRANCH   7   8
ATOM      8  C1  UNL d   1       0.031   1.045   0.795  0.00  0.00     0.007 C 
ATOM      9  C   UNL d   1      -1.157   1.077   1.747  0.00  0.00     0.009 C 
ENDBRANCH   7   8
ENDBRANCH   1   7
TORSDOF 2
ENDMDL
