MODEL 1
REMARK minimizedAffinity 5.97678518
REMARK minimizedRMSD -1
REMARK  2 active torsions:
REMARK  status: ('A' for Active; 'I' for Inactive)
REMARK    1  A    between atoms: C1_2  and  C2_3 
REMARK    2  A    between atoms: C2_3  and  C3_4 
ROOT
ATOM      1  C3  UNL d   1       1.102  -0.816   0.218  0.00  0.00    -0.075 A 
ATOM      2  C4  UNL d   1       0.974  -0.592  -1.160  0.00  0.00     0.002 A 
ATOM      3  C5  UNL d   1       1.903  -1.125  -2.054  0.00  0.00     0.002 A 
ATOM      4  C6  UNL d   1       2.975  -1.879  -1.581  0.00  0.00    -0.004 A 
ATOM      5  C7  UNL d   1       3.121  -2.094  -0.213  0.00  0.00     0.002 A 
ATOM      6  C8  UNL d   1       2.191  -1.565   0.683  0.00  0.00     0.002 A 
ENDROOT
BRANCH   1   7
ATOM      7  C2  UNL d   1       0.083  -0.266   1.188  0.00  0.00     0.056 C 
BRANCH   7   8
ATOM      8  C1  UNL d   1      -1.078  -1.222   1.482  0.00  0.00     0.007 C 
ATOM      9  C   UNL d   1      -2.221  -1.103   0.483  0.00  0.00     0.009 C 
ENDBRANCH   7   8
ENDBRANCH   1   7
TORSDOF 2
ENDMDL
