MODEL 1
REMARK minimizedAffinity -2.9534204
REMARK minimizedRMSD -1
REMARK  0 active torsions:
REMARK  status: ('A' for Active; 'I' for Inactive)
ROOT
ATOM      1  C   UNL d   1      -0.535  -0.157  -0.634  0.00  0.00     0.172 C 
ATOM      2  N   UNL d   1       0.104   0.866   0.159  0.00  0.00    -0.070 N 
ATOM      3  C1  UNL d   1      -0.218   1.194   1.449  0.00  0.00    -0.004 A 
ATOM      4  C2  UNL d   1       0.619   2.214   1.847  0.00  0.00    -0.047 A 
ATOM      5  C3  UNL d   1       1.473   2.510   0.758  0.00  0.00    -0.047 A 
ATOM      6  C4  UNL d   1       1.133   1.661  -0.274  0.00  0.00    -0.004 A 
ENDROOT
TORSDOF 0
ENDMDL
