MODEL 1
REMARK minimizedAffinity -3.66885209
REMARK minimizedRMSD -1
REMARK  0 active torsions:
REMARK  status: ('A' for Active; 'I' for Inactive)
ROOT
ATOM      1  C   UNL d   1      -0.050  -0.899  -0.325  0.00  0.00     0.172 C 
ATOM      2  N   UNL d   1       0.106   0.270   0.508  0.00  0.00    -0.070 N 
ATOM      3  C1  UNL d   1       1.036   1.259   0.330  0.00  0.00    -0.004 A 
ATOM      4  C2  UNL d   1       0.857   2.191   1.329  0.00  0.00    -0.047 A 
ATOM      5  C3  UNL d   1      -0.217   1.747   2.136  0.00  0.00    -0.047 A 
ATOM      6  C4  UNL d   1      -0.663   0.555   1.605  0.00  0.00    -0.004 A 
ENDROOT
TORSDOF 0
ENDMDL
