MODEL 1
REMARK minimizedAffinity -2.73457146
REMARK minimizedRMSD -1
REMARK  0 active torsions:
REMARK  status: ('A' for Active; 'I' for Inactive)
ROOT
ATOM      1  C   UNL d   1       0.914  -0.340  -0.694  0.00  0.00     0.172 C 
ATOM      2  N   UNL d   1       0.791   0.878   0.072  0.00  0.00    -0.070 N 
ATOM      3  C1  UNL d   1       1.271   2.106  -0.298  0.00  0.00    -0.004 A 
ATOM      4  C2  UNL d   1       0.951   3.002   0.699  0.00  0.00    -0.047 A 
ATOM      5  C3  UNL d   1       0.255   2.288   1.703  0.00  0.00    -0.047 A 
ATOM      6  C4  UNL d   1       0.170   0.975   1.289  0.00  0.00    -0.004 A 
ENDROOT
TORSDOF 0
ENDMDL
