MODEL 1
REMARK minimizedAffinity -2.96732497
REMARK minimizedRMSD -1
REMARK  0 active torsions:
REMARK  status: ('A' for Active; 'I' for Inactive)
ROOT
ATOM      1  C   UNL d   1      -0.258  -0.693  -0.691  0.00  0.00     0.172 C 
ATOM      2  N   UNL d   1       0.055   0.379   0.225  0.00  0.00    -0.070 N 
ATOM      3  C1  UNL d   1       0.879   1.440  -0.039  0.00  0.00    -0.004 A 
ATOM      4  C2  UNL d   1       0.916   2.236   1.085  0.00  0.00    -0.047 A 
ATOM      5  C3  UNL d   1       0.085   1.632   2.059  0.00  0.00    -0.047 A 
ATOM      6  C4  UNL d   1      -0.436   0.484   1.500  0.00  0.00    -0.004 A 
ENDROOT
TORSDOF 0
ENDMDL
