MODEL 1
REMARK minimizedAffinity -2.38198757
REMARK minimizedRMSD -1
REMARK  0 active torsions:
REMARK  status: ('A' for Active; 'I' for Inactive)
ROOT
ATOM      1  C   UNL d   1       0.721   2.885   1.083  0.00  0.00     0.172 C 
ATOM      2  N   UNL d   1       0.333   1.521   0.810  0.00  0.00    -0.070 N 
ATOM      3  C1  UNL d   1       0.810   0.744  -0.212  0.00  0.00    -0.004 A 
ATOM      4  C2  UNL d   1       0.196  -0.487  -0.129  0.00  0.00    -0.047 A 
ATOM      5  C3  UNL d   1      -0.681  -0.448   0.981  0.00  0.00    -0.047 A 
ATOM      6  C4  UNL d   1      -0.577   0.806   1.544  0.00  0.00    -0.004 A 
ENDROOT
TORSDOF 0
ENDMDL
