MODEL 1
REMARK minimizedAffinity -3.73408151
REMARK minimizedRMSD -1
REMARK  0 active torsions:
REMARK  status: ('A' for Active; 'I' for Inactive)
ROOT
ATOM      1  C   UNL d   1      -0.063  -1.005  -0.310  0.00  0.00     0.172 C 
ATOM      2  N   UNL d   1       0.372   0.213   0.330  0.00  0.00    -0.070 N 
ATOM      3  C1  UNL d   1       1.598   0.803   0.175  0.00  0.00    -0.004 A 
ATOM      4  C2  UNL d   1       1.620   1.943   0.950  0.00  0.00    -0.047 A 
ATOM      5  C3  UNL d   1       0.363   2.041   1.593  0.00  0.00    -0.047 A 
ATOM      6  C4  UNL d   1      -0.390   0.958   1.192  0.00  0.00    -0.004 A 
ENDROOT
TORSDOF 0
ENDMDL
