MODEL 1
REMARK minimizedAffinity -3.57994127
REMARK minimizedRMSD -1
REMARK  0 active torsions:
REMARK  status: ('A' for Active; 'I' for Inactive)
ROOT
ATOM      1  C   UNL d   1       1.688  -0.582  -0.299  0.00  0.00     0.172 C 
ATOM      2  N   UNL d   1       0.945   0.529   0.248  0.00  0.00    -0.070 N 
ATOM      3  C1  UNL d   1       0.057   0.461   1.288  0.00  0.00    -0.004 A 
ATOM      4  C2  UNL d   1      -0.436   1.730   1.506  0.00  0.00    -0.047 A 
ATOM      5  C3  UNL d   1       0.176   2.589   0.563  0.00  0.00    -0.047 A 
ATOM      6  C4  UNL d   1       1.026   1.820  -0.203  0.00  0.00    -0.004 A 
ENDROOT
TORSDOF 0
ENDMDL
