MODEL 1
REMARK minimizedAffinity -3.44887567
REMARK minimizedRMSD -1
REMARK  0 active torsions:
REMARK  status: ('A' for Active; 'I' for Inactive)
ROOT
ATOM      1  C   UNL d   1      -0.571  -0.985  -0.541  0.00  0.00     0.172 C 
ATOM      2  N   UNL d   1      -0.105   0.199   0.143  0.00  0.00    -0.070 N 
ATOM      3  C1  UNL d   1       0.474   1.288  -0.452  0.00  0.00    -0.004 A 
ATOM      4  C2  UNL d   1       0.776   2.198   0.538  0.00  0.00    -0.047 A 
ATOM      5  C3  UNL d   1       0.364   1.637   1.770  0.00  0.00    -0.047 A 
ATOM      6  C4  UNL d   1      -0.177   0.398   1.496  0.00  0.00    -0.004 A 
ENDROOT
TORSDOF 0
ENDMDL
