MODEL 1
REMARK minimizedAffinity -3.69957781
REMARK minimizedRMSD -1
REMARK  0 active torsions:
REMARK  status: ('A' for Active; 'I' for Inactive)
ROOT
ATOM      1  C   UNL d   1       1.049  -1.056  -0.429  0.00  0.00     0.172 C 
ATOM      2  N   UNL d   1       0.580   0.223   0.051  0.00  0.00    -0.070 N 
ATOM      3  C1  UNL d   1       0.322   1.321  -0.725  0.00  0.00    -0.004 A 
ATOM      4  C2  UNL d   1      -0.106   2.334   0.106  0.00  0.00    -0.047 A 
ATOM      5  C3  UNL d   1      -0.105   1.827   1.427  0.00  0.00    -0.047 A 
ATOM      6  C4  UNL d   1       0.324   0.518   1.364  0.00  0.00    -0.004 A 
ENDROOT
TORSDOF 0
ENDMDL
