MODEL 1
REMARK minimizedAffinity -0.964368701
REMARK minimizedRMSD -1
REMARK  0 active torsions:
REMARK  status: ('A' for Active; 'I' for Inactive)
ROOT
ATOM      1  C   UNL d   1       0.629  -0.867  -0.448  0.00  0.00     0.172 C 
ATOM      2  N   UNL d   1      -0.264  -0.102   0.391  0.00  0.00    -0.070 N 
ATOM      3  C1  UNL d   1      -1.146   0.851  -0.042  0.00  0.00    -0.004 A 
ATOM      4  C2  UNL d   1      -1.810   1.344   1.060  0.00  0.00    -0.047 A 
ATOM      5  C3  UNL d   1      -1.308   0.665   2.196  0.00  0.00    -0.047 A 
ATOM      6  C4  UNL d   1      -0.352  -0.224   1.753  0.00  0.00    -0.004 A 
ENDROOT
TORSDOF 0
ENDMDL
