MODEL 1
REMARK minimizedAffinity -3.13529539
REMARK minimizedRMSD -1
REMARK  0 active torsions:
REMARK  status: ('A' for Active; 'I' for Inactive)
ROOT
ATOM      1  C   UNL d   1       1.138   1.850   1.147  0.00  0.00     0.172 C 
ATOM      2  N   UNL d   1       0.794   0.602   0.507  0.00  0.00    -0.070 N 
ATOM      3  C1  UNL d   1       1.594  -0.100  -0.356  0.00  0.00    -0.004 A 
ATOM      4  C2  UNL d   1       0.906  -1.229  -0.745  0.00  0.00    -0.047 A 
ATOM      5  C3  UNL d   1      -0.351  -1.205  -0.094  0.00  0.00    -0.047 A 
ATOM      6  C4  UNL d   1      -0.393  -0.060   0.674  0.00  0.00    -0.004 A 
ENDROOT
TORSDOF 0
ENDMDL
