MODEL 1
REMARK minimizedAffinity -2.40962386
REMARK minimizedRMSD -1
REMARK  0 active torsions:
REMARK  status: ('A' for Active; 'I' for Inactive)
ROOT
ATOM      1  C   UNL d   1      -0.627  -1.627  -1.474  0.00  0.00     0.172 C 
ATOM      2  N   UNL d   1      -0.205  -0.532  -0.632  0.00  0.00    -0.070 N 
ATOM      3  C1  UNL d   1      -0.757  -0.194   0.575  0.00  0.00    -0.004 A 
ATOM      4  C2  UNL d   1      -0.076   0.902   1.058  0.00  0.00    -0.047 A 
ATOM      5  C3  UNL d   1       0.920   1.234   0.110  0.00  0.00    -0.047 A 
ATOM      6  C4  UNL d   1       0.818   0.330  -0.927  0.00  0.00    -0.004 A 
ENDROOT
TORSDOF 0
ENDMDL
