MODEL 1
REMARK minimizedAffinity -1.60257947
REMARK minimizedRMSD -1
REMARK  0 active torsions:
REMARK  status: ('A' for Active; 'I' for Inactive)
ROOT
ATOM      1  C   UNL d   1      -0.434  -1.318  -0.620  0.00  0.00     0.172 C 
ATOM      2  N   UNL d   1      -0.073  -0.114   0.091  0.00  0.00    -0.070 N 
ATOM      3  C1  UNL d   1       0.905   0.769  -0.280  0.00  0.00    -0.004 A 
ATOM      4  C2  UNL d   1       0.938   1.781   0.655  0.00  0.00    -0.047 A 
ATOM      5  C3  UNL d   1      -0.055   1.495   1.623  0.00  0.00    -0.047 A 
ATOM      6  C4  UNL d   1      -0.665   0.317   1.249  0.00  0.00    -0.004 A 
ENDROOT
TORSDOF 0
ENDMDL
