MODEL 1
REMARK minimizedAffinity -3.55963755
REMARK minimizedRMSD -1
REMARK  0 active torsions:
REMARK  status: ('A' for Active; 'I' for Inactive)
ROOT
ATOM      1  C   UNL d   1      -0.519  -0.584  -0.740  0.00  0.00     0.172 C 
ATOM      2  N   UNL d   1      -0.068   0.434   0.179  0.00  0.00    -0.070 N 
ATOM      3  C1  UNL d   1      -0.295   0.448   1.529  0.00  0.00    -0.004 A 
ATOM      4  C2  UNL d   1       0.296   1.581   2.045  0.00  0.00    -0.047 A 
ATOM      5  C3  UNL d   1       0.898   2.273   0.967  0.00  0.00    -0.047 A 
ATOM      6  C4  UNL d   1       0.658   1.540  -0.176  0.00  0.00    -0.004 A 
ENDROOT
TORSDOF 0
ENDMDL
