MODEL 1
REMARK minimizedAffinity -2.50620103
REMARK minimizedRMSD -1
REMARK  0 active torsions:
REMARK  status: ('A' for Active; 'I' for Inactive)
ROOT
ATOM      1  C   UNL d   1      -0.667  -0.037   0.467  0.00  0.00     0.172 C 
ATOM      2  N   UNL d   1      -0.957  -0.632  -0.817  0.00  0.00    -0.070 N 
ATOM      3  C1  UNL d   1      -0.828  -0.012  -2.031  0.00  0.00    -0.004 A 
ATOM      4  C2  UNL d   1      -1.201  -0.912  -3.006  0.00  0.00    -0.047 A 
ATOM      5  C3  UNL d   1      -1.567  -2.114  -2.354  0.00  0.00    -0.047 A 
ATOM      6  C4  UNL d   1      -1.407  -1.912  -1.000  0.00  0.00    -0.004 A 
ENDROOT
TORSDOF 0
ENDMDL
