MODEL 1
REMARK minimizedAffinity -2.26534128
REMARK minimizedRMSD -1
REMARK  0 active torsions:
REMARK  status: ('A' for Active; 'I' for Inactive)
ROOT
ATOM      1  C   UNL d   1       0.272  -0.868  -0.886  0.00  0.00     0.172 C 
ATOM      2  N   UNL d   1      -0.919  -1.084  -1.672  0.00  0.00    -0.070 N 
ATOM      3  C1  UNL d   1      -1.033  -0.882  -3.021  0.00  0.00    -0.004 A 
ATOM      4  C2  UNL d   1      -2.323  -1.201  -3.389  0.00  0.00    -0.047 A 
ATOM      5  C3  UNL d   1      -3.008  -1.609  -2.220  0.00  0.00    -0.047 A 
ATOM      6  C4  UNL d   1      -2.115  -1.527  -1.171  0.00  0.00    -0.004 A 
ENDROOT
TORSDOF 0
ENDMDL
