MODEL 1
REMARK minimizedAffinity -3.74972582
REMARK minimizedRMSD -1
REMARK  0 active torsions:
REMARK  status: ('A' for Active; 'I' for Inactive)
ROOT
ATOM      1  C   UNL d   1      -0.184  -0.450  -0.917  0.00  0.00     0.172 C 
ATOM      2  N   UNL d   1       0.268   0.605  -0.041  0.00  0.00    -0.070 N 
ATOM      3  C1  UNL d   1       1.305   1.462  -0.294  0.00  0.00    -0.004 A 
ATOM      4  C2  UNL d   1       1.417   2.318   0.781  0.00  0.00    -0.047 A 
ATOM      5  C3  UNL d   1       0.412   1.962   1.712  0.00  0.00    -0.047 A 
ATOM      6  C4  UNL d   1      -0.284   0.899   1.177  0.00  0.00    -0.004 A 
ENDROOT
TORSDOF 0
ENDMDL
