MODEL 1
REMARK minimizedAffinity -2.68293142
REMARK minimizedRMSD -1
REMARK  0 active torsions:
REMARK  status: ('A' for Active; 'I' for Inactive)
ROOT
ATOM      1  C   UNL d   1       0.736  -1.115  -1.125  0.00  0.00     0.172 C 
ATOM      2  N   UNL d   1      -0.533  -1.262  -1.798  0.00  0.00    -0.070 N 
ATOM      3  C1  UNL d   1      -0.784  -0.949  -3.107  0.00  0.00    -0.004 A 
ATOM      4  C2  UNL d   1      -2.108  -1.233  -3.363  0.00  0.00    -0.047 A 
ATOM      5  C3  UNL d   1      -2.673  -1.734  -2.166  0.00  0.00    -0.047 A 
ATOM      6  C4  UNL d   1      -1.676  -1.741  -1.213  0.00  0.00    -0.004 A 
ENDROOT
TORSDOF 0
ENDMDL
