MODEL 1
REMARK minimizedAffinity -3.26728845
REMARK minimizedRMSD -1
REMARK  0 active torsions:
REMARK  status: ('A' for Active; 'I' for Inactive)
ROOT
ATOM      1  C   UNL d   1       1.056  -0.495  -0.631  0.00  0.00     0.172 C 
ATOM      2  N   UNL d   1       0.879   0.625   0.263  0.00  0.00    -0.070 N 
ATOM      3  C1  UNL d   1       0.063   0.647   1.363  0.00  0.00    -0.004 A 
ATOM      4  C2  UNL d   1       0.175   1.891   1.947  0.00  0.00    -0.047 A 
ATOM      5  C3  UNL d   1       1.089   2.642   1.170  0.00  0.00    -0.047 A 
ATOM      6  C4  UNL d   1       1.509   1.835   0.135  0.00  0.00    -0.004 A 
ENDROOT
TORSDOF 0
ENDMDL
