MODEL 1
REMARK minimizedAffinity -5.18715
REMARK minimizedRMSD -1
REMARK  0 active torsions:
REMARK  status: ('A' for Active; 'I' for Inactive)
ROOT
ATOM      1  O1  BZF d   1      -0.168  -0.171  -0.704  0.00  0.00    -0.204 OA
ATOM      2  C2  BZF d   1       1.122   0.324  -0.711  0.00  0.00     0.174 A 
ATOM      3  C3  BZF d   1       1.482   0.737   0.522  0.00  0.00    -0.012 A 
ATOM      4  C3A BZF d   1       0.380   0.400   1.369  0.00  0.00    -0.107 A 
ATOM      5  C4  BZF d   1       0.145   0.544   2.706  0.00  0.00     0.055 A 
ATOM      6  C5  BZF d   1      -1.063   0.178   3.208  0.00  0.00    -0.016 A 
ATOM      7  C6  BZF d   1      -2.061  -0.331   2.402  0.00  0.00     0.022 A 
ATOM      8  C7  BZF d   1      -1.873  -0.497   1.070  0.00  0.00     0.029 A 
ATOM      9  C7A BZF d   1      -0.641  -0.159   0.565  0.00  0.00     0.058 A 
ENDROOT
TORSDOF 0
ENDMDL
