MODEL 1
REMARK minimizedAffinity -6.00725698
REMARK minimizedRMSD -1
REMARK  0 active torsions:
REMARK  status: ('A' for Active; 'I' for Inactive)
ROOT
ATOM      1  O1  BZF d   1      -1.468   0.403  -0.527  0.00  0.00    -0.204 OA
ATOM      2  C2  BZF d   1      -0.231   0.469  -1.139  0.00  0.00     0.174 A 
ATOM      3  C3  BZF d   1       0.759   0.315  -0.235  0.00  0.00    -0.012 A 
ATOM      4  C3A BZF d   1       0.097   0.049   1.005  0.00  0.00    -0.107 A 
ATOM      5  C4  BZF d   1       0.542  -0.207   2.271  0.00  0.00     0.055 A 
ATOM      6  C5  BZF d   1      -0.364  -0.350   3.273  0.00  0.00    -0.016 A 
ATOM      7  C6  BZF d   1      -1.720  -0.239   3.048  0.00  0.00     0.022 A 
ATOM      8  C7  BZF d   1      -2.210   0.010   1.808  0.00  0.00     0.029 A 
ATOM      9  C7A BZF d   1      -1.298   0.122   0.787  0.00  0.00     0.058 A 
ENDROOT
TORSDOF 0
ENDMDL
