MODEL 1
REMARK minimizedAffinity -6.78470325
REMARK minimizedRMSD -1
REMARK  0 active torsions:
REMARK  status: ('A' for Active; 'I' for Inactive)
ROOT
ATOM      1  O1  BZF d   1      -0.731   0.182  -0.413  0.00  0.00    -0.204 OA
ATOM      2  C2  BZF d   1       0.646   0.270  -0.484  0.00  0.00     0.174 A 
ATOM      3  C3  BZF d   1       1.191   0.231   0.749  0.00  0.00    -0.012 A 
ATOM      4  C3A BZF d   1       0.093   0.018   1.640  0.00  0.00    -0.107 A 
ATOM      5  C4  BZF d   1      -0.003  -0.126   2.995  0.00  0.00     0.055 A 
ATOM      6  C5  BZF d   1      -1.233  -0.247   3.561  0.00  0.00    -0.016 A 
ATOM      7  C6  BZF d   1      -2.386  -0.223   2.804  0.00  0.00     0.022 A 
ATOM      8  C7  BZF d   1      -2.341  -0.087   1.457  0.00  0.00     0.029 A 
ATOM      9  C7A BZF d   1      -1.099   0.002   0.878  0.00  0.00     0.058 A 
ENDROOT
TORSDOF 0
ENDMDL
