MODEL 1
REMARK minimizedAffinity -2.59656286
REMARK minimizedRMSD -1
REMARK  0 active torsions:
REMARK  status: ('A' for Active; 'I' for Inactive)
ROOT
ATOM      1  O1  BZF d   1      -0.908  -0.450  -1.072  0.00  0.00    -0.204 OA
ATOM      2  C2  BZF d   1       0.043  -0.046  -1.990  0.00  0.00     0.174 A 
ATOM      3  C3  BZF d   1       1.152   0.398  -1.365  0.00  0.00    -0.012 A 
ATOM      4  C3A BZF d   1       0.913   0.177   0.029  0.00  0.00    -0.107 A 
ATOM      5  C4  BZF d   1       1.653   0.399   1.155  0.00  0.00     0.055 A 
ATOM      6  C5  BZF d   1       1.102   0.141   2.369  0.00  0.00    -0.016 A 
ATOM      7  C6  BZF d   1      -0.187  -0.334   2.495  0.00  0.00     0.022 A 
ATOM      8  C7  BZF d   1      -0.958  -0.575   1.406  0.00  0.00     0.029 A 
ATOM      9  C7A BZF d   1      -0.392  -0.346   0.176  0.00  0.00     0.058 A 
ENDROOT
TORSDOF 0
ENDMDL
