MODEL 1
REMARK minimizedAffinity -5.09572792
REMARK minimizedRMSD -1
REMARK  0 active torsions:
REMARK  status: ('A' for Active; 'I' for Inactive)
ROOT
ATOM      1  O1  BZF d   1      -0.808  -0.198  -0.684  0.00  0.00    -0.204 OA
ATOM      2  C2  BZF d   1       0.554   0.002  -0.792  0.00  0.00     0.174 A 
ATOM      3  C3  BZF d   1       1.129   0.045   0.427  0.00  0.00    -0.012 A 
ATOM      4  C3A BZF d   1       0.073  -0.231   1.351  0.00  0.00    -0.107 A 
ATOM      5  C4  BZF d   1       0.020  -0.341   2.712  0.00  0.00     0.055 A 
ATOM      6  C5  BZF d   1      -1.182  -0.546   3.312  0.00  0.00    -0.016 A 
ATOM      7  C6  BZF d   1      -2.350  -0.639   2.584  0.00  0.00     0.022 A 
ATOM      8  C7  BZF d   1      -2.348  -0.541   1.232  0.00  0.00     0.029 A 
ATOM      9  C7A BZF d   1      -1.130  -0.368   0.620  0.00  0.00     0.058 A 
ENDROOT
TORSDOF 0
ENDMDL
