MODEL 1
REMARK minimizedAffinity -5.25335741
REMARK minimizedRMSD -1
REMARK  0 active torsions:
REMARK  status: ('A' for Active; 'I' for Inactive)
ROOT
ATOM      1  O1  BZF d   1      -2.466   0.320   0.551  0.00  0.00    -0.204 OA
ATOM      2  C2  BZF d   1      -3.113   0.157   1.761  0.00  0.00     0.174 A 
ATOM      3  C3  BZF d   1      -2.231  -0.127   2.741  0.00  0.00    -0.012 A 
ATOM      4  C3A BZF d   1      -0.944  -0.052   2.122  0.00  0.00    -0.107 A 
ATOM      5  C4  BZF d   1       0.331  -0.219   2.583  0.00  0.00     0.055 A 
ATOM      6  C5  BZF d   1       1.365  -0.149   1.704  0.00  0.00    -0.016 A 
ATOM      7  C6  BZF d   1       1.161   0.080   0.359  0.00  0.00     0.022 A 
ATOM      8  C7  BZF d   1      -0.084   0.257  -0.144  0.00  0.00     0.029 A 
ATOM      9  C7A BZF d   1      -1.129   0.220   0.746  0.00  0.00     0.058 A 
ENDROOT
TORSDOF 0
ENDMDL
