MODEL 1
REMARK minimizedAffinity -4.51326656
REMARK minimizedRMSD -1
REMARK  0 active torsions:
REMARK  status: ('A' for Active; 'I' for Inactive)
ROOT
ATOM      1  O1  BZF d   1      -0.674   0.214  -0.628  0.00  0.00    -0.204 OA
ATOM      2  C2  BZF d   1       0.706   0.259  -0.586  0.00  0.00     0.174 A 
ATOM      3  C3  BZF d   1       1.148   0.212   0.687  0.00  0.00    -0.012 A 
ATOM      4  C3A BZF d   1      -0.026   0.039   1.486  0.00  0.00    -0.107 A 
ATOM      5  C4  BZF d   1      -0.237  -0.091   2.829  0.00  0.00     0.055 A 
ATOM      6  C5  BZF d   1      -1.512  -0.170   3.293  0.00  0.00    -0.016 A 
ATOM      7  C6  BZF d   1      -2.598  -0.116   2.444  0.00  0.00     0.022 A 
ATOM      8  C7  BZF d   1      -2.439   0.009   1.104  0.00  0.00     0.029 A 
ATOM      9  C7A BZF d   1      -1.151   0.055   0.629  0.00  0.00     0.058 A 
ENDROOT
TORSDOF 0
ENDMDL
