MODEL 1
REMARK minimizedAffinity -6.46404743
REMARK minimizedRMSD -1
REMARK  0 active torsions:
REMARK  status: ('A' for Active; 'I' for Inactive)
ROOT
ATOM      1  O1  BZF d   1      -0.444   0.156  -0.876  0.00  0.00    -0.204 OA
ATOM      2  C2  BZF d   1       0.926   0.004  -0.783  0.00  0.00     0.174 A 
ATOM      3  C3  BZF d   1       1.304  -0.154   0.501  0.00  0.00    -0.012 A 
ATOM      4  C3A BZF d   1       0.085  -0.191   1.250  0.00  0.00    -0.107 A 
ATOM      5  C4  BZF d   1      -0.197  -0.343   2.578  0.00  0.00     0.055 A 
ATOM      6  C5  BZF d   1      -1.488  -0.259   2.992  0.00  0.00    -0.016 A 
ATOM      7  C6  BZF d   1      -2.520  -0.018   2.109  0.00  0.00     0.022 A 
ATOM      8  C7  BZF d   1      -2.290   0.135   0.782  0.00  0.00     0.029 A 
ATOM      9  C7A BZF d   1      -0.990   0.018   0.356  0.00  0.00     0.058 A 
ENDROOT
TORSDOF 0
ENDMDL
