MODEL 1
REMARK minimizedAffinity -6.55897522
REMARK minimizedRMSD -1
REMARK  0 active torsions:
REMARK  status: ('A' for Active; 'I' for Inactive)
ROOT
ATOM      1  O1  BZF d   1      -1.289   0.483  -0.643  0.00  0.00    -0.204 OA
ATOM      2  C2  BZF d   1       0.012   0.411  -1.102  0.00  0.00     0.174 A 
ATOM      3  C3  BZF d   1       0.861   0.131  -0.092  0.00  0.00    -0.012 A 
ATOM      4  C3A BZF d   1       0.028  -0.070   1.054  0.00  0.00    -0.107 A 
ATOM      5  C4  BZF d   1       0.285  -0.392   2.356  0.00  0.00     0.055 A 
ATOM      6  C5  BZF d   1      -0.746  -0.441   3.240  0.00  0.00    -0.016 A 
ATOM      7  C6  BZF d   1      -2.043  -0.169   2.858  0.00  0.00     0.022 A 
ATOM      8  C7  BZF d   1      -2.348   0.150   1.577  0.00  0.00     0.029 A 
ATOM      9  C7A BZF d   1      -1.313   0.168   0.674  0.00  0.00     0.058 A 
ENDROOT
TORSDOF 0
ENDMDL
