MODEL 1
REMARK minimizedAffinity -1.11476374
REMARK minimizedRMSD -1
REMARK  0 active torsions:
REMARK  status: ('A' for Active; 'I' for Inactive)
ROOT
ATOM      1  O1  BZF d   1      -0.816  -0.424  -0.208  0.00  0.00    -0.204 OA
ATOM      2  C2  BZF d   1      -0.016   0.467   0.481  0.00  0.00     0.174 A 
ATOM      3  C3  BZF d   1       1.136   0.690  -0.185  0.00  0.00    -0.012 A 
ATOM      4  C3A BZF d   1       1.010  -0.042  -1.408  0.00  0.00    -0.107 A 
ATOM      5  C4  BZF d   1       1.824  -0.202  -2.493  0.00  0.00     0.055 A 
ATOM      6  C5  BZF d   1       1.437  -1.042  -3.490  0.00  0.00    -0.016 A 
ATOM      7  C6  BZF d   1       0.249  -1.740  -3.431  0.00  0.00     0.022 A 
ATOM      8  C7  BZF d   1      -0.593  -1.609  -2.377  0.00  0.00     0.029 A 
ATOM      9  C7A BZF d   1      -0.221  -0.736  -1.384  0.00  0.00     0.058 A 
ENDROOT
TORSDOF 0
ENDMDL
