MODEL 1
REMARK minimizedAffinity -4.96181774
REMARK minimizedRMSD -1
REMARK  0 active torsions:
REMARK  status: ('A' for Active; 'I' for Inactive)
ROOT
ATOM      1  O1  BZF d   1      -1.313   0.087  -0.788  0.00  0.00    -0.204 OA
ATOM      2  C2  BZF d   1      -0.131   0.421  -1.419  0.00  0.00     0.174 A 
ATOM      3  C3  BZF d   1       0.898   0.404  -0.548  0.00  0.00    -0.012 A 
ATOM      4  C3A BZF d   1       0.339  -0.054   0.686  0.00  0.00    -0.107 A 
ATOM      5  C4  BZF d   1       0.864  -0.295   1.924  0.00  0.00     0.055 A 
ATOM      6  C5  BZF d   1       0.034  -0.665   2.933  0.00  0.00    -0.016 A 
ATOM      7  C6  BZF d   1      -1.326  -0.799   2.743  0.00  0.00     0.022 A 
ATOM      8  C7  BZF d   1      -1.893  -0.575   1.533  0.00  0.00     0.029 A 
ATOM      9  C7A BZF d   1      -1.052  -0.233   0.502  0.00  0.00     0.058 A 
ENDROOT
TORSDOF 0
ENDMDL
