MODEL 1
REMARK minimizedAffinity -6.28447199
REMARK minimizedRMSD -1
REMARK  0 active torsions:
REMARK  status: ('A' for Active; 'I' for Inactive)
ROOT
ATOM      1  O1  BZF d   1      -0.964   0.380  -0.569  0.00  0.00    -0.204 OA
ATOM      2  C2  BZF d   1       0.417   0.415  -0.586  0.00  0.00     0.174 A 
ATOM      3  C3  BZF d   1       0.917   0.164   0.641  0.00  0.00    -0.012 A 
ATOM      4  C3A BZF d   1      -0.220  -0.132   1.458  0.00  0.00    -0.107 A 
ATOM      5  C4  BZF d   1      -0.368  -0.476   2.771  0.00  0.00     0.055 A 
ATOM      6  C5  BZF d   1      -1.621  -0.625   3.277  0.00  0.00    -0.016 A 
ATOM      7  C6  BZF d   1      -2.745  -0.433   2.501  0.00  0.00     0.022 A 
ATOM      8  C7  BZF d   1      -2.648  -0.096   1.192  0.00  0.00     0.029 A 
ATOM      9  C7A BZF d   1      -1.383   0.023   0.669  0.00  0.00     0.058 A 
ENDROOT
TORSDOF 0
ENDMDL
