MODEL 1
REMARK minimizedAffinity -0.650516927
REMARK minimizedRMSD -1
REMARK  0 active torsions:
REMARK  status: ('A' for Active; 'I' for Inactive)
ROOT
ATOM      1  O1  BZF d   1       1.082  -0.541  -3.554  0.00  0.00    -0.204 OA
ATOM      2  C2  BZF d   1       1.091  -1.907  -3.765  0.00  0.00     0.174 A 
ATOM      3  C3  BZF d   1       0.841  -2.569  -2.617  0.00  0.00    -0.012 A 
ATOM      4  C3A BZF d   1       0.573  -1.553  -1.647  0.00  0.00    -0.107 A 
ATOM      5  C4  BZF d   1       0.242  -1.583  -0.322  0.00  0.00     0.055 A 
ATOM      6  C5  BZF d   1       0.121  -0.411   0.356  0.00  0.00    -0.016 A 
ATOM      7  C6  BZF d   1       0.328   0.807  -0.258  0.00  0.00     0.022 A 
ATOM      8  C7  BZF d   1       0.652   0.888  -1.571  0.00  0.00     0.029 A 
ATOM      9  C7A BZF d   1       0.743  -0.293  -2.267  0.00  0.00     0.058 A 
ENDROOT
TORSDOF 0
ENDMDL
