MODEL 1
REMARK minimizedAffinity -5.72314692
REMARK minimizedRMSD -1
REMARK  0 active torsions:
REMARK  status: ('A' for Active; 'I' for Inactive)
ROOT
ATOM      1  O1  BZF d   1      -0.751   0.095  -0.765  0.00  0.00    -0.204 OA
ATOM      2  C2  BZF d   1       0.479   0.647  -1.067  0.00  0.00     0.174 A 
ATOM      3  C3  BZF d   1       1.218   0.810   0.049  0.00  0.00    -0.012 A 
ATOM      4  C3A BZF d   1       0.434   0.244   1.105  0.00  0.00    -0.107 A 
ATOM      5  C4  BZF d   1       0.637   0.090   2.446  0.00  0.00     0.055 A 
ATOM      6  C5  BZF d   1      -0.356  -0.437   3.209  0.00  0.00    -0.016 A 
ATOM      7  C6  BZF d   1      -1.566  -0.815   2.664  0.00  0.00     0.022 A 
ATOM      8  C7  BZF d   1      -1.812  -0.687   1.338  0.00  0.00     0.029 A 
ATOM      9  C7A BZF d   1      -0.798  -0.185   0.559  0.00  0.00     0.058 A 
ENDROOT
TORSDOF 0
ENDMDL
