MODEL 1
REMARK minimizedAffinity -3.18347931
REMARK minimizedRMSD -1
REMARK  0 active torsions:
REMARK  status: ('A' for Active; 'I' for Inactive)
ROOT
ATOM      1  O1  BZF d   1       1.678  -1.874  -2.337  0.00  0.00    -0.204 OA
ATOM      2  C2  BZF d   1       1.381  -1.945  -3.684  0.00  0.00     0.174 A 
ATOM      3  C3  BZF d   1       0.382  -1.097  -4.000  0.00  0.00    -0.012 A 
ATOM      4  C3A BZF d   1       0.094  -0.388  -2.791  0.00  0.00    -0.107 A 
ATOM      5  C4  BZF d   1      -0.792   0.601  -2.471  0.00  0.00     0.055 A 
ATOM      6  C5  BZF d   1      -0.872   1.024  -1.182  0.00  0.00    -0.016 A 
ATOM      7  C6  BZF d   1      -0.085   0.478  -0.189  0.00  0.00     0.022 A 
ATOM      8  C7  BZF d   1       0.812  -0.501  -0.459  0.00  0.00     0.029 A 
ATOM      9  C7A BZF d   1       0.918  -0.908  -1.767  0.00  0.00     0.058 A 
ENDROOT
TORSDOF 0
ENDMDL
