MODEL 1
REMARK minimizedAffinity -5.02511883
REMARK minimizedRMSD -1
REMARK  0 active torsions:
REMARK  status: ('A' for Active; 'I' for Inactive)
ROOT
ATOM      1  O1  BZF d   1      -0.884   0.468  -0.018  0.00  0.00    -0.204 OA
ATOM      2  C2  BZF d   1       0.492   0.461  -0.148  0.00  0.00     0.174 A 
ATOM      3  C3  BZF d   1       1.083   0.200   1.035  0.00  0.00    -0.012 A 
ATOM      4  C3A BZF d   1       0.009  -0.058   1.944  0.00  0.00    -0.107 A 
ATOM      5  C4  BZF d   1      -0.042  -0.391   3.268  0.00  0.00     0.055 A 
ATOM      6  C5  BZF d   1      -1.252  -0.500   3.875  0.00  0.00    -0.016 A 
ATOM      7  C6  BZF d   1      -2.430  -0.278   3.193  0.00  0.00     0.022 A 
ATOM      8  C7  BZF d   1      -2.431   0.051   1.878  0.00  0.00     0.029 A 
ATOM      9  C7A BZF d   1      -1.210   0.129   1.252  0.00  0.00     0.058 A 
ENDROOT
TORSDOF 0
ENDMDL
