MODEL 1
REMARK minimizedAffinity -6.04289579
REMARK minimizedRMSD -1
REMARK  0 active torsions:
REMARK  status: ('A' for Active; 'I' for Inactive)
ROOT
ATOM      1  O1  BZF d   1      -0.862  -0.075  -0.788  0.00  0.00    -0.204 OA
ATOM      2  C2  BZF d   1       0.501  -0.297  -0.809  0.00  0.00     0.174 A 
ATOM      3  C3  BZF d   1       0.985  -0.422   0.444  0.00  0.00    -0.012 A 
ATOM      4  C3A BZF d   1      -0.161  -0.360   1.298  0.00  0.00    -0.107 A 
ATOM      5  C4  BZF d   1      -0.329  -0.440   2.651  0.00  0.00     0.055 A 
ATOM      6  C5  BZF d   1      -1.572  -0.268   3.173  0.00  0.00    -0.016 A 
ATOM      7  C6  BZF d   1      -2.666  -0.009   2.374  0.00  0.00     0.022 A 
ATOM      8  C7  BZF d   1      -2.549   0.074   1.026  0.00  0.00     0.029 A 
ATOM      9  C7A BZF d   1      -1.301  -0.132   0.493  0.00  0.00     0.058 A 
ENDROOT
TORSDOF 0
ENDMDL
