MODEL 1
REMARK minimizedAffinity -3.35629535
REMARK minimizedRMSD -1
REMARK  0 active torsions:
REMARK  status: ('A' for Active; 'I' for Inactive)
ROOT
ATOM      1  O1  BZF d   1      -1.162   0.762  -1.266  0.00  0.00    -0.204 OA
ATOM      2  C2  BZF d   1       0.165   0.396  -1.374  0.00  0.00     0.174 A 
ATOM      3  C3  BZF d   1       0.634  -0.057  -0.193  0.00  0.00    -0.012 A 
ATOM      4  C3A BZF d   1      -0.495  -0.054   0.686  0.00  0.00    -0.107 A 
ATOM      5  C4  BZF d   1      -0.668  -0.412   1.992  0.00  0.00     0.055 A 
ATOM      6  C5  BZF d   1      -1.880  -0.220   2.575  0.00  0.00    -0.016 A 
ATOM      7  C6  BZF d   1      -2.939   0.333   1.883  0.00  0.00     0.022 A 
ATOM      8  C7  BZF d   1      -2.816   0.699   0.584  0.00  0.00     0.029 A 
ATOM      9  C7A BZF d   1      -1.602   0.474  -0.017  0.00  0.00     0.058 A 
ENDROOT
TORSDOF 0
ENDMDL
