MODEL 1
REMARK minimizedAffinity -6.43317699
REMARK minimizedRMSD -1
REMARK  0 active torsions:
REMARK  status: ('A' for Active; 'I' for Inactive)
ROOT
ATOM      1  O1  BZF d   1      -1.032   0.432  -0.832  0.00  0.00    -0.204 OA
ATOM      2  C2  BZF d   1       0.338   0.475  -1.001  0.00  0.00     0.174 A 
ATOM      3  C3  BZF d   1       0.971   0.289   0.175  0.00  0.00    -0.012 A 
ATOM      4  C3A BZF d   1      -0.067   0.028   1.124  0.00  0.00    -0.107 A 
ATOM      5  C4  BZF d   1      -0.069  -0.250   2.462  0.00  0.00     0.055 A 
ATOM      6  C5  BZF d   1      -1.258  -0.381   3.107  0.00  0.00    -0.016 A 
ATOM      7  C6  BZF d   1      -2.461  -0.235   2.449  0.00  0.00     0.022 A 
ATOM      8  C7  BZF d   1      -2.510   0.035   1.122  0.00  0.00     0.029 A 
ATOM      9  C7A BZF d   1      -1.311   0.136   0.460  0.00  0.00     0.058 A 
ENDROOT
TORSDOF 0
ENDMDL
