MODEL 1
REMARK minimizedAffinity 6.37699556
REMARK minimizedRMSD -1
REMARK  1 active torsions:
REMARK  status: ('A' for Active; 'I' for Inactive)
REMARK    1  A    between atoms: C1_2  and  C2_3 
ROOT
ATOM      1  C2  UNL d   1       3.856  -4.462  -0.779  0.00  0.00    -0.081 A 
ATOM      2  C3  UNL d   1       5.240  -4.506  -0.567  0.00  0.00     0.006 A 
ATOM      3  C4  UNL d   1       5.893  -3.446   0.067  0.00  0.00     0.002 A 
ATOM      4  C5  UNL d   1       5.173  -2.330   0.507  0.00  0.00    -0.080 A 
ATOM      5  C6  UNL d   1       5.857  -1.200   1.216  0.00  0.00     0.076 C 
ATOM      6  C7  UNL d   1       3.793  -2.279   0.280  0.00  0.00     0.002 A 
ATOM      7  C8  UNL d   1       3.140  -3.338  -0.355  0.00  0.00     0.006 A 
ENDROOT
BRANCH   1   8
ATOM      8  C1  UNL d   1       3.140  -5.632  -1.405  0.00  0.00     0.054 C 
ATOM      9  C   UNL d   1       1.890  -6.000  -0.618  0.00  0.00     0.018 C 
ENDBRANCH   1   8
TORSDOF 1
ENDMDL
