MODEL 1
REMARK minimizedAffinity 10.9209995
REMARK minimizedRMSD -1
REMARK  1 active torsions:
REMARK  status: ('A' for Active; 'I' for Inactive)
REMARK    1  A    between atoms: C1_2  and  C2_3 
ROOT
ATOM      1  C2  UNL d   1       5.225  -3.362  -1.706  0.00  0.00    -0.081 A 
ATOM      2  C3  UNL d   1       5.297  -3.138  -3.086  0.00  0.00     0.006 A 
ATOM      3  C4  UNL d   1       4.650  -3.996  -3.978  0.00  0.00     0.002 A 
ATOM      4  C5  UNL d   1       3.914  -5.088  -3.505  0.00  0.00    -0.080 A 
ATOM      5  C6  UNL d   1       3.190  -6.000  -4.450  0.00  0.00     0.076 C 
ATOM      6  C7  UNL d   1       3.857  -5.322  -2.127  0.00  0.00     0.002 A 
ATOM      7  C8  UNL d   1       4.504  -4.465  -1.235  0.00  0.00     0.006 A 
ENDROOT
BRANCH   1   8
ATOM      8  C1  UNL d   1       5.868  -2.401  -0.739  0.00  0.00     0.054 C 
ATOM      9  C   UNL d   1       4.822  -1.575  -0.003  0.00  0.00     0.018 C 
ENDBRANCH   1   8
TORSDOF 1
ENDMDL
