MODEL 1
REMARK minimizedAffinity 3.32649994
REMARK minimizedRMSD -1
REMARK  1 active torsions:
REMARK  status: ('A' for Active; 'I' for Inactive)
REMARK    1  A    between atoms: C1_2  and  C2_3 
ROOT
ATOM      1  C2  UNL d   1       0.367   1.854   1.219  0.00  0.00    -0.081 A 
ATOM      2  C3  UNL d   1      -0.357   1.905   2.416  0.00  0.00     0.006 A 
ATOM      3  C4  UNL d   1      -0.044   1.043   3.470  0.00  0.00     0.002 A 
ATOM      4  C5  UNL d   1       1.002   0.122   3.347  0.00  0.00    -0.080 A 
ATOM      5  C6  UNL d   1       1.367  -0.789   4.481  0.00  0.00     0.076 C 
ATOM      6  C7  UNL d   1       1.713   0.059   2.144  0.00  0.00     0.002 A 
ATOM      7  C8  UNL d   1       1.400   0.920   1.090  0.00  0.00     0.006 A 
ENDROOT
BRANCH   1   8
ATOM      8  C1  UNL d   1       0.074   2.826   0.105  0.00  0.00     0.054 C 
ATOM      9  C   UNL d   1       0.717   4.180   0.368  0.00  0.00     0.018 C 
ENDBRANCH   1   8
TORSDOF 1
ENDMDL
