MODEL 1
REMARK minimizedAffinity 12.9755354
REMARK minimizedRMSD -1
REMARK  1 active torsions:
REMARK  status: ('A' for Active; 'I' for Inactive)
REMARK    1  A    between atoms: C1_2  and  C2_3 
ROOT
ATOM      1  C2  UNL d   1      -3.094   0.658  -0.169  0.00  0.00    -0.081 A 
ATOM      2  C3  UNL d   1      -3.403   1.350  -1.347  0.00  0.00     0.006 A 
ATOM      3  C4  UNL d   1      -2.766   1.025  -2.547  0.00  0.00     0.002 A 
ATOM      4  C5  UNL d   1      -1.817  -0.001  -2.591  0.00  0.00    -0.080 A 
ATOM      5  C6  UNL d   1      -1.148  -0.381  -3.879  0.00  0.00     0.076 C 
ATOM      6  C7  UNL d   1      -1.496  -0.681  -1.411  0.00  0.00     0.002 A 
ATOM      7  C8  UNL d   1      -2.131  -0.356  -0.211  0.00  0.00     0.006 A 
ENDROOT
BRANCH   1   8
ATOM      8  C1  UNL d   1      -3.826   0.963   1.113  0.00  0.00     0.054 C 
ATOM      9  C   UNL d   1      -3.458  -0.027   2.208  0.00  0.00     0.018 C 
ENDBRANCH   1   8
TORSDOF 1
ENDMDL
