MODEL 1
REMARK minimizedAffinity 14.1728868
REMARK minimizedRMSD -1
REMARK  1 active torsions:
REMARK  status: ('A' for Active; 'I' for Inactive)
REMARK    1  A    between atoms: C1_2  and  C2_3 
ROOT
ATOM      1  C2  UNL d   1      -2.132   4.572  -0.119  0.00  0.00    -0.081 A 
ATOM      2  C3  UNL d   1      -2.736   4.043  -1.267  0.00  0.00     0.006 A 
ATOM      3  C4  UNL d   1      -3.993   4.493  -1.676  0.00  0.00     0.002 A 
ATOM      4  C5  UNL d   1      -4.663   5.484  -0.951  0.00  0.00    -0.080 A 
ATOM      5  C6  UNL d   1      -6.000   5.998  -1.397  0.00  0.00     0.076 C 
ATOM      6  C7  UNL d   1      -4.067   6.000   0.205  0.00  0.00     0.002 A 
ATOM      7  C8  UNL d   1      -2.811   5.550   0.616  0.00  0.00     0.006 A 
ENDROOT
BRANCH   1   8
ATOM      8  C1  UNL d   1      -0.748   4.135   0.289  0.00  0.00     0.054 C 
ATOM      9  C   UNL d   1       0.321   4.989  -0.378  0.00  0.00     0.018 C 
ENDBRANCH   1   8
TORSDOF 1
ENDMDL
