MODEL 1
REMARK minimizedAffinity 5.92102289
REMARK minimizedRMSD -1
REMARK  1 active torsions:
REMARK  status: ('A' for Active; 'I' for Inactive)
REMARK    1  A    between atoms: C1_2  and  C2_3 
ROOT
ATOM      1  C2  UNL d   1      -0.269   2.830   0.985  0.00  0.00    -0.081 A 
ATOM      2  C3  UNL d   1      -0.574   2.513   2.315  0.00  0.00     0.006 A 
ATOM      3  C4  UNL d   1      -1.530   1.538   2.609  0.00  0.00     0.002 A 
ATOM      4  C5  UNL d   1      -2.191   0.859   1.580  0.00  0.00    -0.080 A 
ATOM      5  C6  UNL d   1      -3.198  -0.211   1.882  0.00  0.00     0.076 C 
ATOM      6  C7  UNL d   1      -1.900   1.188   0.252  0.00  0.00     0.002 A 
ATOM      7  C8  UNL d   1      -0.944   2.163  -0.043  0.00  0.00     0.006 A 
ENDROOT
BRANCH   1   8
ATOM      8  C1  UNL d   1       0.808   3.835   0.665  0.00  0.00     0.054 C 
ATOM      9  C   UNL d   1       0.299   4.906  -0.289  0.00  0.00     0.018 C 
ENDBRANCH   1   8
TORSDOF 1
ENDMDL
