MODEL 1
REMARK minimizedAffinity 14.3294268
REMARK minimizedRMSD -1
REMARK  1 active torsions:
REMARK  status: ('A' for Active; 'I' for Inactive)
REMARK    1  A    between atoms: C1_2  and  C2_3 
ROOT
ATOM      1  C2  UNL d   1      -0.214   2.059  -0.051  0.00  0.00    -0.081 A 
ATOM      2  C3  UNL d   1       0.781   1.188  -0.511  0.00  0.00     0.006 A 
ATOM      3  C4  UNL d   1       0.438   0.010  -1.179  0.00  0.00     0.002 A 
ATOM      4  C5  UNL d   1      -0.904  -0.313  -1.406  0.00  0.00    -0.080 A 
ATOM      5  C6  UNL d   1      -1.285  -1.559  -2.148  0.00  0.00     0.076 C 
ATOM      6  C7  UNL d   1      -1.899   0.549  -0.931  0.00  0.00     0.002 A 
ATOM      7  C8  UNL d   1      -1.557   1.726  -0.262  0.00  0.00     0.006 A 
ENDROOT
BRANCH   1   8
ATOM      8  C1  UNL d   1       0.154   3.361   0.612  0.00  0.00     0.054 C 
ATOM      9  C   UNL d   1       0.093   4.520  -0.372  0.00  0.00     0.018 C 
ENDBRANCH   1   8
TORSDOF 1
ENDMDL
