MODEL 1
REMARK minimizedAffinity 1.26449513
REMARK minimizedRMSD -1
REMARK  1 active torsions:
REMARK  status: ('A' for Active; 'I' for Inactive)
REMARK    1  A    between atoms: C1_2  and  C2_3 
ROOT
ATOM      1  C2  UNL d   1      -1.746   3.274   0.576  0.00  0.00    -0.081 A 
ATOM      2  C3  UNL d   1      -2.486   2.372  -0.198  0.00  0.00     0.006 A 
ATOM      3  C4  UNL d   1      -3.111   1.274   0.399  0.00  0.00     0.002 A 
ATOM      4  C5  UNL d   1      -3.013   1.065   1.779  0.00  0.00    -0.080 A 
ATOM      5  C6  UNL d   1      -3.704  -0.092   2.436  0.00  0.00     0.076 C 
ATOM      6  C7  UNL d   1      -2.259   1.957   2.549  0.00  0.00     0.002 A 
ATOM      7  C8  UNL d   1      -1.633   3.054   1.953  0.00  0.00     0.006 A 
ENDROOT
BRANCH   1   8
ATOM      8  C1  UNL d   1      -1.124   4.494  -0.055  0.00  0.00     0.054 C 
ATOM      9  C   UNL d   1       0.395   4.442   0.018  0.00  0.00     0.018 C 
ENDBRANCH   1   8
TORSDOF 1
ENDMDL
