MODEL 1
REMARK minimizedAffinity 11.7491226
REMARK minimizedRMSD -1
REMARK  1 active torsions:
REMARK  status: ('A' for Active; 'I' for Inactive)
REMARK    1  A    between atoms: C1_2  and  C2_3 
ROOT
ATOM      1  C2  UNL d   1      -0.474   4.771  -0.361  0.00  0.00    -0.081 A 
ATOM      2  C3  UNL d   1      -1.145   3.600   0.012  0.00  0.00     0.006 A 
ATOM      3  C4  UNL d   1      -0.490   2.614   0.754  0.00  0.00     0.002 A 
ATOM      4  C5  UNL d   1       0.844   2.786   1.141  0.00  0.00    -0.080 A 
ATOM      5  C6  UNL d   1       1.550   1.749   1.963  0.00  0.00     0.076 C 
ATOM      6  C7  UNL d   1       1.519   3.948   0.753  0.00  0.00     0.002 A 
ATOM      7  C8  UNL d   1       0.865   4.933   0.011  0.00  0.00     0.006 A 
ENDROOT
BRANCH   1   8
ATOM      8  C1  UNL d   1      -1.197   5.864  -1.105  0.00  0.00     0.054 C 
ATOM      9  C   UNL d   1      -2.636   6.000  -0.628  0.00  0.00     0.018 C 
ENDBRANCH   1   8
TORSDOF 1
ENDMDL
