MODEL 1
REMARK minimizedAffinity 7.0590229
REMARK minimizedRMSD -1
REMARK  1 active torsions:
REMARK  status: ('A' for Active; 'I' for Inactive)
REMARK    1  A    between atoms: C1_2  and  C2_3 
ROOT
ATOM      1  C2  UNL d   1       0.528   0.504   3.746  0.00  0.00    -0.081 A 
ATOM      2  C3  UNL d   1      -0.030  -0.183   4.831  0.00  0.00     0.006 A 
ATOM      3  C4  UNL d   1       0.733  -1.103   5.555  0.00  0.00     0.002 A 
ATOM      4  C5  UNL d   1       2.068  -1.345   5.211  0.00  0.00    -0.080 A 
ATOM      5  C6  UNL d   1       2.907  -2.307   5.998  0.00  0.00     0.076 C 
ATOM      6  C7  UNL d   1       2.619  -0.672   4.115  0.00  0.00     0.002 A 
ATOM      7  C8  UNL d   1       1.857   0.247   3.391  0.00  0.00     0.006 A 
ENDROOT
BRANCH   1   8
ATOM      8  C1  UNL d   1      -0.273   1.543   3.004  0.00  0.00     0.054 C 
ATOM      9  C   UNL d   1      -1.760   1.222   3.035  0.00  0.00     0.018 C 
ENDBRANCH   1   8
TORSDOF 1
ENDMDL
