MODEL 1
REMARK minimizedAffinity 11.7092371
REMARK minimizedRMSD -1
REMARK  1 active torsions:
REMARK  status: ('A' for Active; 'I' for Inactive)
REMARK    1  A    between atoms: C1_2  and  C2_3 
ROOT
ATOM      1  C2  UNL d   1       1.536   2.657   2.384  0.00  0.00    -0.081 A 
ATOM      2  C3  UNL d   1       2.829   2.441   2.875  0.00  0.00     0.006 A 
ATOM      3  C4  UNL d   1       3.071   1.435   3.814  0.00  0.00     0.002 A 
ATOM      4  C5  UNL d   1       2.026   0.624   4.271  0.00  0.00    -0.080 A 
ATOM      5  C6  UNL d   1       2.278  -0.478   5.256  0.00  0.00     0.076 C 
ATOM      6  C7  UNL d   1       0.731   0.852   3.794  0.00  0.00     0.002 A 
ATOM      7  C8  UNL d   1       0.489   1.857   2.855  0.00  0.00     0.006 A 
ENDROOT
BRANCH   1   8
ATOM      8  C1  UNL d   1       1.283   3.698   1.323  0.00  0.00     0.054 C 
ATOM      9  C   UNL d   1      -0.032   3.443   0.601  0.00  0.00     0.018 C 
ENDBRANCH   1   8
TORSDOF 1
ENDMDL
