MODEL 1
REMARK minimizedAffinity 10.4004354
REMARK minimizedRMSD -1
REMARK  1 active torsions:
REMARK  status: ('A' for Active; 'I' for Inactive)
REMARK    1  A    between atoms: C1_2  and  C2_3 
ROOT
ATOM      1  C2  UNL d   1       4.313  -5.210  -2.160  0.00  0.00    -0.081 A 
ATOM      2  C3  UNL d   1       4.130  -4.957  -3.525  0.00  0.00     0.006 A 
ATOM      3  C4  UNL d   1       2.902  -5.219  -4.136  0.00  0.00     0.002 A 
ATOM      4  C5  UNL d   1       1.833  -5.731  -3.391  0.00  0.00    -0.080 A 
ATOM      5  C6  UNL d   1       0.500  -5.988  -4.028  0.00  0.00     0.076 C 
ATOM      6  C7  UNL d   1       2.021  -6.000  -2.031  0.00  0.00     0.002 A 
ATOM      7  C8  UNL d   1       3.249  -5.739  -1.420  0.00  0.00     0.006 A 
ENDROOT
BRANCH   1   8
ATOM      8  C1  UNL d   1       5.616  -4.868  -1.485  0.00  0.00     0.054 C 
ATOM      9  C   UNL d   1       5.795  -5.656  -0.195  0.00  0.00     0.018 C 
ENDBRANCH   1   8
TORSDOF 1
ENDMDL
