MODEL 1
REMARK minimizedAffinity 1.82286048
REMARK minimizedRMSD -1
REMARK  1 active torsions:
REMARK  status: ('A' for Active; 'I' for Inactive)
REMARK    1  A    between atoms: C1_2  and  C2_3 
ROOT
ATOM      1  C2  UNL d   1       1.584  -1.095   0.941  0.00  0.00    -0.073 A 
ATOM      2  C3  UNL d   1       2.147  -0.784   2.184  0.00  0.00    -0.002 A 
ATOM      3  C4  UNL d   1       1.375  -0.853   3.344  0.00  0.00     0.004 A 
ATOM      4  C5  UNL d   1       0.037  -1.239   3.276  0.00  0.00    -0.004 A 
ATOM      5  C6  UNL d   1      -0.541  -1.565   2.045  0.00  0.00    -0.075 A 
ATOM      6  C7  UNL d   1      -1.980  -1.980   1.954  0.00  0.00     0.076 C 
ATOM      7  C8  UNL d   1       0.240  -1.491   0.883  0.00  0.00     0.001 A 
ENDROOT
BRANCH   1   8
ATOM      8  C1  UNL d   1       2.414  -1.029  -0.314  0.00  0.00     0.053 C 
ATOM      9  C   UNL d   1       1.554  -1.026  -1.568  0.00  0.00     0.018 C 
ENDBRANCH   1   8
TORSDOF 1
ENDMDL
