MODEL 1
REMARK minimizedAffinity 6.43518829
REMARK minimizedRMSD -1
REMARK  1 active torsions:
REMARK  status: ('A' for Active; 'I' for Inactive)
REMARK    1  A    between atoms: C1_2  and  C2_3 
ROOT
ATOM      1  C2  UNL d   1      -4.705  -0.147  -4.865  0.00  0.00    -0.073 A 
ATOM      2  C3  UNL d   1      -3.463  -0.024  -5.498  0.00  0.00    -0.002 A 
ATOM      3  C4  UNL d   1      -3.047   1.210  -6.000  0.00  0.00     0.004 A 
ATOM      4  C5  UNL d   1      -3.864   2.333  -5.869  0.00  0.00    -0.004 A 
ATOM      5  C6  UNL d   1      -5.104   2.232  -5.229  0.00  0.00    -0.075 A 
ATOM      6  C7  UNL d   1      -5.996   3.430  -5.082  0.00  0.00     0.076 C 
ATOM      7  C8  UNL d   1      -5.516   0.989  -4.730  0.00  0.00     0.001 A 
ENDROOT
BRANCH   1   8
ATOM      8  C1  UNL d   1      -5.155  -1.476  -4.316  0.00  0.00     0.053 C 
ATOM      9  C   UNL d   1      -3.983  -2.335  -3.869  0.00  0.00     0.018 C 
ENDBRANCH   1   8
TORSDOF 1
ENDMDL
