MODEL 1
REMARK minimizedAffinity 9.88165474
REMARK minimizedRMSD -1
REMARK  1 active torsions:
REMARK  status: ('A' for Active; 'I' for Inactive)
REMARK    1  A    between atoms: C1_2  and  C2_3 
ROOT
ATOM      1  C2  UNL d   1      -2.357   0.091   2.282  0.00  0.00    -0.073 A 
ATOM      2  C3  UNL d   1      -1.894   0.851   3.362  0.00  0.00    -0.002 A 
ATOM      3  C4  UNL d   1      -0.655   0.573   3.940  0.00  0.00     0.004 A 
ATOM      4  C5  UNL d   1       0.137  -0.461   3.440  0.00  0.00    -0.004 A 
ATOM      5  C6  UNL d   1      -0.303  -1.224   2.354  0.00  0.00    -0.075 A 
ATOM      6  C7  UNL d   1       0.535  -2.341   1.806  0.00  0.00     0.076 C 
ATOM      7  C8  UNL d   1      -1.550  -0.940   1.781  0.00  0.00     0.001 A 
ENDROOT
BRANCH   1   8
ATOM      8  C1  UNL d   1      -3.692   0.392   1.650  0.00  0.00     0.053 C 
ATOM      9  C   UNL d   1      -4.830   0.304   2.655  0.00  0.00     0.018 C 
ENDBRANCH   1   8
TORSDOF 1
ENDMDL
