MODEL 1
REMARK minimizedAffinity -3.54228616
REMARK minimizedRMSD -1
REMARK  1 active torsions:
REMARK  status: ('A' for Active; 'I' for Inactive)
REMARK    1  A    between atoms: C1_2  and  C2_3 
ROOT
ATOM      1  C2  UNL d   1       1.923  -0.551  -1.112  0.00  0.00    -0.073 A 
ATOM      2  C3  UNL d   1       3.282  -0.306  -1.339  0.00  0.00    -0.002 A 
ATOM      3  C4  UNL d   1       3.689   0.867  -1.977  0.00  0.00     0.004 A 
ATOM      4  C5  UNL d   1       2.745   1.808  -2.386  0.00  0.00    -0.004 A 
ATOM      5  C6  UNL d   1       1.383   1.586  -2.158  0.00  0.00    -0.075 A 
ATOM      6  C7  UNL d   1       0.354   2.587  -2.594  0.00  0.00     0.076 C 
ATOM      7  C8  UNL d   1       0.981   0.405  -1.519  0.00  0.00     0.001 A 
ENDROOT
BRANCH   1   8
ATOM      8  C1  UNL d   1       1.479  -1.813  -0.419  0.00  0.00     0.053 C 
ATOM      9  C   UNL d   1       2.236  -2.047   0.879  0.00  0.00     0.018 C 
ENDBRANCH   1   8
TORSDOF 1
ENDMDL
