MODEL 1
REMARK minimizedAffinity 13.248807
REMARK minimizedRMSD -1
REMARK  1 active torsions:
REMARK  status: ('A' for Active; 'I' for Inactive)
REMARK    1  A    between atoms: C1_2  and  C2_3 
ROOT
ATOM      1  C2  UNL d   1       1.703   1.349  -2.229  0.00  0.00    -0.073 A 
ATOM      2  C3  UNL d   1       2.104   0.038  -2.508  0.00  0.00    -0.002 A 
ATOM      3  C4  UNL d   1       2.844  -0.688  -1.574  0.00  0.00     0.004 A 
ATOM      4  C5  UNL d   1       3.185  -0.114  -0.350  0.00  0.00    -0.004 A 
ATOM      5  C6  UNL d   1       2.784   1.192  -0.047  0.00  0.00    -0.075 A 
ATOM      6  C7  UNL d   1       3.144   1.825   1.265  0.00  0.00     0.076 C 
ATOM      7  C8  UNL d   1       2.043   1.915  -0.991  0.00  0.00     0.001 A 
ENDROOT
BRANCH   1   8
ATOM      8  C1  UNL d   1       0.899   2.134  -3.232  0.00  0.00     0.053 C 
ATOM      9  C   UNL d   1      -0.460   2.538  -2.682  0.00  0.00     0.018 C 
ENDBRANCH   1   8
TORSDOF 1
ENDMDL
