MODEL 1
REMARK minimizedAffinity 1.852476
REMARK minimizedRMSD -1
REMARK  1 active torsions:
REMARK  status: ('A' for Active; 'I' for Inactive)
REMARK    1  A    between atoms: C1_2  and  C2_3 
ROOT
ATOM      1  C2  UNL d   1       1.641   2.323  -2.014  0.00  0.00    -0.073 A 
ATOM      2  C3  UNL d   1       0.873   3.346  -2.582  0.00  0.00    -0.002 A 
ATOM      3  C4  UNL d   1      -0.434   3.096  -3.001  0.00  0.00     0.004 A 
ATOM      4  C5  UNL d   1      -0.989   1.825  -2.852  0.00  0.00    -0.004 A 
ATOM      5  C6  UNL d   1      -0.242   0.793  -2.276  0.00  0.00    -0.075 A 
ATOM      6  C7  UNL d   1      -0.823  -0.580  -2.110  0.00  0.00     0.076 C 
ATOM      7  C8  UNL d   1       1.071   1.051  -1.859  0.00  0.00     0.001 A 
ENDROOT
BRANCH   1   8
ATOM      8  C1  UNL d   1       3.050   2.589  -1.553  0.00  0.00     0.053 C 
ATOM      9  C   UNL d   1       3.207   2.392  -0.054  0.00  0.00     0.018 C 
ENDBRANCH   1   8
TORSDOF 1
ENDMDL
