MODEL 1
REMARK minimizedAffinity 5.92700243
REMARK minimizedRMSD -1
REMARK  1 active torsions:
REMARK  status: ('A' for Active; 'I' for Inactive)
REMARK    1  A    between atoms: C1_2  and  C2_3 
ROOT
ATOM      1  C2  UNL d   1      -4.313   1.240   4.038  0.00  0.00    -0.073 A 
ATOM      2  C3  UNL d   1      -5.209   1.408   2.977  0.00  0.00    -0.002 A 
ATOM      3  C4  UNL d   1      -4.951   0.821   1.737  0.00  0.00     0.004 A 
ATOM      4  C5  UNL d   1      -3.800   0.057   1.548  0.00  0.00    -0.004 A 
ATOM      5  C6  UNL d   1      -2.898  -0.132   2.600  0.00  0.00    -0.075 A 
ATOM      6  C7  UNL d   1      -1.654  -0.950   2.412  0.00  0.00     0.076 C 
ATOM      7  C8  UNL d   1      -3.163   0.462   3.841  0.00  0.00     0.001 A 
ENDROOT
BRANCH   1   8
ATOM      8  C1  UNL d   1      -4.590   1.865   5.381  0.00  0.00     0.053 C 
ATOM      9  C   UNL d   1      -4.045   3.282   5.473  0.00  0.00     0.018 C 
ENDBRANCH   1   8
TORSDOF 1
ENDMDL
