MODEL 1
REMARK minimizedAffinity 0.00051653455
REMARK minimizedRMSD -1
REMARK  0 active torsions:
REMARK  status: ('A' for Active; 'I' for Inactive)
ROOT
ATOM      1  C   UNL d   1       3.012  -0.896   0.446  0.00  0.00    -0.002 A 
ATOM      2  C1  UNL d   1       2.286  -1.398   1.517  0.00  0.00     0.010 A 
ATOM      3  C2  UNL d   1       0.930  -1.098   1.660  0.00  0.00     0.041 A 
ATOM      4  C3  UNL d   1       0.309  -0.278   0.697  0.00  0.00    -0.075 A 
ATOM      5  S   UNL d   1      -1.341   0.221   0.666  0.00  0.00     0.015 SA
ATOM      6  C4  UNL d   1      -1.122   1.113  -0.770  0.00  0.00     0.022 A 
ATOM      7  C5  UNL d   1       0.173   1.042  -1.228  0.00  0.00     0.026 A 
ATOM      8  C6  UNL d   1       1.018   0.239  -0.391  0.00  0.00    -0.082 A 
ATOM      9  C7  UNL d   1       2.392  -0.083  -0.506  0.00  0.00     0.045 A 
ENDROOT
TORSDOF 0
ENDMDL
