MODEL 1
REMARK minimizedAffinity -2.04487872
REMARK minimizedRMSD -1
REMARK  0 active torsions:
REMARK  status: ('A' for Active; 'I' for Inactive)
ROOT
ATOM      1  C   UNL d   1       0.072  -1.929   3.354  0.00  0.00    -0.002 A 
ATOM      2  C1  UNL d   1      -1.111  -1.219   3.203  0.00  0.00     0.010 A 
ATOM      3  C2  UNL d   1      -1.370  -0.513   2.027  0.00  0.00     0.041 A 
ATOM      4  C3  UNL d   1      -0.412  -0.534   0.994  0.00  0.00    -0.075 A 
ATOM      5  S   UNL d   1      -0.514   0.256  -0.535  0.00  0.00     0.015 SA
ATOM      6  C4  UNL d   1       1.009  -0.331  -1.024  0.00  0.00     0.022 A 
ATOM      7  C5  UNL d   1       1.596  -1.112  -0.057  0.00  0.00     0.026 A 
ATOM      8  C6  UNL d   1       0.786  -1.242   1.122  0.00  0.00    -0.082 A 
ATOM      9  C7  UNL d   1       1.020  -1.947   2.327  0.00  0.00     0.045 A 
ENDROOT
TORSDOF 0
ENDMDL
