MODEL 1
REMARK minimizedAffinity -1.74210072
REMARK minimizedRMSD -1
REMARK  0 active torsions:
REMARK  status: ('A' for Active; 'I' for Inactive)
ROOT
ATOM      1  C   UNL d   1       3.415  -0.346  -1.329  0.00  0.00    -0.002 A 
ATOM      2  C1  UNL d   1       3.356  -1.469  -0.517  0.00  0.00     0.010 A 
ATOM      3  C2  UNL d   1       2.252  -1.691   0.309  0.00  0.00     0.041 A 
ATOM      4  C3  UNL d   1       1.197  -0.757   0.303  0.00  0.00    -0.075 A 
ATOM      5  S   UNL d   1      -0.255  -0.822   1.230  0.00  0.00     0.015 SA
ATOM      6  C4  UNL d   1      -0.831   0.639   0.569  0.00  0.00     0.022 A 
ATOM      7  C5  UNL d   1       0.051   1.178  -0.338  0.00  0.00     0.026 A 
ATOM      8  C6  UNL d   1       1.234   0.382  -0.507  0.00  0.00    -0.082 A 
ATOM      9  C7  UNL d   1       2.367   0.579  -1.332  0.00  0.00     0.045 A 
ENDROOT
TORSDOF 0
ENDMDL
