MODEL 1
REMARK minimizedAffinity -1.11322582
REMARK minimizedRMSD -1
REMARK  0 active torsions:
REMARK  status: ('A' for Active; 'I' for Inactive)
ROOT
ATOM      1  C   UNL d   1      -2.501   2.152  -3.002  0.00  0.00    -0.002 A 
ATOM      2  C1  UNL d   1      -2.329   0.910  -3.597  0.00  0.00     0.010 A 
ATOM      3  C2  UNL d   1      -1.473  -0.036  -3.030  0.00  0.00     0.041 A 
ATOM      4  C3  UNL d   1      -0.788   0.289  -1.843  0.00  0.00    -0.075 A 
ATOM      5  S   UNL d   1       0.310  -0.712  -0.969  0.00  0.00     0.015 SA
ATOM      6  C4  UNL d   1       0.576   0.486   0.215  0.00  0.00     0.022 A 
ATOM      7  C5  UNL d   1      -0.148   1.627  -0.035  0.00  0.00     0.026 A 
ATOM      8  C6  UNL d   1      -0.946   1.533  -1.225  0.00  0.00    -0.082 A 
ATOM      9  C7  UNL d   1      -1.820   2.471  -1.825  0.00  0.00     0.045 A 
ENDROOT
TORSDOF 0
ENDMDL
