MODEL 1
REMARK minimizedAffinity -3.76722646
REMARK minimizedRMSD -1
REMARK  0 active torsions:
REMARK  status: ('A' for Active; 'I' for Inactive)
ROOT
ATOM      1  C   UNL d   1      -0.428   4.134  -3.375  0.00  0.00    -0.002 A 
ATOM      2  C1  UNL d   1      -1.467   3.353  -3.861  0.00  0.00     0.010 A 
ATOM      3  C2  UNL d   1      -1.859   2.193  -3.189  0.00  0.00     0.041 A 
ATOM      4  C3  UNL d   1      -1.184   1.829  -2.008  0.00  0.00    -0.075 A 
ATOM      5  S   UNL d   1      -1.492   0.453  -1.017  0.00  0.00     0.015 SA
ATOM      6  C4  UNL d   1      -0.252   0.869   0.076  0.00  0.00     0.022 A 
ATOM      7  C5  UNL d   1       0.391   2.027  -0.291  0.00  0.00     0.026 A 
ATOM      8  C6  UNL d   1      -0.135   2.600  -1.498  0.00  0.00    -0.082 A 
ATOM      9  C7  UNL d   1       0.239   3.769  -2.202  0.00  0.00     0.045 A 
ENDROOT
TORSDOF 0
ENDMDL
