MODEL 1
REMARK minimizedAffinity -3.69718647
REMARK minimizedRMSD -1
REMARK  0 active torsions:
REMARK  status: ('A' for Active; 'I' for Inactive)
ROOT
ATOM      1  C   UNL d   1      -1.291   0.045   0.415  0.00  0.00    -0.002 A 
ATOM      2  C1  UNL d   1      -0.124   0.591  -0.099  0.00  0.00     0.010 A 
ATOM      3  C2  UNL d   1       1.099  -0.060   0.071  0.00  0.00     0.041 A 
ATOM      4  C3  UNL d   1       1.130  -1.282   0.771  0.00  0.00    -0.075 A 
ATOM      5  S   UNL d   1       2.513  -2.257   1.099  0.00  0.00     0.015 SA
ATOM      6  C4  UNL d   1       1.587  -3.423   1.929  0.00  0.00     0.022 A 
ATOM      7  C5  UNL d   1       0.253  -3.092   1.965  0.00  0.00     0.026 A 
ATOM      8  C6  UNL d   1      -0.032  -1.853   1.297  0.00  0.00    -0.082 A 
ATOM      9  C7  UNL d   1      -1.257  -1.168   1.109  0.00  0.00     0.045 A 
ENDROOT
TORSDOF 0
ENDMDL
