MODEL 1
REMARK minimizedAffinity -4.22788715
REMARK minimizedRMSD -1
REMARK  0 active torsions:
REMARK  status: ('A' for Active; 'I' for Inactive)
ROOT
ATOM      1  C   UNL d   1       1.865  -2.221   0.337  0.00  0.00    -0.002 A 
ATOM      2  C1  UNL d   1       2.464  -0.997   0.598  0.00  0.00     0.010 A 
ATOM      3  C2  UNL d   1       1.808   0.196   0.288  0.00  0.00     0.041 A 
ATOM      4  C3  UNL d   1       0.525   0.137  -0.292  0.00  0.00    -0.075 A 
ATOM      5  S   UNL d   1      -0.469   1.468  -0.755  0.00  0.00     0.015 SA
ATOM      6  C4  UNL d   1      -1.712   0.443  -1.309  0.00  0.00     0.022 A 
ATOM      7  C5  UNL d   1      -1.394  -0.886  -1.152  0.00  0.00     0.026 A 
ATOM      8  C6  UNL d   1      -0.099  -1.084  -0.563  0.00  0.00    -0.082 A 
ATOM      9  C7  UNL d   1       0.593  -2.275  -0.239  0.00  0.00     0.045 A 
ENDROOT
TORSDOF 0
ENDMDL
