MODEL 1
REMARK minimizedAffinity -3.04832077
REMARK minimizedRMSD -1
REMARK  0 active torsions:
REMARK  status: ('A' for Active; 'I' for Inactive)
ROOT
ATOM      1  C   UNL d   1      -0.843   1.123  -0.231  0.00  0.00    -0.002 A 
ATOM      2  C1  UNL d   1       0.431   1.481  -0.649  0.00  0.00     0.010 A 
ATOM      3  C2  UNL d   1       1.507   0.608  -0.475  0.00  0.00     0.041 A 
ATOM      4  C3  UNL d   1       1.278  -0.643   0.131  0.00  0.00    -0.075 A 
ATOM      5  S   UNL d   1       2.444  -1.874   0.446  0.00  0.00     0.015 SA
ATOM      6  C4  UNL d   1       1.278  -2.904   1.143  0.00  0.00     0.022 A 
ATOM      7  C5  UNL d   1       0.025  -2.339   1.143  0.00  0.00     0.026 A 
ATOM      8  C6  UNL d   1       0.004  -1.027   0.559  0.00  0.00    -0.082 A 
ATOM      9  C7  UNL d   1      -1.066  -0.119   0.370  0.00  0.00     0.045 A 
ENDROOT
TORSDOF 0
ENDMDL
