MODEL 1
REMARK minimizedAffinity -3.84110856
REMARK minimizedRMSD -1
REMARK  0 active torsions:
REMARK  status: ('A' for Active; 'I' for Inactive)
ROOT
ATOM      1  C   UNL d   1      -2.231   1.260  -3.807  0.00  0.00    -0.002 A 
ATOM      2  C1  UNL d   1      -1.514   2.428  -3.591  0.00  0.00     0.010 A 
ATOM      3  C2  UNL d   1      -0.720   2.574  -2.452  0.00  0.00     0.041 A 
ATOM      4  C3  UNL d   1      -0.658   1.515  -1.524  0.00  0.00    -0.075 A 
ATOM      5  S   UNL d   1       0.247   1.469  -0.058  0.00  0.00     0.015 SA
ATOM      6  C4  UNL d   1      -0.296  -0.102   0.316  0.00  0.00     0.022 A 
ATOM      7  C5  UNL d   1      -1.148  -0.595  -0.644  0.00  0.00     0.026 A 
ATOM      8  C6  UNL d   1      -1.371   0.329  -1.720  0.00  0.00    -0.082 A 
ATOM      9  C7  UNL d   1      -2.167   0.212  -2.885  0.00  0.00     0.045 A 
ENDROOT
TORSDOF 0
ENDMDL
