MODEL 1
REMARK minimizedAffinity 3.79420352
REMARK minimizedRMSD -1
REMARK  0 active torsions:
REMARK  status: ('A' for Active; 'I' for Inactive)
ROOT
ATOM      1  C   UNL d   1      -0.165  -2.326   1.249  0.00  0.00    -0.002 A 
ATOM      2  C1  UNL d   1       0.758  -3.129   1.905  0.00  0.00     0.010 A 
ATOM      3  C2  UNL d   1       2.119  -2.818   1.874  0.00  0.00     0.041 A 
ATOM      4  C3  UNL d   1       2.540  -1.674   1.168  0.00  0.00    -0.075 A 
ATOM      5  S   UNL d   1       4.156  -1.097   0.994  0.00  0.00     0.015 SA
ATOM      6  C4  UNL d   1       3.659   0.229   0.046  0.00  0.00     0.022 A 
ATOM      7  C5  UNL d   1       2.298   0.246  -0.144  0.00  0.00     0.026 A 
ATOM      8  C6  UNL d   1       1.630  -0.850   0.500  0.00  0.00    -0.082 A 
ATOM      9  C7  UNL d   1       0.258  -1.193   0.549  0.00  0.00     0.045 A 
ENDROOT
TORSDOF 0
ENDMDL
