MODEL 1
REMARK minimizedAffinity -2.83197713
REMARK minimizedRMSD -1
REMARK  0 active torsions:
REMARK  status: ('A' for Active; 'I' for Inactive)
ROOT
ATOM      1  C   UNL d   1       0.856   0.103   0.517  0.00  0.00    -0.002 A 
ATOM      2  C1  UNL d   1       0.810  -0.883  -0.458  0.00  0.00     0.010 A 
ATOM      3  C2  UNL d   1      -0.062  -0.769  -1.543  0.00  0.00     0.041 A 
ATOM      4  C3  UNL d   1      -0.893   0.365  -1.634  0.00  0.00    -0.075 A 
ATOM      5  S   UNL d   1      -2.038   0.718  -2.873  0.00  0.00     0.015 SA
ATOM      6  C4  UNL d   1      -2.491   2.188  -2.138  0.00  0.00     0.022 A 
ATOM      7  C5  UNL d   1      -1.796   2.419  -0.975  0.00  0.00     0.026 A 
ATOM      8  C6  UNL d   1      -0.863   1.372  -0.665  0.00  0.00    -0.082 A 
ATOM      9  C7  UNL d   1       0.031   1.227   0.423  0.00  0.00     0.045 A 
ENDROOT
TORSDOF 0
ENDMDL
