MODEL 1
REMARK minimizedAffinity 1.6039809
REMARK minimizedRMSD -1
REMARK  0 active torsions:
REMARK  status: ('A' for Active; 'I' for Inactive)
ROOT
ATOM      1  C   UNL d   1      -1.729  -0.658   1.952  0.00  0.00    -0.002 A 
ATOM      2  C1  UNL d   1      -0.751  -1.605   1.681  0.00  0.00     0.010 A 
ATOM      3  C2  UNL d   1       0.280  -1.323   0.782  0.00  0.00     0.041 A 
ATOM      4  C3  UNL d   1       0.312  -0.062   0.155  0.00  0.00    -0.075 A 
ATOM      5  S   UNL d   1       1.479   0.505  -0.980  0.00  0.00     0.015 SA
ATOM      6  C4  UNL d   1       0.707   2.017  -1.131  0.00  0.00     0.022 A 
ATOM      7  C5  UNL d   1      -0.415   2.104  -0.343  0.00  0.00     0.026 A 
ATOM      8  C6  UNL d   1      -0.661   0.908   0.413  0.00  0.00    -0.082 A 
ATOM      9  C7  UNL d   1      -1.694   0.592   1.328  0.00  0.00     0.045 A 
ENDROOT
TORSDOF 0
ENDMDL
