MODEL 1
REMARK minimizedAffinity -1.28500688
REMARK minimizedRMSD -1
REMARK  0 active torsions:
REMARK  status: ('A' for Active; 'I' for Inactive)
ROOT
ATOM      1  C   UNL d   1       1.464  -2.364   1.210  0.00  0.00    -0.002 A 
ATOM      2  C1  UNL d   1       0.099  -2.394   1.456  0.00  0.00     0.010 A 
ATOM      3  C2  UNL d   1      -0.724  -1.351   1.027  0.00  0.00     0.041 A 
ATOM      4  C3  UNL d   1      -0.146  -0.266   0.338  0.00  0.00    -0.075 A 
ATOM      5  S   UNL d   1      -0.957   1.123  -0.283  0.00  0.00     0.015 SA
ATOM      6  C4  UNL d   1       0.490   1.789  -0.889  0.00  0.00     0.022 A 
ATOM      7  C5  UNL d   1       1.575   0.985  -0.633  0.00  0.00     0.026 A 
ATOM      8  C6  UNL d   1       1.227  -0.213   0.078  0.00  0.00    -0.082 A 
ATOM      9  C7  UNL d   1       2.034  -1.286   0.527  0.00  0.00     0.045 A 
ENDROOT
TORSDOF 0
ENDMDL
