MODEL 1
REMARK minimizedAffinity -5.4948988
REMARK minimizedRMSD -1
REMARK  0 active torsions:
REMARK  status: ('A' for Active; 'I' for Inactive)
ROOT
ATOM      1  C4' PXY d   1       0.719   0.484  -0.447  0.00  0.00     0.077 C 
ATOM      2  C1' PXY d   1       2.600   5.886  -1.285  0.00  0.00     0.077 C 
ATOM      3  C1  PXY d   1       2.114   4.469  -1.054  0.00  0.00    -0.082 A 
ATOM      4  C2  PXY d   1       1.689   3.748  -2.079  0.00  0.00     0.003 A 
ATOM      5  C3  PXY d   1       1.216   2.475  -1.884  0.00  0.00     0.003 A 
ATOM      6  C4  PXY d   1       1.228   1.916  -0.634  0.00  0.00    -0.082 A 
ATOM      7  C5  PXY d   1       1.669   2.642   0.415  0.00  0.00     0.003 A 
ATOM      8  C6  PXY d   1       2.107   3.946   0.202  0.00  0.00     0.003 A 
ENDROOT
TORSDOF 0
ENDMDL
