MODEL 1
REMARK minimizedAffinity -4.97639227
REMARK minimizedRMSD -1
REMARK  0 active torsions:
REMARK  status: ('A' for Active; 'I' for Inactive)
ROOT
ATOM      1  C4' PXY d   1       1.102  -0.167  -0.748  0.00  0.00     0.077 C 
ATOM      2  C1' PXY d   1       1.253   5.597  -0.334  0.00  0.00     0.077 C 
ATOM      3  C1  PXY d   1       1.216   4.085  -0.429  0.00  0.00    -0.082 A 
ATOM      4  C2  PXY d   1       1.444   3.497  -1.593  0.00  0.00     0.003 A 
ATOM      5  C3  PXY d   1       1.383   2.132  -1.704  0.00  0.00     0.003 A 
ATOM      6  C4  PXY d   1       1.138   1.357  -0.602  0.00  0.00    -0.082 A 
ATOM      7  C5  PXY d   1       0.914   1.949   0.591  0.00  0.00     0.003 A 
ATOM      8  C6  PXY d   1       0.940   3.338   0.674  0.00  0.00     0.003 A 
ENDROOT
TORSDOF 0
ENDMDL
