MODEL 1
REMARK minimizedAffinity -5.68867445
REMARK minimizedRMSD -1
REMARK  0 active torsions:
REMARK  status: ('A' for Active; 'I' for Inactive)
ROOT
ATOM      1  C4' PXY d   1       0.911  -0.471  -1.085  0.00  0.00     0.077 C 
ATOM      2  C1' PXY d   1       1.784   5.238  -0.840  0.00  0.00     0.077 C 
ATOM      3  C1  PXY d   1       1.559   3.740  -0.892  0.00  0.00    -0.082 A 
ATOM      4  C2  PXY d   1       1.531   3.123  -2.062  0.00  0.00     0.003 A 
ATOM      5  C3  PXY d   1       1.297   1.774  -2.130  0.00  0.00     0.003 A 
ATOM      6  C4  PXY d   1       1.144   1.039  -0.984  0.00  0.00    -0.082 A 
ATOM      7  C5  PXY d   1       1.183   1.659   0.214  0.00  0.00     0.003 A 
ATOM      8  C6  PXY d   1       1.380   3.037   0.259  0.00  0.00     0.003 A 
ENDROOT
TORSDOF 0
ENDMDL
