MODEL 1
REMARK minimizedAffinity -5.17468166
REMARK minimizedRMSD -1
REMARK  0 active torsions:
REMARK  status: ('A' for Active; 'I' for Inactive)
ROOT
ATOM      1  C4' PXY d   1       0.750   3.183   0.375  0.00  0.00     0.077 C 
ATOM      2  C1' PXY d   1       1.364  -2.250  -1.500  0.00  0.00     0.077 C 
ATOM      3  C1  PXY d   1       1.204  -0.821  -1.021  0.00  0.00    -0.082 A 
ATOM      4  C2  PXY d   1       1.500  -0.514   0.232  0.00  0.00     0.003 A 
ATOM      5  C3  PXY d   1       1.331   0.767   0.691  0.00  0.00     0.003 A 
ATOM      6  C4  PXY d   1       0.905   1.755  -0.155  0.00  0.00    -0.082 A 
ATOM      7  C5  PXY d   1       0.611   1.453  -1.438  0.00  0.00     0.003 A 
ATOM      8  C6  PXY d   1       0.750   0.138  -1.873  0.00  0.00     0.003 A 
ENDROOT
TORSDOF 0
ENDMDL
