MODEL 1
REMARK minimizedAffinity -5.15250301
REMARK minimizedRMSD -1
REMARK  0 active torsions:
REMARK  status: ('A' for Active; 'I' for Inactive)
ROOT
ATOM      1  C4' PXY d   1       1.632   5.351  -0.709  0.00  0.00     0.077 C 
ATOM      2  C1' PXY d   1       1.048  -0.387  -0.325  0.00  0.00     0.077 C 
ATOM      3  C1  PXY d   1       1.194   1.119  -0.414  0.00  0.00    -0.082 A 
ATOM      4  C2  PXY d   1       1.418   1.686  -1.589  0.00  0.00     0.003 A 
ATOM      5  C3  PXY d   1       1.585   3.043  -1.684  0.00  0.00     0.003 A 
ATOM      6  C4  PXY d   1       1.468   3.835  -0.572  0.00  0.00    -0.082 A 
ATOM      7  C5  PXY d   1       1.229   3.265   0.628  0.00  0.00     0.003 A 
ATOM      8  C6  PXY d   1       1.104   1.882   0.709  0.00  0.00     0.003 A 
ENDROOT
TORSDOF 0
ENDMDL
