MODEL 1
REMARK minimizedAffinity 5.35184908
REMARK minimizedRMSD -1
REMARK  0 active torsions:
REMARK  status: ('A' for Active; 'I' for Inactive)
ROOT
ATOM      1  C4' PXY d   1       0.889   2.339  -2.708  0.00  0.00     0.077 C 
ATOM      2  C1' PXY d   1       1.484   0.029   2.558  0.00  0.00     0.077 C 
ATOM      3  C1  PXY d   1       1.332   0.624   1.172  0.00  0.00    -0.082 A 
ATOM      4  C2  PXY d   1       1.351   1.938   1.018  0.00  0.00     0.003 A 
ATOM      5  C3  PXY d   1       1.183   2.493  -0.224  0.00  0.00     0.003 A 
ATOM      6  C4  PXY d   1       1.048   1.694  -1.328  0.00  0.00    -0.082 A 
ATOM      7  C5  PXY d   1       1.039   0.352  -1.181  0.00  0.00     0.003 A 
ATOM      8  C6  PXY d   1       1.169  -0.191   0.094  0.00  0.00     0.003 A 
ENDROOT
TORSDOF 0
ENDMDL
