MODEL 1
REMARK minimizedAffinity -1.13047564
REMARK minimizedRMSD -1
REMARK  0 active torsions:
REMARK  status: ('A' for Active; 'I' for Inactive)
ROOT
ATOM      1  C4' PXY d   1       0.968   3.761   1.843  0.00  0.00     0.077 C 
ATOM      2  C1' PXY d   1       0.945   1.044  -3.259  0.00  0.00     0.077 C 
ATOM      3  C1  PXY d   1       0.942   1.748  -1.917  0.00  0.00    -0.082 A 
ATOM      4  C2  PXY d   1       1.281   3.025  -1.847  0.00  0.00     0.003 A 
ATOM      5  C3  PXY d   1       1.315   3.669  -0.637  0.00  0.00     0.003 A 
ATOM      6  C4  PXY d   1       0.947   3.013   0.507  0.00  0.00    -0.082 A 
ATOM      7  C5  PXY d   1       0.591   1.712   0.443  0.00  0.00     0.003 A 
ATOM      8  C6  PXY d   1       0.603   1.066  -0.790  0.00  0.00     0.003 A 
ENDROOT
TORSDOF 0
ENDMDL
