MODEL 1
REMARK minimizedAffinity 2.46574402
REMARK minimizedRMSD -1
REMARK  0 active torsions:
REMARK  status: ('A' for Active; 'I' for Inactive)
ROOT
ATOM      1  C4' PXY d   1       0.755  -0.101  -0.538  0.00  0.00     0.077 C 
ATOM      2  C1' PXY d   1       1.918   5.496  -1.395  0.00  0.00     0.077 C 
ATOM      3  C1  PXY d   1       1.617   4.029  -1.158  0.00  0.00    -0.082 A 
ATOM      4  C2  PXY d   1       1.660   3.180  -2.172  0.00  0.00     0.003 A 
ATOM      5  C3  PXY d   1       1.359   1.856  -1.981  0.00  0.00     0.003 A 
ATOM      6  C4  PXY d   1       1.062   1.386  -0.730  0.00  0.00    -0.082 A 
ATOM      7  C5  PXY d   1       1.026   2.244   0.312  0.00  0.00     0.003 A 
ATOM      8  C6  PXY d   1       1.295   3.592   0.090  0.00  0.00     0.003 A 
ENDROOT
TORSDOF 0
ENDMDL
