MODEL 1
REMARK minimizedAffinity -2.3467257
REMARK minimizedRMSD -1
REMARK  0 active torsions:
REMARK  status: ('A' for Active; 'I' for Inactive)
ROOT
ATOM      1  C4' PXY d   1       1.131   4.904  -1.062  0.00  0.00     0.077 C 
ATOM      2  C1' PXY d   1       1.285  -0.848  -0.514  0.00  0.00     0.077 C 
ATOM      3  C1  PXY d   1       1.235   0.661  -0.648  0.00  0.00    -0.082 A 
ATOM      4  C2  PXY d   1       1.640   1.231  -1.771  0.00  0.00     0.003 A 
ATOM      5  C3  PXY d   1       1.632   2.596  -1.898  0.00  0.00     0.003 A 
ATOM      6  C4  PXY d   1       1.154   3.383  -0.885  0.00  0.00    -0.082 A 
ATOM      7  C5  PXY d   1       0.729   2.809   0.260  0.00  0.00     0.003 A 
ATOM      8  C6  PXY d   1       0.784   1.423   0.385  0.00  0.00     0.003 A 
ENDROOT
TORSDOF 0
ENDMDL
