MODEL 1
REMARK minimizedAffinity -4.05091953
REMARK minimizedRMSD -1
REMARK  0 active torsions:
REMARK  status: ('A' for Active; 'I' for Inactive)
ROOT
ATOM      1  C4' PXY d   1       0.730  -0.651  -0.778  0.00  0.00     0.077 C 
ATOM      2  C1' PXY d   1       1.680   5.051  -0.837  0.00  0.00     0.077 C 
ATOM      3  C1  PXY d   1       1.435   3.555  -0.810  0.00  0.00    -0.082 A 
ATOM      4  C2  PXY d   1       1.404   2.876  -1.945  0.00  0.00     0.003 A 
ATOM      5  C3  PXY d   1       1.152   1.528  -1.940  0.00  0.00     0.003 A 
ATOM      6  C4  PXY d   1       0.983   0.859  -0.758  0.00  0.00    -0.082 A 
ATOM      7  C5  PXY d   1       1.025   1.543   0.406  0.00  0.00     0.003 A 
ATOM      8  C6  PXY d   1       1.241   2.918   0.377  0.00  0.00     0.003 A 
ENDROOT
TORSDOF 0
ENDMDL
