MODEL 1
REMARK minimizedAffinity -2.24176455
REMARK minimizedRMSD -1
REMARK  0 active torsions:
REMARK  status: ('A' for Active; 'I' for Inactive)
ROOT
ATOM      1  C4' PXY d   1       1.089  -1.230  -0.742  0.00  0.00     0.077 C 
ATOM      2  C1' PXY d   1       1.421   4.507  -0.119  0.00  0.00     0.077 C 
ATOM      3  C1  PXY d   1       1.333   3.004  -0.296  0.00  0.00    -0.082 A 
ATOM      4  C2  PXY d   1       0.878   2.254   0.695  0.00  0.00     0.003 A 
ATOM      5  C3  PXY d   1       0.822   0.891   0.564  0.00  0.00     0.003 A 
ATOM      6  C4  PXY d   1       1.186   0.292  -0.612  0.00  0.00    -0.082 A 
ATOM      7  C5  PXY d   1       1.642   1.051  -1.631  0.00  0.00     0.003 A 
ATOM      8  C6  PXY d   1       1.730   2.430  -1.464  0.00  0.00     0.003 A 
ENDROOT
TORSDOF 0
ENDMDL
