MODEL 1
REMARK minimizedAffinity 2.31928849
REMARK minimizedRMSD -1
REMARK  0 active torsions:
REMARK  status: ('A' for Active; 'I' for Inactive)
ROOT
ATOM      1  C4' PXY d   1       1.478   3.099  -1.505  0.00  0.00     0.077 C 
ATOM      2  C1' PXY d   1       1.312  -2.632  -0.771  0.00  0.00     0.077 C 
ATOM      3  C1  PXY d   1       1.359  -1.128  -0.951  0.00  0.00    -0.082 A 
ATOM      4  C2  PXY d   1       0.659  -0.563  -1.922  0.00  0.00     0.003 A 
ATOM      5  C3  PXY d   1       0.715   0.793  -2.119  0.00  0.00     0.003 A 
ATOM      6  C4  PXY d   1       1.453   1.585  -1.281  0.00  0.00    -0.082 A 
ATOM      7  C5  PXY d   1       2.161   1.017  -0.281  0.00  0.00     0.003 A 
ATOM      8  C6  PXY d   1       2.124  -0.365  -0.124  0.00  0.00     0.003 A 
ENDROOT
TORSDOF 0
ENDMDL
