MODEL 1
REMARK minimizedAffinity -4.34612942
REMARK minimizedRMSD -1
REMARK  0 active torsions:
REMARK  status: ('A' for Active; 'I' for Inactive)
ROOT
ATOM      1  C4' PXY d   1       1.878   4.885  -1.482  0.00  0.00     0.077 C 
ATOM      2  C1' PXY d   1       0.881  -0.758  -0.719  0.00  0.00     0.077 C 
ATOM      3  C1  PXY d   1       1.135   0.725  -0.909  0.00  0.00    -0.082 A 
ATOM      4  C2  PXY d   1       1.460   1.185  -2.106  0.00  0.00     0.003 A 
ATOM      5  C3  PXY d   1       1.725   2.518  -2.288  0.00  0.00     0.003 A 
ATOM      6  C4  PXY d   1       1.603   3.397  -1.246  0.00  0.00    -0.082 A 
ATOM      7  C5  PXY d   1       1.262   2.937  -0.024  0.00  0.00     0.003 A 
ATOM      8  C6  PXY d   1       1.037   1.575   0.150  0.00  0.00     0.003 A 
ENDROOT
TORSDOF 0
ENDMDL
