MODEL 1
REMARK minimizedAffinity -2.40819597
REMARK minimizedRMSD -1
REMARK  0 active torsions:
REMARK  status: ('A' for Active; 'I' for Inactive)
ROOT
ATOM      1  C4' PXY d   1       2.089   5.187  -1.154  0.00  0.00     0.077 C 
ATOM      2  C1' PXY d   1       0.798  -0.374  -0.249  0.00  0.00     0.077 C 
ATOM      3  C1  PXY d   1       1.142   1.081  -0.498  0.00  0.00    -0.082 A 
ATOM      4  C2  PXY d   1       1.311   1.898   0.529  0.00  0.00     0.003 A 
ATOM      5  C3  PXY d   1       1.591   3.224   0.321  0.00  0.00     0.003 A 
ATOM      6  C4  PXY d   1       1.750   3.708  -0.950  0.00  0.00    -0.082 A 
ATOM      7  C5  PXY d   1       1.589   2.878  -2.002  0.00  0.00     0.003 A 
ATOM      8  C6  PXY d   1       1.265   1.544  -1.771  0.00  0.00     0.003 A 
ENDROOT
TORSDOF 0
ENDMDL
