MODEL 1
REMARK minimizedAffinity 0.118858084
REMARK minimizedRMSD -1
REMARK  0 active torsions:
REMARK  status: ('A' for Active; 'I' for Inactive)
ROOT
ATOM      1  C4' PXY d   1       1.913   5.294  -0.575  0.00  0.00     0.077 C 
ATOM      2  C1' PXY d   1       0.971  -0.204  -2.092  0.00  0.00     0.077 C 
ATOM      3  C1  PXY d   1       1.215   1.235  -1.682  0.00  0.00    -0.082 A 
ATOM      4  C2  PXY d   1       1.145   2.195  -2.590  0.00  0.00     0.003 A 
ATOM      5  C3  PXY d   1       1.394   3.498  -2.243  0.00  0.00     0.003 A 
ATOM      6  C4  PXY d   1       1.665   3.829  -0.942  0.00  0.00    -0.082 A 
ATOM      7  C5  PXY d   1       1.727   2.856  -0.007  0.00  0.00     0.003 A 
ATOM      8  C6  PXY d   1       1.512   1.535  -0.388  0.00  0.00     0.003 A 
ENDROOT
TORSDOF 0
ENDMDL
