MODEL 1
REMARK minimizedAffinity -1.74963617
REMARK minimizedRMSD -1
REMARK  0 active torsions:
REMARK  status: ('A' for Active; 'I' for Inactive)
ROOT
ATOM      1  C4' PXY d   1       0.384  -0.334  -1.312  0.00  0.00     0.077 C 
ATOM      2  C1' PXY d   1       2.032   5.193  -0.923  0.00  0.00     0.077 C 
ATOM      3  C1  PXY d   1       1.606   3.741  -1.013  0.00  0.00    -0.082 A 
ATOM      4  C2  PXY d   1       1.331   3.213  -2.195  0.00  0.00     0.003 A 
ATOM      5  C3  PXY d   1       0.913   1.910  -2.292  0.00  0.00     0.003 A 
ATOM      6  C4  PXY d   1       0.827   1.125  -1.173  0.00  0.00    -0.082 A 
ATOM      7  C5  PXY d   1       1.117   1.654   0.034  0.00  0.00     0.003 A 
ATOM      8  C6  PXY d   1       1.499   2.990   0.116  0.00  0.00     0.003 A 
ENDROOT
TORSDOF 0
ENDMDL
