MODEL 1
REMARK minimizedAffinity 0.390536875
REMARK minimizedRMSD -1
REMARK  0 active torsions:
REMARK  status: ('A' for Active; 'I' for Inactive)
ROOT
ATOM      1  C4' PXY d   1       2.581   4.682  -1.428  0.00  0.00     0.077 C 
ATOM      2  C1' PXY d   1       1.009  -0.627   0.233  0.00  0.00     0.077 C 
ATOM      3  C1  PXY d   1       1.425   0.760  -0.214  0.00  0.00    -0.082 A 
ATOM      4  C2  PXY d   1       1.691   1.687   0.692  0.00  0.00     0.003 A 
ATOM      5  C3  PXY d   1       2.038   2.956   0.305  0.00  0.00     0.003 A 
ATOM      6  C4  PXY d   1       2.166   3.265  -1.023  0.00  0.00    -0.082 A 
ATOM      7  C5  PXY d   1       1.907   2.322  -1.953  0.00  0.00     0.003 A 
ATOM      8  C6  PXY d   1       1.516   1.051  -1.540  0.00  0.00     0.003 A 
ENDROOT
TORSDOF 0
ENDMDL
