MODEL 1
REMARK minimizedAffinity -4.18857431
REMARK minimizedRMSD -1
REMARK  0 active torsions:
REMARK  status: ('A' for Active; 'I' for Inactive)
ROOT
ATOM      1  C4' PXY d   1       0.782  -0.053  -0.712  0.00  0.00     0.077 C 
ATOM      2  C1' PXY d   1       1.919   5.585  -1.287  0.00  0.00     0.077 C 
ATOM      3  C1  PXY d   1       1.625   4.107  -1.123  0.00  0.00    -0.082 A 
ATOM      4  C2  PXY d   1       1.619   3.320  -2.187  0.00  0.00     0.003 A 
ATOM      5  C3  PXY d   1       1.324   1.987  -2.061  0.00  0.00     0.003 A 
ATOM      6  C4  PXY d   1       1.083   1.444  -0.828  0.00  0.00    -0.082 A 
ATOM      7  C5  PXY d   1       1.098   2.238   0.263  0.00  0.00     0.003 A 
ATOM      8  C6  PXY d   1       1.359   3.596   0.110  0.00  0.00     0.003 A 
ENDROOT
TORSDOF 0
ENDMDL
