MODEL 1
REMARK minimizedAffinity -5.45052576
REMARK minimizedRMSD -1
REMARK  0 active torsions:
REMARK  status: ('A' for Active; 'I' for Inactive)
ROOT
ATOM      1  C4' PXY d   1       1.458  -1.108  -1.598  0.00  0.00     0.077 C 
ATOM      2  C1' PXY d   1       0.927   3.900   1.241  0.00  0.00     0.077 C 
ATOM      3  C1  PXY d   1       1.062   2.592   0.485  0.00  0.00    -0.082 A 
ATOM      4  C2  PXY d   1       1.020   1.447   1.147  0.00  0.00     0.003 A 
ATOM      5  C3  PXY d   1       1.173   0.257   0.484  0.00  0.00     0.003 A 
ATOM      6  C4  PXY d   1       1.316   0.236  -0.878  0.00  0.00    -0.082 A 
ATOM      7  C5  PXY d   1       1.349   1.400  -1.561  0.00  0.00     0.003 A 
ATOM      8  C6  PXY d   1       1.234   2.599  -0.864  0.00  0.00     0.003 A 
ENDROOT
TORSDOF 0
ENDMDL
