MODEL 1
REMARK minimizedAffinity -4.72864819
REMARK minimizedRMSD -1
REMARK  0 active torsions:
REMARK  status: ('A' for Active; 'I' for Inactive)
ROOT
ATOM      1  C4' PXY d   1       1.002   4.297  -0.342  0.00  0.00     0.077 C 
ATOM      2  C1' PXY d   1       1.634  -1.405  -1.056  0.00  0.00     0.077 C 
ATOM      3  C1  PXY d   1       1.459   0.088  -0.859  0.00  0.00    -0.082 A 
ATOM      4  C2  PXY d   1       1.758   0.917  -1.846  0.00  0.00     0.003 A 
ATOM      5  C3  PXY d   1       1.636   2.272  -1.675  0.00  0.00     0.003 A 
ATOM      6  C4  PXY d   1       1.154   2.781  -0.499  0.00  0.00    -0.082 A 
ATOM      7  C5  PXY d   1       0.837   1.941   0.509  0.00  0.00     0.003 A 
ATOM      8  C6  PXY d   1       1.006   0.572   0.329  0.00  0.00     0.003 A 
ENDROOT
TORSDOF 0
ENDMDL
