MODEL 1
REMARK minimizedAffinity 4.1272583
REMARK minimizedRMSD -1
REMARK  0 active torsions:
REMARK  status: ('A' for Active; 'I' for Inactive)
ROOT
ATOM      1  C   UNL d   1      -2.273   0.363   0.617  0.00  0.00     0.124 A 
ATOM      2  C1  UNL d   1      -1.736  -0.905   0.440  0.00  0.00     0.062 A 
ATOM      3  C2  UNL d   1      -0.357  -1.079   0.384  0.00  0.00     0.162 A 
ATOM      4  C3  UNL d   1       0.497   0.017   0.507  0.00  0.00    -0.034 A 
ATOM      5  C4  UNL d   1      -0.050   1.289   0.683  0.00  0.00     0.162 A 
ATOM      6  C5  UNL d   1      -1.430   1.459   0.739  0.00  0.00     0.062 A 
ATOM      7  F   UNL d   1      -1.947   2.684   0.910  0.00  0.00    -0.097 F 
ATOM      8  F1  UNL d   1       0.741   2.365   0.804  0.00  0.00    -0.096 F 
ATOM      9  I   UNL d   1       2.561  -0.239   0.423  0.00  0.00    -0.060 I 
ATOM     10  F2  UNL d   1       0.134  -2.316   0.212  0.00  0.00    -0.096 F 
ATOM     11  F3  UNL d   1      -2.549  -1.965   0.322  0.00  0.00    -0.097 F 
ATOM     12  F4  UNL d   1      -3.601   0.528   0.670  0.00  0.00    -0.092 F 
ENDROOT
TORSDOF 0
ENDMDL
