MODEL 1
REMARK minimizedAffinity -1.12564254
REMARK minimizedRMSD -1
REMARK  0 active torsions:
REMARK  status: ('A' for Active; 'I' for Inactive)
ROOT
ATOM      1  C   UNL d   1      -0.612  -0.848   1.345  0.00  0.00     0.124 A 
ATOM      2  C1  UNL d   1      -0.904   0.507   1.275  0.00  0.00     0.062 A 
ATOM      3  C2  UNL d   1      -0.401   1.278   0.232  0.00  0.00     0.162 A 
ATOM      4  C3  UNL d   1       0.400   0.696  -0.751  0.00  0.00    -0.034 A 
ATOM      5  C4  UNL d   1       0.690  -0.667  -0.674  0.00  0.00     0.162 A 
ATOM      6  C5  UNL d   1       0.184  -1.434   0.371  0.00  0.00     0.062 A 
ATOM      7  F   UNL d   1       0.467  -2.743   0.437  0.00  0.00    -0.097 F 
ATOM      8  F1  UNL d   1       1.456  -1.259  -1.602  0.00  0.00    -0.096 F 
ATOM      9  I   UNL d   1       1.155   1.846  -2.313  0.00  0.00    -0.060 I 
ATOM     10  F2  UNL d   1      -0.699   2.585   0.189  0.00  0.00    -0.096 F 
ATOM     11  F3  UNL d   1      -1.672   1.075   2.215  0.00  0.00    -0.097 F 
ATOM     12  F4  UNL d   1      -1.097  -1.588   2.351  0.00  0.00    -0.092 F 
ENDROOT
TORSDOF 0
ENDMDL
