MODEL 1
REMARK minimizedAffinity 2.7121284
REMARK minimizedRMSD -1
REMARK  0 active torsions:
REMARK  status: ('A' for Active; 'I' for Inactive)
ROOT
ATOM      1  C   UNL d   1      -1.504   0.639   0.859  0.00  0.00     0.124 A 
ATOM      2  C1  UNL d   1      -0.546  -0.250   0.392  0.00  0.00     0.062 A 
ATOM      3  C2  UNL d   1       0.285   0.108  -0.665  0.00  0.00     0.162 A 
ATOM      4  C3  UNL d   1       0.164   1.362  -1.262  0.00  0.00    -0.034 A 
ATOM      5  C4  UNL d   1      -0.803   2.251  -0.788  0.00  0.00     0.162 A 
ATOM      6  C5  UNL d   1      -1.632   1.888   0.268  0.00  0.00     0.062 A 
ATOM      7  F   UNL d   1      -2.557   2.749   0.718  0.00  0.00    -0.097 F 
ATOM      8  F1  UNL d   1      -0.947   3.465  -1.340  0.00  0.00    -0.096 F 
ATOM      9  I   UNL d   1       1.406   1.901  -2.843  0.00  0.00    -0.060 I 
ATOM     10  F2  UNL d   1       1.202  -0.772  -1.095  0.00  0.00    -0.096 F 
ATOM     11  F3  UNL d   1      -0.422  -1.459   0.961  0.00  0.00    -0.097 F 
ATOM     12  F4  UNL d   1      -2.304   0.291   1.875  0.00  0.00    -0.092 F 
ENDROOT
TORSDOF 0
ENDMDL
