MODEL 1
REMARK minimizedAffinity -0.261791706
REMARK minimizedRMSD -1
REMARK  0 active torsions:
REMARK  status: ('A' for Active; 'I' for Inactive)
ROOT
ATOM      1  C   UNL d   1       1.154   2.650  -3.033  0.00  0.00     0.124 A 
ATOM      2  C1  UNL d   1      -0.137   2.293  -2.668  0.00  0.00     0.062 A 
ATOM      3  C2  UNL d   1      -0.344   1.313  -1.701  0.00  0.00     0.162 A 
ATOM      4  C3  UNL d   1       0.741   0.684  -1.092  0.00  0.00    -0.034 A 
ATOM      5  C4  UNL d   1       2.036   1.048  -1.465  0.00  0.00     0.162 A 
ATOM      6  C5  UNL d   1       2.239   2.028  -2.432  0.00  0.00     0.062 A 
ATOM      7  F   UNL d   1       3.486   2.372  -2.784  0.00  0.00    -0.097 F 
ATOM      8  F1  UNL d   1       3.103   0.464  -0.900  0.00  0.00    -0.096 F 
ATOM      9  I   UNL d   1       0.435  -0.782   0.354  0.00  0.00    -0.060 I 
ATOM     10  F2  UNL d   1      -1.602   0.987  -1.368  0.00  0.00    -0.096 F 
ATOM     11  F3  UNL d   1      -1.187   2.892  -3.248  0.00  0.00    -0.097 F 
ATOM     12  F4  UNL d   1       1.351   3.593  -3.964  0.00  0.00    -0.092 F 
ENDROOT
TORSDOF 0
ENDMDL
