MODEL 1
REMARK minimizedAffinity -2.00548506
REMARK minimizedRMSD -1
REMARK  0 active torsions:
REMARK  status: ('A' for Active; 'I' for Inactive)
ROOT
ATOM      1  C   UNL d   1      -1.212  -1.582   0.853  0.00  0.00     0.124 A 
ATOM      2  C1  UNL d   1       0.057  -2.007   0.485  0.00  0.00     0.062 A 
ATOM      3  C2  UNL d   1       0.911  -1.148  -0.200  0.00  0.00     0.162 A 
ATOM      4  C3  UNL d   1       0.500   0.145  -0.522  0.00  0.00    -0.034 A 
ATOM      5  C4  UNL d   1      -0.778   0.566  -0.149  0.00  0.00     0.162 A 
ATOM      6  C5  UNL d   1      -1.628  -0.296   0.535  0.00  0.00     0.062 A 
ATOM      7  F   UNL d   1      -2.854   0.116   0.890  0.00  0.00    -0.097 F 
ATOM      8  F1  UNL d   1      -1.205   1.803  -0.443  0.00  0.00    -0.096 F 
ATOM      9  I   UNL d   1       1.775   1.433  -1.546  0.00  0.00    -0.060 I 
ATOM     10  F2  UNL d   1       2.132  -1.586  -0.543  0.00  0.00    -0.096 F 
ATOM     11  F3  UNL d   1       0.461  -3.248   0.789  0.00  0.00    -0.097 F 
ATOM     12  F4  UNL d   1      -2.033  -2.410   1.511  0.00  0.00    -0.092 F 
ENDROOT
TORSDOF 0
ENDMDL
