MODEL 1
REMARK minimizedAffinity -0.750795007
REMARK minimizedRMSD -1
REMARK  0 active torsions:
REMARK  status: ('A' for Active; 'I' for Inactive)
ROOT
ATOM      1  C   UNL d   1      -1.518  -2.135   1.534  0.00  0.00     0.124 A 
ATOM      2  C1  UNL d   1      -2.189  -1.159   0.809  0.00  0.00     0.062 A 
ATOM      3  C2  UNL d   1      -1.491  -0.336  -0.069  0.00  0.00     0.162 A 
ATOM      4  C3  UNL d   1      -0.113  -0.485  -0.229  0.00  0.00    -0.034 A 
ATOM      5  C4  UNL d   1       0.555  -1.467   0.504  0.00  0.00     0.162 A 
ATOM      6  C5  UNL d   1      -0.148  -2.288   1.381  0.00  0.00     0.062 A 
ATOM      7  F   UNL d   1       0.502  -3.230   2.080  0.00  0.00    -0.097 F 
ATOM      8  F1  UNL d   1       1.879  -1.638   0.374  0.00  0.00    -0.096 F 
ATOM      9  I   UNL d   1       0.934   0.745  -1.542  0.00  0.00    -0.060 I 
ATOM     10  F2  UNL d   1      -2.165   0.598  -0.757  0.00  0.00    -0.096 F 
ATOM     11  F3  UNL d   1      -3.513  -1.009   0.956  0.00  0.00    -0.097 F 
ATOM     12  F4  UNL d   1      -2.192  -2.925   2.379  0.00  0.00    -0.092 F 
ENDROOT
TORSDOF 0
ENDMDL
