MODEL 1
REMARK minimizedAffinity 1.4577328
REMARK minimizedRMSD -1
REMARK  0 active torsions:
REMARK  status: ('A' for Active; 'I' for Inactive)
ROOT
ATOM      1  C   UNL d   1      -0.838  -1.236   1.387  0.00  0.00     0.124 A 
ATOM      2  C1  UNL d   1      -1.257   0.068   1.164  0.00  0.00     0.062 A 
ATOM      3  C2  UNL d   1      -0.658   0.836   0.170  0.00  0.00     0.162 A 
ATOM      4  C3  UNL d   1       0.366   0.301  -0.611  0.00  0.00    -0.034 A 
ATOM      5  C4  UNL d   1       0.783  -1.012  -0.381  0.00  0.00     0.162 A 
ATOM      6  C5  UNL d   1       0.181  -1.775   0.614  0.00  0.00     0.062 A 
ATOM      7  F   UNL d   1       0.587  -3.035   0.827  0.00  0.00    -0.097 F 
ATOM      8  F1  UNL d   1       1.765  -1.557  -1.114  0.00  0.00    -0.096 F 
ATOM      9  I   UNL d   1       1.264   1.446  -2.099  0.00  0.00    -0.060 I 
ATOM     10  F2  UNL d   1      -1.083   2.093  -0.023  0.00  0.00    -0.096 F 
ATOM     11  F3  UNL d   1      -2.241   0.591   1.910  0.00  0.00    -0.097 F 
ATOM     12  F4  UNL d   1      -1.416  -1.973   2.345  0.00  0.00    -0.092 F 
ENDROOT
TORSDOF 0
ENDMDL
