MODEL 1
REMARK minimizedAffinity -3.61184835
REMARK minimizedRMSD -1
REMARK  0 active torsions:
REMARK  status: ('A' for Active; 'I' for Inactive)
ROOT
ATOM      1  C   UNL d   1      -2.502  -2.086   1.766  0.00  0.00     0.124 A 
ATOM      2  C1  UNL d   1      -1.334  -2.444   1.108  0.00  0.00     0.062 A 
ATOM      3  C2  UNL d   1      -0.516  -1.466   0.551  0.00  0.00     0.162 A 
ATOM      4  C3  UNL d   1      -0.863  -0.118   0.650  0.00  0.00    -0.034 A 
ATOM      5  C4  UNL d   1      -2.040   0.235   1.313  0.00  0.00     0.162 A 
ATOM      6  C5  UNL d   1      -2.854  -0.747   1.868  0.00  0.00     0.062 A 
ATOM      7  F   UNL d   1      -3.982  -0.399   2.503  0.00  0.00    -0.097 F 
ATOM      8  F1  UNL d   1      -2.403   1.521   1.427  0.00  0.00    -0.096 F 
ATOM      9  I   UNL d   1       0.358   1.348  -0.182  0.00  0.00    -0.060 I 
ATOM     10  F2  UNL d   1       0.607  -1.841  -0.080  0.00  0.00    -0.096 F 
ATOM     11  F3  UNL d   1      -0.992  -3.737   1.007  0.00  0.00    -0.097 F 
ATOM     12  F4  UNL d   1      -3.288  -3.030   2.300  0.00  0.00    -0.092 F 
ENDROOT
TORSDOF 0
ENDMDL
