MODEL 1
REMARK minimizedAffinity -1.41183805
REMARK minimizedRMSD -1
REMARK  0 active torsions:
REMARK  status: ('A' for Active; 'I' for Inactive)
ROOT
ATOM      1  C   UNL d   1      -1.219  -1.635   1.113  0.00  0.00     0.124 A 
ATOM      2  C1  UNL d   1      -1.819  -0.555   0.481  0.00  0.00     0.062 A 
ATOM      3  C2  UNL d   1      -1.063   0.299  -0.316  0.00  0.00     0.162 A 
ATOM      4  C3  UNL d   1       0.304   0.076  -0.486  0.00  0.00    -0.034 A 
ATOM      5  C4  UNL d   1       0.901  -1.012   0.153  0.00  0.00     0.162 A 
ATOM      6  C5  UNL d   1       0.140  -1.862   0.949  0.00  0.00     0.062 A 
ATOM      7  F   UNL d   1       0.722  -2.905   1.559  0.00  0.00    -0.097 F 
ATOM      8  F1  UNL d   1       2.212  -1.255   0.011  0.00  0.00    -0.096 F 
ATOM      9  I   UNL d   1       1.439   1.351  -1.677  0.00  0.00    -0.060 I 
ATOM     10  F2  UNL d   1      -1.669   1.335  -0.915  0.00  0.00    -0.096 F 
ATOM     11  F3  UNL d   1      -3.132  -0.332   0.639  0.00  0.00    -0.097 F 
ATOM     12  F4  UNL d   1      -1.950  -2.454   1.880  0.00  0.00    -0.092 F 
ENDROOT
TORSDOF 0
ENDMDL
