MODEL 1
REMARK minimizedAffinity -3.23217392
REMARK minimizedRMSD -1
REMARK  0 active torsions:
REMARK  status: ('A' for Active; 'I' for Inactive)
ROOT
ATOM      1  C   UNL d   1       0.793   0.526  -0.073  0.00  0.00     0.124 A 
ATOM      2  C1  UNL d   1      -0.545   0.815   0.157  0.00  0.00     0.062 A 
ATOM      3  C2  UNL d   1      -1.401  -0.170   0.639  0.00  0.00     0.162 A 
ATOM      4  C3  UNL d   1      -0.921  -1.455   0.897  0.00  0.00    -0.034 A 
ATOM      5  C4  UNL d   1       0.426  -1.738   0.663  0.00  0.00     0.162 A 
ATOM      6  C5  UNL d   1       1.277  -0.749   0.180  0.00  0.00     0.062 A 
ATOM      7  F   UNL d   1       2.570  -1.030  -0.041  0.00  0.00    -0.097 F 
ATOM      8  F1  UNL d   1       0.920  -2.962   0.900  0.00  0.00    -0.096 F 
ATOM      9  I   UNL d   1      -2.198  -2.931   1.619  0.00  0.00    -0.060 I 
ATOM     10  F2  UNL d   1      -2.689   0.137   0.852  0.00  0.00    -0.096 F 
ATOM     11  F3  UNL d   1      -1.015   2.047  -0.088  0.00  0.00    -0.097 F 
ATOM     12  F4  UNL d   1       1.614   1.476  -0.539  0.00  0.00    -0.092 F 
ENDROOT
TORSDOF 0
ENDMDL
