MODEL 1
REMARK minimizedAffinity 3.04302216
REMARK minimizedRMSD -1
REMARK  0 active torsions:
REMARK  status: ('A' for Active; 'I' for Inactive)
ROOT
ATOM      1  C   UNL d   1      -1.033  -1.047   0.923  0.00  0.00     0.124 A 
ATOM      2  C1  UNL d   1       0.264  -1.470   0.667  0.00  0.00     0.062 A 
ATOM      3  C2  UNL d   1       1.119  -0.681  -0.097  0.00  0.00     0.162 A 
ATOM      4  C3  UNL d   1       0.680   0.540  -0.610  0.00  0.00    -0.034 A 
ATOM      5  C4  UNL d   1      -0.626   0.958  -0.349  0.00  0.00     0.162 A 
ATOM      6  C5  UNL d   1      -1.477   0.166   0.415  0.00  0.00     0.062 A 
ATOM      7  F   UNL d   1      -2.730   0.575   0.661  0.00  0.00    -0.097 F 
ATOM      8  F1  UNL d   1      -1.080   2.126  -0.827  0.00  0.00    -0.096 F 
ATOM      9  I   UNL d   1       1.956   1.722  -1.753  0.00  0.00    -0.060 I 
ATOM     10  F2  UNL d   1       2.367  -1.114  -0.328  0.00  0.00    -0.096 F 
ATOM     11  F3  UNL d   1       0.695  -2.641   1.156  0.00  0.00    -0.097 F 
ATOM     12  F4  UNL d   1      -1.854  -1.809   1.657  0.00  0.00    -0.092 F 
ENDROOT
TORSDOF 0
ENDMDL
