MODEL 1
REMARK minimizedAffinity -2.78830695
REMARK minimizedRMSD -1
REMARK  0 active torsions:
REMARK  status: ('A' for Active; 'I' for Inactive)
ROOT
ATOM      1  C   UNL d   1      -0.034  -1.589   1.242  0.00  0.00     0.124 A 
ATOM      2  C1  UNL d   1       1.047  -0.727   1.118  0.00  0.00     0.062 A 
ATOM      3  C2  UNL d   1       1.144   0.120   0.018  0.00  0.00     0.162 A 
ATOM      4  C3  UNL d   1       0.157   0.110  -0.968  0.00  0.00    -0.034 A 
ATOM      5  C4  UNL d   1      -0.926  -0.761  -0.837  0.00  0.00     0.162 A 
ATOM      6  C5  UNL d   1      -1.018  -1.606   0.264  0.00  0.00     0.062 A 
ATOM      7  F   UNL d   1      -2.063  -2.439   0.381  0.00  0.00    -0.097 F 
ATOM      8  F1  UNL d   1      -1.892  -0.797  -1.767  0.00  0.00    -0.096 F 
ATOM      9  I   UNL d   1       0.299   1.375  -2.614  0.00  0.00    -0.060 I 
ATOM     10  F2  UNL d   1       2.199   0.944  -0.075  0.00  0.00    -0.096 F 
ATOM     11  F3  UNL d   1       2.000  -0.710   2.061  0.00  0.00    -0.097 F 
ATOM     12  F4  UNL d   1      -0.124  -2.404   2.300  0.00  0.00    -0.092 F 
ENDROOT
TORSDOF 0
ENDMDL
