MODEL 1
REMARK minimizedAffinity -2.81244588
REMARK minimizedRMSD -1
REMARK  0 active torsions:
REMARK  status: ('A' for Active; 'I' for Inactive)
ROOT
ATOM      1  C   UNL d   1      -1.161  -2.561   0.874  0.00  0.00     0.172 C 
ATOM      2  N   UNL d   1      -0.426  -1.397   0.438  0.00  0.00    -0.070 N 
ATOM      3  C1  UNL d   1      -0.959  -0.157   0.206  0.00  0.00    -0.004 A 
ATOM      4  C2  UNL d   1       0.065   0.675  -0.193  0.00  0.00    -0.047 A 
ATOM      5  C3  UNL d   1       1.254  -0.093  -0.203  0.00  0.00    -0.047 A 
ATOM      6  C4  UNL d   1       0.921  -1.371   0.192  0.00  0.00    -0.004 A 
ENDROOT
TORSDOF 0
ENDMDL
