MODEL 1
REMARK minimizedAffinity -3.45628333
REMARK minimizedRMSD -1
REMARK  0 active torsions:
REMARK  status: ('A' for Active; 'I' for Inactive)
ROOT
ATOM      1  C   UNL d   1      -1.509  -2.686   0.666  0.00  0.00     0.172 C 
ATOM      2  N   UNL d   1      -0.691  -1.511   0.478  0.00  0.00    -0.070 N 
ATOM      3  C1  UNL d   1      -1.154  -0.228   0.349  0.00  0.00    -0.004 A 
ATOM      4  C2  UNL d   1      -0.064   0.600   0.188  0.00  0.00    -0.047 A 
ATOM      5  C3  UNL d   1       1.094  -0.213   0.219  0.00  0.00    -0.047 A 
ATOM      6  C4  UNL d   1       0.677  -1.515   0.400  0.00  0.00    -0.004 A 
ENDROOT
TORSDOF 0
ENDMDL
