MODEL 1
REMARK minimizedAffinity -2.44474316
REMARK minimizedRMSD -1
REMARK  0 active torsions:
REMARK  status: ('A' for Active; 'I' for Inactive)
ROOT
ATOM      1  C   UNL d   1      -0.923  -2.295   1.111  0.00  0.00     0.172 C 
ATOM      2  N   UNL d   1      -0.461  -1.027   0.600  0.00  0.00    -0.070 N 
ATOM      3  C1  UNL d   1      -1.246   0.065   0.342  0.00  0.00    -0.004 A 
ATOM      4  C2  UNL d   1      -0.431   1.069  -0.132  0.00  0.00    -0.047 A 
ATOM      5  C3  UNL d   1       0.891   0.564  -0.160  0.00  0.00    -0.047 A 
ATOM      6  C4  UNL d   1       0.844  -0.735   0.298  0.00  0.00    -0.004 A 
ENDROOT
TORSDOF 0
ENDMDL
