MODEL 1
REMARK minimizedAffinity -2.2367959
REMARK minimizedRMSD -1
REMARK  0 active torsions:
REMARK  status: ('A' for Active; 'I' for Inactive)
ROOT
ATOM      1  C   UNL d   1       0.084   0.800  -0.380  0.00  0.00     0.172 C 
ATOM      2  N   UNL d   1       0.459   1.290  -1.686  0.00  0.00    -0.070 N 
ATOM      3  C1  UNL d   1       1.557   2.060  -1.964  0.00  0.00    -0.004 A 
ATOM      4  C2  UNL d   1       1.560   2.316  -3.319  0.00  0.00    -0.047 A 
ATOM      5  C3  UNL d   1       0.425   1.678  -3.873  0.00  0.00    -0.047 A 
ATOM      6  C4  UNL d   1      -0.239   1.050  -2.840  0.00  0.00    -0.004 A 
ENDROOT
TORSDOF 0
ENDMDL
