MODEL 1
REMARK minimizedAffinity -3.60053682
REMARK minimizedRMSD -1
REMARK  0 active torsions:
REMARK  status: ('A' for Active; 'I' for Inactive)
ROOT
ATOM      1  C   UNL d   1      -0.521  -1.900   0.999  0.00  0.00     0.172 C 
ATOM      2  N   UNL d   1       0.017  -0.683   0.438  0.00  0.00    -0.070 N 
ATOM      3  C1  UNL d   1       1.046  -0.606  -0.462  0.00  0.00    -0.004 A 
ATOM      4  C2  UNL d   1       1.257   0.726  -0.748  0.00  0.00    -0.047 A 
ATOM      5  C3  UNL d   1       0.323   1.474   0.007  0.00  0.00    -0.047 A 
ATOM      6  C4  UNL d   1      -0.432   0.577   0.732  0.00  0.00    -0.004 A 
ENDROOT
TORSDOF 0
ENDMDL
