MODEL 1
REMARK minimizedAffinity -2.0490675
REMARK minimizedRMSD -1
REMARK  0 active torsions:
REMARK  status: ('A' for Active; 'I' for Inactive)
ROOT
ATOM      1  C   UNL d   1      -0.671  -2.564   1.514  0.00  0.00     0.172 C 
ATOM      2  N   UNL d   1      -0.188  -1.421   0.776  0.00  0.00    -0.070 N 
ATOM      3  C1  UNL d   1      -0.887  -0.266   0.545  0.00  0.00    -0.004 A 
ATOM      4  C2  UNL d   1      -0.082   0.575  -0.192  0.00  0.00    -0.047 A 
ATOM      5  C3  UNL d   1       1.144  -0.098  -0.412  0.00  0.00    -0.047 A 
ATOM      6  C4  UNL d   1       1.051  -1.331   0.198  0.00  0.00    -0.004 A 
ENDROOT
TORSDOF 0
ENDMDL
