MODEL 1
REMARK minimizedAffinity -3.97030854
REMARK minimizedRMSD -1
REMARK  0 active torsions:
REMARK  status: ('A' for Active; 'I' for Inactive)
ROOT
ATOM      1  C   UNL d   1       0.071   0.878  -0.535  0.00  0.00     0.172 C 
ATOM      2  N   UNL d   1      -0.252  -0.438  -0.034  0.00  0.00    -0.070 N 
ATOM      3  C1  UNL d   1       0.643  -1.450   0.186  0.00  0.00    -0.004 A 
ATOM      4  C2  UNL d   1      -0.057  -2.537   0.663  0.00  0.00    -0.047 A 
ATOM      5  C3  UNL d   1      -1.421  -2.165   0.732  0.00  0.00    -0.047 A 
ATOM      6  C4  UNL d   1      -1.513  -0.860   0.294  0.00  0.00    -0.004 A 
ENDROOT
TORSDOF 0
ENDMDL
