MODEL 1
REMARK minimizedAffinity -3.35986114
REMARK minimizedRMSD -1
REMARK  0 active torsions:
REMARK  status: ('A' for Active; 'I' for Inactive)
ROOT
ATOM      1  C   UNL d   1      -1.252  -1.795   0.560  0.00  0.00     0.172 C 
ATOM      2  N   UNL d   1      -0.986  -0.386   0.385  0.00  0.00    -0.070 N 
ATOM      3  C1  UNL d   1       0.171   0.152  -0.113  0.00  0.00    -0.004 A 
ATOM      4  C2  UNL d   1       0.029   1.523  -0.120  0.00  0.00    -0.047 A 
ATOM      5  C3  UNL d   1      -1.256   1.819   0.393  0.00  0.00    -0.047 A 
ATOM      6  C4  UNL d   1      -1.863   0.618   0.698  0.00  0.00    -0.004 A 
ENDROOT
TORSDOF 0
ENDMDL
