MODEL 1
REMARK minimizedAffinity -1.98822403
REMARK minimizedRMSD -1
REMARK  0 active torsions:
REMARK  status: ('A' for Active; 'I' for Inactive)
ROOT
ATOM      1  C   UNL d   1      -1.346  -2.227   1.065  0.00  0.00     0.172 C 
ATOM      2  N   UNL d   1      -0.671  -1.132   0.408  0.00  0.00    -0.070 N 
ATOM      3  C1  UNL d   1       0.638  -1.129   0.004  0.00  0.00    -0.004 A 
ATOM      4  C2  UNL d   1       0.896   0.094  -0.577  0.00  0.00    -0.047 A 
ATOM      5  C3  UNL d   1      -0.298   0.852  -0.519  0.00  0.00    -0.047 A 
ATOM      6  C4  UNL d   1      -1.252   0.068   0.096  0.00  0.00    -0.004 A 
ENDROOT
TORSDOF 0
ENDMDL
