MODEL 1
REMARK minimizedAffinity -3.38571501
REMARK minimizedRMSD -1
REMARK  0 active torsions:
REMARK  status: ('A' for Active; 'I' for Inactive)
ROOT
ATOM      1  C   UNL d   1      -1.626  -2.773   0.490  0.00  0.00     0.172 C 
ATOM      2  N   UNL d   1      -0.811  -1.586   0.381  0.00  0.00    -0.070 N 
ATOM      3  C1  UNL d   1       0.558  -1.553   0.406  0.00  0.00    -0.004 A 
ATOM      4  C2  UNL d   1       0.950  -0.239   0.274  0.00  0.00    -0.047 A 
ATOM      5  C3  UNL d   1      -0.223   0.545   0.167  0.00  0.00    -0.047 A 
ATOM      6  C4  UNL d   1      -1.299  -0.314   0.236  0.00  0.00    -0.004 A 
ENDROOT
TORSDOF 0
ENDMDL
