MODEL 1
REMARK minimizedAffinity -3.64627647
REMARK minimizedRMSD -1
REMARK  0 active torsions:
REMARK  status: ('A' for Active; 'I' for Inactive)
ROOT
ATOM      1  C   UNL d   1       1.455  -0.769   0.515  0.00  0.00     0.172 C 
ATOM      2  N   UNL d   1       0.145  -1.365   0.642  0.00  0.00    -0.070 N 
ATOM      3  C1  UNL d   1      -0.170  -2.439   1.430  0.00  0.00    -0.004 A 
ATOM      4  C2  UNL d   1      -1.515  -2.697   1.273  0.00  0.00    -0.047 A 
ATOM      5  C3  UNL d   1      -2.025  -1.745   0.359  0.00  0.00    -0.047 A 
ATOM      6  C4  UNL d   1      -0.976  -0.933  -0.017  0.00  0.00    -0.004 A 
ENDROOT
TORSDOF 0
ENDMDL
