MODEL 1
REMARK minimizedAffinity -3.78569341
REMARK minimizedRMSD -1
REMARK  0 active torsions:
REMARK  status: ('A' for Active; 'I' for Inactive)
ROOT
ATOM      1  C   UNL d   1       0.657   1.041  -0.306  0.00  0.00     0.172 C 
ATOM      2  N   UNL d   1       0.055  -0.171   0.197  0.00  0.00    -0.070 N 
ATOM      3  C1  UNL d   1      -1.278  -0.354   0.451  0.00  0.00    -0.004 A 
ATOM      4  C2  UNL d   1      -1.446  -1.640   0.917  0.00  0.00    -0.047 A 
ATOM      5  C3  UNL d   1      -0.170  -2.250   0.946  0.00  0.00    -0.047 A 
ATOM      6  C4  UNL d   1       0.741  -1.319   0.495  0.00  0.00    -0.004 A 
ENDROOT
TORSDOF 0
ENDMDL
