MODEL 1
REMARK minimizedAffinity -4.03773069
REMARK minimizedRMSD -1
REMARK  0 active torsions:
REMARK  status: ('A' for Active; 'I' for Inactive)
ROOT
ATOM      1  C   UNL d   1       0.169   0.697  -0.534  0.00  0.00     0.172 C 
ATOM      2  N   UNL d   1      -0.633  -0.141   0.325  0.00  0.00    -0.070 N 
ATOM      3  C1  UNL d   1      -0.481  -1.492   0.492  0.00  0.00    -0.004 A 
ATOM      4  C2  UNL d   1      -1.436  -1.917   1.390  0.00  0.00    -0.047 A 
ATOM      5  C3  UNL d   1      -2.189  -0.783   1.776  0.00  0.00    -0.047 A 
ATOM      6  C4  UNL d   1      -1.671   0.303   1.102  0.00  0.00    -0.004 A 
ENDROOT
TORSDOF 0
ENDMDL
