MODEL 1
REMARK minimizedAffinity -2.9144032
REMARK minimizedRMSD -1
REMARK  0 active torsions:
REMARK  status: ('A' for Active; 'I' for Inactive)
ROOT
ATOM      1  C   UNL d   1      -0.128   0.740  -0.681  0.00  0.00     0.172 C 
ATOM      2  N   UNL d   1      -0.273  -0.514   0.020  0.00  0.00    -0.070 N 
ATOM      3  C1  UNL d   1      -1.454  -1.167   0.252  0.00  0.00    -0.004 A 
ATOM      4  C2  UNL d   1      -1.168  -2.322   0.948  0.00  0.00    -0.047 A 
ATOM      5  C3  UNL d   1       0.233  -2.363   1.143  0.00  0.00    -0.047 A 
ATOM      6  C4  UNL d   1       0.762  -1.232   0.559  0.00  0.00    -0.004 A 
ENDROOT
TORSDOF 0
ENDMDL
