MODEL 1
REMARK minimizedAffinity -2.94724512
REMARK minimizedRMSD -1
REMARK  0 active torsions:
REMARK  status: ('A' for Active; 'I' for Inactive)
ROOT
ATOM      1  C   UNL d   1      -1.926  -4.475  -5.610  0.00  0.00     0.172 C 
ATOM      2  N   UNL d   1      -3.117  -3.787  -5.171  0.00  0.00    -0.070 N 
ATOM      3  C1  UNL d   1      -3.727  -3.943  -3.955  0.00  0.00    -0.004 A 
ATOM      4  C2  UNL d   1      -4.827  -3.114  -3.925  0.00  0.00    -0.047 A 
ATOM      5  C3  UNL d   1      -4.881  -2.437  -5.167  0.00  0.00    -0.047 A 
ATOM      6  C4  UNL d   1      -3.811  -2.873  -5.919  0.00  0.00    -0.004 A 
ENDROOT
TORSDOF 0
ENDMDL
