MODEL 1
REMARK minimizedAffinity 1.43095982
REMARK minimizedRMSD -1
REMARK  1 active torsions:
REMARK  status: ('A' for Active; 'I' for Inactive)
REMARK    1  A    between atoms: C1_2  and  C2_3 
ROOT
ATOM      1  C2  UNL d   1      -3.976  -3.651  -0.871  0.00  0.00    -0.076 A 
ATOM      2  C3  UNL d   1      -5.359  -3.746  -0.640  0.00  0.00     0.004 A 
ATOM      3  C4  UNL d   1      -5.921  -4.910  -0.117  0.00  0.00    -0.003 A 
ATOM      4  C5  UNL d   1      -5.107  -5.998   0.183  0.00  0.00     0.000 A 
ATOM      5  C6  UNL d   1      -3.731  -5.914  -0.023  0.00  0.00     0.000 A 
ATOM      6  C7  UNL d   1      -3.147  -4.742  -0.534  0.00  0.00    -0.073 A 
ATOM      7  C8  UNL d   1      -1.658  -4.709  -0.742  0.00  0.00     0.078 C 
ENDROOT
BRANCH   1   8
ATOM      8  C1  UNL d   1      -3.428  -2.373  -1.465  0.00  0.00     0.053 C 
ATOM      9  C   UNL d   1      -3.686  -2.267  -2.960  0.00  0.00     0.018 C 
ENDBRANCH   1   8
TORSDOF 1
ENDMDL
