MODEL 1
REMARK minimizedAffinity -0.793628812
REMARK minimizedRMSD -1
REMARK  1 active torsions:
REMARK  status: ('A' for Active; 'I' for Inactive)
REMARK    1  A    between atoms: C1_2  and  C2_3 
ROOT
ATOM      1  C2  UNL d   1       0.948   0.353   1.001  0.00  0.00    -0.076 A 
ATOM      2  C3  UNL d   1       0.695   1.687   0.634  0.00  0.00     0.004 A 
ATOM      3  C4  UNL d   1      -0.518   2.298   0.944  0.00  0.00    -0.003 A 
ATOM      4  C5  UNL d   1      -1.499   1.587   1.626  0.00  0.00     0.000 A 
ATOM      5  C6  UNL d   1      -1.259   0.269   2.013  0.00  0.00     0.000 A 
ATOM      6  C7  UNL d   1      -0.035  -0.357   1.723  0.00  0.00    -0.073 A 
ATOM      7  C8  UNL d   1       0.168  -1.783   2.159  0.00  0.00     0.078 C 
ENDROOT
BRANCH   1   8
ATOM      8  C1  UNL d   1       2.272  -0.266   0.614  0.00  0.00     0.053 C 
ATOM      9  C   UNL d   1       2.776   0.230  -0.732  0.00  0.00     0.018 C 
ENDBRANCH   1   8
TORSDOF 1
ENDMDL
