MODEL 1
REMARK minimizedAffinity 12.2271175
REMARK minimizedRMSD -1
REMARK  1 active torsions:
REMARK  status: ('A' for Active; 'I' for Inactive)
REMARK    1  A    between atoms: C1_2  and  C2_3 
ROOT
ATOM      1  C2  UNL d   1       4.007   2.746  -3.030  0.00  0.00    -0.076 A 
ATOM      2  C3  UNL d   1       4.890   1.740  -2.601  0.00  0.00     0.004 A 
ATOM      3  C4  UNL d   1       4.473   0.413  -2.506  0.00  0.00    -0.003 A 
ATOM      4  C5  UNL d   1       3.167   0.071  -2.840  0.00  0.00     0.000 A 
ATOM      5  C6  UNL d   1       2.283   1.054  -3.285  0.00  0.00     0.000 A 
ATOM      6  C7  UNL d   1       2.692   2.393  -3.401  0.00  0.00    -0.073 A 
ATOM      7  C8  UNL d   1       1.696   3.413  -3.881  0.00  0.00     0.078 C 
ENDROOT
BRANCH   1   8
ATOM      8  C1  UNL d   1       4.508   4.172  -3.087  0.00  0.00     0.053 C 
ATOM      9  C   UNL d   1       5.905   4.276  -3.678  0.00  0.00     0.018 C 
ENDBRANCH   1   8
TORSDOF 1
ENDMDL
