MODEL 1
REMARK minimizedAffinity 1.80731702
REMARK minimizedRMSD -1
REMARK  1 active torsions:
REMARK  status: ('A' for Active; 'I' for Inactive)
REMARK    1  A    between atoms: C1_2  and  C2_3 
ROOT
ATOM      1  C2  UNL d   1       0.502  -0.015   1.423  0.00  0.00    -0.076 A 
ATOM      2  C3  UNL d   1       1.717  -0.696   1.234  0.00  0.00     0.004 A 
ATOM      3  C4  UNL d   1       2.716  -0.170   0.416  0.00  0.00    -0.003 A 
ATOM      4  C5  UNL d   1       2.515   1.047  -0.226  0.00  0.00     0.000 A 
ATOM      5  C6  UNL d   1       1.323   1.745  -0.036  0.00  0.00     0.000 A 
ATOM      6  C7  UNL d   1       0.313   1.236   0.798  0.00  0.00    -0.073 A 
ATOM      7  C8  UNL d   1      -0.956   2.027   0.962  0.00  0.00     0.078 C 
ENDROOT
BRANCH   1   8
ATOM      8  C1  UNL d   1      -0.554  -0.649   2.300  0.00  0.00     0.053 C 
ATOM      9  C   UNL d   1       0.044  -1.475   3.428  0.00  0.00     0.018 C 
ENDBRANCH   1   8
TORSDOF 1
ENDMDL
