MODEL 1
REMARK minimizedAffinity 5.4367218
REMARK minimizedRMSD -1
REMARK  1 active torsions:
REMARK  status: ('A' for Active; 'I' for Inactive)
REMARK    1  A    between atoms: C1_2  and  C2_3 
ROOT
ATOM      1  C2  UNL d   1      -0.295   0.889   1.482  0.00  0.00    -0.076 A 
ATOM      2  C3  UNL d   1      -0.132   2.258   1.754  0.00  0.00     0.004 A 
ATOM      3  C4  UNL d   1      -1.163   3.005   2.320  0.00  0.00    -0.003 A 
ATOM      4  C5  UNL d   1      -2.375   2.395   2.624  0.00  0.00     0.000 A 
ATOM      5  C6  UNL d   1      -2.549   1.034   2.377  0.00  0.00     0.000 A 
ATOM      6  C7  UNL d   1      -1.513   0.262   1.822  0.00  0.00    -0.073 A 
ATOM      7  C8  UNL d   1      -1.757  -1.201   1.571  0.00  0.00     0.078 C 
ENDROOT
BRANCH   1   8
ATOM      8  C1  UNL d   1       0.850   0.136   0.842  0.00  0.00     0.053 C 
ATOM      9  C   UNL d   1       2.067   0.045   1.750  0.00  0.00     0.018 C 
ENDBRANCH   1   8
TORSDOF 1
ENDMDL
