MODEL 1
REMARK minimizedAffinity 2.51602817
REMARK minimizedRMSD -1
REMARK  1 active torsions:
REMARK  status: ('A' for Active; 'I' for Inactive)
REMARK    1  A    between atoms: C1_2  and  C2_3 
ROOT
ATOM      1  C2  UNL d   1       0.235   1.044   0.589  0.00  0.00    -0.076 A 
ATOM      2  C3  UNL d   1       1.394   1.618   0.037  0.00  0.00     0.004 A 
ATOM      3  C4  UNL d   1       2.600   0.920   0.016  0.00  0.00    -0.003 A 
ATOM      4  C5  UNL d   1       2.668  -0.363   0.546  0.00  0.00     0.000 A 
ATOM      5  C6  UNL d   1       1.525  -0.955   1.082  0.00  0.00     0.000 A 
ATOM      6  C7  UNL d   1       0.297  -0.272   1.096  0.00  0.00    -0.073 A 
ATOM      7  C8  UNL d   1      -0.903  -0.956   1.691  0.00  0.00     0.078 C 
ENDROOT
BRANCH   1   8
ATOM      8  C1  UNL d   1      -1.038   1.858   0.609  0.00  0.00     0.053 C 
ATOM      9  C   UNL d   1      -1.037   2.915   1.702  0.00  0.00     0.018 C 
ENDBRANCH   1   8
TORSDOF 1
ENDMDL
