MODEL 1
REMARK minimizedAffinity 0.821285129
REMARK minimizedRMSD -1
REMARK  1 active torsions:
REMARK  status: ('A' for Active; 'I' for Inactive)
REMARK    1  A    between atoms: C1_2  and  C2_3 
ROOT
ATOM      1  C2  UNL d   1      -1.629   1.548   1.312  0.00  0.00    -0.076 A 
ATOM      2  C3  UNL d   1      -0.457   2.051   0.721  0.00  0.00     0.004 A 
ATOM      3  C4  UNL d   1       0.674   1.250   0.575  0.00  0.00    -0.003 A 
ATOM      4  C5  UNL d   1       0.651  -0.068   1.017  0.00  0.00     0.000 A 
ATOM      5  C6  UNL d   1      -0.509  -0.589   1.590  0.00  0.00     0.000 A 
ATOM      6  C7  UNL d   1      -1.663   0.200   1.730  0.00  0.00    -0.073 A 
ATOM      7  C8  UNL d   1      -2.884  -0.411   2.360  0.00  0.00     0.078 C 
ENDROOT
BRANCH   1   8
ATOM      8  C1  UNL d   1      -2.816   2.472   1.468  0.00  0.00     0.053 C 
ATOM      9  C   UNL d   1      -3.385   2.456   2.878  0.00  0.00     0.018 C 
ENDBRANCH   1   8
TORSDOF 1
ENDMDL
