MODEL 1
REMARK minimizedAffinity 7.23486423
REMARK minimizedRMSD -1
REMARK  1 active torsions:
REMARK  status: ('A' for Active; 'I' for Inactive)
REMARK    1  A    between atoms: C1_2  and  C2_3 
ROOT
ATOM      1  C2  UNL d   1       0.090  -0.243   1.930  0.00  0.00    -0.076 A 
ATOM      2  C3  UNL d   1      -1.058   0.557   2.055  0.00  0.00     0.004 A 
ATOM      3  C4  UNL d   1      -1.137   1.802   1.433  0.00  0.00    -0.003 A 
ATOM      4  C5  UNL d   1      -0.068   2.266   0.674  0.00  0.00     0.000 A 
ATOM      5  C6  UNL d   1       1.073   1.478   0.524  0.00  0.00     0.000 A 
ATOM      6  C7  UNL d   1       1.161   0.213   1.132  0.00  0.00    -0.073 A 
ATOM      7  C8  UNL d   1       2.417  -0.592   0.942  0.00  0.00     0.078 C 
ENDROOT
BRANCH   1   8
ATOM      8  C1  UNL d   1       0.129  -1.572   2.650  0.00  0.00     0.053 C 
ATOM      9  C   UNL d   1      -1.116  -1.817   3.488  0.00  0.00     0.018 C 
ENDBRANCH   1   8
TORSDOF 1
ENDMDL
