MODEL 1
REMARK minimizedAffinity 1.52997422
REMARK minimizedRMSD -1
REMARK  1 active torsions:
REMARK  status: ('A' for Active; 'I' for Inactive)
REMARK    1  A    between atoms: C1_2  and  C2_3 
ROOT
ATOM      1  C2  UNL d   1      -1.938   0.603   2.156  0.00  0.00    -0.076 A 
ATOM      2  C3  UNL d   1      -1.337  -0.659   2.002  0.00  0.00     0.004 A 
ATOM      3  C4  UNL d   1      -0.106  -0.794   1.363  0.00  0.00    -0.003 A 
ATOM      4  C5  UNL d   1       0.545   0.330   0.867  0.00  0.00     0.000 A 
ATOM      5  C6  UNL d   1      -0.027   1.591   1.026  0.00  0.00     0.000 A 
ATOM      6  C7  UNL d   1      -1.260   1.747   1.683  0.00  0.00    -0.073 A 
ATOM      7  C8  UNL d   1      -1.835   3.131   1.821  0.00  0.00     0.078 C 
ENDROOT
BRANCH   1   8
ATOM      8  C1  UNL d   1      -3.287   0.685   2.833  0.00  0.00     0.053 C 
ATOM      9  C   UNL d   1      -3.770  -0.666   3.336  0.00  0.00     0.018 C 
ENDBRANCH   1   8
TORSDOF 1
ENDMDL
