MODEL 1
REMARK minimizedAffinity 0.596065223
REMARK minimizedRMSD -1
REMARK  1 active torsions:
REMARK  status: ('A' for Active; 'I' for Inactive)
REMARK    1  A    between atoms: C1_2  and  C2_3 
ROOT
ATOM      1  C2  UNL d   1      -0.046  -0.740   1.619  0.00  0.00    -0.076 A 
ATOM      2  C3  UNL d   1      -1.283  -0.086   1.483  0.00  0.00     0.004 A 
ATOM      3  C4  UNL d   1      -1.390   1.103   0.763  0.00  0.00    -0.003 A 
ATOM      4  C5  UNL d   1      -0.262   1.657   0.167  0.00  0.00     0.000 A 
ATOM      5  C6  UNL d   1       0.969   1.012   0.277  0.00  0.00     0.000 A 
ATOM      6  C7  UNL d   1       1.092  -0.196   0.985  0.00  0.00    -0.073 A 
ATOM      7  C8  UNL d   1       2.445  -0.845   1.077  0.00  0.00     0.078 C 
ENDROOT
BRANCH   1   8
ATOM      8  C1  UNL d   1       0.015  -2.012   2.434  0.00  0.00     0.053 C 
ATOM      9  C   UNL d   1       0.141  -1.742   3.926  0.00  0.00     0.018 C 
ENDBRANCH   1   8
TORSDOF 1
ENDMDL
