MODEL 1
REMARK minimizedAffinity 1.70945084
REMARK minimizedRMSD -1
REMARK  1 active torsions:
REMARK  status: ('A' for Active; 'I' for Inactive)
REMARK    1  A    between atoms: C1_2  and  C2_3 
ROOT
ATOM      1  C2  UNL d   1       0.101   0.113   1.261  0.00  0.00    -0.076 A 
ATOM      2  C3  UNL d   1      -0.111   1.485   1.035  0.00  0.00     0.004 A 
ATOM      3  C4  UNL d   1      -1.339   2.078   1.321  0.00  0.00    -0.003 A 
ATOM      4  C5  UNL d   1      -2.376   1.310   1.838  0.00  0.00     0.000 A 
ATOM      5  C6  UNL d   1      -2.179  -0.048   2.086  0.00  0.00     0.000 A 
ATOM      6  C7  UNL d   1      -0.941  -0.659   1.819  0.00  0.00    -0.073 A 
ATOM      7  C8  UNL d   1      -0.785  -2.128   2.100  0.00  0.00     0.078 C 
ENDROOT
BRANCH   1   8
ATOM      8  C1  UNL d   1       1.445  -0.480   0.907  0.00  0.00     0.053 C 
ATOM      9  C   UNL d   1       2.204   0.361  -0.108  0.00  0.00     0.018 C 
ENDBRANCH   1   8
TORSDOF 1
ENDMDL
