MODEL 1
REMARK minimizedAffinity 11.343215
REMARK minimizedRMSD -1
REMARK  1 active torsions:
REMARK  status: ('A' for Active; 'I' for Inactive)
REMARK    1  A    between atoms: C1_2  and  C2_3 
ROOT
ATOM      1  C2  UNL d   1       2.031   0.154   1.840  0.00  0.00    -0.076 A 
ATOM      2  C3  UNL d   1       1.820   0.508   0.496  0.00  0.00     0.004 A 
ATOM      3  C4  UNL d   1       0.690   1.229   0.113  0.00  0.00    -0.003 A 
ATOM      4  C5  UNL d   1      -0.246   1.610   1.068  0.00  0.00     0.000 A 
ATOM      5  C6  UNL d   1      -0.043   1.283   2.409  0.00  0.00     0.000 A 
ATOM      6  C7  UNL d   1       1.098   0.570   2.814  0.00  0.00    -0.073 A 
ATOM      7  C8  UNL d   1       1.263   0.239   4.272  0.00  0.00     0.078 C 
ENDROOT
BRANCH   1   8
ATOM      8  C1  UNL d   1       3.260  -0.653   2.192  0.00  0.00     0.053 C 
ATOM      9  C   UNL d   1       4.408  -0.420   1.221  0.00  0.00     0.018 C 
ENDBRANCH   1   8
TORSDOF 1
ENDMDL
