MODEL 1
REMARK minimizedAffinity 0.621825337
REMARK minimizedRMSD -1
REMARK  1 active torsions:
REMARK  status: ('A' for Active; 'I' for Inactive)
REMARK    1  A    between atoms: C1_2  and  C2_3 
ROOT
ATOM      1  C2  UNL d   1      -1.705   0.951   2.614  0.00  0.00    -0.076 A 
ATOM      2  C3  UNL d   1      -1.287   2.251   2.949  0.00  0.00     0.004 A 
ATOM      3  C4  UNL d   1      -0.051   2.738   2.530  0.00  0.00    -0.003 A 
ATOM      4  C5  UNL d   1       0.789   1.933   1.767  0.00  0.00     0.000 A 
ATOM      5  C6  UNL d   1       0.383   0.648   1.410  0.00  0.00     0.000 A 
ATOM      6  C7  UNL d   1      -0.867   0.147   1.811  0.00  0.00    -0.073 A 
ATOM      7  C8  UNL d   1      -1.251  -1.249   1.403  0.00  0.00     0.078 C 
ENDROOT
BRANCH   1   8
ATOM      8  C1  UNL d   1      -3.045   0.467   3.120  0.00  0.00     0.053 C 
ATOM      9  C   UNL d   1      -3.864   1.581   3.755  0.00  0.00     0.018 C 
ENDBRANCH   1   8
TORSDOF 1
ENDMDL
