MODEL 1
REMARK minimizedAffinity -1.50870538
REMARK minimizedRMSD -1
REMARK  0 active torsions:
REMARK  status: ('A' for Active; 'I' for Inactive)
ROOT
ATOM      1  C1  BNZ d   1      -4.545   3.954  -5.178  0.00  0.00     0.000 A 
ATOM      2  C2  BNZ d   1      -3.331   4.469  -5.548  0.00  0.00     0.000 A 
ATOM      3  C3  BNZ d   1      -2.189   4.116  -4.884  0.00  0.00     0.000 A 
ATOM      4  C4  BNZ d   1      -2.268   3.281  -3.828  0.00  0.00     0.000 A 
ATOM      5  C5  BNZ d   1      -3.486   2.761  -3.437  0.00  0.00     0.000 A 
ATOM      6  C6  BNZ d   1      -4.627   3.088  -4.131  0.00  0.00     0.000 A 
ENDROOT
TORSDOF 0
ENDMDL
