MODEL 1
REMARK minimizedAffinity -3.11144996
REMARK minimizedRMSD -1
REMARK  0 active torsions:
REMARK  status: ('A' for Active; 'I' for Inactive)
ROOT
ATOM      1  C1  BNZ d   1       0.905  -1.466   0.530  0.00  0.00     0.000 A 
ATOM      2  C2  BNZ d   1       1.938  -1.750  -0.323  0.00  0.00     0.000 A 
ATOM      3  C3  BNZ d   1       2.682  -0.746  -0.879  0.00  0.00     0.000 A 
ATOM      4  C4  BNZ d   1       2.366   0.538  -0.613  0.00  0.00     0.000 A 
ATOM      5  C5  BNZ d   1       1.321   0.840   0.237  0.00  0.00     0.000 A 
ATOM      6  C6  BNZ d   1       0.600  -0.174   0.826  0.00  0.00     0.000 A 
ENDROOT
TORSDOF 0
ENDMDL
