MODEL 1
REMARK minimizedAffinity -1.2359072
REMARK minimizedRMSD -1
REMARK  0 active torsions:
REMARK  status: ('A' for Active; 'I' for Inactive)
ROOT
ATOM      1  C1  BNZ d   1       2.755  -0.549  -1.366  0.00  0.00     0.000 A 
ATOM      2  C2  BNZ d   1       2.263  -1.587  -0.620  0.00  0.00     0.000 A 
ATOM      3  C3  BNZ d   1       1.704  -1.364   0.607  0.00  0.00     0.000 A 
ATOM      4  C4  BNZ d   1       1.673  -0.111   1.103  0.00  0.00     0.000 A 
ATOM      5  C5  BNZ d   1       2.174   0.945   0.368  0.00  0.00     0.000 A 
ATOM      6  C6  BNZ d   1       2.701   0.722  -0.883  0.00  0.00     0.000 A 
ENDROOT
TORSDOF 0
ENDMDL
