MODEL 1
REMARK minimizedAffinity -0.200330943
REMARK minimizedRMSD -1
REMARK  0 active torsions:
REMARK  status: ('A' for Active; 'I' for Inactive)
ROOT
ATOM      1  C1  BNZ d   1       2.560  -1.155  -0.799  0.00  0.00     0.000 A 
ATOM      2  C2  BNZ d   1       1.804  -1.944   0.026  0.00  0.00     0.000 A 
ATOM      3  C3  BNZ d   1       1.092  -1.398   1.057  0.00  0.00     0.000 A 
ATOM      4  C4  BNZ d   1       1.169  -0.071   1.286  0.00  0.00     0.000 A 
ATOM      5  C5  BNZ d   1       1.934   0.736   0.469  0.00  0.00     0.000 A 
ATOM      6  C6  BNZ d   1       2.618   0.188  -0.592  0.00  0.00     0.000 A 
ENDROOT
TORSDOF 0
ENDMDL
