MODEL 1
REMARK minimizedAffinity -0.600150883
REMARK minimizedRMSD -1
REMARK  0 active torsions:
REMARK  status: ('A' for Active; 'I' for Inactive)
ROOT
ATOM      1  C1  BNZ d   1       0.779  -1.219   0.504  0.00  0.00     0.000 A 
ATOM      2  C2  BNZ d   1       0.816   0.081   0.934  0.00  0.00     0.000 A 
ATOM      3  C3  BNZ d   1       1.782   0.939   0.487  0.00  0.00     0.000 A 
ATOM      4  C4  BNZ d   1       2.732   0.486  -0.356  0.00  0.00     0.000 A 
ATOM      5  C5  BNZ d   1       2.713  -0.824  -0.792  0.00  0.00     0.000 A 
ATOM      6  C6  BNZ d   1       1.717  -1.674  -0.371  0.00  0.00     0.000 A 
ENDROOT
TORSDOF 0
ENDMDL
