MODEL 1
REMARK minimizedAffinity -2.56626797
REMARK minimizedRMSD -1
REMARK  0 active torsions:
REMARK  status: ('A' for Active; 'I' for Inactive)
ROOT
ATOM      1  C1  BNZ d   1       2.648  -1.377  -0.117  0.00  0.00     0.000 A 
ATOM      2  C2  BNZ d   1       1.898  -1.037   0.977  0.00  0.00     0.000 A 
ATOM      3  C3  BNZ d   1       1.101   0.074   0.962  0.00  0.00     0.000 A 
ATOM      4  C4  BNZ d   1       1.085   0.864  -0.131  0.00  0.00     0.000 A 
ATOM      5  C5  BNZ d   1       1.843   0.539  -1.239  0.00  0.00     0.000 A 
ATOM      6  C6  BNZ d   1       2.614  -0.600  -1.234  0.00  0.00     0.000 A 
ENDROOT
TORSDOF 0
ENDMDL
