MODEL 1
REMARK minimizedAffinity -1.39501035
REMARK minimizedRMSD -1
REMARK  0 active torsions:
REMARK  status: ('A' for Active; 'I' for Inactive)
ROOT
ATOM      1  C1  BNZ d   1       1.584  -0.723  -0.410  0.00  0.00     0.000 A 
ATOM      2  C2  BNZ d   1       0.823  -1.689   0.193  0.00  0.00     0.000 A 
ATOM      3  C3  BNZ d   1       0.019  -1.385   1.256  0.00  0.00     0.000 A 
ATOM      4  C4  BNZ d   1       0.008  -0.126   1.739  0.00  0.00     0.000 A 
ATOM      5  C5  BNZ d   1       0.776   0.857   1.148  0.00  0.00     0.000 A 
ATOM      6  C6  BNZ d   1       1.554   0.556   0.054  0.00  0.00     0.000 A 
ENDROOT
TORSDOF 0
ENDMDL
