MODEL 1
REMARK minimizedAffinity -2.32617664
REMARK minimizedRMSD -1
REMARK  0 active torsions:
REMARK  status: ('A' for Active; 'I' for Inactive)
ROOT
ATOM      1  C1  BNZ d   1       0.440  -0.047   1.087  0.00  0.00     0.000 A 
ATOM      2  C2  BNZ d   1       0.456  -1.294   0.522  0.00  0.00     0.000 A 
ATOM      3  C3  BNZ d   1       1.262  -1.568  -0.548  0.00  0.00     0.000 A 
ATOM      4  C4  BNZ d   1       2.020  -0.585  -1.075  0.00  0.00     0.000 A 
ATOM      5  C5  BNZ d   1       2.009   0.680  -0.522  0.00  0.00     0.000 A 
ATOM      6  C6  BNZ d   1       1.225   0.942   0.578  0.00  0.00     0.000 A 
ENDROOT
TORSDOF 0
ENDMDL
