MODEL 1
REMARK minimizedAffinity -0.748458922
REMARK minimizedRMSD -1
REMARK  0 active torsions:
REMARK  status: ('A' for Active; 'I' for Inactive)
ROOT
ATOM      1  C1  BNZ d   1       1.408  -0.863  -0.412  0.00  0.00     0.000 A 
ATOM      2  C2  BNZ d   1       0.800  -1.369   0.706  0.00  0.00     0.000 A 
ATOM      3  C3  BNZ d   1       0.577  -0.580   1.800  0.00  0.00     0.000 A 
ATOM      4  C4  BNZ d   1       0.998   0.701   1.789  0.00  0.00     0.000 A 
ATOM      5  C5  BNZ d   1       1.621   1.224   0.674  0.00  0.00     0.000 A 
ATOM      6  C6  BNZ d   1       1.809   0.437  -0.440  0.00  0.00     0.000 A 
ENDROOT
TORSDOF 0
ENDMDL
