MODEL 1
REMARK minimizedAffinity -3.19005442
REMARK minimizedRMSD -1
REMARK  0 active torsions:
REMARK  status: ('A' for Active; 'I' for Inactive)
ROOT
ATOM      1  C1  BNZ d   1       1.212  -1.278  -0.352  0.00  0.00     0.000 A 
ATOM      2  C2  BNZ d   1       0.583  -1.869   0.711  0.00  0.00     0.000 A 
ATOM      3  C3  BNZ d   1       0.168  -1.126   1.780  0.00  0.00     0.000 A 
ATOM      4  C4  BNZ d   1       0.416   0.199   1.803  0.00  0.00     0.000 A 
ATOM      5  C5  BNZ d   1       1.057   0.809   0.743  0.00  0.00     0.000 A 
ATOM      6  C6  BNZ d   1       1.439   0.064  -0.349  0.00  0.00     0.000 A 
ENDROOT
TORSDOF 0
ENDMDL
