MODEL 1
REMARK minimizedAffinity -4.31131315
REMARK minimizedRMSD -1
REMARK  0 active torsions:
REMARK  status: ('A' for Active; 'I' for Inactive)
ROOT
ATOM      1  C1  BNZ d   1       0.441  -0.163   0.962  0.00  0.00     0.000 A 
ATOM      2  C2  BNZ d   1       1.237   0.788   0.382  0.00  0.00     0.000 A 
ATOM      3  C3  BNZ d   1       2.097   0.459  -0.629  0.00  0.00     0.000 A 
ATOM      4  C4  BNZ d   1       2.189  -0.825  -1.029  0.00  0.00     0.000 A 
ATOM      5  C5  BNZ d   1       1.400  -1.797  -0.447  0.00  0.00     0.000 A 
ATOM      6  C6  BNZ d   1       0.507  -1.456   0.542  0.00  0.00     0.000 A 
ENDROOT
TORSDOF 0
ENDMDL
