MODEL 1
REMARK minimizedAffinity 3.36208797
REMARK minimizedRMSD -1
REMARK  0 active torsions:
REMARK  status: ('A' for Active; 'I' for Inactive)
ROOT
ATOM      1  C1  BNZ d   1      -1.682   3.815  -3.376  0.00  0.00     0.000 A 
ATOM      2  C2  BNZ d   1      -2.283   2.671  -3.830  0.00  0.00     0.000 A 
ATOM      3  C3  BNZ d   1      -1.539   1.571  -4.154  0.00  0.00     0.000 A 
ATOM      4  C4  BNZ d   1      -0.195   1.629  -4.061  0.00  0.00     0.000 A 
ATOM      5  C5  BNZ d   1       0.426   2.778  -3.614  0.00  0.00     0.000 A 
ATOM      6  C6  BNZ d   1      -0.328   3.870  -3.253  0.00  0.00     0.000 A 
ENDROOT
TORSDOF 0
ENDMDL
