MODEL 1
REMARK minimizedAffinity 1.55783784
REMARK minimizedRMSD -1
REMARK  0 active torsions:
REMARK  status: ('A' for Active; 'I' for Inactive)
ROOT
ATOM      1  C1  BNZ d   1       1.440  -1.337  -0.565  0.00  0.00     0.000 A 
ATOM      2  C2  BNZ d   1       0.655  -1.759   0.475  0.00  0.00     0.000 A 
ATOM      3  C3  BNZ d   1       0.345  -0.915   1.505  0.00  0.00     0.000 A 
ATOM      4  C4  BNZ d   1       0.851   0.335   1.513  0.00  0.00     0.000 A 
ATOM      5  C5  BNZ d   1       1.650   0.772   0.476  0.00  0.00     0.000 A 
ATOM      6  C6  BNZ d   1       1.929  -0.067  -0.578  0.00  0.00     0.000 A 
ENDROOT
TORSDOF 0
ENDMDL
