MODEL 1
REMARK minimizedAffinity 4.33430481
REMARK minimizedRMSD -1
REMARK  0 active torsions:
REMARK  status: ('A' for Active; 'I' for Inactive)
ROOT
ATOM      1  C1  BNZ d   1      -2.147   2.887  -3.335  0.00  0.00     0.000 A 
ATOM      2  C2  BNZ d   1      -1.810   1.669  -3.863  0.00  0.00     0.000 A 
ATOM      3  C3  BNZ d   1      -0.510   1.373  -4.164  0.00  0.00     0.000 A 
ATOM      4  C4  BNZ d   1       0.444   2.307  -3.975  0.00  0.00     0.000 A 
ATOM      5  C5  BNZ d   1       0.118   3.543  -3.452  0.00  0.00     0.000 A 
ATOM      6  C6  BNZ d   1      -1.186   3.824  -3.114  0.00  0.00     0.000 A 
ENDROOT
TORSDOF 0
ENDMDL
