MODEL 1
REMARK minimizedAffinity -0.257070005
REMARK minimizedRMSD -1
REMARK  0 active torsions:
REMARK  status: ('A' for Active; 'I' for Inactive)
ROOT
ATOM      1  C1  BNZ d   1       2.033  -1.794  -0.564  0.00  0.00     0.000 A 
ATOM      2  C2  BNZ d   1       2.999  -0.826  -0.628  0.00  0.00     0.000 A 
ATOM      3  C3  BNZ d   1       2.854   0.353   0.049  0.00  0.00     0.000 A 
ATOM      4  C4  BNZ d   1       1.727   0.578   0.754  0.00  0.00     0.000 A 
ATOM      5  C5  BNZ d   1       0.739  -0.384   0.820  0.00  0.00     0.000 A 
ATOM      6  C6  BNZ d   1       0.906  -1.585   0.170  0.00  0.00     0.000 A 
ENDROOT
TORSDOF 0
ENDMDL
