MODEL 1
REMARK minimizedAffinity -2.97154593
REMARK minimizedRMSD -1
REMARK  0 active torsions:
REMARK  status: ('A' for Active; 'I' for Inactive)
ROOT
ATOM      1  C1  BNZ d   1       2.892  -0.439  -1.416  0.00  0.00     0.000 A 
ATOM      2  C2  BNZ d   1       2.419  -1.507  -0.702  0.00  0.00     0.000 A 
ATOM      3  C3  BNZ d   1       1.612  -1.321   0.385  0.00  0.00     0.000 A 
ATOM      4  C4  BNZ d   1       1.312  -0.068   0.781  0.00  0.00     0.000 A 
ATOM      5  C5  BNZ d   1       1.788   1.021   0.077  0.00  0.00     0.000 A 
ATOM      6  C6  BNZ d   1       2.568   0.829  -1.040  0.00  0.00     0.000 A 
ENDROOT
TORSDOF 0
ENDMDL
