MODEL 1
REMARK minimizedAffinity -1.78910506
REMARK minimizedRMSD -1
REMARK  0 active torsions:
REMARK  status: ('A' for Active; 'I' for Inactive)
ROOT
ATOM      1  C1  BNZ d   1      -0.136   3.339  -3.741  0.00  0.00     0.000 A 
ATOM      2  C2  BNZ d   1       0.283   2.223  -4.415  0.00  0.00     0.000 A 
ATOM      3  C3  BNZ d   1      -0.612   1.274  -4.822  0.00  0.00     0.000 A 
ATOM      4  C4  BNZ d   1      -1.918   1.422  -4.521  0.00  0.00     0.000 A 
ATOM      5  C5  BNZ d   1      -2.355   2.537  -3.834  0.00  0.00     0.000 A 
ATOM      6  C6  BNZ d   1      -1.456   3.509  -3.460  0.00  0.00     0.000 A 
ENDROOT
TORSDOF 0
ENDMDL
