MODEL 1
REMARK minimizedAffinity -1.29529786
REMARK minimizedRMSD -1
REMARK  0 active torsions:
REMARK  status: ('A' for Active; 'I' for Inactive)
ROOT
ATOM      1  C1  BNZ d   1       0.420  -0.274   0.995  0.00  0.00     0.000 A 
ATOM      2  C2  BNZ d   1       0.677  -1.468   0.375  0.00  0.00     0.000 A 
ATOM      3  C3  BNZ d   1       1.593  -1.547  -0.637  0.00  0.00     0.000 A 
ATOM      4  C4  BNZ d   1       2.220  -0.428  -1.054  0.00  0.00     0.000 A 
ATOM      5  C5  BNZ d   1       1.964   0.784  -0.444  0.00  0.00     0.000 A 
ATOM      6  C6  BNZ d   1       1.071   0.854   0.600  0.00  0.00     0.000 A 
ENDROOT
TORSDOF 0
ENDMDL
