MODEL 1
REMARK minimizedAffinity 19.167429
REMARK minimizedRMSD -1
REMARK  0 active torsions:
REMARK  status: ('A' for Active; 'I' for Inactive)
ROOT
ATOM      1  C   UNL d   1      -6.000  -5.182  -2.999  0.00  0.00    -0.002 A 
ATOM      2  C1  UNL d   1      -5.401  -6.000  -2.051  0.00  0.00     0.010 A 
ATOM      3  C2  UNL d   1      -4.129  -5.703  -1.559  0.00  0.00     0.041 A 
ATOM      4  C3  UNL d   1      -3.462  -4.559  -2.039  0.00  0.00    -0.075 A 
ATOM      5  S   UNL d   1      -1.898  -3.998  -1.580  0.00  0.00     0.015 SA
ATOM      6  C4  UNL d   1      -1.988  -2.659  -2.631  0.00  0.00     0.022 A 
ATOM      7  C5  UNL d   1      -3.175  -2.626  -3.323  0.00  0.00     0.026 A 
ATOM      8  C6  UNL d   1      -4.045  -3.720  -2.993  0.00  0.00    -0.082 A 
ATOM      9  C7  UNL d   1      -5.335  -4.048  -3.473  0.00  0.00     0.045 A 
ENDROOT
TORSDOF 0
ENDMDL
