MODEL 1
REMARK minimizedAffinity 7.41063499
REMARK minimizedRMSD -1
REMARK  0 active torsions:
REMARK  status: ('A' for Active; 'I' for Inactive)
ROOT
ATOM      1  C   UNL d   1       4.128   1.800  -3.531  0.00  0.00    -0.002 A 
ATOM      2  C1  UNL d   1       4.250   2.678  -2.463  0.00  0.00     0.010 A 
ATOM      3  C2  UNL d   1       3.811   3.999  -2.575  0.00  0.00     0.041 A 
ATOM      4  C3  UNL d   1       3.240   4.426  -3.790  0.00  0.00    -0.075 A 
ATOM      5  S   UNL d   1       2.632   5.997  -4.157  0.00  0.00     0.015 SA
ATOM      6  C4  UNL d   1       2.195   5.539  -5.740  0.00  0.00     0.022 A 
ATOM      7  C5  UNL d   1       2.499   4.224  -5.999  0.00  0.00     0.026 A 
ATOM      8  C6  UNL d   1       3.106   3.560  -4.879  0.00  0.00    -0.082 A 
ATOM      9  C7  UNL d   1       3.562   2.228  -4.734  0.00  0.00     0.045 A 
ENDROOT
TORSDOF 0
ENDMDL
