MODEL 1
REMARK minimizedAffinity 13.7206326
REMARK minimizedRMSD -1
REMARK  0 active torsions:
REMARK  status: ('A' for Active; 'I' for Inactive)
ROOT
ATOM      1  C   UNL d   1      -2.030  -2.401   1.693  0.00  0.00    -0.002 A 
ATOM      2  C1  UNL d   1      -0.813  -3.007   1.412  0.00  0.00     0.010 A 
ATOM      3  C2  UNL d   1      -0.459  -3.311   0.096  0.00  0.00     0.041 A 
ATOM      4  C3  UNL d   1      -1.355  -2.992  -0.943  0.00  0.00    -0.075 A 
ATOM      5  S   UNL d   1      -1.132  -3.271  -2.630  0.00  0.00     0.015 SA
ATOM      6  C4  UNL d   1      -2.647  -2.591  -3.017  0.00  0.00     0.022 A 
ATOM      7  C5  UNL d   1      -3.319  -2.158  -1.899  0.00  0.00     0.026 A 
ATOM      8  C6  UNL d   1      -2.585  -2.381  -0.685  0.00  0.00    -0.082 A 
ATOM      9  C7  UNL d   1      -2.916  -2.086   0.659  0.00  0.00     0.045 A 
ENDROOT
TORSDOF 0
ENDMDL
