MODEL 1
REMARK minimizedAffinity 11.2483912
REMARK minimizedRMSD -1
REMARK  0 active torsions:
REMARK  status: ('A' for Active; 'I' for Inactive)
ROOT
ATOM      1  C   UNL d   1       4.292   1.132  -3.711  0.00  0.00    -0.002 A 
ATOM      2  C1  UNL d   1       4.447   1.937  -2.591  0.00  0.00     0.010 A 
ATOM      3  C2  UNL d   1       4.037   3.271  -2.614  0.00  0.00     0.041 A 
ATOM      4  C3  UNL d   1       3.462   3.788  -3.792  0.00  0.00    -0.075 A 
ATOM      5  S   UNL d   1       2.886   5.392  -4.051  0.00  0.00     0.015 SA
ATOM      6  C4  UNL d   1       2.420   5.046  -5.653  0.00  0.00     0.022 A 
ATOM      7  C5  UNL d   1       2.690   3.743  -5.999  0.00  0.00     0.026 A 
ATOM      8  C6  UNL d   1       3.295   2.996  -4.932  0.00  0.00    -0.082 A 
ATOM      9  C7  UNL d   1       3.721   1.647  -4.877  0.00  0.00     0.045 A 
ENDROOT
TORSDOF 0
ENDMDL
