MODEL 1
REMARK minimizedAffinity 17.268137
REMARK minimizedRMSD -1
REMARK  0 active torsions:
REMARK  status: ('A' for Active; 'I' for Inactive)
ROOT
ATOM      1  C   UNL d   1      -6.000  -4.299  -2.954  0.00  0.00    -0.002 A 
ATOM      2  C1  UNL d   1      -5.665  -5.586  -2.559  0.00  0.00     0.010 A 
ATOM      3  C2  UNL d   1      -4.332  -6.000  -2.540  0.00  0.00     0.041 A 
ATOM      4  C3  UNL d   1      -3.330  -5.088  -2.926  0.00  0.00    -0.075 A 
ATOM      5  S   UNL d   1      -1.630  -5.372  -2.981  0.00  0.00     0.015 SA
ATOM      6  C4  UNL d   1      -1.308  -3.791  -3.528  0.00  0.00     0.022 A 
ATOM      7  C5  UNL d   1      -2.457  -3.050  -3.672  0.00  0.00     0.026 A 
ATOM      8  C6  UNL d   1      -3.642  -3.785  -3.327  0.00  0.00    -0.082 A 
ATOM      9  C7  UNL d   1      -5.003  -3.397  -3.336  0.00  0.00     0.045 A 
ENDROOT
TORSDOF 0
ENDMDL
