MODEL 1
REMARK minimizedAffinity 17.0645809
REMARK minimizedRMSD -1
REMARK  0 active torsions:
REMARK  status: ('A' for Active; 'I' for Inactive)
ROOT
ATOM      1  C   UNL d   1       6.000  -0.024  -0.638  0.00  0.00    -0.002 A 
ATOM      2  C1  UNL d   1       5.651   1.219  -1.148  0.00  0.00     0.010 A 
ATOM      3  C2  UNL d   1       4.478   1.852  -0.734  0.00  0.00     0.041 A 
ATOM      4  C3  UNL d   1       3.654   1.211   0.211  0.00  0.00    -0.075 A 
ATOM      5  S   UNL d   1       2.170   1.797   0.866  0.00  0.00     0.015 SA
ATOM      6  C4  UNL d   1       1.965   0.412   1.838  0.00  0.00     0.022 A 
ATOM      7  C5  UNL d   1       2.994  -0.486   1.680  0.00  0.00     0.026 A 
ATOM      8  C6  UNL d   1       3.985  -0.040   0.740  0.00  0.00    -0.082 A 
ATOM      9  C7  UNL d   1       5.180  -0.657   0.300  0.00  0.00     0.045 A 
ENDROOT
TORSDOF 0
ENDMDL
