MODEL 1
REMARK minimizedAffinity 16.9757977
REMARK minimizedRMSD -1
REMARK  0 active torsions:
REMARK  status: ('A' for Active; 'I' for Inactive)
ROOT
ATOM      1  C   UNL d   1      -1.163  -2.213  -1.534  0.00  0.00    -0.002 A 
ATOM      2  C1  UNL d   1      -0.651  -2.230  -2.823  0.00  0.00     0.010 A 
ATOM      3  C2  UNL d   1      -1.317  -2.912  -3.843  0.00  0.00     0.041 A 
ATOM      4  C3  UNL d   1      -2.519  -3.582  -3.543  0.00  0.00    -0.075 A 
ATOM      5  S   UNL d   1      -3.508  -4.482  -4.632  0.00  0.00     0.015 SA
ATOM      6  C4  UNL d   1      -4.634  -4.865  -3.411  0.00  0.00     0.022 A 
ATOM      7  C5  UNL d   1      -4.280  -4.327  -2.196  0.00  0.00     0.026 A 
ATOM      8  C6  UNL d   1      -3.055  -3.579  -2.252  0.00  0.00    -0.082 A 
ATOM      9  C7  UNL d   1      -2.356  -2.879  -1.240  0.00  0.00     0.045 A 
ENDROOT
TORSDOF 0
ENDMDL
