MODEL 1
REMARK minimizedAffinity 14.0006008
REMARK minimizedRMSD -1
REMARK  0 active torsions:
REMARK  status: ('A' for Active; 'I' for Inactive)
ROOT
ATOM      1  C   UNL d   1      -5.986  -4.862  -2.288  0.00  0.00    -0.002 A 
ATOM      2  C1  UNL d   1      -5.278  -5.991  -1.898  0.00  0.00     0.010 A 
ATOM      3  C2  UNL d   1      -3.882  -6.000  -1.929  0.00  0.00     0.041 A 
ATOM      4  C3  UNL d   1      -3.203  -4.844  -2.361  0.00  0.00    -0.075 A 
ATOM      5  S   UNL d   1      -1.497  -4.625  -2.480  0.00  0.00     0.015 SA
ATOM      6  C4  UNL d   1      -1.667  -3.028  -3.051  0.00  0.00     0.022 A 
ATOM      7  C5  UNL d   1      -2.986  -2.655  -3.155  0.00  0.00     0.026 A 
ATOM      8  C6  UNL d   1      -3.893  -3.695  -2.758  0.00  0.00    -0.082 A 
ATOM      9  C7  UNL d   1      -5.308  -3.718  -2.716  0.00  0.00     0.045 A 
ENDROOT
TORSDOF 0
ENDMDL
