MODEL 1
REMARK minimizedAffinity 8.9507885
REMARK minimizedRMSD -1
REMARK  0 active torsions:
REMARK  status: ('A' for Active; 'I' for Inactive)
ROOT
ATOM      1  C   UNL d   1      -3.276  -3.556  -2.134  0.00  0.00    -0.002 A 
ATOM      2  C1  UNL d   1      -2.233  -2.840  -1.564  0.00  0.00     0.010 A 
ATOM      3  C2  UNL d   1      -0.907  -3.161  -1.861  0.00  0.00     0.041 A 
ATOM      4  C3  UNL d   1      -0.644  -4.222  -2.749  0.00  0.00    -0.075 A 
ATOM      5  S   UNL d   1       0.901  -4.792  -3.259  0.00  0.00     0.015 SA
ATOM      6  C4  UNL d   1       0.212  -5.999  -4.246  0.00  0.00     0.022 A 
ATOM      7  C5  UNL d   1      -1.162  -5.982  -4.199  0.00  0.00     0.026 A 
ATOM      8  C6  UNL d   1      -1.678  -4.957  -3.336  0.00  0.00    -0.082 A 
ATOM      9  C7  UNL d   1      -3.012  -4.608  -3.015  0.00  0.00     0.045 A 
ENDROOT
TORSDOF 0
ENDMDL
