MODEL 1
REMARK minimizedAffinity 11.8087149
REMARK minimizedRMSD -1
REMARK  0 active torsions:
REMARK  status: ('A' for Active; 'I' for Inactive)
ROOT
ATOM      1  C   UNL d   1      -0.653  -2.149   1.228  0.00  0.00    -0.002 A 
ATOM      2  C1  UNL d   1      -1.836  -2.817   1.512  0.00  0.00     0.010 A 
ATOM      3  C2  UNL d   1      -2.657  -3.277   0.480  0.00  0.00     0.041 A 
ATOM      4  C3  UNL d   1      -2.264  -3.055  -0.854  0.00  0.00    -0.075 A 
ATOM      5  S   UNL d   1      -3.109  -3.530  -2.280  0.00  0.00     0.015 SA
ATOM      6  C4  UNL d   1      -1.920  -2.859  -3.299  0.00  0.00     0.022 A 
ATOM      7  C5  UNL d   1      -0.896  -2.282  -2.586  0.00  0.00     0.026 A 
ATOM      8  C6  UNL d   1      -1.077  -2.386  -1.165  0.00  0.00    -0.082 A 
ATOM      9  C7  UNL d   1      -0.267  -1.930  -0.097  0.00  0.00     0.045 A 
ENDROOT
TORSDOF 0
ENDMDL
