MODEL 1
REMARK minimizedAffinity 16.9330215
REMARK minimizedRMSD -1
REMARK  0 active torsions:
REMARK  status: ('A' for Active; 'I' for Inactive)
ROOT
ATOM      1  C   UNL d   1      -1.042  -2.420   0.262  0.00  0.00    -0.002 A 
ATOM      2  C1  UNL d   1      -0.139  -2.880   1.210  0.00  0.00     0.010 A 
ATOM      3  C2  UNL d   1      -0.448  -3.983   2.008  0.00  0.00     0.041 A 
ATOM      4  C3  UNL d   1      -1.690  -4.623   1.834  0.00  0.00    -0.075 A 
ATOM      5  S   UNL d   1      -2.284  -5.992   2.698  0.00  0.00     0.015 SA
ATOM      6  C4  UNL d   1      -3.749  -5.999   1.828  0.00  0.00     0.022 A 
ATOM      7  C5  UNL d   1      -3.802  -4.988   0.898  0.00  0.00     0.026 A 
ATOM      8  C6  UNL d   1      -2.616  -4.179   0.886  0.00  0.00    -0.082 A 
ATOM      9  C7  UNL d   1      -2.273  -3.058   0.092  0.00  0.00     0.045 A 
ENDROOT
TORSDOF 0
ENDMDL
