MODEL 1
REMARK minimizedAffinity 2.22211289
REMARK minimizedRMSD -1
REMARK  0 active torsions:
REMARK  status: ('A' for Active; 'I' for Inactive)
ROOT
ATOM      1  C   UNL d   1      -5.709  -5.247  -3.579  0.00  0.00    -0.002 A 
ATOM      2  C1  UNL d   1      -5.990  -4.200  -2.713  0.00  0.00     0.010 A 
ATOM      3  C2  UNL d   1      -4.976  -3.340  -2.285  0.00  0.00     0.041 A 
ATOM      4  C3  UNL d   1      -3.663  -3.552  -2.748  0.00  0.00    -0.075 A 
ATOM      5  S   UNL d   1      -2.262  -2.625  -2.359  0.00  0.00     0.015 SA
ATOM      6  C4  UNL d   1      -1.257  -3.597  -3.335  0.00  0.00     0.022 A 
ATOM      7  C5  UNL d   1      -1.957  -4.609  -3.949  0.00  0.00     0.026 A 
ATOM      8  C6  UNL d   1      -3.355  -4.599  -3.622  0.00  0.00    -0.082 A 
ATOM      9  C7  UNL d   1      -4.405  -5.454  -4.036  0.00  0.00     0.045 A 
ENDROOT
TORSDOF 0
ENDMDL
