MODEL 1
REMARK minimizedAffinity -0.689307213
REMARK minimizedRMSD -1
REMARK  1 active torsions:
REMARK  status: ('A' for Active; 'I' for Inactive)
REMARK    1  A    between atoms: C1_2  and  C2_3 
ROOT
ATOM      1  C2  UNL d   1       3.203   0.331   2.298  0.00  0.00    -0.081 A 
ATOM      2  C3  UNL d   1       2.616  -0.694   3.049  0.00  0.00     0.006 A 
ATOM      3  C4  UNL d   1       1.226  -0.775   3.173  0.00  0.00     0.002 A 
ATOM      4  C5  UNL d   1       0.402   0.162   2.542  0.00  0.00    -0.080 A 
ATOM      5  C6  UNL d   1      -1.092   0.068   2.641  0.00  0.00     0.076 C 
ATOM      6  C7  UNL d   1       0.989   1.197   1.806  0.00  0.00     0.002 A 
ATOM      7  C8  UNL d   1       2.377   1.279   1.682  0.00  0.00     0.006 A 
ENDROOT
BRANCH   1   8
ATOM      8  C1  UNL d   1       4.697   0.384   2.110  0.00  0.00     0.054 C 
ATOM      9  C   UNL d   1       5.069   0.371   0.634  0.00  0.00     0.018 C 
ENDBRANCH   1   8
TORSDOF 1
ENDMDL
