MODEL 1
REMARK minimizedAffinity 1.22314632
REMARK minimizedRMSD -1
REMARK  1 active torsions:
REMARK  status: ('A' for Active; 'I' for Inactive)
REMARK    1  A    between atoms: C1_2  and  C2_3 
ROOT
ATOM      1  C2  UNL d   1       5.735  -3.778   5.111  0.00  0.00    -0.081 A 
ATOM      2  C3  UNL d   1       5.953  -2.481   5.594  0.00  0.00     0.006 A 
ATOM      3  C4  UNL d   1       5.681  -1.372   4.791  0.00  0.00     0.002 A 
ATOM      4  C5  UNL d   1       5.180  -1.539   3.495  0.00  0.00    -0.080 A 
ATOM      5  C6  UNL d   1       4.855  -0.355   2.633  0.00  0.00     0.076 C 
ATOM      6  C7  UNL d   1       4.979  -2.834   3.006  0.00  0.00     0.002 A 
ATOM      7  C8  UNL d   1       5.252  -3.944   3.809  0.00  0.00     0.006 A 
ENDROOT
BRANCH   1   8
ATOM      8  C1  UNL d   1       5.966  -4.975   5.998  0.00  0.00     0.054 C 
ATOM      9  C   UNL d   1       4.762  -5.906   5.995  0.00  0.00     0.018 C 
ENDBRANCH   1   8
TORSDOF 1
ENDMDL
