MODEL 1
REMARK minimizedAffinity 0.165586829
REMARK minimizedRMSD -1
REMARK  1 active torsions:
REMARK  status: ('A' for Active; 'I' for Inactive)
REMARK    1  A    between atoms: C1_2  and  C2_3 
ROOT
ATOM      1  C2  UNL d   1      -5.933  -3.912   0.297  0.00  0.00    -0.081 A 
ATOM      2  C3  UNL d   1      -5.946  -3.949  -1.103  0.00  0.00     0.006 A 
ATOM      3  C4  UNL d   1      -5.980  -2.765  -1.842  0.00  0.00     0.002 A 
ATOM      4  C5  UNL d   1      -5.994  -1.524  -1.196  0.00  0.00    -0.080 A 
ATOM      5  C6  UNL d   1      -6.000  -0.245  -1.978  0.00  0.00     0.076 C 
ATOM      6  C7  UNL d   1      -5.998  -1.487   0.203  0.00  0.00     0.002 A 
ATOM      7  C8  UNL d   1      -5.965  -2.671   0.943  0.00  0.00     0.006 A 
ENDROOT
BRANCH   1   8
ATOM      8  C1  UNL d   1      -5.831  -5.185   1.097  0.00  0.00     0.054 C 
ATOM      9  C   UNL d   1      -4.606  -5.994   0.696  0.00  0.00     0.018 C 
ENDBRANCH   1   8
TORSDOF 1
ENDMDL
