MODEL 1
REMARK minimizedAffinity 16.3149357
REMARK minimizedRMSD -1
REMARK  1 active torsions:
REMARK  status: ('A' for Active; 'I' for Inactive)
REMARK    1  A    between atoms: C1_2  and  C2_3 
ROOT
ATOM      1  C2  UNL d   1       0.003   0.180  -4.431  0.00  0.00    -0.081 A 
ATOM      2  C3  UNL d   1      -0.482   1.187  -3.588  0.00  0.00     0.006 A 
ATOM      3  C4  UNL d   1       0.244   1.578  -2.460  0.00  0.00     0.002 A 
ATOM      4  C5  UNL d   1       1.470   0.975  -2.162  0.00  0.00    -0.080 A 
ATOM      5  C6  UNL d   1       2.274   1.406  -0.971  0.00  0.00     0.076 C 
ATOM      6  C7  UNL d   1       1.947  -0.044  -2.994  0.00  0.00     0.002 A 
ATOM      7  C8  UNL d   1       1.221  -0.436  -4.121  0.00  0.00     0.006 A 
ENDROOT
BRANCH   1   8
ATOM      8  C1  UNL d   1      -0.746  -0.200  -5.682  0.00  0.00     0.054 C 
ATOM      9  C   UNL d   1      -1.841   0.810  -5.999  0.00  0.00     0.018 C 
ENDBRANCH   1   8
TORSDOF 1
ENDMDL
