MODEL 1
REMARK minimizedAffinity 12.8957376
REMARK minimizedRMSD -1
REMARK  1 active torsions:
REMARK  status: ('A' for Active; 'I' for Inactive)
REMARK    1  A    between atoms: C1_2  and  C2_3 
ROOT
ATOM      1  C2  UNL d   1      -4.948  -3.989  -1.091  0.00  0.00    -0.081 A 
ATOM      2  C3  UNL d   1      -4.500  -5.311  -1.196  0.00  0.00     0.006 A 
ATOM      3  C4  UNL d   1      -3.940  -5.958  -0.092  0.00  0.00     0.002 A 
ATOM      4  C5  UNL d   1      -3.826  -5.297   1.136  0.00  0.00    -0.080 A 
ATOM      5  C6  UNL d   1      -3.254  -5.990   2.337  0.00  0.00     0.076 C 
ATOM      6  C7  UNL d   1      -4.258  -3.970   1.236  0.00  0.00     0.002 A 
ATOM      7  C8  UNL d   1      -4.817  -3.322   0.132  0.00  0.00     0.006 A 
ENDROOT
BRANCH   1   8
ATOM      8  C1  UNL d   1      -5.612  -3.310  -2.262  0.00  0.00     0.054 C 
ATOM      9  C   UNL d   1      -5.706  -1.806  -2.049  0.00  0.00     0.018 C 
ENDBRANCH   1   8
TORSDOF 1
ENDMDL
