MODEL 1
REMARK minimizedAffinity 15.7539606
REMARK minimizedRMSD -1
REMARK  1 active torsions:
REMARK  status: ('A' for Active; 'I' for Inactive)
REMARK    1  A    between atoms: C1_2  and  C2_3 
ROOT
ATOM      1  C2  UNL d   1       1.875   2.834   0.283  0.00  0.00    -0.081 A 
ATOM      2  C3  UNL d   1       1.038   1.712   0.260  0.00  0.00     0.006 A 
ATOM      3  C4  UNL d   1       0.919   0.941  -0.898  0.00  0.00     0.002 A 
ATOM      4  C5  UNL d   1       1.642   1.273  -2.049  0.00  0.00    -0.080 A 
ATOM      5  C6  UNL d   1       1.547   0.436  -3.290  0.00  0.00     0.076 C 
ATOM      6  C7  UNL d   1       2.465   2.405  -2.032  0.00  0.00     0.002 A 
ATOM      7  C8  UNL d   1       2.583   3.177  -0.874  0.00  0.00     0.006 A 
ENDROOT
BRANCH   1   8
ATOM      8  C1  UNL d   1       2.055   3.631   1.551  0.00  0.00     0.054 C 
ATOM      9  C   UNL d   1       1.387   2.945   2.734  0.00  0.00     0.018 C 
ENDBRANCH   1   8
TORSDOF 1
ENDMDL
