MODEL 1
REMARK minimizedAffinity 20.2997894
REMARK minimizedRMSD -1
REMARK  1 active torsions:
REMARK  status: ('A' for Active; 'I' for Inactive)
REMARK    1  A    between atoms: C1_2  and  C2_3 
ROOT
ATOM      1  C2  UNL d   1       0.735  -0.812  -4.758  0.00  0.00    -0.081 A 
ATOM      2  C3  UNL d   1       0.449  -2.183  -4.767  0.00  0.00     0.006 A 
ATOM      3  C4  UNL d   1      -0.812  -2.641  -5.154  0.00  0.00     0.002 A 
ATOM      4  C5  UNL d   1      -1.806  -1.737  -5.545  0.00  0.00    -0.080 A 
ATOM      5  C6  UNL d   1      -3.155  -2.217  -5.992  0.00  0.00     0.076 C 
ATOM      6  C7  UNL d   1      -1.527  -0.367  -5.519  0.00  0.00     0.002 A 
ATOM      7  C8  UNL d   1      -0.266   0.092  -5.132  0.00  0.00     0.006 A 
ENDROOT
BRANCH   1   8
ATOM      8  C1  UNL d   1       2.114  -0.319  -4.403  0.00  0.00     0.054 C 
ATOM      9  C   UNL d   1       2.204   0.065  -2.933  0.00  0.00     0.018 C 
ENDBRANCH   1   8
TORSDOF 1
ENDMDL
