MODEL 1
REMARK minimizedAffinity 9.68406868
REMARK minimizedRMSD -1
REMARK  1 active torsions:
REMARK  status: ('A' for Active; 'I' for Inactive)
REMARK    1  A    between atoms: C1_2  and  C2_3 
ROOT
ATOM      1  C2  UNL d   1       1.915   1.677  -1.444  0.00  0.00    -0.081 A 
ATOM      2  C3  UNL d   1       2.691   1.237  -2.523  0.00  0.00     0.006 A 
ATOM      3  C4  UNL d   1       2.407   0.021  -3.151  0.00  0.00     0.002 A 
ATOM      4  C5  UNL d   1       1.339  -0.770  -2.715  0.00  0.00    -0.080 A 
ATOM      5  C6  UNL d   1       1.006  -2.063  -3.399  0.00  0.00     0.076 C 
ATOM      6  C7  UNL d   1       0.575  -0.339  -1.625  0.00  0.00     0.002 A 
ATOM      7  C8  UNL d   1       0.858   0.876  -0.997  0.00  0.00     0.006 A 
ENDROOT
BRANCH   1   8
ATOM      8  C1  UNL d   1       2.177   3.017  -0.807  0.00  0.00     0.054 C 
ATOM      9  C   UNL d   1       2.187   4.131  -1.845  0.00  0.00     0.018 C 
ENDBRANCH   1   8
TORSDOF 1
ENDMDL
