MODEL 1
REMARK minimizedAffinity 18.4297485
REMARK minimizedRMSD -1
REMARK  1 active torsions:
REMARK  status: ('A' for Active; 'I' for Inactive)
REMARK    1  A    between atoms: C1_2  and  C2_3 
ROOT
ATOM      1  C2  UNL d   1       1.677   0.195  -3.367  0.00  0.00    -0.081 A 
ATOM      2  C3  UNL d   1       0.741   0.691  -4.282  0.00  0.00     0.006 A 
ATOM      3  C4  UNL d   1      -0.122  -0.178  -4.953  0.00  0.00     0.002 A 
ATOM      4  C5  UNL d   1      -0.070  -1.555  -4.715  0.00  0.00    -0.080 A 
ATOM      5  C6  UNL d   1      -1.011  -2.496  -5.406  0.00  0.00     0.076 C 
ATOM      6  C7  UNL d   1       0.877  -2.053  -3.813  0.00  0.00     0.002 A 
ATOM      7  C8  UNL d   1       1.741  -1.184  -3.142  0.00  0.00     0.006 A 
ENDROOT
BRANCH   1   8
ATOM      8  C1  UNL d   1       2.566   1.136  -2.593  0.00  0.00     0.054 C 
ATOM      9  C   UNL d   1       1.750   2.192  -1.862  0.00  0.00     0.018 C 
ENDBRANCH   1   8
TORSDOF 1
ENDMDL
