MODEL 1
REMARK minimizedAffinity 12.1227684
REMARK minimizedRMSD -1
REMARK  1 active torsions:
REMARK  status: ('A' for Active; 'I' for Inactive)
REMARK    1  A    between atoms: C1_2  and  C2_3 
ROOT
ATOM      1  C2  UNL d   1       3.658   3.851  -3.490  0.00  0.00    -0.081 A 
ATOM      2  C3  UNL d   1       3.217   4.882  -2.651  0.00  0.00     0.006 A 
ATOM      3  C4  UNL d   1       2.666   4.590  -1.400  0.00  0.00     0.002 A 
ATOM      4  C5  UNL d   1       2.556   3.265  -0.965  0.00  0.00    -0.080 A 
ATOM      5  C6  UNL d   1       1.995   2.940   0.388  0.00  0.00     0.076 C 
ATOM      6  C7  UNL d   1       2.981   2.235  -1.810  0.00  0.00     0.002 A 
ATOM      7  C8  UNL d   1       3.530   2.526  -3.061  0.00  0.00     0.006 A 
ENDROOT
BRANCH   1   8
ATOM      8  C1  UNL d   1       4.311   4.166  -4.811  0.00  0.00     0.054 C 
ATOM      9  C   UNL d   1       3.370   3.885  -5.974  0.00  0.00     0.018 C 
ENDBRANCH   1   8
TORSDOF 1
ENDMDL
