MODEL 1
REMARK minimizedAffinity 10.6388664
REMARK minimizedRMSD -1
REMARK  1 active torsions:
REMARK  status: ('A' for Active; 'I' for Inactive)
REMARK    1  A    between atoms: C1_2  and  C2_3 
ROOT
ATOM      1  C2  UNL d   1       1.955   1.872  -1.590  0.00  0.00    -0.081 A 
ATOM      2  C3  UNL d   1       2.906   1.252  -2.410  0.00  0.00     0.006 A 
ATOM      3  C4  UNL d   1       2.601   0.061  -3.074  0.00  0.00     0.002 A 
ATOM      4  C5  UNL d   1       1.339  -0.525  -2.935  0.00  0.00    -0.080 A 
ATOM      5  C6  UNL d   1       0.988  -1.787  -3.666  0.00  0.00     0.076 C 
ATOM      6  C7  UNL d   1       0.394   0.085  -2.102  0.00  0.00     0.002 A 
ATOM      7  C8  UNL d   1       0.699   1.275  -1.438  0.00  0.00     0.006 A 
ENDROOT
BRANCH   1   8
ATOM      8  C1  UNL d   1       2.259   3.190  -0.925  0.00  0.00     0.054 C 
ATOM      9  C   UNL d   1       2.344   4.317  -1.943  0.00  0.00     0.018 C 
ENDBRANCH   1   8
TORSDOF 1
ENDMDL
