MODEL 1
REMARK minimizedAffinity -4.09644556
REMARK minimizedRMSD -1
REMARK  2 active torsions:
REMARK  status: ('A' for Active; 'I' for Inactive)
REMARK    1  A    between atoms: C1_2  and  C2_3 
REMARK    2  A    between atoms: C2_3  and  C3_4 
ROOT
ATOM      1  C3  UNL d   1      -0.114   0.175  -0.002  0.00  0.00    -0.075 A 
ATOM      2  C4  UNL d   1       0.095  -1.202  -0.162  0.00  0.00     0.002 A 
ATOM      3  C5  UNL d   1       1.302  -1.682  -0.669  0.00  0.00     0.002 A 
ATOM      4  C6  UNL d   1       2.311  -0.792  -1.033  0.00  0.00    -0.004 A 
ATOM      5  C7  UNL d   1       2.108   0.579  -0.895  0.00  0.00     0.002 A 
ATOM      6  C8  UNL d   1       0.903   1.062  -0.383  0.00  0.00     0.002 A 
ENDROOT
BRANCH   1   7
ATOM      7  C2  UNL d   1      -1.407   0.699   0.575  0.00  0.00     0.056 C 
BRANCH   7   8
ATOM      8  C1  UNL d   1      -1.924  -0.100   1.776  0.00  0.00     0.007 C 
ATOM      9  C   UNL d   1      -1.864   0.676   3.084  0.00  0.00     0.009 C 
ENDBRANCH   7   8
ENDBRANCH   1   7
TORSDOF 2
ENDMDL
