MODEL 1
REMARK minimizedAffinity -3.30096889
REMARK minimizedRMSD -1
REMARK  2 active torsions:
REMARK  status: ('A' for Active; 'I' for Inactive)
REMARK    1  A    between atoms: C1_2  and  C2_3 
REMARK    2  A    between atoms: C2_3  and  C3_4 
ROOT
ATOM      1  C3  UNL d   1      -0.685   0.069  -0.089  0.00  0.00    -0.075 A 
ATOM      2  C4  UNL d   1      -0.586  -1.328  -0.168  0.00  0.00     0.002 A 
ATOM      3  C5  UNL d   1       0.467  -1.925  -0.861  0.00  0.00     0.002 A 
ATOM      4  C6  UNL d   1       1.426  -1.137  -1.491  0.00  0.00    -0.004 A 
ATOM      5  C7  UNL d   1       1.329   0.252  -1.434  0.00  0.00     0.002 A 
ATOM      6  C8  UNL d   1       0.279   0.853  -0.737  0.00  0.00     0.002 A 
ENDROOT
BRANCH   1   7
ATOM      7  C2  UNL d   1      -1.806   0.722   0.684  0.00  0.00     0.056 C 
BRANCH   7   8
ATOM      8  C1  UNL d   1      -1.954   0.209   2.121  0.00  0.00     0.007 C 
ATOM      9  C   UNL d   1      -2.287   1.308   3.120  0.00  0.00     0.009 C 
ENDBRANCH   7   8
ENDBRANCH   1   7
TORSDOF 2
ENDMDL
