MODEL 1
REMARK minimizedAffinity -5.74958658
REMARK minimizedRMSD -1
REMARK  2 active torsions:
REMARK  status: ('A' for Active; 'I' for Inactive)
REMARK    1  A    between atoms: C1_2  and  C2_3 
REMARK    2  A    between atoms: C2_3  and  C3_4 
ROOT
ATOM      1  C3  UNL d   1       0.376  -0.478  -0.155  0.00  0.00    -0.075 A 
ATOM      2  C4  UNL d   1       1.097   0.137   0.879  0.00  0.00     0.002 A 
ATOM      3  C5  UNL d   1       2.466   0.372   0.746  0.00  0.00     0.002 A 
ATOM      4  C6  UNL d   1       3.132  -0.013  -0.415  0.00  0.00    -0.004 A 
ATOM      5  C7  UNL d   1       2.429  -0.640  -1.442  0.00  0.00     0.002 A 
ATOM      6  C8  UNL d   1       1.059  -0.873  -1.313  0.00  0.00     0.002 A 
ENDROOT
BRANCH   1   7
ATOM      7  C2  UNL d   1      -1.111  -0.709  -0.029  0.00  0.00     0.056 C 
BRANCH   7   8
ATOM      8  C1  UNL d   1      -1.901   0.534   0.396  0.00  0.00     0.007 C 
ATOM      9  C   UNL d   1      -2.708   0.325   1.670  0.00  0.00     0.009 C 
ENDBRANCH   7   8
ENDBRANCH   1   7
TORSDOF 2
ENDMDL
