MODEL 1
REMARK minimizedAffinity -4.05111313
REMARK minimizedRMSD -1
REMARK  2 active torsions:
REMARK  status: ('A' for Active; 'I' for Inactive)
REMARK    1  A    between atoms: C1_2  and  C2_3 
REMARK    2  A    between atoms: C2_3  and  C3_4 
ROOT
ATOM      1  C3  UNL d   1      -0.006   0.141  -1.037  0.00  0.00    -0.075 A 
ATOM      2  C4  UNL d   1       0.072   1.290  -1.837  0.00  0.00     0.002 A 
ATOM      3  C5  UNL d   1       1.121   1.453  -2.742  0.00  0.00     0.002 A 
ATOM      4  C6  UNL d   1       2.108   0.477  -2.852  0.00  0.00    -0.004 A 
ATOM      5  C7  UNL d   1       2.050  -0.661  -2.050  0.00  0.00     0.002 A 
ATOM      6  C8  UNL d   1       0.999  -0.829  -1.147  0.00  0.00     0.002 A 
ENDROOT
BRANCH   1   7
ATOM      7  C2  UNL d   1      -1.154  -0.055  -0.076  0.00  0.00     0.056 C 
BRANCH   7   8
ATOM      8  C1  UNL d   1      -0.806   0.255   1.384  0.00  0.00     0.007 C 
ATOM      9  C   UNL d   1      -2.018   0.246   2.305  0.00  0.00     0.009 C 
ENDBRANCH   7   8
ENDBRANCH   1   7
TORSDOF 2
ENDMDL
