MODEL 1
REMARK minimizedAffinity -4.94662857
REMARK minimizedRMSD -1
REMARK  2 active torsions:
REMARK  status: ('A' for Active; 'I' for Inactive)
REMARK    1  A    between atoms: C1_2  and  C2_3 
REMARK    2  A    between atoms: C2_3  and  C3_4 
ROOT
ATOM      1  C3  UNL d   1       0.280  -0.067  -0.214  0.00  0.00    -0.075 A 
ATOM      2  C4  UNL d   1       1.158   0.967  -0.571  0.00  0.00     0.002 A 
ATOM      3  C5  UNL d   1       2.380   0.681  -1.180  0.00  0.00     0.002 A 
ATOM      4  C6  UNL d   1       2.744  -0.640  -1.431  0.00  0.00    -0.004 A 
ATOM      5  C7  UNL d   1       1.887  -1.677  -1.066  0.00  0.00     0.002 A 
ATOM      6  C8  UNL d   1       0.662  -1.393  -0.460  0.00  0.00     0.002 A 
ENDROOT
BRANCH   1   7
ATOM      7  C2  UNL d   1      -1.056   0.238   0.419  0.00  0.00     0.056 C 
BRANCH   7   8
ATOM      8  C1  UNL d   1      -0.957   0.887   1.804  0.00  0.00     0.007 C 
ATOM      9  C   UNL d   1      -2.239   0.768   2.616  0.00  0.00     0.009 C 
ENDBRANCH   7   8
ENDBRANCH   1   7
TORSDOF 2
ENDMDL
