MODEL 1
REMARK minimizedAffinity -2.74781656
REMARK minimizedRMSD -1
REMARK  2 active torsions:
REMARK  status: ('A' for Active; 'I' for Inactive)
REMARK    1  A    between atoms: C1_2  and  C2_3 
REMARK    2  A    between atoms: C2_3  and  C3_4 
ROOT
ATOM      1  C3  UNL d   1       1.567   0.585  -0.753  0.00  0.00    -0.075 A 
ATOM      2  C4  UNL d   1       0.816  -0.230   0.105  0.00  0.00     0.002 A 
ATOM      3  C5  UNL d   1      -0.547   0.004   0.292  0.00  0.00     0.002 A 
ATOM      4  C6  UNL d   1      -1.172   1.059  -0.368  0.00  0.00    -0.004 A 
ATOM      5  C7  UNL d   1      -0.432   1.886  -1.211  0.00  0.00     0.002 A 
ATOM      6  C8  UNL d   1       0.931   1.652  -1.403  0.00  0.00     0.002 A 
ENDROOT
BRANCH   1   7
ATOM      7  C2  UNL d   1       3.036   0.320  -0.983  0.00  0.00     0.056 C 
BRANCH   7   8
ATOM      8  C1  UNL d   1       3.318  -0.800  -1.990  0.00  0.00     0.007 C 
ATOM      9  C   UNL d   1       2.171  -1.793  -2.120  0.00  0.00     0.009 C 
ENDBRANCH   7   8
ENDBRANCH   1   7
TORSDOF 2
ENDMDL
