MODEL 1
REMARK minimizedAffinity -4.86550426
REMARK minimizedRMSD -1
REMARK  2 active torsions:
REMARK  status: ('A' for Active; 'I' for Inactive)
REMARK    1  A    between atoms: C1_2  and  C2_3 
REMARK    2  A    between atoms: C2_3  and  C3_4 
ROOT
ATOM      1  C3  UNL d   1      -0.761   0.420   0.995  0.00  0.00    -0.075 A 
ATOM      2  C4  UNL d   1      -0.542   1.299   2.065  0.00  0.00     0.002 A 
ATOM      3  C5  UNL d   1      -1.460   1.384   3.112  0.00  0.00     0.002 A 
ATOM      4  C6  UNL d   1      -2.612   0.600   3.097  0.00  0.00    -0.004 A 
ATOM      5  C7  UNL d   1      -2.848  -0.265   2.031  0.00  0.00     0.002 A 
ATOM      6  C8  UNL d   1      -1.928  -0.355   0.984  0.00  0.00     0.002 A 
ENDROOT
BRANCH   1   7
ATOM      7  C2  UNL d   1       0.244   0.302  -0.126  0.00  0.00     0.056 C 
BRANCH   7   8
ATOM      8  C1  UNL d   1       0.994  -1.034  -0.153  0.00  0.00     0.007 C 
ATOM      9  C   UNL d   1       2.230  -1.010  -1.043  0.00  0.00     0.009 C 
ENDBRANCH   7   8
ENDBRANCH   1   7
TORSDOF 2
ENDMDL
