MODEL 1
REMARK minimizedAffinity -5.52187443
REMARK minimizedRMSD -1
REMARK  2 active torsions:
REMARK  status: ('A' for Active; 'I' for Inactive)
REMARK    1  A    between atoms: C1_2  and  C2_3 
REMARK    2  A    between atoms: C2_3  and  C3_4 
ROOT
ATOM      1  C3  UNL d   1      -0.441   0.375  -0.071  0.00  0.00    -0.075 A 
ATOM      2  C4  UNL d   1      -0.148  -0.996  -0.087  0.00  0.00     0.002 A 
ATOM      3  C5  UNL d   1       1.013  -1.465  -0.704  0.00  0.00     0.002 A 
ATOM      4  C6  UNL d   1       1.887  -0.573  -1.319  0.00  0.00    -0.004 A 
ATOM      5  C7  UNL d   1       1.598   0.790  -1.323  0.00  0.00     0.002 A 
ATOM      6  C8  UNL d   1       0.440   1.262  -0.703  0.00  0.00     0.002 A 
ENDROOT
BRANCH   1   7
ATOM      7  C2  UNL d   1      -1.680   0.892   0.621  0.00  0.00     0.056 C 
BRANCH   7   8
ATOM      8  C1  UNL d   1      -1.933   0.267   1.996  0.00  0.00     0.007 C 
ATOM      9  C   UNL d   1      -1.622   1.209   3.151  0.00  0.00     0.009 C 
ENDBRANCH   7   8
ENDBRANCH   1   7
TORSDOF 2
ENDMDL
