MODEL 1
REMARK minimizedAffinity -1.72040081
REMARK minimizedRMSD -1
REMARK  2 active torsions:
REMARK  status: ('A' for Active; 'I' for Inactive)
REMARK    1  A    between atoms: C1_2  and  C2_3 
REMARK    2  A    between atoms: C2_3  and  C3_4 
ROOT
ATOM      1  C3  UNL d   1      -0.274   0.025  -0.417  0.00  0.00    -0.075 A 
ATOM      2  C4  UNL d   1      -0.053  -1.340  -0.184  0.00  0.00     0.002 A 
ATOM      3  C5  UNL d   1       1.064  -1.979  -0.722  0.00  0.00     0.002 A 
ATOM      4  C6  UNL d   1       1.968  -1.266  -1.506  0.00  0.00    -0.004 A 
ATOM      5  C7  UNL d   1       1.750   0.087  -1.758  0.00  0.00     0.002 A 
ATOM      6  C8  UNL d   1       0.635   0.730  -1.217  0.00  0.00     0.002 A 
ENDROOT
BRANCH   1   7
ATOM      7  C2  UNL d   1      -1.465   0.730   0.187  0.00  0.00     0.056 C 
BRANCH   7   8
ATOM      8  C1  UNL d   1      -1.887   0.181   1.554  0.00  0.00     0.007 C 
ATOM      9  C   UNL d   1      -2.261   1.272   2.549  0.00  0.00     0.009 C 
ENDBRANCH   7   8
ENDBRANCH   1   7
TORSDOF 2
ENDMDL
