MODEL 1
REMARK minimizedAffinity -3.23295665
REMARK minimizedRMSD -1
REMARK  2 active torsions:
REMARK  status: ('A' for Active; 'I' for Inactive)
REMARK    1  A    between atoms: C1_2  and  C2_3 
REMARK    2  A    between atoms: C2_3  and  C3_4 
ROOT
ATOM      1  C3  UNL d   1      -1.118   0.592   0.804  0.00  0.00    -0.075 A 
ATOM      2  C4  UNL d   1       0.227   0.237   0.980  0.00  0.00     0.002 A 
ATOM      3  C5  UNL d   1       1.204   0.705   0.100  0.00  0.00     0.002 A 
ATOM      4  C6  UNL d   1       0.848   1.523  -0.970  0.00  0.00    -0.004 A 
ATOM      5  C7  UNL d   1      -0.487   1.868  -1.164  0.00  0.00     0.002 A 
ATOM      6  C8  UNL d   1      -1.466   1.406  -0.283  0.00  0.00     0.002 A 
ENDROOT
BRANCH   1   7
ATOM      7  C2  UNL d   1      -2.176   0.114   1.769  0.00  0.00     0.056 C 
BRANCH   7   8
ATOM      8  C1  UNL d   1      -2.118   0.790   3.143  0.00  0.00     0.007 C 
ATOM      9  C   UNL d   1      -2.052   2.309   3.062  0.00  0.00     0.009 C 
ENDBRANCH   7   8
ENDBRANCH   1   7
TORSDOF 2
ENDMDL
