MODEL 1
REMARK minimizedAffinity 1.73494327
REMARK minimizedRMSD -1
REMARK  1 active torsions:
REMARK  status: ('A' for Active; 'I' for Inactive)
REMARK    1  A    between atoms: N_2  and  C1_3 
ROOT
ATOM      1  C1  UNL d   1      -0.618   2.337   0.356  0.00  0.00     0.143 A 
ATOM      2  C2  UNL d   1       0.133   1.549   1.235  0.00  0.00    -0.057 A 
ATOM      3  C3  UNL d   1      -0.486   0.763   2.214  0.00  0.00     0.033 A 
ATOM      4  C4  UNL d   1      -1.870   0.773   2.351  0.00  0.00    -0.042 A 
ATOM      5  C5  UNL d   1      -2.635   1.568   1.505  0.00  0.00     0.033 A 
ATOM      6  C6  UNL d   1      -2.012   2.346   0.524  0.00  0.00    -0.057 A 
ENDROOT
BRANCH   1   7
ATOM      7  N   UNL d   1      -0.057   3.216  -0.574  0.00  0.00    -0.732 N 
ATOM      8  C   UNL d   1      -0.207   4.647  -0.419  0.00  0.00     0.284 C 
ATOM      9  H3  UNL d   1       0.871   2.925  -0.872  0.00  0.00     0.395 HD
ENDBRANCH   1   7
TORSDOF 1
ENDMDL
