MODEL 1
REMARK minimizedAffinity 5.12295723
REMARK minimizedRMSD -1
REMARK  1 active torsions:
REMARK  status: ('A' for Active; 'I' for Inactive)
REMARK    1  A    between atoms: N_2  and  C1_3 
ROOT
ATOM      1  C1  UNL d   1      -0.256   1.219  -1.759  0.00  0.00     0.143 A 
ATOM      2  C2  UNL d   1       0.395  -0.010  -1.909  0.00  0.00    -0.057 A 
ATOM      3  C3  UNL d   1      -0.240  -1.097  -2.522  0.00  0.00     0.033 A 
ATOM      4  C4  UNL d   1      -1.551  -0.982  -2.972  0.00  0.00    -0.042 A 
ATOM      5  C5  UNL d   1      -2.226   0.223  -2.811  0.00  0.00     0.033 A 
ATOM      6  C6  UNL d   1      -1.584   1.307  -2.204  0.00  0.00    -0.057 A 
ENDROOT
BRANCH   1   7
ATOM      7  N   UNL d   1       0.286   2.307  -1.070  0.00  0.00    -0.732 N 
ATOM      8  C   UNL d   1      -0.201   2.663   0.245  0.00  0.00     0.284 C 
ATOM      9  H3  UNL d   1       1.297   2.365  -1.169  0.00  0.00     0.395 HD
ENDBRANCH   1   7
TORSDOF 1
ENDMDL
