MODEL 1
REMARK minimizedAffinity 7.09660053
REMARK minimizedRMSD -1
REMARK  1 active torsions:
REMARK  status: ('A' for Active; 'I' for Inactive)
REMARK    1  A    between atoms: N_2  and  C1_3 
ROOT
ATOM      1  C1  UNL d   1      -0.959   2.652   0.327  0.00  0.00     0.143 A 
ATOM      2  C2  UNL d   1      -0.607   3.912  -0.169  0.00  0.00    -0.057 A 
ATOM      3  C3  UNL d   1       0.359   4.053  -1.172  0.00  0.00     0.033 A 
ATOM      4  C4  UNL d   1       1.014   2.935  -1.678  0.00  0.00    -0.042 A 
ATOM      5  C5  UNL d   1       0.698   1.675  -1.182  0.00  0.00     0.033 A 
ATOM      6  C6  UNL d   1      -0.273   1.540  -0.185  0.00  0.00    -0.057 A 
ENDROOT
BRANCH   1   7
ATOM      7  N   UNL d   1      -1.841   2.454   1.393  0.00  0.00    -0.732 N 
ATOM      8  C   UNL d   1      -1.482   1.589   2.496  0.00  0.00     0.284 C 
ATOM      9  H3  UNL d   1      -2.311   3.312   1.673  0.00  0.00     0.395 HD
ENDBRANCH   1   7
TORSDOF 1
ENDMDL
