MODEL 1
REMARK minimizedAffinity 3.8682034
REMARK minimizedRMSD -1
REMARK  1 active torsions:
REMARK  status: ('A' for Active; 'I' for Inactive)
REMARK    1  A    between atoms: N_2  and  C1_3 
ROOT
ATOM      1  C1  UNL d   1      -1.577   2.452   1.709  0.00  0.00     0.143 A 
ATOM      2  C2  UNL d   1      -0.635   1.947   0.806  0.00  0.00    -0.057 A 
ATOM      3  C3  UNL d   1      -0.165   2.721  -0.262  0.00  0.00     0.033 A 
ATOM      4  C4  UNL d   1      -0.653   4.009  -0.463  0.00  0.00    -0.042 A 
ATOM      5  C5  UNL d   1      -1.608   4.522   0.407  0.00  0.00     0.033 A 
ATOM      6  C6  UNL d   1      -2.068   3.746   1.476  0.00  0.00    -0.057 A 
ENDROOT
BRANCH   1   7
ATOM      7  N   UNL d   1      -2.156   1.697   2.732  0.00  0.00    -0.732 N 
ATOM      8  C   UNL d   1      -3.416   1.017   2.523  0.00  0.00     0.284 C 
ATOM      9  H3  UNL d   1      -1.469   1.152   3.249  0.00  0.00     0.395 HD
ENDBRANCH   1   7
TORSDOF 1
ENDMDL
