MODEL 1
REMARK minimizedAffinity 1.03908813
REMARK minimizedRMSD -1
REMARK  1 active torsions:
REMARK  status: ('A' for Active; 'I' for Inactive)
REMARK    1  A    between atoms: N_2  and  C1_3 
ROOT
ATOM      1  C1  UNL d   1      -1.317   2.823   0.706  0.00  0.00     0.143 A 
ATOM      2  C2  UNL d   1      -2.657   2.758   1.100  0.00  0.00    -0.057 A 
ATOM      3  C3  UNL d   1      -3.064   1.939   2.160  0.00  0.00     0.033 A 
ATOM      4  C4  UNL d   1      -2.138   1.146   2.829  0.00  0.00    -0.042 A 
ATOM      5  C5  UNL d   1      -0.804   1.175   2.438  0.00  0.00     0.033 A 
ATOM      6  C6  UNL d   1      -0.403   2.000   1.383  0.00  0.00    -0.057 A 
ENDROOT
BRANCH   1   7
ATOM      7  N   UNL d   1      -0.866   3.542  -0.403  0.00  0.00    -0.732 N 
ATOM      8  C   UNL d   1       0.382   3.195  -1.050  0.00  0.00     0.284 C 
ATOM      9  H3  UNL d   1      -1.618   3.773  -1.048  0.00  0.00     0.395 HD
ENDBRANCH   1   7
TORSDOF 1
ENDMDL
