MODEL 1
REMARK minimizedAffinity 2.24987411
REMARK minimizedRMSD -1
REMARK  1 active torsions:
REMARK  status: ('A' for Active; 'I' for Inactive)
REMARK    1  A    between atoms: N_2  and  C1_3 
ROOT
ATOM      1  C1  UNL d   1      -1.715   2.277   0.837  0.00  0.00     0.143 A 
ATOM      2  C2  UNL d   1      -1.705   3.670   0.706  0.00  0.00    -0.057 A 
ATOM      3  C3  UNL d   1      -0.864   4.307  -0.215  0.00  0.00     0.033 A 
ATOM      4  C4  UNL d   1       0.006   3.561  -1.003  0.00  0.00    -0.042 A 
ATOM      5  C5  UNL d   1       0.032   2.177  -0.872  0.00  0.00     0.033 A 
ATOM      6  C6  UNL d   1      -0.815   1.546   0.044  0.00  0.00    -0.057 A 
ENDROOT
BRANCH   1   7
ATOM      7  N   UNL d   1      -2.456   1.592   1.802  0.00  0.00    -0.732 N 
ATOM      8  C   UNL d   1      -1.842   0.555   2.604  0.00  0.00     0.284 C 
ATOM      9  H3  UNL d   1      -3.079   2.206   2.322  0.00  0.00     0.395 HD
ENDBRANCH   1   7
TORSDOF 1
ENDMDL
