MODEL 1
REMARK minimizedAffinity 2.55735826
REMARK minimizedRMSD -1
REMARK  1 active torsions:
REMARK  status: ('A' for Active; 'I' for Inactive)
REMARK    1  A    between atoms: N_2  and  C1_3 
ROOT
ATOM      1  C1  UNL d   1      -4.883  -3.709   5.024  0.00  0.00     0.143 A 
ATOM      2  C2  UNL d   1      -3.983  -3.029   5.852  0.00  0.00    -0.057 A 
ATOM      3  C3  UNL d   1      -2.829  -2.431   5.333  0.00  0.00     0.033 A 
ATOM      4  C4  UNL d   1      -2.538  -2.526   3.976  0.00  0.00    -0.042 A 
ATOM      5  C5  UNL d   1      -3.406  -3.217   3.138  0.00  0.00     0.033 A 
ATOM      6  C6  UNL d   1      -4.560  -3.807   3.661  0.00  0.00    -0.057 A 
ENDROOT
BRANCH   1   7
ATOM      7  N   UNL d   1      -5.997  -4.409   5.494  0.00  0.00    -0.732 N 
ATOM      8  C   UNL d   1      -5.997  -5.856   5.529  0.00  0.00     0.284 C 
ATOM      9  H3  UNL d   1      -6.412  -3.973   6.314  0.00  0.00     0.395 HD
ENDBRANCH   1   7
TORSDOF 1
ENDMDL
