MODEL 1
REMARK minimizedAffinity 4.76481676
REMARK minimizedRMSD -1
REMARK  1 active torsions:
REMARK  status: ('A' for Active; 'I' for Inactive)
REMARK    1  A    between atoms: N_2  and  C1_3 
ROOT
ATOM      1  C1  UNL d   1      -0.797   2.141   1.077  0.00  0.00     0.143 A 
ATOM      2  C2  UNL d   1      -2.118   1.901   1.467  0.00  0.00    -0.057 A 
ATOM      3  C3  UNL d   1      -2.457   0.779   2.233  0.00  0.00     0.033 A 
ATOM      4  C4  UNL d   1      -1.480  -0.141   2.599  0.00  0.00    -0.042 A 
ATOM      5  C5  UNL d   1      -0.163   0.065   2.201  0.00  0.00     0.033 A 
ATOM      6  C6  UNL d   1       0.169   1.191   1.442  0.00  0.00    -0.057 A 
ENDROOT
BRANCH   1   7
ATOM      7  N   UNL d   1      -0.413   3.186   0.232  0.00  0.00    -0.732 N 
ATOM      8  C   UNL d   1       0.021   2.917  -1.122  0.00  0.00     0.284 C 
ATOM      9  H3  UNL d   1      -1.017   4.000   0.322  0.00  0.00     0.395 HD
ENDBRANCH   1   7
TORSDOF 1
ENDMDL
