MODEL 1
REMARK minimizedAffinity 7.04478788
REMARK minimizedRMSD -1
REMARK  1 active torsions:
REMARK  status: ('A' for Active; 'I' for Inactive)
REMARK    1  A    between atoms: N_2  and  C1_3 
ROOT
ATOM      1  C1  UNL d   1      -0.602   0.702  -1.389  0.00  0.00     0.143 A 
ATOM      2  C2  UNL d   1      -2.000   0.688  -1.444  0.00  0.00    -0.057 A 
ATOM      3  C3  UNL d   1      -2.693  -0.373  -2.039  0.00  0.00     0.033 A 
ATOM      4  C4  UNL d   1      -1.997  -1.428  -2.618  0.00  0.00    -0.042 A 
ATOM      5  C5  UNL d   1      -0.607  -1.424  -2.597  0.00  0.00     0.033 A 
ATOM      6  C6  UNL d   1       0.079  -0.365  -1.996  0.00  0.00    -0.057 A 
ENDROOT
BRANCH   1   7
ATOM      7  N   UNL d   1       0.146   1.775  -0.899  0.00  0.00    -0.732 N 
ATOM      8  C   UNL d   1      -0.393   2.643   0.125  0.00  0.00     0.284 C 
ATOM      9  H3  UNL d   1       1.127   1.536  -0.768  0.00  0.00     0.395 HD
ENDBRANCH   1   7
TORSDOF 1
ENDMDL
