MODEL 1
REMARK minimizedAffinity 9.42988873
REMARK minimizedRMSD -1
REMARK  1 active torsions:
REMARK  status: ('A' for Active; 'I' for Inactive)
REMARK    1  A    between atoms: N_2  and  C1_3 
ROOT
ATOM      1  C1  UNL d   1      -0.461   1.203  -2.084  0.00  0.00     0.143 A 
ATOM      2  C2  UNL d   1      -1.690   1.261  -2.751  0.00  0.00    -0.057 A 
ATOM      3  C3  UNL d   1      -2.320   0.099  -3.212  0.00  0.00     0.033 A 
ATOM      4  C4  UNL d   1      -1.716  -1.142  -3.041  0.00  0.00    -0.042 A 
ATOM      5  C5  UNL d   1      -0.483  -1.221  -2.404  0.00  0.00     0.033 A 
ATOM      6  C6  UNL d   1       0.139  -0.058  -1.939  0.00  0.00    -0.057 A 
ENDROOT
BRANCH   1   7
ATOM      7  N   UNL d   1       0.263   2.331  -1.689  0.00  0.00    -0.732 N 
ATOM      8  C   UNL d   1       0.223   3.545  -2.475  0.00  0.00     0.284 C 
ATOM      9  H3  UNL d   1       0.224   2.485  -0.684  0.00  0.00     0.395 HD
ENDBRANCH   1   7
TORSDOF 1
ENDMDL
