MODEL 1
REMARK minimizedAffinity 3.34400082
REMARK minimizedRMSD -1
REMARK  1 active torsions:
REMARK  status: ('A' for Active; 'I' for Inactive)
REMARK    1  A    between atoms: N_2  and  C1_3 
ROOT
ATOM      1  C1  UNL d   1      -0.197   1.599  -2.333  0.00  0.00     0.143 A 
ATOM      2  C2  UNL d   1       0.540   0.777  -3.192  0.00  0.00    -0.057 A 
ATOM      3  C3  UNL d   1      -0.015  -0.386  -3.738  0.00  0.00     0.033 A 
ATOM      4  C4  UNL d   1      -1.313  -0.764  -3.411  0.00  0.00    -0.042 A 
ATOM      5  C5  UNL d   1      -2.056   0.024  -2.539  0.00  0.00     0.033 A 
ATOM      6  C6  UNL d   1      -1.498   1.188  -2.002  0.00  0.00    -0.057 A 
ENDROOT
BRANCH   1   7
ATOM      7  N   UNL d   1       0.331   2.715  -1.680  0.00  0.00    -0.732 N 
ATOM      8  C   UNL d   1      -0.129   3.083  -0.358  0.00  0.00     0.284 C 
ATOM      9  H3  UNL d   1       1.337   2.800  -1.808  0.00  0.00     0.395 HD
ENDBRANCH   1   7
TORSDOF 1
ENDMDL
