MODEL 1
REMARK minimizedAffinity 5.34892511
REMARK minimizedRMSD -1
REMARK  1 active torsions:
REMARK  status: ('A' for Active; 'I' for Inactive)
REMARK    1  A    between atoms: N_2  and  C1_3 
ROOT
ATOM      1  C1  UNL d   1      -0.943   1.744  -0.520  0.00  0.00     0.143 A 
ATOM      2  C2  UNL d   1       0.275   1.886  -1.192  0.00  0.00    -0.057 A 
ATOM      3  C3  UNL d   1       0.538   1.184  -2.375  0.00  0.00     0.033 A 
ATOM      4  C4  UNL d   1      -0.405   0.302  -2.891  0.00  0.00    -0.042 A 
ATOM      5  C5  UNL d   1      -1.613   0.125  -2.225  0.00  0.00     0.033 A 
ATOM      6  C6  UNL d   1      -1.872   0.835  -1.049  0.00  0.00    -0.057 A 
ENDROOT
BRANCH   1   7
ATOM      7  N   UNL d   1      -1.226   2.339   0.712  0.00  0.00    -0.732 N 
ATOM      8  C   UNL d   1      -1.546   1.528   1.867  0.00  0.00     0.284 C 
ATOM      9  H3  UNL d   1      -0.612   3.125   0.914  0.00  0.00     0.395 HD
ENDBRANCH   1   7
TORSDOF 1
ENDMDL
