MODEL 1
REMARK minimizedAffinity 5.6554451
REMARK minimizedRMSD -1
REMARK  1 active torsions:
REMARK  status: ('A' for Active; 'I' for Inactive)
REMARK    1  A    between atoms: N_2  and  C1_3 
ROOT
ATOM      1  C1  UNL d   1      -0.836   2.662   0.812  0.00  0.00     0.143 A 
ATOM      2  C2  UNL d   1      -0.393   1.741  -0.143  0.00  0.00    -0.057 A 
ATOM      3  C3  UNL d   1       0.104   2.162  -1.383  0.00  0.00     0.033 A 
ATOM      4  C4  UNL d   1       0.138   3.516  -1.701  0.00  0.00    -0.042 A 
ATOM      5  C5  UNL d   1      -0.320   4.448  -0.777  0.00  0.00     0.033 A 
ATOM      6  C6  UNL d   1      -0.809   4.021   0.461  0.00  0.00    -0.057 A 
ENDROOT
BRANCH   1   7
ATOM      7  N   UNL d   1      -1.432   2.302   2.023  0.00  0.00    -0.732 N 
ATOM      8  C   UNL d   1      -1.797   0.926   2.284  0.00  0.00     0.284 C 
ATOM      9  H3  UNL d   1      -1.014   2.779   2.818  0.00  0.00     0.395 HD
ENDBRANCH   1   7
TORSDOF 1
ENDMDL
