MODEL 1
REMARK minimizedAffinity 4.20794535
REMARK minimizedRMSD -1
REMARK  1 active torsions:
REMARK  status: ('A' for Active; 'I' for Inactive)
REMARK    1  A    between atoms: N_2  and  C1_3 
ROOT
ATOM      1  C1  UNL d   1       0.055   2.665  -0.589  0.00  0.00     0.143 A 
ATOM      2  C2  UNL d   1       0.370   2.885  -1.934  0.00  0.00    -0.057 A 
ATOM      3  C3  UNL d   1       0.792   1.837  -2.762  0.00  0.00     0.033 A 
ATOM      4  C4  UNL d   1       0.934   0.552  -2.249  0.00  0.00    -0.042 A 
ATOM      5  C5  UNL d   1       0.651   0.315  -0.909  0.00  0.00     0.033 A 
ATOM      6  C6  UNL d   1       0.224   1.364  -0.089  0.00  0.00    -0.057 A 
ENDROOT
BRANCH   1   7
ATOM      7  N   UNL d   1      -0.275   3.682   0.310  0.00  0.00    -0.732 N 
ATOM      8  C   UNL d   1       0.427   4.948   0.280  0.00  0.00     0.284 C 
ATOM      9  H3  UNL d   1      -1.279   3.767   0.449  0.00  0.00     0.395 HD
ENDBRANCH   1   7
TORSDOF 1
ENDMDL
