MODEL 1
REMARK minimizedAffinity 12.6024504
REMARK minimizedRMSD -1
REMARK  0 active torsions:
REMARK  status: ('A' for Active; 'I' for Inactive)
ROOT
ATOM      1  C   UNL d   1       1.696  -5.589   2.215  0.00  0.00     0.172 C 
ATOM      2  N   UNL d   1       0.836  -4.469   1.913  0.00  0.00    -0.070 N 
ATOM      3  C1  UNL d   1       1.248  -3.178   1.714  0.00  0.00    -0.004 A 
ATOM      4  C2  UNL d   1       0.131  -2.414   1.452  0.00  0.00    -0.047 A 
ATOM      5  C3  UNL d   1      -0.991  -3.276   1.496  0.00  0.00    -0.047 A 
ATOM      6  C4  UNL d   1      -0.525  -4.542   1.783  0.00  0.00    -0.004 A 
ENDROOT
TORSDOF 0
ENDMDL
