MODEL 1
REMARK minimizedAffinity 6.11629105
REMARK minimizedRMSD -1
REMARK  0 active torsions:
REMARK  status: ('A' for Active; 'I' for Inactive)
ROOT
ATOM      1  C   UNL d   1      -1.566  -3.901   1.408  0.00  0.00     0.172 C 
ATOM      2  N   UNL d   1      -0.161  -4.231   1.441  0.00  0.00    -0.070 N 
ATOM      3  C1  UNL d   1       0.375  -5.395   1.925  0.00  0.00    -0.004 A 
ATOM      4  C2  UNL d   1       1.743  -5.323   1.778  0.00  0.00    -0.047 A 
ATOM      5  C3  UNL d   1       2.040  -4.073   1.186  0.00  0.00    -0.047 A 
ATOM      6  C4  UNL d   1       0.844  -3.417   0.988  0.00  0.00    -0.004 A 
ENDROOT
TORSDOF 0
ENDMDL
