MODEL 1
REMARK minimizedAffinity 5.76345587
REMARK minimizedRMSD -1
REMARK  0 active torsions:
REMARK  status: ('A' for Active; 'I' for Inactive)
ROOT
ATOM      1  C   UNL d   1      -1.103   5.908  -5.432  0.00  0.00     0.172 C 
ATOM      2  N   UNL d   1      -1.456   4.667  -4.783  0.00  0.00    -0.070 N 
ATOM      3  C1  UNL d   1      -0.800   4.108  -3.719  0.00  0.00    -0.004 A 
ATOM      4  C2  UNL d   1      -1.444   2.933  -3.396  0.00  0.00    -0.047 A 
ATOM      5  C3  UNL d   1      -2.523   2.780  -4.299  0.00  0.00    -0.047 A 
ATOM      6  C4  UNL d   1      -2.508   3.867  -5.146  0.00  0.00    -0.004 A 
ENDROOT
TORSDOF 0
ENDMDL
