MODEL 1
REMARK minimizedAffinity 9.54895592
REMARK minimizedRMSD -1
REMARK  0 active torsions:
REMARK  status: ('A' for Active; 'I' for Inactive)
ROOT
ATOM      1  C   UNL d   1      -2.659   3.639  -2.373  0.00  0.00     0.172 C 
ATOM      2  N   UNL d   1      -3.772   3.961  -1.511  0.00  0.00    -0.070 N 
ATOM      3  C1  UNL d   1      -4.222   5.222  -1.225  0.00  0.00    -0.004 A 
ATOM      4  C2  UNL d   1      -5.296   5.103  -0.371  0.00  0.00    -0.047 A 
ATOM      5  C3  UNL d   1      -5.499   3.723  -0.134  0.00  0.00    -0.047 A 
ATOM      6  C4  UNL d   1      -4.541   3.038  -0.852  0.00  0.00    -0.004 A 
ENDROOT
TORSDOF 0
ENDMDL
