MODEL 1
REMARK minimizedAffinity 4.06076431
REMARK minimizedRMSD -1
REMARK  0 active torsions:
REMARK  status: ('A' for Active; 'I' for Inactive)
ROOT
ATOM      1  C   UNL d   1      -5.251  -3.407   5.259  0.00  0.00     0.172 C 
ATOM      2  N   UNL d   1      -5.105  -4.301   4.134  0.00  0.00    -0.070 N 
ATOM      3  C1  UNL d   1      -4.164  -4.193   3.145  0.00  0.00    -0.004 A 
ATOM      4  C2  UNL d   1      -4.357  -5.234   2.263  0.00  0.00    -0.047 A 
ATOM      5  C3  UNL d   1      -5.453  -5.994   2.737  0.00  0.00    -0.047 A 
ATOM      6  C4  UNL d   1      -5.897  -5.394   3.897  0.00  0.00    -0.004 A 
ENDROOT
TORSDOF 0
ENDMDL
