MODEL 1
REMARK minimizedAffinity 3.21835804
REMARK minimizedRMSD -1
REMARK  0 active torsions:
REMARK  status: ('A' for Active; 'I' for Inactive)
ROOT
ATOM      1  C   UNL d   1       2.601  -1.627   1.006  0.00  0.00     0.172 C 
ATOM      2  N   UNL d   1       1.322  -1.682   1.674  0.00  0.00    -0.070 N 
ATOM      3  C1  UNL d   1       0.845  -2.742   2.399  0.00  0.00    -0.004 A 
ATOM      4  C2  UNL d   1      -0.404  -2.402   2.872  0.00  0.00    -0.047 A 
ATOM      5  C3  UNL d   1      -0.689  -1.093   2.414  0.00  0.00    -0.047 A 
ATOM      6  C4  UNL d   1       0.397  -0.672   1.675  0.00  0.00    -0.004 A 
ENDROOT
TORSDOF 0
ENDMDL
