MODEL 1
REMARK minimizedAffinity -0.14642261
REMARK minimizedRMSD -1
REMARK  0 active torsions:
REMARK  status: ('A' for Active; 'I' for Inactive)
ROOT
ATOM      1  C   UNL d   1      -5.253  -5.999  -0.794  0.00  0.00     0.172 C 
ATOM      2  N   UNL d   1      -5.137  -5.369   0.500  0.00  0.00    -0.070 N 
ATOM      3  C1  UNL d   1      -5.260  -6.000   1.709  0.00  0.00    -0.004 A 
ATOM      4  C2  UNL d   1      -5.082  -5.056   2.698  0.00  0.00    -0.047 A 
ATOM      5  C3  UNL d   1      -4.845  -3.815   2.061  0.00  0.00    -0.047 A 
ATOM      6  C4  UNL d   1      -4.884  -4.037   0.701  0.00  0.00    -0.004 A 
ENDROOT
TORSDOF 0
ENDMDL
