MODEL 1
REMARK minimizedAffinity 0.922150016
REMARK minimizedRMSD -1
REMARK  0 active torsions:
REMARK  status: ('A' for Active; 'I' for Inactive)
ROOT
ATOM      1  C   UNL d   1      -5.990  -3.500   5.997  0.00  0.00     0.172 C 
ATOM      2  N   UNL d   1      -5.511  -4.291   4.888  0.00  0.00    -0.070 N 
ATOM      3  C1  UNL d   1      -4.508  -3.934   4.027  0.00  0.00    -0.004 A 
ATOM      4  C2  UNL d   1      -4.352  -4.954   3.113  0.00  0.00    -0.047 A 
ATOM      5  C3  UNL d   1      -5.295  -5.958   3.435  0.00  0.00    -0.047 A 
ATOM      6  C4  UNL d   1      -5.999  -5.522   4.538  0.00  0.00    -0.004 A 
ENDROOT
TORSDOF 0
ENDMDL
