MODEL 1
REMARK minimizedAffinity 9.06744766
REMARK minimizedRMSD -1
REMARK  0 active torsions:
REMARK  status: ('A' for Active; 'I' for Inactive)
ROOT
ATOM      1  C   UNL d   1       0.336  -3.807  -2.875  0.00  0.00     0.172 C 
ATOM      2  N   UNL d   1       0.703  -3.686  -1.484  0.00  0.00    -0.070 N 
ATOM      3  C1  UNL d   1       0.592  -2.553  -0.724  0.00  0.00    -0.004 A 
ATOM      4  C2  UNL d   1       1.044  -2.848   0.544  0.00  0.00    -0.047 A 
ATOM      5  C3  UNL d   1       1.440  -4.207   0.546  0.00  0.00    -0.047 A 
ATOM      6  C4  UNL d   1       1.219  -4.701  -0.722  0.00  0.00    -0.004 A 
ENDROOT
TORSDOF 0
ENDMDL
