MODEL 1
REMARK minimizedAffinity 10.0008087
REMARK minimizedRMSD -1
REMARK  0 active torsions:
REMARK  status: ('A' for Active; 'I' for Inactive)
ROOT
ATOM      1  C   UNL d   1      -2.802  -3.098   3.215  0.00  0.00     0.172 C 
ATOM      2  N   UNL d   1      -1.594  -2.319   3.082  0.00  0.00    -0.070 N 
ATOM      3  C1  UNL d   1      -1.321  -1.151   3.743  0.00  0.00    -0.004 A 
ATOM      4  C2  UNL d   1      -0.073  -0.722   3.344  0.00  0.00    -0.047 A 
ATOM      5  C3  UNL d   1       0.420  -1.665   2.410  0.00  0.00    -0.047 A 
ATOM      6  C4  UNL d   1      -0.542  -2.642   2.267  0.00  0.00    -0.004 A 
ENDROOT
TORSDOF 0
ENDMDL
