MODEL 1
REMARK minimizedAffinity 5.76563311
REMARK minimizedRMSD -1
REMARK  0 active torsions:
REMARK  status: ('A' for Active; 'I' for Inactive)
ROOT
ATOM      1  C   UNL d   1      -4.564   3.690  -1.270  0.00  0.00     0.172 C 
ATOM      2  N   UNL d   1      -3.468   3.893  -2.189  0.00  0.00    -0.070 N 
ATOM      3  C1  UNL d   1      -2.919   2.937  -3.001  0.00  0.00    -0.004 A 
ATOM      4  C2  UNL d   1      -1.903   3.527  -3.721  0.00  0.00    -0.047 A 
ATOM      5  C3  UNL d   1      -1.839   4.885  -3.327  0.00  0.00    -0.047 A 
ATOM      6  C4  UNL d   1      -2.819   5.084  -2.378  0.00  0.00    -0.004 A 
ENDROOT
TORSDOF 0
ENDMDL
