MODEL 1
REMARK minimizedAffinity 3.37071443
REMARK minimizedRMSD -1
REMARK  0 active torsions:
REMARK  status: ('A' for Active; 'I' for Inactive)
ROOT
ATOM      1  C   UNL d   1      -3.492  -3.843   2.368  0.00  0.00     0.172 C 
ATOM      2  N   UNL d   1      -4.508  -4.380   3.242  0.00  0.00    -0.070 N 
ATOM      3  C1  UNL d   1      -5.049  -3.741   4.326  0.00  0.00    -0.004 A 
ATOM      4  C2  UNL d   1      -5.981  -4.584   4.891  0.00  0.00    -0.047 A 
ATOM      5  C3  UNL d   1      -6.000  -5.772   4.122  0.00  0.00    -0.047 A 
ATOM      6  C4  UNL d   1      -5.079  -5.618   3.107  0.00  0.00    -0.004 A 
ENDROOT
TORSDOF 0
ENDMDL
