MODEL 1
REMARK minimizedAffinity 0.69532299
REMARK minimizedRMSD -1
REMARK  0 active torsions:
REMARK  status: ('A' for Active; 'I' for Inactive)
ROOT
ATOM      1  C   UNL d   1      -4.122  -5.958  -1.085  0.00  0.00     0.172 C 
ATOM      2  N   UNL d   1      -4.348  -5.965   0.341  0.00  0.00    -0.070 N 
ATOM      3  C1  UNL d   1      -3.375  -5.943   1.304  0.00  0.00    -0.004 A 
ATOM      4  C2  UNL d   1      -3.996  -5.959   2.533  0.00  0.00    -0.047 A 
ATOM      5  C3  UNL d   1      -5.392  -5.992   2.302  0.00  0.00    -0.047 A 
ATOM      6  C4  UNL d   1      -5.582  -5.995   0.936  0.00  0.00    -0.004 A 
ENDROOT
TORSDOF 0
ENDMDL
