MODEL 1
REMARK minimizedAffinity 6.21706152
REMARK minimizedRMSD -1
REMARK  0 active torsions:
REMARK  status: ('A' for Active; 'I' for Inactive)
ROOT
ATOM      1  C   UNL d   1       5.608  -5.954  -5.975  0.00  0.00     0.172 C 
ATOM      2  N   UNL d   1       4.304  -5.333  -5.982  0.00  0.00    -0.070 N 
ATOM      3  C1  UNL d   1       3.105  -5.994  -5.983  0.00  0.00    -0.004 A 
ATOM      4  C2  UNL d   1       2.102  -5.049  -5.991  0.00  0.00    -0.047 A 
ATOM      5  C3  UNL d   1       2.720  -3.776  -5.995  0.00  0.00    -0.047 A 
ATOM      6  C4  UNL d   1       4.083  -3.981  -5.990  0.00  0.00    -0.004 A 
ENDROOT
TORSDOF 0
ENDMDL
