MODEL 1
REMARK minimizedAffinity -1.15430951
REMARK minimizedRMSD -1
REMARK  0 active torsions:
REMARK  status: ('A' for Active; 'I' for Inactive)
ROOT
ATOM      1  C   UNL d   1       3.954  -3.827  -5.996  0.00  0.00     0.172 C 
ATOM      2  N   UNL d   1       2.747  -4.494  -5.566  0.00  0.00    -0.070 N 
ATOM      3  C1  UNL d   1       2.314  -5.718  -6.000  0.00  0.00    -0.004 A 
ATOM      4  C2  UNL d   1       1.130  -6.000  -5.354  0.00  0.00    -0.047 A 
ATOM      5  C3  UNL d   1       0.841  -4.907  -4.503  0.00  0.00    -0.047 A 
ATOM      6  C4  UNL d   1       1.858  -3.989  -4.654  0.00  0.00    -0.004 A 
ENDROOT
TORSDOF 0
ENDMDL
