MODEL 1
REMARK minimizedAffinity -0.560735106
REMARK minimizedRMSD -1
REMARK  0 active torsions:
REMARK  status: ('A' for Active; 'I' for Inactive)
ROOT
ATOM      1  C   UNL d   1      -4.088  -5.605  -1.031  0.00  0.00     0.172 C 
ATOM      2  N   UNL d   1      -4.247  -5.192   0.343  0.00  0.00    -0.070 N 
ATOM      3  C1  UNL d   1      -3.771  -4.030   0.888  0.00  0.00    -0.004 A 
ATOM      4  C2  UNL d   1      -4.131  -4.009   2.219  0.00  0.00    -0.047 A 
ATOM      5  C3  UNL d   1      -4.847  -5.201   2.482  0.00  0.00    -0.047 A 
ATOM      6  C4  UNL d   1      -4.904  -5.915   1.304  0.00  0.00    -0.004 A 
ENDROOT
TORSDOF 0
ENDMDL
