MODEL 1
REMARK minimizedAffinity 13.4315977
REMARK minimizedRMSD -1
REMARK  0 active torsions:
REMARK  status: ('A' for Active; 'I' for Inactive)
ROOT
ATOM      1  N1  IND d   1       0.203   2.223   1.859  0.00  0.00    -0.196 N 
ATOM      2  C2  IND d   1       1.304   2.735   2.488  0.00  0.00     0.054 A 
ATOM      3  C3  IND d   1       2.260   1.787   2.609  0.00  0.00    -0.031 A 
ATOM      4  C4  IND d   1       2.271  -0.643   1.757  0.00  0.00     0.051 A 
ATOM      5  C5  IND d   1       1.475  -1.577   1.156  0.00  0.00    -0.031 A 
ATOM      6  C6  IND d   1       0.190  -1.286   0.747  0.00  0.00     0.015 A 
ATOM      7  C7  IND d   1      -0.346  -0.040   0.915  0.00  0.00    -0.016 A 
ATOM      8  C8  IND d   1       0.456   0.909   1.532  0.00  0.00    -0.047 A 
ATOM      9  C9  IND d   1       1.746   0.607   1.987  0.00  0.00    -0.096 A 
ATOM     10  HN1 IND d   1      -0.525   2.650   1.695  0.00  0.00     0.298 HD
ENDROOT
TORSDOF 0
ENDMDL
