MODEL 1
REMARK minimizedAffinity 7.8917675
REMARK minimizedRMSD -1
REMARK  0 active torsions:
REMARK  status: ('A' for Active; 'I' for Inactive)
ROOT
ATOM      1  N1  IND d   1       2.039  -1.220   3.218  0.00  0.00    -0.196 N 
ATOM      2  C2  IND d   1       1.520  -2.062   2.274  0.00  0.00     0.054 A 
ATOM      3  C3  IND d   1       1.491  -1.454   1.067  0.00  0.00    -0.031 A 
ATOM      4  C4  IND d   1       2.335   0.882   0.391  0.00  0.00     0.051 A 
ATOM      5  C5  IND d   1       2.856   2.032   0.914  0.00  0.00    -0.031 A 
ATOM      6  C6  IND d   1       3.138   2.159   2.259  0.00  0.00     0.015 A 
ATOM      7  C7  IND d   1       2.921   1.131   3.132  0.00  0.00    -0.016 A 
ATOM      8  C8  IND d   1       2.386  -0.036   2.606  0.00  0.00    -0.047 A 
ATOM      9  C9  IND d   1       2.058  -0.156   1.249  0.00  0.00    -0.096 A 
ATOM     10  HN1 IND d   1       2.132  -1.400   4.053  0.00  0.00     0.298 HD
ENDROOT
TORSDOF 0
ENDMDL
