MODEL 1
REMARK minimizedAffinity 20.0298557
REMARK minimizedRMSD -1
REMARK  0 active torsions:
REMARK  status: ('A' for Active; 'I' for Inactive)
ROOT
ATOM      1  N1  IND d   1       4.661   1.384  -5.446  0.00  0.00    -0.196 N 
ATOM      2  C2  IND d   1       5.837   0.964  -6.000  0.00  0.00     0.054 A 
ATOM      3  C3  IND d   1       5.901  -0.387  -6.000  0.00  0.00    -0.031 A 
ATOM      4  C4  IND d   1       4.146  -2.107  -5.234  0.00  0.00     0.051 A 
ATOM      5  C5  IND d   1       2.927  -2.203  -4.623  0.00  0.00    -0.031 A 
ATOM      6  C6  IND d   1       2.207  -1.086  -4.251  0.00  0.00     0.015 A 
ATOM      7  C7  IND d   1       2.678   0.175  -4.486  0.00  0.00    -0.016 A 
ATOM      8  C8  IND d   1       3.918   0.276  -5.100  0.00  0.00    -0.047 A 
ATOM      9  C9  IND d   1       4.672  -0.854  -5.441  0.00  0.00    -0.096 A 
ATOM     10  HN1 IND d   1       4.424   2.203  -5.333  0.00  0.00     0.298 HD
ENDROOT
TORSDOF 0
ENDMDL
