MODEL 1
REMARK minimizedAffinity 8.05250454
REMARK minimizedRMSD -1
REMARK  0 active torsions:
REMARK  status: ('A' for Active; 'I' for Inactive)
ROOT
ATOM      1  N1  IND d   1      -3.469  -2.292  -5.376  0.00  0.00    -0.196 N 
ATOM      2  C2  IND d   1      -4.558  -1.466  -5.370  0.00  0.00     0.054 A 
ATOM      3  C3  IND d   1      -5.688  -2.176  -5.589  0.00  0.00    -0.031 A 
ATOM      4  C4  IND d   1      -5.994  -4.715  -5.882  0.00  0.00     0.051 A 
ATOM      5  C5  IND d   1      -5.287  -5.879  -5.999  0.00  0.00    -0.031 A 
ATOM      6  C6  IND d   1      -3.910  -5.907  -5.909  0.00  0.00     0.015 A 
ATOM      7  C7  IND d   1      -3.187  -4.770  -5.688  0.00  0.00    -0.016 A 
ATOM      8  C8  IND d   1      -3.901  -3.585  -5.576  0.00  0.00    -0.047 A 
ATOM      9  C9  IND d   1      -5.295  -3.544  -5.708  0.00  0.00    -0.096 A 
ATOM     10  HN1 IND d   1      -2.652  -2.046  -5.273  0.00  0.00     0.298 HD
ENDROOT
TORSDOF 0
ENDMDL
