MODEL 1
REMARK minimizedAffinity 15.1315136
REMARK minimizedRMSD -1
REMARK  0 active torsions:
REMARK  status: ('A' for Active; 'I' for Inactive)
ROOT
ATOM      1  N1  IND d   1       6.000  -0.651  -5.938  0.00  0.00    -0.196 N 
ATOM      2  C2  IND d   1       5.992   0.715  -5.995  0.00  0.00     0.054 A 
ATOM      3  C3  IND d   1       4.981   1.211  -5.247  0.00  0.00    -0.031 A 
ATOM      4  C4  IND d   1       3.281  -0.031  -3.766  0.00  0.00     0.051 A 
ATOM      5  C5  IND d   1       2.867  -1.287  -3.421  0.00  0.00    -0.031 A 
ATOM      6  C6  IND d   1       3.492  -2.419  -3.905  0.00  0.00     0.015 A 
ATOM      7  C7  IND d   1       4.564  -2.335  -4.747  0.00  0.00    -0.016 A 
ATOM      8  C8  IND d   1       4.982  -1.061  -5.105  0.00  0.00    -0.047 A 
ATOM      9  C9  IND d   1       4.326   0.090  -4.650  0.00  0.00    -0.096 A 
ATOM     10  HN1 IND d   1       6.548  -1.167  -6.353  0.00  0.00     0.298 HD
ENDROOT
TORSDOF 0
ENDMDL
