MODEL 1
REMARK minimizedAffinity 15.3824625
REMARK minimizedRMSD -1
REMARK  0 active torsions:
REMARK  status: ('A' for Active; 'I' for Inactive)
ROOT
ATOM      1  N1  IND d   1       0.965  -1.823   1.030  0.00  0.00    -0.196 N 
ATOM      2  C2  IND d   1       1.271  -1.168   2.190  0.00  0.00     0.054 A 
ATOM      3  C3  IND d   1       1.817  -2.023   3.083  0.00  0.00    -0.031 A 
ATOM      4  C4  IND d   1       2.396  -4.518   2.816  0.00  0.00     0.051 A 
ATOM      5  C5  IND d   1       2.270  -5.566   1.947  0.00  0.00    -0.031 A 
ATOM      6  C6  IND d   1       1.694  -5.416   0.702  0.00  0.00     0.015 A 
ATOM      7  C7  IND d   1       1.230  -4.205   0.273  0.00  0.00    -0.016 A 
ATOM      8  C8  IND d   1       1.349  -3.140   1.155  0.00  0.00    -0.047 A 
ATOM      9  C9  IND d   1       1.895  -3.295   2.436  0.00  0.00    -0.096 A 
ATOM     10  HN1 IND d   1       0.595  -1.471   0.338  0.00  0.00     0.298 HD
ENDROOT
TORSDOF 0
ENDMDL
