MODEL 1
REMARK minimizedAffinity 12.3251982
REMARK minimizedRMSD -1
REMARK  0 active torsions:
REMARK  status: ('A' for Active; 'I' for Inactive)
ROOT
ATOM      1  N1  IND d   1       3.088   1.179   0.058  0.00  0.00    -0.196 N 
ATOM      2  C2  IND d   1       2.481   0.553   1.111  0.00  0.00     0.054 A 
ATOM      3  C3  IND d   1       1.497   1.330   1.617  0.00  0.00    -0.031 A 
ATOM      4  C4  IND d   1       0.644   3.621   0.810  0.00  0.00     0.051 A 
ATOM      5  C5  IND d   1       0.908   4.611  -0.094  0.00  0.00    -0.031 A 
ATOM      6  C6  IND d   1       1.932   4.505  -1.014  0.00  0.00     0.015 A 
ATOM      7  C7  IND d   1       2.725   3.394  -1.072  0.00  0.00    -0.016 A 
ATOM      8  C8  IND d   1       2.464   2.389  -0.151  0.00  0.00    -0.047 A 
ATOM      9  C9  IND d   1       1.454   2.510   0.813  0.00  0.00    -0.096 A 
ATOM     10  HN1 IND d   1       3.748   0.869  -0.397  0.00  0.00     0.298 HD
ENDROOT
TORSDOF 0
ENDMDL
