MODEL 1
REMARK minimizedAffinity 1.58461869
REMARK minimizedRMSD -1
REMARK  0 active torsions:
REMARK  status: ('A' for Active; 'I' for Inactive)
ROOT
ATOM      1  N1  IND d   1       6.000   5.997  -4.375  0.00  0.00    -0.196 N 
ATOM      2  C2  IND d   1       5.403   5.996  -5.605  0.00  0.00     0.054 A 
ATOM      3  C3  IND d   1       4.107   5.629  -5.498  0.00  0.00    -0.031 A 
ATOM      4  C4  IND d   1       2.728   5.084  -3.394  0.00  0.00     0.051 A 
ATOM      5  C5  IND d   1       2.846   4.916  -2.042  0.00  0.00    -0.031 A 
ATOM      6  C6  IND d   1       4.045   5.106  -1.386  0.00  0.00     0.015 A 
ATOM      7  C7  IND d   1       5.173   5.484  -2.058  0.00  0.00    -0.016 A 
ATOM      8  C8  IND d   1       5.059   5.649  -3.431  0.00  0.00    -0.047 A 
ATOM      9  C9  IND d   1       3.855   5.416  -4.108  0.00  0.00    -0.096 A 
ATOM     10  HN1 IND d   1       6.824   6.184  -4.217  0.00  0.00     0.298 HD
ENDROOT
TORSDOF 0
ENDMDL
