MODEL 1
REMARK minimizedAffinity 11.3760929
REMARK minimizedRMSD -1
REMARK  0 active torsions:
REMARK  status: ('A' for Active; 'I' for Inactive)
ROOT
ATOM      1  N1  IND d   1      -5.099   1.469  -3.464  0.00  0.00    -0.196 N 
ATOM      2  C2  IND d   1      -3.876   0.878  -3.623  0.00  0.00     0.054 A 
ATOM      3  C3  IND d   1      -3.009   1.335  -2.692  0.00  0.00    -0.031 A 
ATOM      4  C4  IND d   1      -3.408   2.975  -0.749  0.00  0.00     0.051 A 
ATOM      5  C5  IND d   1      -4.355   3.805  -0.217  0.00  0.00    -0.031 A 
ATOM      6  C6  IND d   1      -5.625   3.898  -0.750  0.00  0.00     0.015 A 
ATOM      7  C7  IND d   1      -6.000   3.153  -1.832  0.00  0.00    -0.016 A 
ATOM      8  C8  IND d   1      -5.039   2.315  -2.379  0.00  0.00    -0.047 A 
ATOM      9  C9  IND d   1      -3.736   2.247  -1.869  0.00  0.00    -0.096 A 
ATOM     10  HN1 IND d   1      -5.789   1.334  -3.958  0.00  0.00     0.298 HD
ENDROOT
TORSDOF 0
ENDMDL
