MODEL 1
REMARK minimizedAffinity 4.71075964
REMARK minimizedRMSD -1
REMARK  0 active torsions:
REMARK  status: ('A' for Active; 'I' for Inactive)
ROOT
ATOM      1  N1  IND d   1       4.344  -0.262  -5.258  0.00  0.00    -0.196 N 
ATOM      2  C2  IND d   1       3.456  -0.074  -4.236  0.00  0.00     0.054 A 
ATOM      3  C3  IND d   1       3.324  -1.208  -3.513  0.00  0.00    -0.031 A 
ATOM      4  C4  IND d   1       4.546  -3.460  -3.764  0.00  0.00     0.051 A 
ATOM      5  C5  IND d   1       5.424  -4.125  -4.574  0.00  0.00    -0.031 A 
ATOM      6  C6  IND d   1       6.000  -3.523  -5.674  0.00  0.00     0.015 A 
ATOM      7  C7  IND d   1       5.728  -2.225  -6.000  0.00  0.00    -0.016 A 
ATOM      8  C8  IND d   1       4.832  -1.549  -5.184  0.00  0.00    -0.047 A 
ATOM      9  C9  IND d   1       4.211  -2.167  -4.091  0.00  0.00    -0.096 A 
ATOM     10  HN1 IND d   1       4.562   0.324  -5.848  0.00  0.00     0.298 HD
ENDROOT
TORSDOF 0
ENDMDL
