MODEL 1
REMARK minimizedAffinity -4.20451784
REMARK minimizedRMSD -1
REMARK  0 active torsions:
REMARK  status: ('A' for Active; 'I' for Inactive)
ROOT
ATOM      1  C1  BNZ d   1       0.887   0.012   2.479  0.00  0.00     0.000 A 
ATOM      2  C2  BNZ d   1       1.569   0.456   1.377  0.00  0.00     0.000 A 
ATOM      3  C3  BNZ d   1       0.941   0.584   0.170  0.00  0.00     0.000 A 
ATOM      4  C4  BNZ d   1      -0.355   0.231   0.056  0.00  0.00     0.000 A 
ATOM      5  C5  BNZ d   1      -1.054  -0.227   1.155  0.00  0.00     0.000 A 
ATOM      6  C6  BNZ d   1      -0.430  -0.318   2.377  0.00  0.00     0.000 A 
ENDROOT
TORSDOF 0
ENDMDL
