MODEL 1
REMARK minimizedAffinity -4.1473074
REMARK minimizedRMSD -1
REMARK  0 active torsions:
REMARK  status: ('A' for Active; 'I' for Inactive)
ROOT
ATOM      1  C1  BNZ d   1       0.387   0.106   2.669  0.00  0.00     0.000 A 
ATOM      2  C2  BNZ d   1       1.113   0.121   1.508  0.00  0.00     0.000 A 
ATOM      3  C3  BNZ d   1       0.522   0.435   0.317  0.00  0.00     0.000 A 
ATOM      4  C4  BNZ d   1      -0.801   0.695   0.281  0.00  0.00     0.000 A 
ATOM      5  C5  BNZ d   1      -1.549   0.675   1.441  0.00  0.00     0.000 A 
ATOM      6  C6  BNZ d   1      -0.943   0.396   2.644  0.00  0.00     0.000 A 
ENDROOT
TORSDOF 0
ENDMDL
