MODEL 1
REMARK minimizedAffinity -4.10467434
REMARK minimizedRMSD -1
REMARK  0 active torsions:
REMARK  status: ('A' for Active; 'I' for Inactive)
ROOT
ATOM      1  C1  BNZ d   1       2.776  -1.116  -2.992  0.00  0.00     0.000 A 
ATOM      2  C2  BNZ d   1       1.814  -1.950  -3.497  0.00  0.00     0.000 A 
ATOM      3  C3  BNZ d   1       0.487  -1.697  -3.285  0.00  0.00     0.000 A 
ATOM      4  C4  BNZ d   1       0.126  -0.635  -2.537  0.00  0.00     0.000 A 
ATOM      5  C5  BNZ d   1       1.085   0.210  -2.013  0.00  0.00     0.000 A 
ATOM      6  C6  BNZ d   1       2.417  -0.026  -2.261  0.00  0.00     0.000 A 
ENDROOT
TORSDOF 0
ENDMDL
