MODEL 1
REMARK minimizedAffinity -4.97613811
REMARK minimizedRMSD -1
REMARK  0 active torsions:
REMARK  status: ('A' for Active; 'I' for Inactive)
ROOT
ATOM      1  C1  BNZ d   1      -1.430  -0.573   3.360  0.00  0.00     0.000 A 
ATOM      2  C2  BNZ d   1      -0.140  -0.783   2.951  0.00  0.00     0.000 A 
ATOM      3  C3  BNZ d   1       0.206  -0.655   1.635  0.00  0.00     0.000 A 
ATOM      4  C4  BNZ d   1      -0.744  -0.358   0.725  0.00  0.00     0.000 A 
ATOM      5  C5  BNZ d   1      -2.051  -0.153   1.121  0.00  0.00     0.000 A 
ATOM      6  C6  BNZ d   1      -2.388  -0.244   2.452  0.00  0.00     0.000 A 
ENDROOT
TORSDOF 0
ENDMDL
