MODEL 1
REMARK minimizedAffinity -3.73255086
REMARK minimizedRMSD -1
REMARK  0 active torsions:
REMARK  status: ('A' for Active; 'I' for Inactive)
ROOT
ATOM      1  C1  BNZ d   1      -0.953  -0.966   1.778  0.00  0.00     0.000 A 
ATOM      2  C2  BNZ d   1      -0.397  -0.700   0.555  0.00  0.00     0.000 A 
ATOM      3  C3  BNZ d   1       0.597   0.229   0.425  0.00  0.00     0.000 A 
ATOM      4  C4  BNZ d   1       1.006   0.918   1.510  0.00  0.00     0.000 A 
ATOM      5  C5  BNZ d   1       0.449   0.669   2.748  0.00  0.00     0.000 A 
ATOM      6  C6  BNZ d   1      -0.524  -0.295   2.882  0.00  0.00     0.000 A 
ENDROOT
TORSDOF 0
ENDMDL
