MODEL 1
REMARK minimizedAffinity -3.7034874
REMARK minimizedRMSD -1
REMARK  0 active torsions:
REMARK  status: ('A' for Active; 'I' for Inactive)
ROOT
ATOM      1  C1  BNZ d   1      -0.967  -0.279   0.078  0.00  0.00     0.000 A 
ATOM      2  C2  BNZ d   1      -0.151  -0.101  -1.008  0.00  0.00     0.000 A 
ATOM      3  C3  BNZ d   1       1.188   0.121  -0.848  0.00  0.00     0.000 A 
ATOM      4  C4  BNZ d   1       1.702   0.205   0.396  0.00  0.00     0.000 A 
ATOM      5  C5  BNZ d   1       0.891   0.038   1.501  0.00  0.00     0.000 A 
ATOM      6  C6  BNZ d   1      -0.449  -0.225   1.335  0.00  0.00     0.000 A 
ENDROOT
TORSDOF 0
ENDMDL
