MODEL 1
REMARK minimizedAffinity -4.88807631
REMARK minimizedRMSD -1
REMARK  0 active torsions:
REMARK  status: ('A' for Active; 'I' for Inactive)
ROOT
ATOM      1  C1  BNZ d   1      -1.349  -0.412   2.329  0.00  0.00     0.000 A 
ATOM      2  C2  BNZ d   1      -1.122  -0.193   0.997  0.00  0.00     0.000 A 
ATOM      3  C3  BNZ d   1       0.087   0.272   0.559  0.00  0.00     0.000 A 
ATOM      4  C4  BNZ d   1       1.052   0.555   1.457  0.00  0.00     0.000 A 
ATOM      5  C5  BNZ d   1       0.836   0.349   2.805  0.00  0.00     0.000 A 
ATOM      6  C6  BNZ d   1      -0.368  -0.156   3.238  0.00  0.00     0.000 A 
ENDROOT
TORSDOF 0
ENDMDL
