MODEL 1
REMARK minimizedAffinity -4.45334482
REMARK minimizedRMSD -1
REMARK  0 active torsions:
REMARK  status: ('A' for Active; 'I' for Inactive)
ROOT
ATOM      1  C1  BNZ d   1      -0.862  -0.584   3.204  0.00  0.00     0.000 A 
ATOM      2  C2  BNZ d   1      -1.156  -1.585   2.316  0.00  0.00     0.000 A 
ATOM      3  C3  BNZ d   1      -0.579  -1.612   1.077  0.00  0.00     0.000 A 
ATOM      4  C4  BNZ d   1       0.258  -0.619   0.713  0.00  0.00     0.000 A 
ATOM      5  C5  BNZ d   1       0.556   0.402   1.593  0.00  0.00     0.000 A 
ATOM      6  C6  BNZ d   1       0.004   0.405   2.854  0.00  0.00     0.000 A 
ENDROOT
TORSDOF 0
ENDMDL
