MODEL 1
REMARK minimizedAffinity -4.28693628
REMARK minimizedRMSD -1
REMARK  0 active torsions:
REMARK  status: ('A' for Active; 'I' for Inactive)
ROOT
ATOM      1  C1  BNZ d   1      -0.133   0.389   3.068  0.00  0.00     0.000 A 
ATOM      2  C2  BNZ d   1      -0.797  -0.079   1.966  0.00  0.00     0.000 A 
ATOM      3  C3  BNZ d   1      -0.302   0.129   0.709  0.00  0.00     0.000 A 
ATOM      4  C4  BNZ d   1       0.834   0.838   0.553  0.00  0.00     0.000 A 
ATOM      5  C5  BNZ d   1       1.511   1.325   1.653  0.00  0.00     0.000 A 
ATOM      6  C6  BNZ d   1       1.030   1.080   2.919  0.00  0.00     0.000 A 
ENDROOT
TORSDOF 0
ENDMDL
