MODEL 1
REMARK minimizedAffinity -2.50105
REMARK minimizedRMSD -1
REMARK  0 active torsions:
REMARK  status: ('A' for Active; 'I' for Inactive)
ROOT
ATOM      1  C1  BNZ d   1      -0.089  -1.528  -3.752  0.00  0.00     0.000 A 
ATOM      2  C2  BNZ d   1      -0.500  -0.924  -2.594  0.00  0.00     0.000 A 
ATOM      3  C3  BNZ d   1       0.364  -0.163  -1.856  0.00  0.00     0.000 A 
ATOM      4  C4  BNZ d   1       1.647  -0.041  -2.255  0.00  0.00     0.000 A 
ATOM      5  C5  BNZ d   1       2.079  -0.652  -3.416  0.00  0.00     0.000 A 
ATOM      6  C6  BNZ d   1       1.196  -1.384  -4.176  0.00  0.00     0.000 A 
ENDROOT
TORSDOF 0
ENDMDL
