MODEL 1
REMARK minimizedAffinity -4.57611656
REMARK minimizedRMSD -1
REMARK  0 active torsions:
REMARK  status: ('A' for Active; 'I' for Inactive)
ROOT
ATOM      1  C1  BNZ d   1      -0.587  -0.359   1.060  0.00  0.00     0.000 A 
ATOM      2  C2  BNZ d   1      -1.890  -0.057   1.354  0.00  0.00     0.000 A 
ATOM      3  C3  BNZ d   1      -2.360  -0.160   2.633  0.00  0.00     0.000 A 
ATOM      4  C4  BNZ d   1      -1.540  -0.602   3.608  0.00  0.00     0.000 A 
ATOM      5  C5  BNZ d   1      -0.227  -0.920   3.325  0.00  0.00     0.000 A 
ATOM      6  C6  BNZ d   1       0.254  -0.778   2.044  0.00  0.00     0.000 A 
ENDROOT
TORSDOF 0
ENDMDL
