MODEL 1
REMARK minimizedAffinity -4.33102417
REMARK minimizedRMSD -1
REMARK  0 active torsions:
REMARK  status: ('A' for Active; 'I' for Inactive)
ROOT
ATOM      1  C1  BNZ d   1      -2.569   0.303   0.577  0.00  0.00     0.000 A 
ATOM      2  C2  BNZ d   1      -2.954   0.374   1.889  0.00  0.00     0.000 A 
ATOM      3  C3  BNZ d   1      -2.048   0.185   2.896  0.00  0.00     0.000 A 
ATOM      4  C4  BNZ d   1      -0.769  -0.113   2.589  0.00  0.00     0.000 A 
ATOM      5  C5  BNZ d   1      -0.367  -0.197   1.271  0.00  0.00     0.000 A 
ATOM      6  C6  BNZ d   1      -1.273   0.032   0.261  0.00  0.00     0.000 A 
ENDROOT
TORSDOF 0
ENDMDL
