MODEL 1
REMARK minimizedAffinity -4.55362654
REMARK minimizedRMSD -1
REMARK  0 active torsions:
REMARK  status: ('A' for Active; 'I' for Inactive)
ROOT
ATOM      1  C1  BNZ d   1      -1.269  -0.672   1.877  0.00  0.00     0.000 A 
ATOM      2  C2  BNZ d   1      -0.851  -0.458   0.590  0.00  0.00     0.000 A 
ATOM      3  C3  BNZ d   1       0.399   0.030   0.332  0.00  0.00     0.000 A 
ATOM      4  C4  BNZ d   1       1.215   0.342   1.360  0.00  0.00     0.000 A 
ATOM      5  C5  BNZ d   1       0.805   0.141   2.663  0.00  0.00     0.000 A 
ATOM      6  C6  BNZ d   1      -0.440  -0.387   2.918  0.00  0.00     0.000 A 
ENDROOT
TORSDOF 0
ENDMDL
