MODEL 1
REMARK minimizedAffinity -3.57809162
REMARK minimizedRMSD -1
REMARK  0 active torsions:
REMARK  status: ('A' for Active; 'I' for Inactive)
ROOT
ATOM      1  C1  BNZ d   1       1.817   1.584   0.437  0.00  0.00     0.000 A 
ATOM      2  C2  BNZ d   1       1.155   1.444  -0.753  0.00  0.00     0.000 A 
ATOM      3  C3  BNZ d   1       0.459   0.302  -1.037  0.00  0.00     0.000 A 
ATOM      4  C4  BNZ d   1       0.460  -0.713  -0.148  0.00  0.00     0.000 A 
ATOM      5  C5  BNZ d   1       1.131  -0.590   1.052  0.00  0.00     0.000 A 
ATOM      6  C6  BNZ d   1       1.798   0.576   1.351  0.00  0.00     0.000 A 
ENDROOT
TORSDOF 0
ENDMDL
