MODEL 1
REMARK minimizedAffinity -4.71661663
REMARK minimizedRMSD -1
REMARK  0 active torsions:
REMARK  status: ('A' for Active; 'I' for Inactive)
ROOT
ATOM      1  C1  BNZ d   1      -1.243  -1.146   1.830  0.00  0.00     0.000 A 
ATOM      2  C2  BNZ d   1      -0.421  -1.123   2.925  0.00  0.00     0.000 A 
ATOM      3  C3  BNZ d   1       0.761  -0.436   2.899  0.00  0.00     0.000 A 
ATOM      4  C4  BNZ d   1       1.137   0.193   1.767  0.00  0.00     0.000 A 
ATOM      5  C5  BNZ d   1       0.324   0.171   0.651  0.00  0.00     0.000 A 
ATOM      6  C6  BNZ d   1      -0.883  -0.489   0.694  0.00  0.00     0.000 A 
ENDROOT
TORSDOF 0
ENDMDL
