MODEL 1
REMARK minimizedAffinity -4.58018303
REMARK minimizedRMSD -1
REMARK  0 active torsions:
REMARK  status: ('A' for Active; 'I' for Inactive)
ROOT
ATOM      1  C1  BNZ d   1       0.739   0.356   0.458  0.00  0.00     0.000 A 
ATOM      2  C2  BNZ d   1      -0.410  -0.317   0.778  0.00  0.00     0.000 A 
ATOM      3  C3  BNZ d   1      -0.787  -0.475   2.083  0.00  0.00     0.000 A 
ATOM      4  C4  BNZ d   1       0.004   0.004   3.064  0.00  0.00     0.000 A 
ATOM      5  C5  BNZ d   1       1.170   0.676   2.757  0.00  0.00     0.000 A 
ATOM      6  C6  BNZ d   1       1.527   0.867   1.442  0.00  0.00     0.000 A 
ENDROOT
TORSDOF 0
ENDMDL
