MODEL 1
REMARK minimizedAffinity -0.729049325
REMARK minimizedRMSD -1
REMARK  0 active torsions:
REMARK  status: ('A' for Active; 'I' for Inactive)
ROOT
ATOM      1  C1  BNZ d   1       0.986   0.689   1.007  0.00  0.00     0.000 A 
ATOM      2  C2  BNZ d   1      -0.258   0.144   1.189  0.00  0.00     0.000 A 
ATOM      3  C3  BNZ d   1      -0.928   0.307   2.369  0.00  0.00     0.000 A 
ATOM      4  C4  BNZ d   1      -0.338   0.979   3.379  0.00  0.00     0.000 A 
ATOM      5  C5  BNZ d   1       0.919   1.525   3.215  0.00  0.00     0.000 A 
ATOM      6  C6  BNZ d   1       1.574   1.393   2.012  0.00  0.00     0.000 A 
ENDROOT
TORSDOF 0
ENDMDL
