MODEL 1
REMARK minimizedAffinity -0.0840239376
REMARK minimizedRMSD -1
REMARK  1 active torsions:
REMARK  status: ('A' for Active; 'I' for Inactive)
REMARK    1  A    between atoms: C1_2  and  C2_3 
ROOT
ATOM      1  C2  UNL d   1      -4.463   3.721  -4.339  0.00  0.00    -0.076 A 
ATOM      2  C3  UNL d   1      -4.249   2.426  -4.844  0.00  0.00     0.004 A 
ATOM      3  C4  UNL d   1      -4.854   1.317  -4.254  0.00  0.00    -0.003 A 
ATOM      4  C5  UNL d   1      -5.683   1.485  -3.150  0.00  0.00     0.000 A 
ATOM      5  C6  UNL d   1      -5.920   2.764  -2.647  0.00  0.00     0.000 A 
ATOM      6  C7  UNL d   1      -5.331   3.894  -3.240  0.00  0.00    -0.073 A 
ATOM      7  C8  UNL d   1      -5.617   5.249  -2.653  0.00  0.00     0.078 C 
ENDROOT
BRANCH   1   8
ATOM      8  C1  UNL d   1      -3.759   4.882  -5.004  0.00  0.00     0.053 C 
ATOM      9  C   UNL d   1      -4.648   5.610  -6.000  0.00  0.00     0.018 C 
ENDBRANCH   1   8
TORSDOF 1
ENDMDL
