MODEL 1
REMARK minimizedAffinity 7.11845875
REMARK minimizedRMSD -1
REMARK  1 active torsions:
REMARK  status: ('A' for Active; 'I' for Inactive)
REMARK    1  A    between atoms: C1_2  and  C2_3 
ROOT
ATOM      1  C2  UNL d   1      -0.701   1.775  -3.420  0.00  0.00    -0.076 A 
ATOM      2  C3  UNL d   1       0.019   0.870  -4.219  0.00  0.00     0.004 A 
ATOM      3  C4  UNL d   1      -0.627   0.081  -5.169  0.00  0.00    -0.003 A 
ATOM      4  C5  UNL d   1      -2.004   0.183  -5.335  0.00  0.00     0.000 A 
ATOM      5  C6  UNL d   1      -2.731   1.088  -4.563  0.00  0.00     0.000 A 
ATOM      6  C7  UNL d   1      -2.093   1.903  -3.612  0.00  0.00    -0.073 A 
ATOM      7  C8  UNL d   1      -2.928   2.857  -2.803  0.00  0.00     0.078 C 
ENDROOT
BRANCH   1   8
ATOM      8  C1  UNL d   1       0.049   2.586  -2.387  0.00  0.00     0.053 C 
ATOM      9  C   UNL d   1      -0.543   2.446  -0.994  0.00  0.00     0.018 C 
ENDBRANCH   1   8
TORSDOF 1
ENDMDL
