MODEL 1
REMARK minimizedAffinity 2.47714138
REMARK minimizedRMSD -1
REMARK  1 active torsions:
REMARK  status: ('A' for Active; 'I' for Inactive)
REMARK    1  A    between atoms: C1_2  and  C2_3 
ROOT
ATOM      1  C2  UNL d   1       0.280  -0.426  -1.515  0.00  0.00    -0.076 A 
ATOM      2  C3  UNL d   1       0.899  -0.648  -2.758  0.00  0.00     0.004 A 
ATOM      3  C4  UNL d   1       0.692   0.221  -3.828  0.00  0.00    -0.003 A 
ATOM      4  C5  UNL d   1      -0.136   1.327  -3.672  0.00  0.00     0.000 A 
ATOM      5  C6  UNL d   1      -0.744   1.572  -2.442  0.00  0.00     0.000 A 
ATOM      6  C7  UNL d   1      -0.533   0.715  -1.348  0.00  0.00    -0.073 A 
ATOM      7  C8  UNL d   1      -1.219   1.024  -0.046  0.00  0.00     0.078 C 
ENDROOT
BRANCH   1   8
ATOM      8  C1  UNL d   1       0.520  -1.418  -0.399  0.00  0.00     0.053 C 
ATOM      9  C   UNL d   1      -0.105  -2.775  -0.681  0.00  0.00     0.018 C 
ENDBRANCH   1   8
TORSDOF 1
ENDMDL
