MODEL 1
REMARK minimizedAffinity 10.1723986
REMARK minimizedRMSD -1
REMARK  1 active torsions:
REMARK  status: ('A' for Active; 'I' for Inactive)
REMARK    1  A    between atoms: C1_2  and  C2_3 
ROOT
ATOM      1  C2  UNL d   1       3.848  -3.088  -3.775  0.00  0.00    -0.076 A 
ATOM      2  C3  UNL d   1       3.215  -3.709  -4.866  0.00  0.00     0.004 A 
ATOM      3  C4  UNL d   1       3.949  -4.143  -5.969  0.00  0.00    -0.003 A 
ATOM      4  C5  UNL d   1       5.327  -3.963  -5.999  0.00  0.00     0.000 A 
ATOM      5  C6  UNL d   1       5.974  -3.365  -4.918  0.00  0.00     0.000 A 
ATOM      6  C7  UNL d   1       5.252  -2.936  -3.791  0.00  0.00    -0.073 A 
ATOM      7  C8  UNL d   1       5.999  -2.292  -2.656  0.00  0.00     0.078 C 
ENDROOT
BRANCH   1   8
ATOM      8  C1  UNL d   1       2.998  -2.613  -2.618  0.00  0.00     0.053 C 
ATOM      9  C   UNL d   1       3.013  -1.100  -2.466  0.00  0.00     0.018 C 
ENDBRANCH   1   8
TORSDOF 1
ENDMDL
