MODEL 1
REMARK minimizedAffinity 10.0895166
REMARK minimizedRMSD -1
REMARK  1 active torsions:
REMARK  status: ('A' for Active; 'I' for Inactive)
REMARK    1  A    between atoms: C1_2  and  C2_3 
ROOT
ATOM      1  C2  UNL d   1      -1.245  -4.050  -5.785  0.00  0.00    -0.076 A 
ATOM      2  C3  UNL d   1      -1.458  -5.439  -5.791  0.00  0.00     0.004 A 
ATOM      3  C4  UNL d   1      -2.745  -5.968  -5.881  0.00  0.00    -0.003 A 
ATOM      4  C5  UNL d   1      -3.840  -5.115  -5.968  0.00  0.00     0.000 A 
ATOM      5  C6  UNL d   1      -3.646  -3.734  -5.982  0.00  0.00     0.000 A 
ATOM      6  C7  UNL d   1      -2.354  -3.185  -5.908  0.00  0.00    -0.073 A 
ATOM      7  C8  UNL d   1      -2.204  -1.689  -5.920  0.00  0.00     0.078 C 
ENDROOT
BRANCH   1   8
ATOM      8  C1  UNL d   1       0.170  -3.534  -5.657  0.00  0.00     0.053 C 
ATOM      9  C   UNL d   1       1.197  -4.655  -5.615  0.00  0.00     0.018 C 
ENDBRANCH   1   8
TORSDOF 1
ENDMDL
