MODEL 1
REMARK minimizedAffinity 5.83049774
REMARK minimizedRMSD -1
REMARK  1 active torsions:
REMARK  status: ('A' for Active; 'I' for Inactive)
REMARK    1  A    between atoms: C1_2  and  C2_3 
ROOT
ATOM      1  C2  UNL d   1       1.661  -5.630  -0.251  0.00  0.00    -0.076 A 
ATOM      2  C3  UNL d   1       2.890  -6.000   0.324  0.00  0.00     0.004 A 
ATOM      3  C4  UNL d   1       3.069  -5.985   1.706  0.00  0.00    -0.003 A 
ATOM      4  C5  UNL d   1       2.022  -5.601   2.536  0.00  0.00     0.000 A 
ATOM      5  C6  UNL d   1       0.791  -5.248   1.984  0.00  0.00     0.000 A 
ATOM      6  C7  UNL d   1       0.588  -5.273   0.594  0.00  0.00    -0.073 A 
ATOM      7  C8  UNL d   1      -0.758  -4.877   0.052  0.00  0.00     0.078 C 
ENDROOT
BRANCH   1   8
ATOM      8  C1  UNL d   1       1.534  -5.640  -1.758  0.00  0.00     0.053 C 
ATOM      9  C   UNL d   1       0.132  -5.999  -2.222  0.00  0.00     0.018 C 
ENDBRANCH   1   8
TORSDOF 1
ENDMDL
