MODEL 1
REMARK minimizedAffinity 6.90463018
REMARK minimizedRMSD -1
REMARK  1 active torsions:
REMARK  status: ('A' for Active; 'I' for Inactive)
REMARK    1  A    between atoms: C1_2  and  C2_3 
ROOT
ATOM      1  C2  UNL d   1       0.994   1.960   1.333  0.00  0.00    -0.076 A 
ATOM      2  C3  UNL d   1       1.057   2.435   0.012  0.00  0.00     0.004 A 
ATOM      3  C4  UNL d   1       0.336   3.561  -0.381  0.00  0.00    -0.003 A 
ATOM      4  C5  UNL d   1      -0.460   4.231   0.542  0.00  0.00     0.000 A 
ATOM      5  C6  UNL d   1      -0.520   3.784   1.861  0.00  0.00     0.000 A 
ATOM      6  C7  UNL d   1       0.214   2.660   2.278  0.00  0.00    -0.073 A 
ATOM      7  C8  UNL d   1       0.107   2.218   3.711  0.00  0.00     0.078 C 
ENDROOT
BRANCH   1   8
ATOM      8  C1  UNL d   1       1.778   0.718   1.694  0.00  0.00     0.053 C 
ATOM      9  C   UNL d   1       3.199   0.748   1.155  0.00  0.00     0.018 C 
ENDBRANCH   1   8
TORSDOF 1
ENDMDL
