MODEL 1
REMARK minimizedAffinity -6.34470415
REMARK minimizedRMSD -1
REMARK  1 active torsions:
REMARK  status: ('A' for Active; 'I' for Inactive)
REMARK    1  A    between atoms: C1_2  and  C2_3 
ROOT
ATOM      1  C2  UNL d   1       0.373   1.485   0.928  0.00  0.00    -0.076 A 
ATOM      2  C3  UNL d   1       0.095   1.819  -0.409  0.00  0.00     0.004 A 
ATOM      3  C4  UNL d   1       0.517   1.001  -1.456  0.00  0.00    -0.003 A 
ATOM      4  C5  UNL d   1       1.224  -0.165  -1.183  0.00  0.00     0.000 A 
ATOM      5  C6  UNL d   1       1.493  -0.521   0.138  0.00  0.00     0.000 A 
ATOM      6  C7  UNL d   1       1.060   0.284   1.206  0.00  0.00    -0.073 A 
ATOM      7  C8  UNL d   1       1.384  -0.145   2.611  0.00  0.00     0.078 C 
ENDROOT
BRANCH   1   8
ATOM      8  C1  UNL d   1      -0.087   2.424   2.020  0.00  0.00     0.053 C 
ATOM      9  C   UNL d   1       0.909   3.542   2.284  0.00  0.00     0.018 C 
ENDBRANCH   1   8
TORSDOF 1
ENDMDL
