MODEL 1
REMARK minimizedAffinity -3.40261984
REMARK minimizedRMSD -1
REMARK  0 active torsions:
REMARK  status: ('A' for Active; 'I' for Inactive)
ROOT
ATOM      1  N1  IND d   1      -0.963   1.360  -0.524  0.00  0.00    -0.196 N 
ATOM      2  C2  IND d   1      -1.903   0.616   0.133  0.00  0.00     0.054 A 
ATOM      3  C3  IND d   1      -1.447  -0.639   0.343  0.00  0.00    -0.031 A 
ATOM      4  C4  IND d   1       0.849  -1.660  -0.216  0.00  0.00     0.051 A 
ATOM      5  C5  IND d   1       2.027  -1.381  -0.851  0.00  0.00    -0.031 A 
ATOM      6  C6  IND d   1       2.274  -0.148  -1.418  0.00  0.00     0.015 A 
ATOM      7  C7  IND d   1       1.353   0.860  -1.362  0.00  0.00    -0.016 A 
ATOM      8  C8  IND d   1       0.154   0.578  -0.724  0.00  0.00    -0.047 A 
ATOM      9  C9  IND d   1      -0.120  -0.685  -0.184  0.00  0.00    -0.096 A 
ATOM     10  HN1 IND d   1      -1.053   2.178  -0.771  0.00  0.00     0.298 HD
ENDROOT
TORSDOF 0
ENDMDL
