MODEL 1
REMARK minimizedAffinity -2.12101173
REMARK minimizedRMSD -1
REMARK  0 active torsions:
REMARK  status: ('A' for Active; 'I' for Inactive)
ROOT
ATOM      1  N1  IND d   1       0.044   0.868   0.009  0.00  0.00    -0.196 N 
ATOM      2  C2  IND d   1      -0.788  -0.117   0.464  0.00  0.00     0.054 A 
ATOM      3  C3  IND d   1      -0.332  -1.331   0.084  0.00  0.00    -0.031 A 
ATOM      4  C4  IND d   1       1.812  -1.944  -1.202  0.00  0.00     0.051 A 
ATOM      5  C5  IND d   1       2.871  -1.384  -1.860  0.00  0.00    -0.031 A 
ATOM      6  C6  IND d   1       3.047  -0.017  -1.927  0.00  0.00     0.015 A 
ATOM      7  C7  IND d   1       2.172   0.844  -1.327  0.00  0.00    -0.016 A 
ATOM      8  C8  IND d   1       1.092   0.279  -0.664  0.00  0.00    -0.047 A 
ATOM      9  C9  IND d   1       0.885  -1.106  -0.629  0.00  0.00    -0.096 A 
ATOM     10  HN1 IND d   1      -0.069   1.713   0.124  0.00  0.00     0.298 HD
ENDROOT
TORSDOF 0
ENDMDL
