MODEL 1
REMARK minimizedAffinity -4.01406956
REMARK minimizedRMSD -1
REMARK  0 active torsions:
REMARK  status: ('A' for Active; 'I' for Inactive)
ROOT
ATOM      1  N1  IND d   1      -0.195   1.058  -0.096  0.00  0.00    -0.196 N 
ATOM      2  C2  IND d   1      -1.076   0.036   0.125  0.00  0.00     0.054 A 
ATOM      3  C3  IND d   1      -0.479  -1.156  -0.099  0.00  0.00    -0.031 A 
ATOM      4  C4  IND d   1       1.961  -1.669  -0.737  0.00  0.00     0.051 A 
ATOM      5  C5  IND d   1       3.135  -1.061  -1.085  0.00  0.00    -0.031 A 
ATOM      6  C6  IND d   1       3.262   0.313  -1.119  0.00  0.00     0.015 A 
ATOM      7  C7  IND d   1       2.218   1.133  -0.794  0.00  0.00    -0.016 A 
ATOM      8  C8  IND d   1       1.023   0.518  -0.447  0.00  0.00    -0.047 A 
ATOM      9  C9  IND d   1       0.876  -0.875  -0.452  0.00  0.00    -0.096 A 
ATOM     10  HN1 IND d   1      -0.372   1.897  -0.028  0.00  0.00     0.298 HD
ENDROOT
TORSDOF 0
ENDMDL
