MODEL 1
REMARK minimizedAffinity -4.16899395
REMARK minimizedRMSD -1
REMARK  0 active torsions:
REMARK  status: ('A' for Active; 'I' for Inactive)
ROOT
ATOM      1  N1  IND d   1      -0.950   0.447  -0.125  0.00  0.00    -0.196 N 
ATOM      2  C2  IND d   1      -0.818   1.745  -0.533  0.00  0.00     0.054 A 
ATOM      3  C3  IND d   1       0.417   1.955  -1.040  0.00  0.00    -0.031 A 
ATOM      4  C4  IND d   1       2.347   0.288  -1.391  0.00  0.00     0.051 A 
ATOM      5  C5  IND d   1       2.713  -1.005  -1.140  0.00  0.00    -0.031 A 
ATOM      6  C6  IND d   1       1.858  -1.899  -0.529  0.00  0.00     0.015 A 
ATOM      7  C7  IND d   1       0.596  -1.534  -0.153  0.00  0.00    -0.016 A 
ATOM      8  C8  IND d   1       0.224  -0.220  -0.400  0.00  0.00    -0.047 A 
ATOM      9  C9  IND d   1       1.102   0.703  -0.981  0.00  0.00    -0.096 A 
ATOM     10  HN1 IND d   1      -1.648   0.105   0.242  0.00  0.00     0.298 HD
ENDROOT
TORSDOF 0
ENDMDL
