MODEL 1
REMARK minimizedAffinity -3.24664068
REMARK minimizedRMSD -1
REMARK  0 active torsions:
REMARK  status: ('A' for Active; 'I' for Inactive)
ROOT
ATOM      1  N1  IND d   1      -0.298   2.021  -1.739  0.00  0.00    -0.196 N 
ATOM      2  C2  IND d   1       0.841   2.163  -2.482  0.00  0.00     0.054 A 
ATOM      3  C3  IND d   1       1.659   1.103  -2.298  0.00  0.00    -0.031 A 
ATOM      4  C4  IND d   1       1.284  -1.028  -0.901  0.00  0.00     0.051 A 
ATOM      5  C5  IND d   1       0.411  -1.597  -0.018  0.00  0.00    -0.031 A 
ATOM      6  C6  IND d   1      -0.769  -0.978   0.342  0.00  0.00     0.015 A 
ATOM      7  C7  IND d   1      -1.126   0.233  -0.180  0.00  0.00    -0.016 A 
ATOM      8  C8  IND d   1      -0.238   0.818  -1.071  0.00  0.00    -0.047 A 
ATOM      9  C9  IND d   1       0.981   0.214  -1.407  0.00  0.00    -0.096 A 
ATOM     10  HN1 IND d   1      -0.943   2.588  -1.696  0.00  0.00     0.298 HD
ENDROOT
TORSDOF 0
ENDMDL
