MODEL 1
REMARK minimizedAffinity -3.83594394
REMARK minimizedRMSD -1
REMARK  0 active torsions:
REMARK  status: ('A' for Active; 'I' for Inactive)
ROOT
ATOM      1  N1  IND d   1       2.673   0.580  -1.395  0.00  0.00    -0.196 N 
ATOM      2  C2  IND d   1       2.992  -0.710  -1.074  0.00  0.00     0.054 A 
ATOM      3  C3  IND d   1       1.884  -1.388  -0.695  0.00  0.00    -0.031 A 
ATOM      4  C4  IND d   1      -0.567  -0.606  -0.626  0.00  0.00     0.051 A 
ATOM      5  C5  IND d   1      -1.350   0.502  -0.794  0.00  0.00    -0.031 A 
ATOM      6  C6  IND d   1      -0.821   1.716  -1.182  0.00  0.00     0.015 A 
ATOM      7  C7  IND d   1       0.514   1.866  -1.428  0.00  0.00    -0.016 A 
ATOM      8  C8  IND d   1       1.313   0.745  -1.251  0.00  0.00    -0.047 A 
ATOM      9  C9  IND d   1       0.788  -0.479  -0.816  0.00  0.00    -0.096 A 
ATOM     10  HN1 IND d   1       3.229   1.186  -1.645  0.00  0.00     0.298 HD
ENDROOT
TORSDOF 0
ENDMDL
