MODEL 1
REMARK minimizedAffinity -3.50666642
REMARK minimizedRMSD -1
REMARK  0 active torsions:
REMARK  status: ('A' for Active; 'I' for Inactive)
ROOT
ATOM      1  N1  IND d   1       0.375   1.315   0.771  0.00  0.00    -0.196 N 
ATOM      2  C2  IND d   1      -0.764   0.725   1.243  0.00  0.00     0.054 A 
ATOM      3  C3  IND d   1      -0.900  -0.517   0.726  0.00  0.00    -0.031 A 
ATOM      4  C4  IND d   1       0.680  -1.820  -0.834  0.00  0.00     0.051 A 
ATOM      5  C5  IND d   1       1.827  -1.684  -1.564  0.00  0.00    -0.031 A 
ATOM      6  C6  IND d   1       2.566  -0.518  -1.550  0.00  0.00     0.015 A 
ATOM      7  C7  IND d   1       2.189   0.555  -0.793  0.00  0.00    -0.016 A 
ATOM      8  C8  IND d   1       1.020   0.423  -0.057  0.00  0.00    -0.047 A 
ATOM      9  C9  IND d   1       0.243  -0.742  -0.101  0.00  0.00    -0.096 A 
ATOM     10  HN1 IND d   1       0.643   2.110   0.959  0.00  0.00     0.298 HD
ENDROOT
TORSDOF 0
ENDMDL
