MODEL 1
REMARK minimizedAffinity -4.84044743
REMARK minimizedRMSD -1
REMARK  0 active torsions:
REMARK  status: ('A' for Active; 'I' for Inactive)
ROOT
ATOM      1  N1  IND d   1      -0.704   0.405  -0.754  0.00  0.00    -0.196 N 
ATOM      2  C2  IND d   1      -0.828  -0.600   0.165  0.00  0.00     0.054 A 
ATOM      3  C3  IND d   1       0.314  -1.321   0.230  0.00  0.00    -0.031 A 
ATOM      4  C4  IND d   1       2.544  -0.969  -1.008  0.00  0.00     0.051 A 
ATOM      5  C5  IND d   1       3.128  -0.204  -1.977  0.00  0.00    -0.031 A 
ATOM      6  C6  IND d   1       2.453   0.827  -2.599  0.00  0.00     0.015 A 
ATOM      7  C7  IND d   1       1.165   1.138  -2.265  0.00  0.00    -0.016 A 
ATOM      8  C8  IND d   1       0.566   0.358  -1.286  0.00  0.00    -0.047 A 
ATOM      9  C9  IND d   1       1.232  -0.716  -0.682  0.00  0.00    -0.096 A 
ATOM     10  HN1 IND d   1      -1.316   0.971  -0.964  0.00  0.00     0.298 HD
ENDROOT
TORSDOF 0
ENDMDL
