MODEL 1
REMARK minimizedAffinity -2.36409783
REMARK minimizedRMSD -1
REMARK  0 active torsions:
REMARK  status: ('A' for Active; 'I' for Inactive)
ROOT
ATOM      1  N1  IND d   1      -1.001   1.009  -0.437  0.00  0.00    -0.196 N 
ATOM      2  C2  IND d   1      -0.647   1.847  -1.457  0.00  0.00     0.054 A 
ATOM      3  C3  IND d   1       0.455   1.381  -2.087  0.00  0.00    -0.031 A 
ATOM      4  C4  IND d   1       1.780  -0.788  -1.677  0.00  0.00     0.051 A 
ATOM      5  C5  IND d   1       1.859  -1.857  -0.830  0.00  0.00    -0.031 A 
ATOM      6  C6  IND d   1       0.970  -2.031   0.211  0.00  0.00     0.015 A 
ATOM      7  C7  IND d   1      -0.044  -1.144   0.437  0.00  0.00    -0.016 A 
ATOM      8  C8  IND d   1      -0.124  -0.053  -0.416  0.00  0.00    -0.047 A 
ATOM      9  C9  IND d   1       0.802   0.152  -1.448  0.00  0.00    -0.096 A 
ATOM     10  HN1 IND d   1      -1.661   1.125   0.102  0.00  0.00     0.298 HD
ENDROOT
TORSDOF 0
ENDMDL
