MODEL 1
REMARK minimizedAffinity -2.48604631
REMARK minimizedRMSD -1
REMARK  0 active torsions:
REMARK  status: ('A' for Active; 'I' for Inactive)
ROOT
ATOM      1  N1  IND d   1      -1.086   0.965   3.051  0.00  0.00    -0.196 N 
ATOM      2  C2  IND d   1      -2.448   0.876   3.132  0.00  0.00     0.054 A 
ATOM      3  C3  IND d   1      -2.932   0.129   2.115  0.00  0.00    -0.031 A 
ATOM      4  C4  IND d   1      -1.663  -1.131   0.263  0.00  0.00     0.051 A 
ATOM      5  C5  IND d   1      -0.409  -1.320  -0.247  0.00  0.00    -0.031 A 
ATOM      6  C6  IND d   1       0.706  -0.748   0.330  0.00  0.00     0.015 A 
ATOM      7  C7  IND d   1       0.610   0.029   1.450  0.00  0.00    -0.016 A 
ATOM      8  C8  IND d   1      -0.663   0.229   1.966  0.00  0.00    -0.047 A 
ATOM      9  C9  IND d   1      -1.803  -0.314   1.360  0.00  0.00    -0.096 A 
ATOM     10  HN1 IND d   1      -0.579   1.406   3.587  0.00  0.00     0.298 HD
ENDROOT
TORSDOF 0
ENDMDL
