MODEL 1
REMARK minimizedAffinity -3.43032432
REMARK minimizedRMSD -1
REMARK  0 active torsions:
REMARK  status: ('A' for Active; 'I' for Inactive)
ROOT
ATOM      1  N1  IND d   1      -0.295   0.948  -0.431  0.00  0.00    -0.196 N 
ATOM      2  C2  IND d   1      -0.768  -0.054   0.370  0.00  0.00     0.054 A 
ATOM      3  C3  IND d   1       0.068  -1.115   0.341  0.00  0.00    -0.031 A 
ATOM      4  C4  IND d   1       2.322  -1.388  -0.873  0.00  0.00     0.051 A 
ATOM      5  C5  IND d   1       3.154  -0.757  -1.756  0.00  0.00    -0.031 A 
ATOM      6  C6  IND d   1       2.874   0.500  -2.250  0.00  0.00     0.015 A 
ATOM      7  C7  IND d   1       1.753   1.182  -1.869  0.00  0.00    -0.016 A 
ATOM      8  C8  IND d   1       0.903   0.542  -0.978  0.00  0.00    -0.047 A 
ATOM      9  C9  IND d   1       1.160  -0.752  -0.506  0.00  0.00    -0.096 A 
ATOM     10  HN1 IND d   1      -0.680   1.704  -0.570  0.00  0.00     0.298 HD
ENDROOT
TORSDOF 0
ENDMDL
