MODEL 1
REMARK minimizedAffinity -4.15170336
REMARK minimizedRMSD -1
REMARK  0 active torsions:
REMARK  status: ('A' for Active; 'I' for Inactive)
ROOT
ATOM      1  N1  IND d   1      -0.473   0.373   0.712  0.00  0.00    -0.196 N 
ATOM      2  C2  IND d   1      -1.402  -0.605   0.488  0.00  0.00     0.054 A 
ATOM      3  C3  IND d   1      -0.896  -1.556  -0.328  0.00  0.00    -0.031 A 
ATOM      4  C4  IND d   1       1.466  -1.763  -1.332  0.00  0.00     0.051 A 
ATOM      5  C5  IND d   1       2.653  -1.094  -1.440  0.00  0.00    -0.031 A 
ATOM      6  C6  IND d   1       2.864   0.121  -0.822  0.00  0.00     0.015 A 
ATOM      7  C7  IND d   1       1.895   0.710  -0.059  0.00  0.00    -0.016 A 
ATOM      8  C8  IND d   1       0.686   0.037   0.047  0.00  0.00    -0.047 A 
ATOM      9  C9  IND d   1       0.452  -1.176  -0.613  0.00  0.00    -0.096 A 
ATOM     10  HN1 IND d   1      -0.592   1.079   1.188  0.00  0.00     0.298 HD
ENDROOT
TORSDOF 0
ENDMDL
