MODEL 1
REMARK minimizedAffinity -4.77134514
REMARK minimizedRMSD -1
REMARK  0 active torsions:
REMARK  status: ('A' for Active; 'I' for Inactive)
ROOT
ATOM      1  N1  IND d   1      -0.929   0.648  -0.204  0.00  0.00    -0.196 N 
ATOM      2  C2  IND d   1      -1.327  -0.493   0.434  0.00  0.00     0.054 A 
ATOM      3  C3  IND d   1      -0.398  -1.464   0.284  0.00  0.00    -0.031 A 
ATOM      4  C4  IND d   1       1.895  -1.368  -0.881  0.00  0.00     0.051 A 
ATOM      5  C5  IND d   1       2.684  -0.549  -1.640  0.00  0.00    -0.031 A 
ATOM      6  C6  IND d   1       2.303   0.737  -1.963  0.00  0.00     0.015 A 
ATOM      7  C7  IND d   1       1.118   1.259  -1.528  0.00  0.00    -0.016 A 
ATOM      8  C8  IND d   1       0.311   0.429  -0.763  0.00  0.00    -0.047 A 
ATOM      9  C9  IND d   1       0.673  -0.892  -0.468  0.00  0.00    -0.096 A 
ATOM     10  HN1 IND d   1      -1.377   1.381  -0.248  0.00  0.00     0.298 HD
ENDROOT
TORSDOF 0
ENDMDL
