MODEL 1
REMARK minimizedAffinity -4.36419296
REMARK minimizedRMSD -1
REMARK  0 active torsions:
REMARK  status: ('A' for Active; 'I' for Inactive)
ROOT
ATOM      1  N1  IND d   1      -0.897  -0.892  -0.060  0.00  0.00    -0.196 N 
ATOM      2  C2  IND d   1      -0.474  -2.191  -0.040  0.00  0.00     0.054 A 
ATOM      3  C3  IND d   1       0.838  -2.264  -0.357  0.00  0.00    -0.031 A 
ATOM      4  C4  IND d   1       2.510  -0.368  -0.847  0.00  0.00     0.051 A 
ATOM      5  C5  IND d   1       2.583   0.986  -1.018  0.00  0.00    -0.031 A 
ATOM      6  C6  IND d   1       1.478   1.800  -0.873  0.00  0.00     0.015 A 
ATOM      7  C7  IND d   1       0.256   1.289  -0.539  0.00  0.00    -0.016 A 
ATOM      8  C8  IND d   1       0.176  -0.086  -0.371  0.00  0.00    -0.047 A 
ATOM      9  C9  IND d   1       1.285  -0.922  -0.559  0.00  0.00    -0.096 A 
ATOM     10  HN1 IND d   1      -1.699  -0.623   0.095  0.00  0.00     0.298 HD
ENDROOT
TORSDOF 0
ENDMDL
