MODEL 1
REMARK minimizedAffinity -4.84279728
REMARK minimizedRMSD -1
REMARK  0 active torsions:
REMARK  status: ('A' for Active; 'I' for Inactive)
ROOT
ATOM      1  N1  IND d   1      -0.318   0.349   0.212  0.00  0.00    -0.196 N 
ATOM      2  C2  IND d   1      -0.814  -0.900   0.465  0.00  0.00     0.054 A 
ATOM      3  C3  IND d   1      -0.003  -1.844  -0.062  0.00  0.00    -0.031 A 
ATOM      4  C4  IND d   1       2.242  -1.571  -1.293  0.00  0.00     0.051 A 
ATOM      5  C5  IND d   1       3.086  -0.620  -1.795  0.00  0.00    -0.031 A 
ATOM      6  C6  IND d   1       2.835   0.729  -1.649  0.00  0.00     0.015 A 
ATOM      7  C7  IND d   1       1.731   1.180  -0.982  0.00  0.00    -0.016 A 
ATOM      8  C8  IND d   1       0.868   0.218  -0.477  0.00  0.00    -0.047 A 
ATOM      9  C9  IND d   1       1.096  -1.153  -0.659  0.00  0.00    -0.096 A 
ATOM     10  HN1 IND d   1      -0.685   1.091   0.443  0.00  0.00     0.298 HD
ENDROOT
TORSDOF 0
ENDMDL
