MODEL 1
REMARK minimizedAffinity -2.79741955
REMARK minimizedRMSD -1
REMARK  0 active torsions:
REMARK  status: ('A' for Active; 'I' for Inactive)
ROOT
ATOM      1  N1  IND d   1       5.866  -0.680   5.999  0.00  0.00    -0.196 N 
ATOM      2  C2  IND d   1       5.540  -1.604   5.046  0.00  0.00     0.054 A 
ATOM      3  C3  IND d   1       5.225  -0.990   3.884  0.00  0.00    -0.031 A 
ATOM      4  C4  IND d   1       5.276   1.514   3.290  0.00  0.00     0.051 A 
ATOM      5  C5  IND d   1       5.475   2.748   3.843  0.00  0.00    -0.031 A 
ATOM      6  C6  IND d   1       5.824   2.906   5.169  0.00  0.00     0.015 A 
ATOM      7  C7  IND d   1       5.999   1.830   5.992  0.00  0.00    -0.016 A 
ATOM      8  C8  IND d   1       5.791   0.575   5.436  0.00  0.00    -0.047 A 
ATOM      9  C9  IND d   1       5.395   0.411   4.102  0.00  0.00    -0.096 A 
ATOM     10  HN1 IND d   1       6.081  -0.853   6.813  0.00  0.00     0.298 HD
ENDROOT
TORSDOF 0
ENDMDL
