MODEL 1
REMARK minimizedAffinity 0.00272218022
REMARK minimizedRMSD -1
REMARK  1 active torsions:
REMARK  status: ('A' for Active; 'I' for Inactive)
REMARK    1  A    between atoms: C3_4  and  O_7 
ROOT
ATOM      1  C   UNL d   1       0.626   0.346  -0.407  0.00  0.00    -0.033 A 
ATOM      2  C1  UNL d   1       0.312  -0.808   0.314  0.00  0.00     0.039 A 
ATOM      3  C2  UNL d   1      -0.883  -0.881   1.033  0.00  0.00    -0.080 A 
ATOM      4  C3  UNL d   1      -1.754   0.205   1.022  0.00  0.00     0.150 A 
ATOM      5  C4  UNL d   1      -1.449   1.356   0.303  0.00  0.00    -0.007 A 
ATOM      6  C5  UNL d   1      -0.255   1.427  -0.413  0.00  0.00     0.039 A 
ENDROOT
BRANCH   4   7
ATOM      7  O   UNL d   1      -2.930   0.182   1.712  0.00  0.00    -0.526 OA
ATOM      8  H5  UNL d   1      -2.993  -0.665   2.184  0.00  0.00     0.418 HD
ENDBRANCH   4   7
TORSDOF 1
ENDMDL
