MODEL 1
REMARK minimizedAffinity -1.44671464
REMARK minimizedRMSD -1
REMARK  1 active torsions:
REMARK  status: ('A' for Active; 'I' for Inactive)
REMARK    1  A    between atoms: C3_4  and  O_7 
ROOT
ATOM      1  C   UNL d   1      -2.432   1.542   4.303  0.00  0.00    -0.033 A 
ATOM      2  C1  UNL d   1      -2.713   0.255   3.841  0.00  0.00     0.039 A 
ATOM      3  C2  UNL d   1      -2.458  -0.081   2.510  0.00  0.00    -0.080 A 
ATOM      4  C3  UNL d   1      -1.921   0.876   1.654  0.00  0.00     0.150 A 
ATOM      5  C4  UNL d   1      -1.635   2.159   2.109  0.00  0.00    -0.007 A 
ATOM      6  C5  UNL d   1      -1.891   2.494   3.438  0.00  0.00     0.039 A 
ENDROOT
BRANCH   4   7
ATOM      7  O   UNL d   1      -1.659   0.596   0.346  0.00  0.00    -0.526 OA
ATOM      8  H5  UNL d   1      -1.934  -0.319   0.166  0.00  0.00     0.418 HD
ENDBRANCH   4   7
TORSDOF 1
ENDMDL
