MODEL 1
REMARK minimizedAffinity -4.30440426
REMARK minimizedRMSD -1
REMARK  1 active torsions:
REMARK  status: ('A' for Active; 'I' for Inactive)
REMARK    1  A    between atoms: C3_4  and  O_7 
ROOT
ATOM      1  C   UNL d   1      -0.195  -0.601  -0.105  0.00  0.00    -0.033 A 
ATOM      2  C1  UNL d   1       0.556   0.564  -0.268  0.00  0.00     0.039 A 
ATOM      3  C2  UNL d   1       1.873   0.490  -0.725  0.00  0.00    -0.080 A 
ATOM      4  C3  UNL d   1       2.426  -0.754  -1.015  0.00  0.00     0.150 A 
ATOM      5  C4  UNL d   1       1.683  -1.919  -0.859  0.00  0.00    -0.007 A 
ATOM      6  C5  UNL d   1       0.368  -1.843  -0.401  0.00  0.00     0.039 A 
ENDROOT
BRANCH   4   7
ATOM      7  O   UNL d   1       3.709  -0.878  -1.459  0.00  0.00    -0.526 OA
ATOM      8  H5  UNL d   1       4.110   0.007  -1.492  0.00  0.00     0.418 HD
ENDBRANCH   4   7
TORSDOF 1
ENDMDL
