MODEL 1
REMARK minimizedAffinity -3.46074629
REMARK minimizedRMSD -1
REMARK  1 active torsions:
REMARK  status: ('A' for Active; 'I' for Inactive)
REMARK    1  A    between atoms: C3_4  and  O_7 
ROOT
ATOM      1  C   UNL d   1      -1.258  -0.530   1.009  0.00  0.00    -0.033 A 
ATOM      2  C1  UNL d   1      -1.250  -1.841   0.529  0.00  0.00     0.039 A 
ATOM      3  C2  UNL d   1      -0.288  -2.240  -0.401  0.00  0.00    -0.080 A 
ATOM      4  C3  UNL d   1       0.659  -1.320  -0.842  0.00  0.00     0.150 A 
ATOM      5  C4  UNL d   1       0.659  -0.013  -0.365  0.00  0.00    -0.007 A 
ATOM      6  C5  UNL d   1      -0.303   0.383   0.563  0.00  0.00     0.039 A 
ENDROOT
BRANCH   4   7
ATOM      7  O   UNL d   1       1.615  -1.661  -1.752  0.00  0.00    -0.526 OA
ATOM      8  H5  UNL d   1       1.474  -2.586  -2.013  0.00  0.00     0.418 HD
ENDBRANCH   4   7
TORSDOF 1
ENDMDL
