MODEL 1
REMARK minimizedAffinity -3.17170286
REMARK minimizedRMSD -1
REMARK  1 active torsions:
REMARK  status: ('A' for Active; 'I' for Inactive)
REMARK    1  A    between atoms: C3_4  and  O_7 
ROOT
ATOM      1  C   UNL d   1       2.676  -0.111  -2.086  0.00  0.00    -0.033 A 
ATOM      2  C1  UNL d   1       2.037   1.120  -2.246  0.00  0.00     0.039 A 
ATOM      3  C2  UNL d   1       0.950   1.455  -1.436  0.00  0.00    -0.080 A 
ATOM      4  C3  UNL d   1       0.512   0.552  -0.472  0.00  0.00     0.150 A 
ATOM      5  C4  UNL d   1       1.146  -0.675  -0.305  0.00  0.00    -0.007 A 
ATOM      6  C5  UNL d   1       2.231  -1.008  -1.115  0.00  0.00     0.039 A 
ENDROOT
BRANCH   4   7
ATOM      7  O   UNL d   1      -0.548   0.832   0.338  0.00  0.00    -0.526 OA
ATOM      8  H5  UNL d   1      -0.904   1.701   0.090  0.00  0.00     0.418 HD
ENDBRANCH   4   7
TORSDOF 1
ENDMDL
