MODEL 1
REMARK minimizedAffinity -0.961528957
REMARK minimizedRMSD -1
REMARK  1 active torsions:
REMARK  status: ('A' for Active; 'I' for Inactive)
REMARK    1  A    between atoms: C3_4  and  O_7 
ROOT
ATOM      1  C   UNL d   1       0.293   1.496  -1.106  0.00  0.00    -0.033 A 
ATOM      2  C1  UNL d   1       0.410   0.330  -0.347  0.00  0.00     0.039 A 
ATOM      3  C2  UNL d   1       1.328  -0.656  -0.717  0.00  0.00    -0.080 A 
ATOM      4  C3  UNL d   1       2.121  -0.463  -1.844  0.00  0.00     0.150 A 
ATOM      5  C4  UNL d   1       2.011   0.697  -2.603  0.00  0.00    -0.007 A 
ATOM      6  C5  UNL d   1       1.094   1.680  -2.233  0.00  0.00     0.039 A 
ENDROOT
BRANCH   4   7
ATOM      7  O   UNL d   1       3.027  -1.399  -2.247  0.00  0.00    -0.526 OA
ATOM      8  H5  UNL d   1       2.972  -2.160  -1.645  0.00  0.00     0.418 HD
ENDBRANCH   4   7
TORSDOF 1
ENDMDL
