MODEL 1
REMARK minimizedAffinity -4.5880909
REMARK minimizedRMSD -1
REMARK  1 active torsions:
REMARK  status: ('A' for Active; 'I' for Inactive)
REMARK    1  A    between atoms: C3_4  and  O_7 
ROOT
ATOM      1  C   UNL d   1       2.530  -0.662  -1.758  0.00  0.00    -0.033 A 
ATOM      2  C1  UNL d   1       2.092   0.653  -1.591  0.00  0.00     0.039 A 
ATOM      3  C2  UNL d   1       1.020   0.931  -0.741  0.00  0.00    -0.080 A 
ATOM      4  C3  UNL d   1       0.395  -0.113  -0.065  0.00  0.00     0.150 A 
ATOM      5  C4  UNL d   1       0.828  -1.425  -0.224  0.00  0.00    -0.007 A 
ATOM      6  C5  UNL d   1       1.898  -1.701  -1.074  0.00  0.00     0.039 A 
ENDROOT
BRANCH   4   7
ATOM      7  O   UNL d   1      -0.659   0.109   0.771  0.00  0.00    -0.526 OA
ATOM      8  H5  UNL d   1      -0.866   1.058   0.760  0.00  0.00     0.418 HD
ENDBRANCH   4   7
TORSDOF 1
ENDMDL
