MODEL 1
REMARK minimizedAffinity -4.94416618
REMARK minimizedRMSD -1
REMARK  1 active torsions:
REMARK  status: ('A' for Active; 'I' for Inactive)
REMARK    1  A    between atoms: C3_4  and  O_7 
ROOT
ATOM      1  C   UNL d   1      -0.491   0.172   0.806  0.00  0.00    -0.033 A 
ATOM      2  C1  UNL d   1      -1.647   0.687   1.396  0.00  0.00     0.039 A 
ATOM      3  C2  UNL d   1      -1.655   1.009   2.755  0.00  0.00    -0.080 A 
ATOM      4  C3  UNL d   1      -0.503   0.811   3.511  0.00  0.00     0.150 A 
ATOM      5  C4  UNL d   1       0.653   0.301   2.928  0.00  0.00    -0.007 A 
ATOM      6  C5  UNL d   1       0.659  -0.020   1.572  0.00  0.00     0.039 A 
ENDROOT
BRANCH   4   7
ATOM      7  O   UNL d   1      -0.465   1.105   4.841  0.00  0.00    -0.526 OA
ATOM      8  H5  UNL d   1      -1.343   1.421   5.112  0.00  0.00     0.418 HD
ENDBRANCH   4   7
TORSDOF 1
ENDMDL
