MODEL 1
REMARK minimizedAffinity -2.21144509
REMARK minimizedRMSD -1
REMARK  1 active torsions:
REMARK  status: ('A' for Active; 'I' for Inactive)
REMARK    1  A    between atoms: C3_4  and  O_7 
ROOT
ATOM      1  C   UNL d   1      -0.756   0.740  -0.552  0.00  0.00    -0.033 A 
ATOM      2  C1  UNL d   1      -2.028   1.128  -0.128  0.00  0.00     0.039 A 
ATOM      3  C2  UNL d   1      -2.443   0.858   1.178  0.00  0.00    -0.080 A 
ATOM      4  C3  UNL d   1      -1.577   0.202   2.048  0.00  0.00     0.150 A 
ATOM      5  C4  UNL d   1      -0.307  -0.184   1.633  0.00  0.00    -0.007 A 
ATOM      6  C5  UNL d   1       0.105   0.086   0.328  0.00  0.00     0.039 A 
ENDROOT
BRANCH   4   7
ATOM      7  O   UNL d   1      -1.939  -0.087   3.330  0.00  0.00    -0.526 OA
ATOM      8  H5  UNL d   1      -2.853   0.213   3.467  0.00  0.00     0.418 HD
ENDBRANCH   4   7
TORSDOF 1
ENDMDL
