MODEL 1
REMARK minimizedAffinity -4.1274724
REMARK minimizedRMSD -1
REMARK  1 active torsions:
REMARK  status: ('A' for Active; 'I' for Inactive)
REMARK    1  A    between atoms: C3_4  and  O_7 
ROOT
ATOM      1  C   UNL d   1       2.983   0.387  -2.664  0.00  0.00    -0.033 A 
ATOM      2  C1  UNL d   1       2.190   1.536  -2.677  0.00  0.00     0.039 A 
ATOM      3  C2  UNL d   1       0.982   1.561  -1.976  0.00  0.00    -0.080 A 
ATOM      4  C3  UNL d   1       0.581   0.433  -1.266  0.00  0.00     0.150 A 
ATOM      5  C4  UNL d   1       1.368  -0.714  -1.246  0.00  0.00    -0.007 A 
ATOM      6  C5  UNL d   1       2.573  -0.737  -1.947  0.00  0.00     0.039 A 
ENDROOT
BRANCH   4   7
ATOM      7  O   UNL d   1      -0.592   0.408  -0.571  0.00  0.00    -0.526 OA
ATOM      8  H5  UNL d   1      -1.044   1.258  -0.700  0.00  0.00     0.418 HD
ENDBRANCH   4   7
TORSDOF 1
ENDMDL
