MODEL 1
REMARK minimizedAffinity -5.3375926
REMARK minimizedRMSD -1
REMARK  1 active torsions:
REMARK  status: ('A' for Active; 'I' for Inactive)
REMARK    1  A    between atoms: C3_4  and  O_7 
ROOT
ATOM      1  C   UNL d   1       1.411  -1.654   0.016  0.00  0.00    -0.033 A 
ATOM      2  C1  UNL d   1       2.327  -1.315  -0.982  0.00  0.00     0.039 A 
ATOM      3  C2  UNL d   1       2.078  -0.226  -1.819  0.00  0.00    -0.080 A 
ATOM      4  C3  UNL d   1       0.913   0.516  -1.647  0.00  0.00     0.150 A 
ATOM      5  C4  UNL d   1      -0.002   0.186  -0.652  0.00  0.00    -0.007 A 
ATOM      6  C5  UNL d   1       0.248  -0.902   0.182  0.00  0.00     0.039 A 
ENDROOT
BRANCH   4   7
ATOM      7  O   UNL d   1       0.624   1.585  -2.443  0.00  0.00    -0.526 OA
ATOM      8  H5  UNL d   1       1.331   1.677  -3.103  0.00  0.00     0.418 HD
ENDBRANCH   4   7
TORSDOF 1
ENDMDL
