MODEL 1
REMARK minimizedAffinity -4.76612377
REMARK minimizedRMSD -1
REMARK  1 active torsions:
REMARK  status: ('A' for Active; 'I' for Inactive)
REMARK    1  A    between atoms: C3_4  and  O_7 
ROOT
ATOM      1  C   UNL d   1       0.058  -0.353   0.310  0.00  0.00    -0.033 A 
ATOM      2  C1  UNL d   1       0.423  -1.575  -0.260  0.00  0.00     0.039 A 
ATOM      3  C2  UNL d   1       1.722  -1.765  -0.734  0.00  0.00    -0.080 A 
ATOM      4  C3  UNL d   1       2.645  -0.729  -0.632  0.00  0.00     0.150 A 
ATOM      5  C4  UNL d   1       2.290   0.489  -0.062  0.00  0.00    -0.007 A 
ATOM      6  C5  UNL d   1       0.992   0.678   0.410  0.00  0.00     0.039 A 
ENDROOT
BRANCH   4   7
ATOM      7  O   UNL d   1       3.924  -0.866  -1.086  0.00  0.00    -0.526 OA
ATOM      8  H5  UNL d   1       4.017  -1.749  -1.480  0.00  0.00     0.418 HD
ENDBRANCH   4   7
TORSDOF 1
ENDMDL
