MODEL 1
REMARK minimizedAffinity -4.17608261
REMARK minimizedRMSD -1
REMARK  1 active torsions:
REMARK  status: ('A' for Active; 'I' for Inactive)
REMARK    1  A    between atoms: C3_4  and  O_7 
ROOT
ATOM      1  C   UNL d   1      -0.695  -1.059   0.368  0.00  0.00    -0.033 A 
ATOM      2  C1  UNL d   1       0.102  -0.000   0.809  0.00  0.00     0.039 A 
ATOM      3  C2  UNL d   1       1.458   0.040   0.479  0.00  0.00    -0.080 A 
ATOM      4  C3  UNL d   1       2.004  -0.982  -0.293  0.00  0.00     0.150 A 
ATOM      5  C4  UNL d   1       1.215  -2.037  -0.739  0.00  0.00    -0.007 A 
ATOM      6  C5  UNL d   1      -0.138  -2.076  -0.407  0.00  0.00     0.039 A 
ENDROOT
BRANCH   4   7
ATOM      7  O   UNL d   1       3.323  -0.988  -0.637  0.00  0.00    -0.526 OA
ATOM      8  H5  UNL d   1       3.750  -0.213  -0.235  0.00  0.00     0.418 HD
ENDBRANCH   4   7
TORSDOF 1
ENDMDL
