MODEL 1
REMARK minimizedAffinity 1.06283855
REMARK minimizedRMSD -1
REMARK  1 active torsions:
REMARK  status: ('A' for Active; 'I' for Inactive)
REMARK    1  A    between atoms: C3_4  and  O_7 
ROOT
ATOM      1  C   UNL d   1       0.282   0.589  -0.587  0.00  0.00    -0.033 A 
ATOM      2  C1  UNL d   1       0.621   1.616   0.295  0.00  0.00     0.039 A 
ATOM      3  C2  UNL d   1       0.180   1.575   1.619  0.00  0.00    -0.080 A 
ATOM      4  C3  UNL d   1      -0.598   0.503   2.048  0.00  0.00     0.150 A 
ATOM      5  C4  UNL d   1      -0.937  -0.525   1.175  0.00  0.00    -0.007 A 
ATOM      6  C5  UNL d   1      -0.496  -0.483  -0.147  0.00  0.00     0.039 A 
ENDROOT
BRANCH   4   7
ATOM      7  O   UNL d   1      -1.056   0.422   3.329  0.00  0.00    -0.526 OA
ATOM      8  H5  UNL d   1      -0.768   1.216   3.810  0.00  0.00     0.418 HD
ENDBRANCH   4   7
TORSDOF 1
ENDMDL
