MODEL 1
REMARK minimizedAffinity -4.26801682
REMARK minimizedRMSD -1
REMARK  1 active torsions:
REMARK  status: ('A' for Active; 'I' for Inactive)
REMARK    1  A    between atoms: C3_4  and  O_7 
ROOT
ATOM      1  C   UNL d   1      -0.354  -0.645   0.260  0.00  0.00    -0.033 A 
ATOM      2  C1  UNL d   1       0.256  -1.868  -0.024  0.00  0.00     0.039 A 
ATOM      3  C2  UNL d   1       1.565  -1.902  -0.509  0.00  0.00    -0.080 A 
ATOM      4  C3  UNL d   1       2.252  -0.707  -0.704  0.00  0.00     0.150 A 
ATOM      5  C4  UNL d   1       1.652   0.515  -0.420  0.00  0.00    -0.007 A 
ATOM      6  C5  UNL d   1       0.345   0.547   0.064  0.00  0.00     0.039 A 
ENDROOT
BRANCH   4   7
ATOM      7  O   UNL d   1       3.529  -0.689  -1.181  0.00  0.00    -0.526 OA
ATOM      8  H5  UNL d   1       3.804  -1.603  -1.360  0.00  0.00     0.418 HD
ENDBRANCH   4   7
TORSDOF 1
ENDMDL
