MODEL 1
REMARK minimizedAffinity -1.51069129
REMARK minimizedRMSD -1
REMARK  3 active torsions:
REMARK  status: ('A' for Active; 'I' for Inactive)
REMARK    1  A    between atoms: C3'_2  and  C2'_3 
REMARK    2  A    between atoms: C2'_3  and  C1'_4 
REMARK    3  A    between atoms: C1'_4  and  C1_5 
ROOT
ATOM      1  C1  N4B d   1       0.681  -0.497   0.112  0.00  0.00    -0.075 A 
ATOM      2  C2  N4B d   1       1.190  -1.063  -1.078  0.00  0.00     0.002 A 
ATOM      3  C3  N4B d   1       2.547  -1.175  -1.259  0.00  0.00     0.002 A 
ATOM      4  C4  N4B d   1       3.410  -0.713  -0.277  0.00  0.00    -0.004 A 
ATOM      5  C5  N4B d   1       2.910  -0.191   0.880  0.00  0.00     0.002 A 
ATOM      6  C6  N4B d   1       1.549  -0.076   1.077  0.00  0.00     0.002 A 
ENDROOT
BRANCH   1   7
ATOM      7  C1' N4B d   1      -0.792  -0.275   0.318  0.00  0.00     0.057 C 
BRANCH   7   8
ATOM      8  C2' N4B d   1      -1.472  -0.131  -1.040  0.00  0.00     0.009 C 
BRANCH   8   9
ATOM      9  C3' N4B d   1      -1.392   1.291  -1.568  0.00  0.00     0.004 C 
ATOM     10  C4' N4B d   1      -2.569   1.660  -2.422  0.00  0.00     0.003 C 
ENDBRANCH   8   9
ENDBRANCH   7   8
ENDBRANCH   1   7
TORSDOF 3
ENDMDL
