MODEL 1
REMARK minimizedAffinity -4.2054491
REMARK minimizedRMSD -1
REMARK  3 active torsions:
REMARK  status: ('A' for Active; 'I' for Inactive)
REMARK    1  A    between atoms: C3'_2  and  C2'_3 
REMARK    2  A    between atoms: C2'_3  and  C1'_4 
REMARK    3  A    between atoms: C1'_4  and  C1_5 
ROOT
ATOM      1  C1  N4B d   1       0.566   0.295   1.289  0.00  0.00    -0.075 A 
ATOM      2  C2  N4B d   1      -0.190  -0.768   1.832  0.00  0.00     0.002 A 
ATOM      3  C3  N4B d   1       0.436  -1.759   2.547  0.00  0.00     0.002 A 
ATOM      4  C4  N4B d   1       1.812  -1.719   2.716  0.00  0.00    -0.004 A 
ATOM      5  C5  N4B d   1       2.531  -0.676   2.211  0.00  0.00     0.002 A 
ATOM      6  C6  N4B d   1       1.915   0.330   1.493  0.00  0.00     0.002 A 
ENDROOT
BRANCH   1   7
ATOM      7  C1' N4B d   1      -0.062   1.356   0.427  0.00  0.00     0.057 C 
BRANCH   7   8
ATOM      8  C2' N4B d   1       0.138   0.992  -1.041  0.00  0.00     0.009 C 
BRANCH   8   9
ATOM      9  C3' N4B d   1      -0.059  -0.493  -1.290  0.00  0.00     0.004 C 
ATOM     10  C4' N4B d   1       1.172  -1.160  -1.827  0.00  0.00     0.003 C 
ENDBRANCH   8   9
ENDBRANCH   7   8
ENDBRANCH   1   7
TORSDOF 3
ENDMDL
