MODEL 1
REMARK minimizedAffinity -1.23942769
REMARK minimizedRMSD -1
REMARK  3 active torsions:
REMARK  status: ('A' for Active; 'I' for Inactive)
REMARK    1  A    between atoms: C3'_2  and  C2'_3 
REMARK    2  A    between atoms: C2'_3  and  C1'_4 
REMARK    3  A    between atoms: C1'_4  and  C1_5 
ROOT
ATOM      1  C1  N4B d   1       0.423  -0.009   0.723  0.00  0.00    -0.075 A 
ATOM      2  C2  N4B d   1       1.688   0.384   1.211  0.00  0.00     0.002 A 
ATOM      3  C3  N4B d   1       2.195  -0.194   2.349  0.00  0.00     0.002 A 
ATOM      4  C4  N4B d   1       1.449  -1.150   3.023  0.00  0.00    -0.004 A 
ATOM      5  C5  N4B d   1       0.239  -1.543   2.531  0.00  0.00     0.002 A 
ATOM      6  C6  N4B d   1      -0.280  -0.973   1.386  0.00  0.00     0.002 A 
ENDROOT
BRANCH   1   7
ATOM      7  C1' N4B d   1      -0.210   0.655  -0.469  0.00  0.00     0.057 C 
BRANCH   7   8
ATOM      8  C2' N4B d   1       0.703   1.774  -0.962  0.00  0.00     0.009 C 
BRANCH   8   9
ATOM      9  C3' N4B d   1      -0.003   2.692  -1.946  0.00  0.00     0.004 C 
ATOM     10  C4' N4B d   1       0.934   3.301  -2.946  0.00  0.00     0.003 C 
ENDBRANCH   8   9
ENDBRANCH   7   8
ENDBRANCH   1   7
TORSDOF 3
ENDMDL
