MODEL 1
REMARK minimizedAffinity -0.456275195
REMARK minimizedRMSD -1
REMARK  3 active torsions:
REMARK  status: ('A' for Active; 'I' for Inactive)
REMARK    1  A    between atoms: C3'_2  and  C2'_3 
REMARK    2  A    between atoms: C2'_3  and  C1'_4 
REMARK    3  A    between atoms: C1'_4  and  C1_5 
ROOT
ATOM      1  C1  N4B d   1       0.646  -3.788   1.938  0.00  0.00    -0.075 A 
ATOM      2  C2  N4B d   1      -0.421  -4.500   2.530  0.00  0.00     0.002 A 
ATOM      3  C3  N4B d   1      -1.503  -3.821   3.034  0.00  0.00     0.002 A 
ATOM      4  C4  N4B d   1      -1.531  -2.436   2.976  0.00  0.00    -0.004 A 
ATOM      5  C5  N4B d   1      -0.508  -1.757   2.380  0.00  0.00     0.002 A 
ATOM      6  C6  N4B d   1       0.584  -2.427   1.865  0.00  0.00     0.002 A 
ENDROOT
BRANCH   1   7
ATOM      7  C1' N4B d   1       1.889  -4.481   1.450  0.00  0.00     0.057 C 
BRANCH   7   8
ATOM      8  C2' N4B d   1       2.477  -5.313   2.586  0.00  0.00     0.009 C 
BRANCH   8   9
ATOM      9  C3' N4B d   1       3.387  -4.489   3.482  0.00  0.00     0.004 C 
ATOM     10  C4' N4B d   1       4.059  -5.311   4.540  0.00  0.00     0.003 C 
ENDBRANCH   8   9
ENDBRANCH   7   8
ENDBRANCH   1   7
TORSDOF 3
ENDMDL
