MODEL 1
REMARK minimizedAffinity 3.77510452
REMARK minimizedRMSD -1
REMARK  3 active torsions:
REMARK  status: ('A' for Active; 'I' for Inactive)
REMARK    1  A    between atoms: C3'_2  and  C2'_3 
REMARK    2  A    between atoms: C2'_3  and  C1'_4 
REMARK    3  A    between atoms: C1'_4  and  C1_5 
ROOT
ATOM      1  C1  N4B d   1      -0.067  -0.233   0.691  0.00  0.00    -0.075 A 
ATOM      2  C2  N4B d   1       0.674  -0.634  -0.442  0.00  0.00     0.002 A 
ATOM      3  C3  N4B d   1       0.053  -0.754  -1.661  0.00  0.00     0.002 A 
ATOM      4  C4  N4B d   1      -1.306  -0.497  -1.767  0.00  0.00    -0.004 A 
ATOM      5  C5  N4B d   1      -2.009  -0.085  -0.673  0.00  0.00     0.002 A 
ATOM      6  C6  N4B d   1      -1.397   0.044   0.557  0.00  0.00     0.002 A 
ENDROOT
BRANCH   1   7
ATOM      7  C1' N4B d   1       0.549  -0.171   2.062  0.00  0.00     0.057 C 
BRANCH   7   8
ATOM      8  C2' N4B d   1      -0.215  -1.103   2.997  0.00  0.00     0.009 C 
BRANCH   8   9
ATOM      9  C3' N4B d   1      -0.247  -2.529   2.476  0.00  0.00     0.004 C 
ATOM     10  C4' N4B d   1      -1.501  -3.259   2.858  0.00  0.00     0.003 C 
ENDBRANCH   8   9
ENDBRANCH   7   8
ENDBRANCH   1   7
TORSDOF 3
ENDMDL
