MODEL 1
REMARK minimizedAffinity 0.64752686
REMARK minimizedRMSD -1
REMARK  0 active torsions:
REMARK  status: ('A' for Active; 'I' for Inactive)
ROOT
ATOM      1  C   UNL d   1       0.237   0.522   1.280  0.00  0.00     0.124 A 
ATOM      2  C1  UNL d   1      -1.105   0.829   1.104  0.00  0.00     0.062 A 
ATOM      3  C2  UNL d   1      -1.765   0.442  -0.059  0.00  0.00     0.162 A 
ATOM      4  C3  UNL d   1      -1.084  -0.257  -1.055  0.00  0.00    -0.034 A 
ATOM      5  C4  UNL d   1       0.266  -0.561  -0.872  0.00  0.00     0.162 A 
ATOM      6  C5  UNL d   1       0.921  -0.172   0.292  0.00  0.00     0.062 A 
ATOM      7  F   UNL d   1       2.218  -0.470   0.461  0.00  0.00    -0.097 F 
ATOM      8  F1  UNL d   1       0.951  -1.233  -1.809  0.00  0.00    -0.096 F 
ATOM      9  I   UNL d   1      -2.067  -0.838  -2.796  0.00  0.00    -0.060 I 
ATOM     10  F2  UNL d   1      -3.062   0.752  -0.202  0.00  0.00    -0.096 F 
ATOM     11  F3  UNL d   1      -1.768   1.501   2.056  0.00  0.00    -0.097 F 
ATOM     12  F4  UNL d   1       0.870   0.897   2.399  0.00  0.00    -0.092 F 
ENDROOT
TORSDOF 0
ENDMDL
