MODEL 1
REMARK minimizedAffinity -2.14194536
REMARK minimizedRMSD -1
REMARK  0 active torsions:
REMARK  status: ('A' for Active; 'I' for Inactive)
ROOT
ATOM      1  C   UNL d   1       1.717   1.471   1.059  0.00  0.00     0.124 A 
ATOM      2  C1  UNL d   1       2.290   0.361   0.454  0.00  0.00     0.062 A 
ATOM      3  C2  UNL d   1       1.503  -0.517  -0.286  0.00  0.00     0.162 A 
ATOM      4  C3  UNL d   1       0.134  -0.288  -0.426  0.00  0.00    -0.034 A 
ATOM      5  C4  UNL d   1      -0.435   0.831   0.186  0.00  0.00     0.162 A 
ATOM      6  C5  UNL d   1       0.356   1.705   0.924  0.00  0.00     0.062 A 
ATOM      7  F   UNL d   1      -0.199   2.777   1.508  0.00  0.00    -0.097 F 
ATOM      8  F1  UNL d   1      -1.747   1.081   0.071  0.00  0.00    -0.096 F 
ATOM      9  I   UNL d   1      -1.046  -1.598  -1.532  0.00  0.00    -0.060 I 
ATOM     10  F2  UNL d   1       2.083  -1.582  -0.859  0.00  0.00    -0.096 F 
ATOM     11  F3  UNL d   1       3.605   0.132   0.584  0.00  0.00    -0.097 F 
ATOM     12  F4  UNL d   1       2.476   2.314   1.771  0.00  0.00    -0.092 F 
ENDROOT
TORSDOF 0
ENDMDL
