MODEL 1
REMARK minimizedAffinity -4.42350864
REMARK minimizedRMSD -1
REMARK  0 active torsions:
REMARK  status: ('A' for Active; 'I' for Inactive)
ROOT
ATOM      1  C   UNL d   1       2.538   1.929   1.011  0.00  0.00     0.124 A 
ATOM      2  C1  UNL d   1       1.161   2.098   1.050  0.00  0.00     0.062 A 
ATOM      3  C2  UNL d   1       0.325   1.183   0.416  0.00  0.00     0.162 A 
ATOM      4  C3  UNL d   1       0.864   0.089  -0.261  0.00  0.00    -0.034 A 
ATOM      5  C4  UNL d   1       2.250  -0.074  -0.296  0.00  0.00     0.162 A 
ATOM      6  C5  UNL d   1       3.081   0.843   0.339  0.00  0.00     0.062 A 
ATOM      7  F   UNL d   1       4.411   0.678   0.300  0.00  0.00    -0.097 F 
ATOM      8  F1  UNL d   1       2.801  -1.115  -0.938  0.00  0.00    -0.096 F 
ATOM      9  I   UNL d   1      -0.383  -1.281  -1.210  0.00  0.00    -0.060 I 
ATOM     10  F2  UNL d   1      -1.002   1.372   0.469  0.00  0.00    -0.096 F 
ATOM     11  F3  UNL d   1       0.634   3.147   1.698  0.00  0.00    -0.097 F 
ATOM     12  F4  UNL d   1       3.340   2.811   1.621  0.00  0.00    -0.092 F 
ENDROOT
TORSDOF 0
ENDMDL
