MODEL 1
REMARK minimizedAffinity -3.33752894
REMARK minimizedRMSD -1
REMARK  0 active torsions:
REMARK  status: ('A' for Active; 'I' for Inactive)
ROOT
ATOM      1  C   UNL d   1       2.107   1.737   0.652  0.00  0.00     0.124 A 
ATOM      2  C1  UNL d   1       0.741   1.984   0.627  0.00  0.00     0.062 A 
ATOM      3  C2  UNL d   1      -0.135   1.024   0.129  0.00  0.00     0.162 A 
ATOM      4  C3  UNL d   1       0.352  -0.193  -0.347  0.00  0.00    -0.034 A 
ATOM      5  C4  UNL d   1       1.726  -0.434  -0.319  0.00  0.00     0.162 A 
ATOM      6  C5  UNL d   1       2.598   0.528   0.179  0.00  0.00     0.062 A 
ATOM      7  F   UNL d   1       3.917   0.288   0.203  0.00  0.00    -0.097 F 
ATOM      8  F1  UNL d   1       2.228  -1.594  -0.769  0.00  0.00    -0.096 F 
ATOM      9  I   UNL d   1      -0.955  -1.632  -1.093  0.00  0.00    -0.060 I 
ATOM     10  F2  UNL d   1      -1.450   1.290   0.116  0.00  0.00    -0.096 F 
ATOM     11  F3  UNL d   1       0.264   3.152   1.082  0.00  0.00    -0.097 F 
ATOM     12  F4  UNL d   1       2.947   2.663   1.131  0.00  0.00    -0.092 F 
ENDROOT
TORSDOF 0
ENDMDL
