MODEL 1
REMARK minimizedAffinity -1.77469456
REMARK minimizedRMSD -1
REMARK  0 active torsions:
REMARK  status: ('A' for Active; 'I' for Inactive)
ROOT
ATOM      1  C   UNL d   1       4.788   0.140   1.516  0.00  0.00     0.124 A 
ATOM      2  C1  UNL d   1       4.161   0.528   0.339  0.00  0.00     0.062 A 
ATOM      3  C2  UNL d   1       2.900   1.117   0.379  0.00  0.00     0.162 A 
ATOM      4  C3  UNL d   1       2.258   1.323   1.601  0.00  0.00    -0.034 A 
ATOM      5  C4  UNL d   1       2.894   0.929   2.779  0.00  0.00     0.162 A 
ATOM      6  C5  UNL d   1       4.154   0.341   2.734  0.00  0.00     0.062 A 
ATOM      7  F   UNL d   1       4.758  -0.033   3.871  0.00  0.00    -0.097 F 
ATOM      8  F1  UNL d   1       2.306   1.112   3.970  0.00  0.00    -0.096 F 
ATOM      9  I   UNL d   1       0.373   2.203   1.665  0.00  0.00    -0.060 I 
ATOM     10  F2  UNL d   1       2.318   1.481  -0.773  0.00  0.00    -0.096 F 
ATOM     11  F3  UNL d   1       4.770   0.334  -0.839  0.00  0.00    -0.097 F 
ATOM     12  F4  UNL d   1       6.000  -0.427   1.474  0.00  0.00    -0.092 F 
ENDROOT
TORSDOF 0
ENDMDL
