MODEL 1
REMARK minimizedAffinity -1.52436149
REMARK minimizedRMSD -1
REMARK  0 active torsions:
REMARK  status: ('A' for Active; 'I' for Inactive)
ROOT
ATOM      1  C   UNL d   1       1.486   1.534   1.398  0.00  0.00     0.124 A 
ATOM      2  C1  UNL d   1       0.234   1.189   1.887  0.00  0.00     0.062 A 
ATOM      3  C2  UNL d   1      -0.614   0.383   1.133  0.00  0.00     0.162 A 
ATOM      4  C3  UNL d   1      -0.212  -0.085  -0.118  0.00  0.00    -0.034 A 
ATOM      5  C4  UNL d   1       1.048   0.268  -0.604  0.00  0.00     0.162 A 
ATOM      6  C5  UNL d   1       1.892   1.074   0.153  0.00  0.00     0.062 A 
ATOM      7  F   UNL d   1       3.101   1.406  -0.321  0.00  0.00    -0.097 F 
ATOM      8  F1  UNL d   1       1.466  -0.164  -1.803  0.00  0.00    -0.096 F 
ATOM      9  I   UNL d   1      -1.477  -1.290  -1.249  0.00  0.00    -0.060 I 
ATOM     10  F2  UNL d   1      -1.818   0.065   1.631  0.00  0.00    -0.096 F 
ATOM     11  F3  UNL d   1      -0.161   1.634   3.088  0.00  0.00    -0.097 F 
ATOM     12  F4  UNL d   1       2.300   2.311   2.124  0.00  0.00    -0.092 F 
ENDROOT
TORSDOF 0
ENDMDL
