MODEL 1
REMARK minimizedAffinity 2.63042593
REMARK minimizedRMSD -1
REMARK  0 active torsions:
REMARK  status: ('A' for Active; 'I' for Inactive)
ROOT
ATOM      1  C   UNL d   1       1.529   1.274   0.906  0.00  0.00     0.124 A 
ATOM      2  C1  UNL d   1       1.986   0.186   0.175  0.00  0.00     0.062 A 
ATOM      3  C2  UNL d   1       1.082  -0.723  -0.367  0.00  0.00     0.162 A 
ATOM      4  C3  UNL d   1      -0.289  -0.547  -0.183  0.00  0.00    -0.034 A 
ATOM      5  C4  UNL d   1      -0.741   0.549   0.554  0.00  0.00     0.162 A 
ATOM      6  C5  UNL d   1       0.166   1.454   1.095  0.00  0.00     0.062 A 
ATOM      7  F   UNL d   1      -0.278   2.505   1.800  0.00  0.00    -0.097 F 
ATOM      8  F1  UNL d   1      -2.053   0.748   0.751  0.00  0.00    -0.096 F 
ATOM      9  I   UNL d   1      -1.644  -1.903  -0.992  0.00  0.00    -0.060 I 
ATOM     10  F2  UNL d   1       1.553  -1.765  -1.069  0.00  0.00    -0.096 F 
ATOM     11  F3  UNL d   1       3.303   0.008  -0.008  0.00  0.00    -0.097 F 
ATOM     12  F4  UNL d   1       2.401   2.146   1.428  0.00  0.00    -0.092 F 
ENDROOT
TORSDOF 0
ENDMDL
