MODEL 1
REMARK minimizedAffinity 5.11737156
REMARK minimizedRMSD -1
REMARK  0 active torsions:
REMARK  status: ('A' for Active; 'I' for Inactive)
ROOT
ATOM      1  C   UNL d   1       1.874   0.820   1.698  0.00  0.00     0.124 A 
ATOM      2  C1  UNL d   1       1.989   0.307   0.413  0.00  0.00     0.062 A 
ATOM      3  C2  UNL d   1       0.852  -0.075  -0.293  0.00  0.00     0.162 A 
ATOM      4  C3  UNL d   1      -0.411   0.055   0.284  0.00  0.00    -0.034 A 
ATOM      5  C4  UNL d   1      -0.519   0.570   1.577  0.00  0.00     0.162 A 
ATOM      6  C5  UNL d   1       0.620   0.951   2.278  0.00  0.00     0.062 A 
ATOM      7  F   UNL d   1       0.506   1.446   3.519  0.00  0.00    -0.097 F 
ATOM      8  F1  UNL d   1      -1.719   0.708   2.161  0.00  0.00    -0.096 F 
ATOM      9  I   UNL d   1      -2.114  -0.516  -0.768  0.00  0.00    -0.060 I 
ATOM     10  F2  UNL d   1       0.994  -0.567  -1.533  0.00  0.00    -0.096 F 
ATOM     11  F3  UNL d   1       3.199   0.179  -0.150  0.00  0.00    -0.097 F 
ATOM     12  F4  UNL d   1       2.969   1.186   2.375  0.00  0.00    -0.092 F 
ENDROOT
TORSDOF 0
ENDMDL
