MODEL 1
REMARK minimizedAffinity -4.89112043
REMARK minimizedRMSD -1
REMARK  0 active torsions:
REMARK  status: ('A' for Active; 'I' for Inactive)
ROOT
ATOM      1  C   UNL d   1       1.993   1.755   0.755  0.00  0.00     0.124 A 
ATOM      2  C1  UNL d   1       2.477   0.555   0.255  0.00  0.00     0.062 A 
ATOM      3  C2  UNL d   1       1.606  -0.364  -0.323  0.00  0.00     0.162 A 
ATOM      4  C3  UNL d   1       0.242  -0.086  -0.405  0.00  0.00    -0.034 A 
ATOM      5  C4  UNL d   1      -0.237   1.124   0.101  0.00  0.00     0.162 A 
ATOM      6  C5  UNL d   1       0.637   2.039   0.678  0.00  0.00     0.062 A 
ATOM      7  F   UNL d   1       0.168   3.198   1.161  0.00  0.00    -0.097 F 
ATOM      8  F1  UNL d   1      -1.543   1.423   0.038  0.00  0.00    -0.096 F 
ATOM      9  I   UNL d   1      -1.063  -1.457  -1.269  0.00  0.00    -0.060 I 
ATOM     10  F2  UNL d   1       2.102  -1.517  -0.799  0.00  0.00    -0.096 F 
ATOM     11  F3  UNL d   1       3.787   0.278   0.329  0.00  0.00    -0.097 F 
ATOM     12  F4  UNL d   1       2.833   2.637   1.312  0.00  0.00    -0.092 F 
ENDROOT
TORSDOF 0
ENDMDL
