MODEL 1
REMARK minimizedAffinity 0.351884246
REMARK minimizedRMSD -1
REMARK  0 active torsions:
REMARK  status: ('A' for Active; 'I' for Inactive)
ROOT
ATOM      1  C   UNL d   1       0.675   0.655   1.654  0.00  0.00     0.124 A 
ATOM      2  C1  UNL d   1       1.534   0.127   0.699  0.00  0.00     0.062 A 
ATOM      3  C2  UNL d   1       1.044  -0.262  -0.544  0.00  0.00     0.162 A 
ATOM      4  C3  UNL d   1      -0.312  -0.124  -0.841  0.00  0.00    -0.034 A 
ATOM      5  C4  UNL d   1      -1.170   0.407   0.125  0.00  0.00     0.162 A 
ATOM      6  C5  UNL d   1      -0.675   0.794   1.366  0.00  0.00     0.062 A 
ATOM      7  F   UNL d   1      -1.506   1.303   2.287  0.00  0.00    -0.097 F 
ATOM      8  F1  UNL d   1      -2.479   0.553  -0.127  0.00  0.00    -0.096 F 
ATOM      9  I   UNL d   1      -1.049  -0.704  -2.699  0.00  0.00    -0.060 I 
ATOM     10  F2  UNL d   1       1.896  -0.769  -1.448  0.00  0.00    -0.096 F 
ATOM     11  F3  UNL d   1       2.839  -0.010   0.975  0.00  0.00    -0.097 F 
ATOM     12  F4  UNL d   1       1.149   1.027   2.850  0.00  0.00    -0.092 F 
ENDROOT
TORSDOF 0
ENDMDL
