MODEL 1
REMARK minimizedAffinity -0.278977931
REMARK minimizedRMSD -1
REMARK  0 active torsions:
REMARK  status: ('A' for Active; 'I' for Inactive)
ROOT
ATOM      1  C   UNL d   1      -0.287   1.127   0.693  0.00  0.00     0.124 A 
ATOM      2  C1  UNL d   1      -1.596   1.111   0.232  0.00  0.00     0.062 A 
ATOM      3  C2  UNL d   1      -2.001   0.157  -0.697  0.00  0.00     0.162 A 
ATOM      4  C3  UNL d   1      -1.094  -0.791  -1.172  0.00  0.00    -0.034 A 
ATOM      5  C4  UNL d   1       0.221  -0.768  -0.705  0.00  0.00     0.162 A 
ATOM      6  C5  UNL d   1       0.620   0.187   0.223  0.00  0.00     0.062 A 
ATOM      7  F   UNL d   1       1.886   0.201   0.667  0.00  0.00    -0.097 F 
ATOM      8  F1  UNL d   1       1.119  -1.665  -1.141  0.00  0.00    -0.096 F 
ATOM      9  I   UNL d   1      -1.695  -2.219  -2.562  0.00  0.00    -0.060 I 
ATOM     10  F2  UNL d   1      -3.272   0.166  -1.124  0.00  0.00    -0.096 F 
ATOM     11  F3  UNL d   1      -2.475   2.018   0.683  0.00  0.00    -0.097 F 
ATOM     12  F4  UNL d   1       0.099   2.046   1.586  0.00  0.00    -0.092 F 
ENDROOT
TORSDOF 0
ENDMDL
