MODEL 1
REMARK minimizedAffinity -3.34459782
REMARK minimizedRMSD -1
REMARK  0 active torsions:
REMARK  status: ('A' for Active; 'I' for Inactive)
ROOT
ATOM      1  C   UNL d   1       1.851   1.923   0.647  0.00  0.00     0.124 A 
ATOM      2  C1  UNL d   1       0.512   2.288   0.676  0.00  0.00     0.062 A 
ATOM      3  C2  UNL d   1      -0.457   1.439   0.150  0.00  0.00     0.162 A 
ATOM      4  C3  UNL d   1      -0.091   0.215  -0.410  0.00  0.00    -0.034 A 
ATOM      5  C4  UNL d   1       1.257  -0.146  -0.436  0.00  0.00     0.162 A 
ATOM      6  C5  UNL d   1       2.222   0.707   0.091  0.00  0.00     0.062 A 
ATOM      7  F   UNL d   1       3.515   0.352   0.062  0.00  0.00    -0.097 F 
ATOM      8  F1  UNL d   1       1.643  -1.316  -0.966  0.00  0.00    -0.096 F 
ATOM      9  I   UNL d   1      -1.538  -1.058  -1.197  0.00  0.00    -0.060 I 
ATOM     10  F2  UNL d   1      -1.743   1.818   0.191  0.00  0.00    -0.096 F 
ATOM     11  F3  UNL d   1       0.151   3.463   1.211  0.00  0.00    -0.097 F 
ATOM     12  F4  UNL d   1       2.781   2.742   1.153  0.00  0.00    -0.092 F 
ENDROOT
TORSDOF 0
ENDMDL
