MODEL 1
REMARK minimizedAffinity -0.168882102
REMARK minimizedRMSD -1
REMARK  0 active torsions:
REMARK  status: ('A' for Active; 'I' for Inactive)
ROOT
ATOM      1  C   UNL d   1       2.182   1.683   1.519  0.00  0.00     0.124 A 
ATOM      2  C1  UNL d   1       0.860   1.562   1.923  0.00  0.00     0.062 A 
ATOM      3  C2  UNL d   1       0.030   0.614   1.329  0.00  0.00     0.162 A 
ATOM      4  C3  UNL d   1       0.521  -0.221   0.326  0.00  0.00    -0.034 A 
ATOM      5  C4  UNL d   1       1.852  -0.092  -0.076  0.00  0.00     0.162 A 
ATOM      6  C5  UNL d   1       2.677   0.856   0.520  0.00  0.00     0.062 A 
ATOM      7  F   UNL d   1       3.954   0.972   0.128  0.00  0.00    -0.097 F 
ATOM      8  F1  UNL d   1       2.357  -0.879  -1.038  0.00  0.00    -0.096 F 
ATOM      9  I   UNL d   1      -0.715  -1.639  -0.564  0.00  0.00    -0.060 I 
ATOM     10  F2  UNL d   1      -1.243   0.519   1.740  0.00  0.00    -0.096 F 
ATOM     11  F3  UNL d   1       0.379   2.360   2.887  0.00  0.00    -0.097 F 
ATOM     12  F4  UNL d   1       2.977   2.597   2.090  0.00  0.00    -0.092 F 
ENDROOT
TORSDOF 0
ENDMDL
