MODEL 1
REMARK minimizedAffinity -2.37202764
REMARK minimizedRMSD -1
REMARK  0 active torsions:
REMARK  status: ('A' for Active; 'I' for Inactive)
ROOT
ATOM      1  C2' OXE d   1       2.112   0.432   0.196  0.00  0.00     0.078 C 
ATOM      2  C1' OXE d   1      -0.446  -0.632  -0.254  0.00  0.00     0.078 C 
ATOM      3  C1  OXE d   1      -0.256   0.257   0.949  0.00  0.00    -0.078 A 
ATOM      4  C2  OXE d   1       1.010   0.736   1.188  0.00  0.00    -0.078 A 
ATOM      5  C3  OXE d   1       1.228   1.605   2.253  0.00  0.00     0.003 A 
ATOM      6  C4  OXE d   1       0.206   1.872   3.171  0.00  0.00    -0.002 A 
ATOM      7  C5  OXE d   1      -1.081   1.362   2.969  0.00  0.00    -0.002 A 
ATOM      8  C6  OXE d   1      -1.339   0.590   1.842  0.00  0.00     0.003 A 
ENDROOT
TORSDOF 0
ENDMDL
