MODEL 1
REMARK minimizedAffinity -4.63198853
REMARK minimizedRMSD -1
REMARK  0 active torsions:
REMARK  status: ('A' for Active; 'I' for Inactive)
ROOT
ATOM      1  C2' OXE d   1      -1.332   0.529   2.055  0.00  0.00     0.078 C 
ATOM      2  C1' OXE d   1      -0.178   2.413   0.323  0.00  0.00     0.078 C 
ATOM      3  C1  OXE d   1       0.719   1.347   0.901  0.00  0.00    -0.078 A 
ATOM      4  C2  OXE d   1       0.155   0.457   1.784  0.00  0.00    -0.078 A 
ATOM      5  C3  OXE d   1       0.925  -0.580   2.303  0.00  0.00     0.003 A 
ATOM      6  C4  OXE d   1       2.302  -0.633   2.055  0.00  0.00    -0.002 A 
ATOM      7  C5  OXE d   1       2.904   0.287   1.190  0.00  0.00    -0.002 A 
ATOM      8  C6  OXE d   1       2.120   1.255   0.573  0.00  0.00     0.003 A 
ENDROOT
TORSDOF 0
ENDMDL
