MODEL 1
REMARK minimizedAffinity 1.85895455
REMARK minimizedRMSD -1
REMARK  0 active torsions:
REMARK  status: ('A' for Active; 'I' for Inactive)
ROOT
ATOM      1  C2' OXE d   1       1.968   0.756   0.734  0.00  0.00     0.078 C 
ATOM      2  C1' OXE d   1      -0.016  -0.528  -0.781  0.00  0.00     0.078 C 
ATOM      3  C1  OXE d   1      -0.361  -0.122   0.630  0.00  0.00    -0.078 A 
ATOM      4  C2  OXE d   1       0.630   0.464   1.379  0.00  0.00    -0.078 A 
ATOM      5  C3  OXE d   1       0.349   0.908   2.668  0.00  0.00     0.003 A 
ATOM      6  C4  OXE d   1      -0.888   0.625   3.261  0.00  0.00    -0.002 A 
ATOM      7  C5  OXE d   1      -1.898  -0.007   2.528  0.00  0.00    -0.002 A 
ATOM      8  C6  OXE d   1      -1.666  -0.348   1.200  0.00  0.00     0.003 A 
ENDROOT
TORSDOF 0
ENDMDL
