MODEL 1
REMARK minimizedAffinity -3.16402555
REMARK minimizedRMSD -1
REMARK  0 active torsions:
REMARK  status: ('A' for Active; 'I' for Inactive)
ROOT
ATOM      1  C2' OXE d   1       1.945   0.918   1.661  0.00  0.00     0.078 C 
ATOM      2  C1' OXE d   1      -0.266   1.823   3.136  0.00  0.00     0.078 C 
ATOM      3  C1  OXE d   1      -0.510   0.787   2.068  0.00  0.00    -0.078 A 
ATOM      4  C2  OXE d   1       0.570   0.384   1.320  0.00  0.00    -0.078 A 
ATOM      5  C3  OXE d   1       0.410  -0.610   0.358  0.00  0.00     0.003 A 
ATOM      6  C4  OXE d   1      -0.866  -1.091   0.042  0.00  0.00    -0.002 A 
ATOM      7  C5  OXE d   1      -1.985  -0.665   0.765  0.00  0.00    -0.002 A 
ATOM      8  C6  OXE d   1      -1.818   0.240   1.807  0.00  0.00     0.003 A 
ENDROOT
TORSDOF 0
ENDMDL
