MODEL 1
REMARK minimizedAffinity -4.60954475
REMARK minimizedRMSD -1
REMARK  0 active torsions:
REMARK  status: ('A' for Active; 'I' for Inactive)
ROOT
ATOM      1  C2' OXE d   1       2.755   1.185   1.768  0.00  0.00     0.078 C 
ATOM      2  C1' OXE d   1       0.194   2.264   2.162  0.00  0.00     0.078 C 
ATOM      3  C1  OXE d   1       0.313   1.033   1.299  0.00  0.00    -0.078 A 
ATOM      4  C2  OXE d   1       1.575   0.539   1.073  0.00  0.00    -0.078 A 
ATOM      5  C3  OXE d   1       1.737  -0.626   0.329  0.00  0.00     0.003 A 
ATOM      6  C4  OXE d   1       0.642  -1.211  -0.318  0.00  0.00    -0.002 A 
ATOM      7  C5  OXE d   1      -0.648  -0.700  -0.135  0.00  0.00    -0.002 A 
ATOM      8  C6  OXE d   1      -0.834   0.394   0.703  0.00  0.00     0.003 A 
ENDROOT
TORSDOF 0
ENDMDL
