MODEL 1
REMARK minimizedAffinity -3.57336044
REMARK minimizedRMSD -1
REMARK  0 active torsions:
REMARK  status: ('A' for Active; 'I' for Inactive)
ROOT
ATOM      1  C2' OXE d   1      -1.712   0.383   2.137  0.00  0.00     0.078 C 
ATOM      2  C1' OXE d   1      -0.330   2.784   2.596  0.00  0.00     0.078 C 
ATOM      3  C1  OXE d   1       0.447   1.621   2.031  0.00  0.00    -0.078 A 
ATOM      4  C2  OXE d   1      -0.226   0.437   1.853  0.00  0.00    -0.078 A 
ATOM      5  C3  OXE d   1       0.430  -0.651   1.284  0.00  0.00     0.003 A 
ATOM      6  C4  OXE d   1       1.807  -0.596   1.034  0.00  0.00    -0.002 A 
ATOM      7  C5  OXE d   1       2.520   0.588   1.245  0.00  0.00    -0.002 A 
ATOM      8  C6  OXE d   1       1.848   1.717   1.702  0.00  0.00     0.003 A 
ENDROOT
TORSDOF 0
ENDMDL
