MODEL 1
REMARK minimizedAffinity -1.62349176
REMARK minimizedRMSD -1
REMARK  0 active torsions:
REMARK  status: ('A' for Active; 'I' for Inactive)
ROOT
ATOM      1  C2' OXE d   1      -1.491  -0.306   0.149  0.00  0.00     0.078 C 
ATOM      2  C1' OXE d   1      -1.545   0.539   2.826  0.00  0.00     0.078 C 
ATOM      3  C1  OXE d   1      -0.281   0.778   2.038  0.00  0.00    -0.078 A 
ATOM      4  C2  OXE d   1      -0.247   0.319   0.743  0.00  0.00    -0.078 A 
ATOM      5  C3  OXE d   1       0.874   0.563  -0.045  0.00  0.00     0.003 A 
ATOM      6  C4  OXE d   1       2.024   1.133   0.515  0.00  0.00    -0.002 A 
ATOM      7  C5  OXE d   1       2.024   1.571   1.843  0.00  0.00    -0.002 A 
ATOM      8  C6  OXE d   1       0.868   1.440   2.604  0.00  0.00     0.003 A 
ENDROOT
TORSDOF 0
ENDMDL
