MODEL 1
REMARK minimizedAffinity 3.71305203
REMARK minimizedRMSD -1
REMARK  0 active torsions:
REMARK  status: ('A' for Active; 'I' for Inactive)
ROOT
ATOM      1  C2' OXE d   1      -0.133  -1.046   3.866  0.00  0.00     0.078 C 
ATOM      2  C1' OXE d   1      -2.775  -1.442   3.002  0.00  0.00     0.078 C 
ATOM      3  C1  OXE d   1      -1.813  -0.783   2.046  0.00  0.00    -0.078 A 
ATOM      4  C2  OXE d   1      -0.535  -0.550   2.493  0.00  0.00    -0.078 A 
ATOM      5  C3  OXE d   1       0.407   0.006   1.632  0.00  0.00     0.003 A 
ATOM      6  C4  OXE d   1       0.024   0.470   0.368  0.00  0.00    -0.002 A 
ATOM      7  C5  OXE d   1      -1.283   0.279  -0.093  0.00  0.00    -0.002 A 
ATOM      8  C6  OXE d   1      -2.201  -0.382   0.716  0.00  0.00     0.003 A 
ENDROOT
TORSDOF 0
ENDMDL
