MODEL 1
REMARK minimizedAffinity -0.0299606659
REMARK minimizedRMSD -1
REMARK  2 active torsions:
REMARK  status: ('A' for Active; 'I' for Inactive)
REMARK    1  A    between atoms: C1_2  and  C2_3 
REMARK    2  A    between atoms: C2_3  and  C3_4 
ROOT
ATOM      1  C3  UNL d   1      -2.307   1.532  -3.256  0.00  0.00    -0.075 A 
ATOM      2  C4  UNL d   1      -2.727   1.884  -1.965  0.00  0.00     0.002 A 
ATOM      3  C5  UNL d   1      -3.957   1.442  -1.476  0.00  0.00     0.002 A 
ATOM      4  C6  UNL d   1      -4.784   0.654  -2.272  0.00  0.00    -0.004 A 
ATOM      5  C7  UNL d   1      -4.384   0.312  -3.562  0.00  0.00     0.002 A 
ATOM      6  C8  UNL d   1      -3.152   0.749  -4.053  0.00  0.00     0.002 A 
ENDROOT
BRANCH   1   7
ATOM      7  C2  UNL d   1      -0.964   1.982  -3.781  0.00  0.00     0.056 C 
BRANCH   7   8
ATOM      8  C1  UNL d   1      -0.998   3.333  -4.504  0.00  0.00     0.007 C 
ATOM      9  C   UNL d   1      -0.297   4.444  -3.735  0.00  0.00     0.009 C 
ENDBRANCH   7   8
ENDBRANCH   1   7
TORSDOF 2
ENDMDL
