MODEL 1
REMARK minimizedAffinity -0.961224437
REMARK minimizedRMSD -1
REMARK  2 active torsions:
REMARK  status: ('A' for Active; 'I' for Inactive)
REMARK    1  A    between atoms: C1_2  and  C2_3 
REMARK    2  A    between atoms: C2_3  and  C3_4 
ROOT
ATOM      1  C3  UNL d   1       1.569  -2.198   2.357  0.00  0.00    -0.075 A 
ATOM      2  C4  UNL d   1       0.479  -1.889   1.530  0.00  0.00     0.002 A 
ATOM      3  C5  UNL d   1       0.613  -0.958   0.500  0.00  0.00     0.002 A 
ATOM      4  C6  UNL d   1       1.833  -0.317   0.290  0.00  0.00    -0.004 A 
ATOM      5  C7  UNL d   1       2.917  -0.604   1.116  0.00  0.00     0.002 A 
ATOM      6  C8  UNL d   1       2.787  -1.539   2.145  0.00  0.00     0.002 A 
ENDROOT
BRANCH   1   7
ATOM      7  C2  UNL d   1       1.439  -3.227   3.455  0.00  0.00     0.056 C 
BRANCH   7   8
ATOM      8  C1  UNL d   1       2.143  -4.554   3.153  0.00  0.00     0.007 C 
ATOM      9  C   UNL d   1       1.774  -5.665   4.127  0.00  0.00     0.009 C 
ENDBRANCH   7   8
ENDBRANCH   1   7
TORSDOF 2
ENDMDL
