MODEL 1
REMARK minimizedAffinity -2.69696999
REMARK minimizedRMSD -1
REMARK  2 active torsions:
REMARK  status: ('A' for Active; 'I' for Inactive)
REMARK    1  A    between atoms: C1_2  and  C2_3 
REMARK    2  A    between atoms: C2_3  and  C3_4 
ROOT
ATOM      1  C3  UNL d   1       2.751  -0.811   1.863  0.00  0.00    -0.075 A 
ATOM      2  C4  UNL d   1       3.896  -0.789   2.672  0.00  0.00     0.002 A 
ATOM      3  C5  UNL d   1       3.781  -0.790   4.063  0.00  0.00     0.002 A 
ATOM      4  C6  UNL d   1       2.523  -0.803   4.661  0.00  0.00    -0.004 A 
ATOM      5  C7  UNL d   1       1.378  -0.808   3.867  0.00  0.00     0.002 A 
ATOM      6  C8  UNL d   1       1.490  -0.811   2.475  0.00  0.00     0.002 A 
ENDROOT
BRANCH   1   7
ATOM      7  C2  UNL d   1       2.869  -0.839   0.358  0.00  0.00     0.056 C 
BRANCH   7   8
ATOM      8  C1  UNL d   1       2.155   0.320  -0.345  0.00  0.00     0.007 C 
ATOM      9  C   UNL d   1       0.931  -0.121  -1.138  0.00  0.00     0.009 C 
ENDBRANCH   7   8
ENDBRANCH   1   7
TORSDOF 2
ENDMDL
