MODEL 1
REMARK minimizedAffinity 6.40916014
REMARK minimizedRMSD -1
REMARK  2 active torsions:
REMARK  status: ('A' for Active; 'I' for Inactive)
REMARK    1  A    between atoms: C1_2  and  C2_3 
REMARK    2  A    between atoms: C2_3  and  C3_4 
ROOT
ATOM      1  C3  UNL d   1       0.349   0.396  -1.375  0.00  0.00    -0.075 A 
ATOM      2  C4  UNL d   1       1.596   0.289  -0.741  0.00  0.00     0.002 A 
ATOM      3  C5  UNL d   1       1.706  -0.332   0.504  0.00  0.00     0.002 A 
ATOM      4  C6  UNL d   1       0.573  -0.844   1.133  0.00  0.00    -0.004 A 
ATOM      5  C7  UNL d   1      -0.672  -0.728   0.520  0.00  0.00     0.002 A 
ATOM      6  C8  UNL d   1      -0.785  -0.111  -0.727  0.00  0.00     0.002 A 
ENDROOT
BRANCH   1   7
ATOM      7  C2  UNL d   1       0.228   1.041  -2.735  0.00  0.00     0.056 C 
BRANCH   7   8
ATOM      8  C1  UNL d   1      -1.044   1.876  -2.918  0.00  0.00     0.007 C 
ATOM      9  C   UNL d   1      -0.796   3.199  -3.630  0.00  0.00     0.009 C 
ENDBRANCH   7   8
ENDBRANCH   1   7
TORSDOF 2
ENDMDL
