MODEL 1
REMARK minimizedAffinity 5.35632229
REMARK minimizedRMSD -1
REMARK  2 active torsions:
REMARK  status: ('A' for Active; 'I' for Inactive)
REMARK    1  A    between atoms: C1_2  and  C2_3 
REMARK    2  A    between atoms: C2_3  and  C3_4 
ROOT
ATOM      1  C3  UNL d   1       3.617   0.478  -0.722  0.00  0.00    -0.075 A 
ATOM      2  C4  UNL d   1       2.254   0.370  -1.031  0.00  0.00     0.002 A 
ATOM      3  C5  UNL d   1       1.453  -0.572  -0.383  0.00  0.00     0.002 A 
ATOM      4  C6  UNL d   1       2.007  -1.422   0.572  0.00  0.00    -0.004 A 
ATOM      5  C7  UNL d   1       3.364  -1.334   0.875  0.00  0.00     0.002 A 
ATOM      6  C8  UNL d   1       4.166  -0.390   0.231  0.00  0.00     0.002 A 
ENDROOT
BRANCH   1   7
ATOM      7  C2  UNL d   1       4.482   1.515  -1.398  0.00  0.00     0.056 C 
BRANCH   7   8
ATOM      8  C1  UNL d   1       4.540   2.857  -0.660  0.00  0.00     0.007 C 
ATOM      9  C   UNL d   1       5.348   3.914  -1.400  0.00  0.00     0.009 C 
ENDBRANCH   7   8
ENDBRANCH   1   7
TORSDOF 2
ENDMDL
