MODEL 1
REMARK minimizedAffinity -0.175967082
REMARK minimizedRMSD -1
REMARK  2 active torsions:
REMARK  status: ('A' for Active; 'I' for Inactive)
REMARK    1  A    between atoms: C1_2  and  C2_3 
REMARK    2  A    between atoms: C2_3  and  C3_4 
ROOT
ATOM      1  C3  UNL d   1      -2.108  -5.344  -3.366  0.00  0.00    -0.075 A 
ATOM      2  C4  UNL d   1      -3.027  -5.750  -4.344  0.00  0.00     0.002 A 
ATOM      3  C5  UNL d   1      -2.607  -5.997  -5.652  0.00  0.00     0.002 A 
ATOM      4  C6  UNL d   1      -1.269  -5.833  -6.000  0.00  0.00    -0.004 A 
ATOM      5  C7  UNL d   1      -0.349  -5.414  -5.040  0.00  0.00     0.002 A 
ATOM      6  C8  UNL d   1      -0.766  -5.169  -3.730  0.00  0.00     0.002 A 
ENDROOT
BRANCH   1   7
ATOM      7  C2  UNL d   1      -2.550  -5.102  -1.943  0.00  0.00     0.056 C 
BRANCH   7   8
ATOM      8  C1  UNL d   1      -1.484  -4.442  -1.062  0.00  0.00     0.007 C 
ATOM      9  C   UNL d   1      -2.072  -3.619   0.077  0.00  0.00     0.009 C 
ENDBRANCH   7   8
ENDBRANCH   1   7
TORSDOF 2
ENDMDL
