MODEL 1
REMARK minimizedAffinity -4.32621336
REMARK minimizedRMSD -1
REMARK  2 active torsions:
REMARK  status: ('A' for Active; 'I' for Inactive)
REMARK    1  A    between atoms: C1_2  and  C2_3 
REMARK    2  A    between atoms: C2_3  and  C3_4 
ROOT
ATOM      1  C3  UNL d   1      -3.821  -5.755  -0.438  0.00  0.00    -0.075 A 
ATOM      2  C4  UNL d   1      -5.065  -5.999   0.161  0.00  0.00     0.002 A 
ATOM      3  C5  UNL d   1      -5.260  -5.746   1.519  0.00  0.00     0.002 A 
ATOM      4  C6  UNL d   1      -4.212  -5.257   2.297  0.00  0.00    -0.004 A 
ATOM      5  C7  UNL d   1      -2.967  -5.027   1.716  0.00  0.00     0.002 A 
ATOM      6  C8  UNL d   1      -2.771  -5.275   0.357  0.00  0.00     0.002 A 
ENDROOT
BRANCH   1   7
ATOM      7  C2  UNL d   1      -3.612  -5.999  -1.913  0.00  0.00     0.056 C 
BRANCH   7   8
ATOM      8  C1  UNL d   1      -4.860  -5.756  -2.768  0.00  0.00     0.007 C 
ATOM      9  C   UNL d   1      -4.539  -5.442  -4.224  0.00  0.00     0.009 C 
ENDBRANCH   7   8
ENDBRANCH   1   7
TORSDOF 2
ENDMDL
