MODEL 1
REMARK minimizedAffinity -2.61278915
REMARK minimizedRMSD -1
REMARK  2 active torsions:
REMARK  status: ('A' for Active; 'I' for Inactive)
REMARK    1  A    between atoms: C1_2  and  C2_3 
REMARK    2  A    between atoms: C2_3  and  C3_4 
ROOT
ATOM      1  C3  UNL d   1      -2.049  -5.716  -4.135  0.00  0.00    -0.075 A 
ATOM      2  C4  UNL d   1      -3.345  -5.866  -3.621  0.00  0.00     0.002 A 
ATOM      3  C5  UNL d   1      -3.552  -5.997  -2.247  0.00  0.00     0.002 A 
ATOM      4  C6  UNL d   1      -2.467  -5.990  -1.373  0.00  0.00    -0.004 A 
ATOM      5  C7  UNL d   1      -1.174  -5.859  -1.874  0.00  0.00     0.002 A 
ATOM      6  C8  UNL d   1      -0.965  -5.723  -3.247  0.00  0.00     0.002 A 
ENDROOT
BRANCH   1   7
ATOM      7  C2  UNL d   1      -1.821  -5.545  -5.618  0.00  0.00     0.056 C 
BRANCH   7   8
ATOM      8  C1  UNL d   1      -0.455  -4.950  -5.974  0.00  0.00     0.007 C 
ATOM      9  C   UNL d   1       0.665  -5.982  -5.984  0.00  0.00     0.009 C 
ENDBRANCH   7   8
ENDBRANCH   1   7
TORSDOF 2
ENDMDL
