MODEL 1
REMARK minimizedAffinity 3.42268395
REMARK minimizedRMSD -1
REMARK  2 active torsions:
REMARK  status: ('A' for Active; 'I' for Inactive)
REMARK    1  A    between atoms: C1_2  and  C2_3 
REMARK    2  A    between atoms: C2_3  and  C3_4 
ROOT
ATOM      1  C3  UNL d   1      -1.889  -4.517   1.075  0.00  0.00    -0.075 A 
ATOM      2  C4  UNL d   1      -1.821  -4.840   2.438  0.00  0.00     0.002 A 
ATOM      3  C5  UNL d   1      -2.837  -5.580   3.042  0.00  0.00     0.002 A 
ATOM      4  C6  UNL d   1      -3.938  -5.996   2.296  0.00  0.00    -0.004 A 
ATOM      5  C7  UNL d   1      -4.024  -5.666   0.945  0.00  0.00     0.002 A 
ATOM      6  C8  UNL d   1      -3.006  -4.930   0.337  0.00  0.00     0.002 A 
ENDROOT
BRANCH   1   7
ATOM      7  C2  UNL d   1      -0.778  -3.742   0.408  0.00  0.00     0.056 C 
BRANCH   7   8
ATOM      8  C1  UNL d   1      -0.050  -2.767   1.341  0.00  0.00     0.007 C 
ATOM      9  C   UNL d   1       0.701  -1.671   0.596  0.00  0.00     0.009 C 
ENDBRANCH   7   8
ENDBRANCH   1   7
TORSDOF 2
ENDMDL
