MODEL 1
REMARK minimizedAffinity -0.168415979
REMARK minimizedRMSD -1
REMARK  2 active torsions:
REMARK  status: ('A' for Active; 'I' for Inactive)
REMARK    1  A    between atoms: C1_2  and  C2_3 
REMARK    2  A    between atoms: C2_3  and  C3_4 
ROOT
ATOM      1  C3  UNL d   1      -0.702   1.989  -2.854  0.00  0.00    -0.075 A 
ATOM      2  C4  UNL d   1      -2.036   1.826  -3.256  0.00  0.00     0.002 A 
ATOM      3  C5  UNL d   1      -2.670   2.804  -4.023  0.00  0.00     0.002 A 
ATOM      4  C6  UNL d   1      -1.983   3.960  -4.389  0.00  0.00    -0.004 A 
ATOM      5  C7  UNL d   1      -0.663   4.140  -3.981  0.00  0.00     0.002 A 
ATOM      6  C8  UNL d   1      -0.025   3.161  -3.218  0.00  0.00     0.002 A 
ENDROOT
BRANCH   1   7
ATOM      7  C2  UNL d   1      -0.002   0.921  -2.049  0.00  0.00     0.056 C 
BRANCH   7   8
ATOM      8  C1  UNL d   1      -0.083   1.129  -0.533  0.00  0.00     0.007 C 
ATOM      9  C   UNL d   1      -0.008  -0.172   0.256  0.00  0.00     0.009 C 
ENDBRANCH   7   8
ENDBRANCH   1   7
TORSDOF 2
ENDMDL
