MODEL 1
REMARK minimizedAffinity -1.22361004
REMARK minimizedRMSD -1
REMARK  2 active torsions:
REMARK  status: ('A' for Active; 'I' for Inactive)
REMARK    1  A    between atoms: C1_2  and  C2_3 
REMARK    2  A    between atoms: C2_3  and  C3_4 
ROOT
ATOM      1  C3  UNL d   1       0.780  -0.402   1.022  0.00  0.00    -0.075 A 
ATOM      2  C4  UNL d   1       1.560  -0.284  -0.138  0.00  0.00     0.002 A 
ATOM      3  C5  UNL d   1       2.876  -0.747  -0.157  0.00  0.00     0.002 A 
ATOM      4  C6  UNL d   1       3.432  -1.322   0.984  0.00  0.00    -0.004 A 
ATOM      5  C7  UNL d   1       2.672  -1.429   2.147  0.00  0.00     0.002 A 
ATOM      6  C8  UNL d   1       1.353  -0.971   2.167  0.00  0.00     0.002 A 
ENDROOT
BRANCH   1   7
ATOM      7  C2  UNL d   1      -0.654   0.070   1.040  0.00  0.00     0.056 C 
BRANCH   7   8
ATOM      8  C1  UNL d   1      -1.543  -0.595  -0.016  0.00  0.00     0.007 C 
ATOM      9  C   UNL d   1      -2.101  -1.940   0.429  0.00  0.00     0.009 C 
ENDBRANCH   7   8
ENDBRANCH   1   7
TORSDOF 2
ENDMDL
