MODEL 1
REMARK minimizedAffinity -0.670182884
REMARK minimizedRMSD -1
REMARK  2 active torsions:
REMARK  status: ('A' for Active; 'I' for Inactive)
REMARK    1  A    between atoms: C1_2  and  C2_3 
REMARK    2  A    between atoms: C2_3  and  C3_4 
ROOT
ATOM      1  C3  UNL d   1       1.745  -0.923   0.939  0.00  0.00    -0.075 A 
ATOM      2  C4  UNL d   1       3.106  -0.978   0.608  0.00  0.00     0.002 A 
ATOM      3  C5  UNL d   1       4.074  -1.094   1.606  0.00  0.00     0.002 A 
ATOM      4  C6  UNL d   1       3.695  -1.148   2.945  0.00  0.00    -0.004 A 
ATOM      5  C7  UNL d   1       2.346  -1.078   3.287  0.00  0.00     0.002 A 
ATOM      6  C8  UNL d   1       1.375  -0.966   2.290  0.00  0.00     0.002 A 
ENDROOT
BRANCH   1   7
ATOM      7  C2  UNL d   1       0.691  -0.827  -0.138  0.00  0.00     0.056 C 
BRANCH   7   8
ATOM      8  C1  UNL d   1      -0.180   0.431  -0.047  0.00  0.00     0.007 C 
ATOM      9  C   UNL d   1       0.624   1.723  -0.088  0.00  0.00     0.009 C 
ENDBRANCH   7   8
ENDBRANCH   1   7
TORSDOF 2
ENDMDL
