MODEL 1
REMARK minimizedAffinity 7.29813719
REMARK minimizedRMSD -1
REMARK  1 active torsions:
REMARK  status: ('A' for Active; 'I' for Inactive)
REMARK    1  A    between atoms: C1_2  and  C2_3 
ROOT
ATOM      1  C2  UNL d   1       0.742  -2.817   1.380  0.00  0.00    -0.081 A 
ATOM      2  C3  UNL d   1       1.574  -1.717   1.621  0.00  0.00     0.006 A 
ATOM      3  C4  UNL d   1       1.763  -1.243   2.922  0.00  0.00     0.002 A 
ATOM      4  C5  UNL d   1       1.131  -1.866   4.003  0.00  0.00    -0.080 A 
ATOM      5  C6  UNL d   1       1.349  -1.387   5.407  0.00  0.00     0.076 C 
ATOM      6  C7  UNL d   1       0.286  -2.955   3.761  0.00  0.00     0.002 A 
ATOM      7  C8  UNL d   1       0.096  -3.428   2.460  0.00  0.00     0.006 A 
ENDROOT
BRANCH   1   8
ATOM      8  C1  UNL d   1       0.587  -3.370  -0.013  0.00  0.00     0.054 C 
ATOM      9  C   UNL d   1       0.273  -4.859   0.014  0.00  0.00     0.018 C 
ENDBRANCH   1   8
TORSDOF 1
ENDMDL
