MODEL 1
REMARK minimizedAffinity 7.3352108
REMARK minimizedRMSD -1
REMARK  1 active torsions:
REMARK  status: ('A' for Active; 'I' for Inactive)
REMARK    1  A    between atoms: C1_2  and  C2_3 
ROOT
ATOM      1  C2  UNL d   1      -4.948  -3.789  -2.319  0.00  0.00    -0.081 A 
ATOM      2  C3  UNL d   1      -4.787  -5.179  -2.292  0.00  0.00     0.006 A 
ATOM      3  C4  UNL d   1      -4.647  -5.899  -3.481  0.00  0.00     0.002 A 
ATOM      4  C5  UNL d   1      -4.658  -5.240  -4.715  0.00  0.00    -0.080 A 
ATOM      5  C6  UNL d   1      -4.479  -5.997  -5.998  0.00  0.00     0.076 C 
ATOM      6  C7  UNL d   1      -4.836  -3.853  -4.743  0.00  0.00     0.002 A 
ATOM      7  C8  UNL d   1      -4.977  -3.133  -3.554  0.00  0.00     0.006 A 
ENDROOT
BRANCH   1   8
ATOM      8  C1  UNL d   1      -5.034  -3.002  -1.036  0.00  0.00     0.054 C 
ATOM      9  C   UNL d   1      -5.968  -1.810  -1.179  0.00  0.00     0.018 C 
ENDBRANCH   1   8
TORSDOF 1
ENDMDL
