MODEL 1
REMARK minimizedAffinity 5.76386547
REMARK minimizedRMSD -1
REMARK  1 active torsions:
REMARK  status: ('A' for Active; 'I' for Inactive)
REMARK    1  A    between atoms: C1_2  and  C2_3 
ROOT
ATOM      1  C2  UNL d   1      -5.466  -4.246  -4.499  0.00  0.00    -0.081 A 
ATOM      2  C3  UNL d   1      -4.856  -5.491  -4.305  0.00  0.00     0.006 A 
ATOM      3  C4  UNL d   1      -4.673  -5.997  -3.016  0.00  0.00     0.002 A 
ATOM      4  C5  UNL d   1      -5.104  -5.270  -1.901  0.00  0.00    -0.080 A 
ATOM      5  C6  UNL d   1      -4.941  -5.816  -0.513  0.00  0.00     0.076 C 
ATOM      6  C7  UNL d   1      -5.698  -4.019  -2.094  0.00  0.00     0.002 A 
ATOM      7  C8  UNL d   1      -5.881  -3.512  -3.382  0.00  0.00     0.006 A 
ENDROOT
BRANCH   1   8
ATOM      8  C1  UNL d   1      -5.723  -3.727  -5.891  0.00  0.00     0.054 C 
ATOM      9  C   UNL d   1      -5.905  -2.216  -5.894  0.00  0.00     0.018 C 
ENDBRANCH   1   8
TORSDOF 1
ENDMDL
