MODEL 1
REMARK minimizedAffinity 7.55718327
REMARK minimizedRMSD -1
REMARK  1 active torsions:
REMARK  status: ('A' for Active; 'I' for Inactive)
REMARK    1  A    between atoms: C1_2  and  C2_3 
ROOT
ATOM      1  C2  UNL d   1       3.640  -3.305   4.213  0.00  0.00    -0.081 A 
ATOM      2  C3  UNL d   1       3.185  -2.543   3.130  0.00  0.00     0.006 A 
ATOM      3  C4  UNL d   1       1.835  -2.558   2.771  0.00  0.00     0.002 A 
ATOM      4  C5  UNL d   1       0.917  -3.327   3.494  0.00  0.00    -0.080 A 
ATOM      5  C6  UNL d   1      -0.540  -3.328   3.138  0.00  0.00     0.076 C 
ATOM      6  C7  UNL d   1       1.374  -4.102   4.565  0.00  0.00     0.002 A 
ATOM      7  C8  UNL d   1       2.724  -4.088   4.924  0.00  0.00     0.006 A 
ENDROOT
BRANCH   1   8
ATOM      8  C1  UNL d   1       5.084  -3.241   4.643  0.00  0.00     0.054 C 
ATOM      9  C   UNL d   1       5.999  -2.947   3.463  0.00  0.00     0.018 C 
ENDBRANCH   1   8
TORSDOF 1
ENDMDL
