MODEL 1
REMARK minimizedAffinity 7.74609756
REMARK minimizedRMSD -1
REMARK  1 active torsions:
REMARK  status: ('A' for Active; 'I' for Inactive)
REMARK    1  A    between atoms: C1_2  and  C2_3 
ROOT
ATOM      1  C2  UNL d   1      -5.355  -4.800  -4.348  0.00  0.00    -0.081 A 
ATOM      2  C3  UNL d   1      -5.995  -4.297  -3.208  0.00  0.00     0.006 A 
ATOM      3  C4  UNL d   1      -5.527  -4.620  -1.932  0.00  0.00     0.002 A 
ATOM      4  C5  UNL d   1      -4.408  -5.444  -1.774  0.00  0.00    -0.080 A 
ATOM      5  C6  UNL d   1      -3.877  -5.773  -0.411  0.00  0.00     0.076 C 
ATOM      6  C7  UNL d   1      -3.779  -5.961  -2.912  0.00  0.00     0.002 A 
ATOM      7  C8  UNL d   1      -4.246  -5.639  -4.188  0.00  0.00     0.006 A 
ENDROOT
BRANCH   1   8
ATOM      8  C1  UNL d   1      -5.818  -4.402  -5.726  0.00  0.00     0.054 C 
ATOM      9  C   UNL d   1      -5.707  -2.898  -5.934  0.00  0.00     0.018 C 
ENDBRANCH   1   8
TORSDOF 1
ENDMDL
