MODEL 1
REMARK minimizedAffinity 0.85372287
REMARK minimizedRMSD -1
REMARK  1 active torsions:
REMARK  status: ('A' for Active; 'I' for Inactive)
REMARK    1  A    between atoms: C1_2  and  C2_3 
ROOT
ATOM      1  C2  UNL d   1       3.601  -2.904   3.705  0.00  0.00    -0.081 A 
ATOM      2  C3  UNL d   1       2.727  -3.842   4.268  0.00  0.00     0.006 A 
ATOM      3  C4  UNL d   1       1.398  -3.915   3.844  0.00  0.00     0.002 A 
ATOM      4  C5  UNL d   1       0.923  -3.058   2.846  0.00  0.00    -0.080 A 
ATOM      5  C6  UNL d   1      -0.493  -3.147   2.360  0.00  0.00     0.076 C 
ATOM      6  C7  UNL d   1       1.792  -2.109   2.296  0.00  0.00     0.002 A 
ATOM      7  C8  UNL d   1       3.121  -2.035   2.720  0.00  0.00     0.006 A 
ENDROOT
BRANCH   1   8
ATOM      8  C1  UNL d   1       5.051  -2.866   4.115  0.00  0.00     0.054 C 
ATOM      9  C   UNL d   1       5.970  -2.976   2.906  0.00  0.00     0.018 C 
ENDBRANCH   1   8
TORSDOF 1
ENDMDL
