MODEL 1
REMARK minimizedAffinity 4.08648539
REMARK minimizedRMSD -1
REMARK  1 active torsions:
REMARK  status: ('A' for Active; 'I' for Inactive)
REMARK    1  A    between atoms: C1_2  and  C2_3 
ROOT
ATOM      1  C2  UNL d   1       3.044  -3.249   4.153  0.00  0.00    -0.081 A 
ATOM      2  C3  UNL d   1       2.308  -4.402   3.855  0.00  0.00     0.006 A 
ATOM      3  C4  UNL d   1       1.180  -4.330   3.034  0.00  0.00     0.002 A 
ATOM      4  C5  UNL d   1       0.774  -3.106   2.492  0.00  0.00    -0.080 A 
ATOM      5  C6  UNL d   1      -0.417  -3.020   1.585  0.00  0.00     0.076 C 
ATOM      6  C7  UNL d   1       1.499  -1.951   2.804  0.00  0.00     0.002 A 
ATOM      7  C8  UNL d   1       2.626  -2.022   3.625  0.00  0.00     0.006 A 
ENDROOT
BRANCH   1   8
ATOM      8  C1  UNL d   1       4.298  -3.333   4.986  0.00  0.00     0.054 C 
ATOM      9  C   UNL d   1       5.538  -3.058   4.147  0.00  0.00     0.018 C 
ENDBRANCH   1   8
TORSDOF 1
ENDMDL
