MODEL 1
REMARK minimizedAffinity 9.26126671
REMARK minimizedRMSD -1
REMARK  1 active torsions:
REMARK  status: ('A' for Active; 'I' for Inactive)
REMARK    1  A    between atoms: C1_2  and  C2_3 
ROOT
ATOM      1  C2  UNL d   1      -2.966   0.446   3.964  0.00  0.00    -0.081 A 
ATOM      2  C3  UNL d   1      -2.748   0.653   5.331  0.00  0.00     0.006 A 
ATOM      3  C4  UNL d   1      -3.357   1.724   5.991  0.00  0.00     0.002 A 
ATOM      4  C5  UNL d   1      -4.199   2.599   5.297  0.00  0.00    -0.080 A 
ATOM      5  C6  UNL d   1      -4.882   3.734   6.000  0.00  0.00     0.076 C 
ATOM      6  C7  UNL d   1      -4.403   2.402   3.927  0.00  0.00     0.002 A 
ATOM      7  C8  UNL d   1      -3.794   1.333   3.267  0.00  0.00     0.006 A 
ENDROOT
BRANCH   1   8
ATOM      8  C1  UNL d   1      -2.363  -0.745   3.263  0.00  0.00     0.054 C 
ATOM      9  C   UNL d   1      -0.889  -0.520   2.959  0.00  0.00     0.018 C 
ENDBRANCH   1   8
TORSDOF 1
ENDMDL
