MODEL 1
REMARK minimizedAffinity 18.0631905
REMARK minimizedRMSD -1
REMARK  1 active torsions:
REMARK  status: ('A' for Active; 'I' for Inactive)
REMARK    1  A    between atoms: C1_2  and  C2_3 
ROOT
ATOM      1  C2  UNL d   1       2.261   1.114   1.504  0.00  0.00    -0.081 A 
ATOM      2  C3  UNL d   1       2.990   2.289   1.725  0.00  0.00     0.006 A 
ATOM      3  C4  UNL d   1       4.105   2.589   0.939  0.00  0.00     0.002 A 
ATOM      4  C5  UNL d   1       4.505   1.725  -0.085  0.00  0.00    -0.080 A 
ATOM      5  C6  UNL d   1       5.682   2.051  -0.956  0.00  0.00     0.076 C 
ATOM      6  C7  UNL d   1       3.787   0.543  -0.296  0.00  0.00     0.002 A 
ATOM      7  C8  UNL d   1       2.672   0.242   0.490  0.00  0.00     0.006 A 
ENDROOT
BRANCH   1   8
ATOM      8  C1  UNL d   1       1.020   0.819   2.307  0.00  0.00     0.054 C 
ATOM      9  C   UNL d   1       1.270   1.000   3.798  0.00  0.00     0.018 C 
ENDBRANCH   1   8
TORSDOF 1
ENDMDL
