MODEL 1
REMARK minimizedAffinity 13.9436131
REMARK minimizedRMSD -1
REMARK  1 active torsions:
REMARK  status: ('A' for Active; 'I' for Inactive)
REMARK    1  A    between atoms: C1_2  and  C2_3 
ROOT
ATOM      1  C2  UNL d   1       3.254  -2.566  -1.078  0.00  0.00    -0.081 A 
ATOM      2  C3  UNL d   1       2.767  -2.471  -2.387  0.00  0.00     0.006 A 
ATOM      3  C4  UNL d   1       2.341  -1.242  -2.896  0.00  0.00     0.002 A 
ATOM      4  C5  UNL d   1       2.402  -0.087  -2.107  0.00  0.00    -0.080 A 
ATOM      5  C6  UNL d   1       1.976   1.244  -2.652  0.00  0.00     0.076 C 
ATOM      6  C7  UNL d   1       2.872  -0.186  -0.794  0.00  0.00     0.002 A 
ATOM      7  C8  UNL d   1       3.298  -1.415  -0.284  0.00  0.00     0.006 A 
ENDROOT
BRANCH   1   8
ATOM      8  C1  UNL d   1       3.775  -3.878  -0.548  0.00  0.00     0.054 C 
ATOM      9  C   UNL d   1       2.678  -4.931  -0.501  0.00  0.00     0.018 C 
ENDBRANCH   1   8
TORSDOF 1
ENDMDL
