MODEL 1
REMARK minimizedAffinity 21.8505173
REMARK minimizedRMSD -1
REMARK  1 active torsions:
REMARK  status: ('A' for Active; 'I' for Inactive)
REMARK    1  A    between atoms: C1_2  and  C2_3 
ROOT
ATOM      1  C2  UNL d   1      -3.752   1.104   3.888  0.00  0.00    -0.081 A 
ATOM      2  C3  UNL d   1      -4.757   1.908   3.337  0.00  0.00     0.006 A 
ATOM      3  C4  UNL d   1      -5.219   3.034   4.023  0.00  0.00     0.002 A 
ATOM      4  C5  UNL d   1      -4.678   3.378   5.267  0.00  0.00    -0.080 A 
ATOM      5  C6  UNL d   1      -5.144   4.601   6.000  0.00  0.00     0.076 C 
ATOM      6  C7  UNL d   1      -3.686   2.565   5.825  0.00  0.00     0.002 A 
ATOM      7  C8  UNL d   1      -3.225   1.439   5.140  0.00  0.00     0.006 A 
ENDROOT
BRANCH   1   8
ATOM      8  C1  UNL d   1      -3.206  -0.074   3.121  0.00  0.00     0.054 C 
ATOM      9  C   UNL d   1      -4.031  -1.328   3.373  0.00  0.00     0.018 C 
ENDBRANCH   1   8
TORSDOF 1
ENDMDL
