MODEL 1
REMARK minimizedAffinity 9.74176025
REMARK minimizedRMSD -1
REMARK  1 active torsions:
REMARK  status: ('A' for Active; 'I' for Inactive)
REMARK    1  A    between atoms: C1_2  and  C2_3 
ROOT
ATOM      1  C2  UNL d   1       4.216  -1.448  -0.553  0.00  0.00    -0.081 A 
ATOM      2  C3  UNL d   1       3.221  -1.093  -1.472  0.00  0.00     0.006 A 
ATOM      3  C4  UNL d   1       3.106   0.225  -1.918  0.00  0.00     0.002 A 
ATOM      4  C5  UNL d   1       3.988   1.209  -1.458  0.00  0.00    -0.080 A 
ATOM      5  C6  UNL d   1       3.894   2.623  -1.952  0.00  0.00     0.076 C 
ATOM      6  C7  UNL d   1       4.971   0.859  -0.527  0.00  0.00     0.002 A 
ATOM      7  C8  UNL d   1       5.086  -0.459  -0.080  0.00  0.00     0.006 A 
ENDROOT
BRANCH   1   8
ATOM      8  C1  UNL d   1       4.384  -2.882  -0.120  0.00  0.00     0.054 C 
ATOM      9  C   UNL d   1       5.724  -3.444  -0.572  0.00  0.00     0.018 C 
ENDBRANCH   1   8
TORSDOF 1
ENDMDL
