MODEL 1
REMARK minimizedAffinity 19.4289303
REMARK minimizedRMSD -1
REMARK  1 active torsions:
REMARK  status: ('A' for Active; 'I' for Inactive)
REMARK    1  A    between atoms: C1_2  and  C2_3 
ROOT
ATOM      1  C2  UNL d   1       2.515   0.179  -1.678  0.00  0.00    -0.081 A 
ATOM      2  C3  UNL d   1       2.860  -0.299  -0.407  0.00  0.00     0.006 A 
ATOM      3  C4  UNL d   1       3.579   0.505   0.480  0.00  0.00     0.002 A 
ATOM      4  C5  UNL d   1       3.958   1.801   0.116  0.00  0.00    -0.080 A 
ATOM      5  C6  UNL d   1       4.704   2.686   1.070  0.00  0.00     0.076 C 
ATOM      6  C7  UNL d   1       3.629   2.272  -1.160  0.00  0.00     0.002 A 
ATOM      7  C8  UNL d   1       2.911   1.469  -2.048  0.00  0.00     0.006 A 
ENDROOT
BRANCH   1   8
ATOM      8  C1  UNL d   1       1.684  -0.662  -2.613  0.00  0.00     0.054 C 
ATOM      9  C   UNL d   1       2.487  -1.094  -3.831  0.00  0.00     0.018 C 
ENDBRANCH   1   8
TORSDOF 1
ENDMDL
