MODEL 1
REMARK minimizedAffinity 11.592845
REMARK minimizedRMSD -1
REMARK  1 active torsions:
REMARK  status: ('A' for Active; 'I' for Inactive)
REMARK    1  A    between atoms: C1_2  and  C2_3 
ROOT
ATOM      1  C2  UNL d   1       2.058   2.377  -1.206  0.00  0.00    -0.081 A 
ATOM      2  C3  UNL d   1       2.096   1.575  -2.353  0.00  0.00     0.006 A 
ATOM      3  C4  UNL d   1       2.095   0.182  -2.243  0.00  0.00     0.002 A 
ATOM      4  C5  UNL d   1       2.048  -0.431  -0.987  0.00  0.00    -0.080 A 
ATOM      5  C6  UNL d   1       2.016  -1.925  -0.857  0.00  0.00     0.076 C 
ATOM      6  C7  UNL d   1       2.028   0.370   0.160  0.00  0.00     0.002 A 
ATOM      7  C8  UNL d   1       2.029   1.762   0.051  0.00  0.00     0.006 A 
ENDROOT
BRANCH   1   8
ATOM      8  C1  UNL d   1       1.993   3.878  -1.322  0.00  0.00     0.054 C 
ATOM      9  C   UNL d   1       1.601   4.520   0.001  0.00  0.00     0.018 C 
ENDBRANCH   1   8
TORSDOF 1
ENDMDL
