MODEL 1
REMARK minimizedAffinity 19.8349495
REMARK minimizedRMSD -1
REMARK  1 active torsions:
REMARK  status: ('A' for Active; 'I' for Inactive)
REMARK    1  A    between atoms: C1_2  and  C2_3 
ROOT
ATOM      1  C2  UNL d   1      -3.646   1.477   3.090  0.00  0.00    -0.081 A 
ATOM      2  C3  UNL d   1      -2.980   0.426   3.732  0.00  0.00     0.006 A 
ATOM      3  C4  UNL d   1      -1.589   0.323   3.666  0.00  0.00     0.002 A 
ATOM      4  C5  UNL d   1      -0.840   1.273   2.963  0.00  0.00    -0.080 A 
ATOM      5  C6  UNL d   1       0.657   1.191   2.909  0.00  0.00     0.076 C 
ATOM      6  C7  UNL d   1      -1.506   2.313   2.306  0.00  0.00     0.002 A 
ATOM      7  C8  UNL d   1      -2.897   2.416   2.372  0.00  0.00     0.006 A 
ENDROOT
BRANCH   1   8
ATOM      8  C1  UNL d   1      -5.141   1.628   3.214  0.00  0.00     0.054 C 
ATOM      9  C   UNL d   1      -5.508   2.876   4.004  0.00  0.00     0.018 C 
ENDBRANCH   1   8
TORSDOF 1
ENDMDL
