MODEL 1
REMARK minimizedAffinity 15.9904089
REMARK minimizedRMSD -1
REMARK  1 active torsions:
REMARK  status: ('A' for Active; 'I' for Inactive)
REMARK    1  A    between atoms: C1_2  and  C2_3 
ROOT
ATOM      1  C2  UNL d   1       0.891   2.403   2.420  0.00  0.00    -0.081 A 
ATOM      2  C3  UNL d   1       2.157   2.557   1.842  0.00  0.00     0.006 A 
ATOM      3  C4  UNL d   1       2.418   3.625   0.980  0.00  0.00     0.002 A 
ATOM      4  C5  UNL d   1       1.421   4.561   0.689  0.00  0.00    -0.080 A 
ATOM      5  C6  UNL d   1       1.697   5.730  -0.211  0.00  0.00     0.076 C 
ATOM      6  C7  UNL d   1       0.151   4.399   1.252  0.00  0.00     0.002 A 
ATOM      7  C8  UNL d   1      -0.111   3.330   2.113  0.00  0.00     0.006 A 
ENDROOT
BRANCH   1   8
ATOM      8  C1  UNL d   1       0.625   1.289   3.400  0.00  0.00     0.054 C 
ATOM      9  C   UNL d   1       1.059   1.675   4.806  0.00  0.00     0.018 C 
ENDBRANCH   1   8
TORSDOF 1
ENDMDL
