MODEL 1
REMARK minimizedAffinity 7.97637224
REMARK minimizedRMSD -1
REMARK  1 active torsions:
REMARK  status: ('A' for Active; 'I' for Inactive)
REMARK    1  A    between atoms: C1_2  and  C2_3 
ROOT
ATOM      1  C2  UNL d   1      -3.163   4.962  -5.436  0.00  0.00    -0.081 A 
ATOM      2  C3  UNL d   1      -2.997   3.691  -5.999  0.00  0.00     0.006 A 
ATOM      3  C4  UNL d   1      -1.886   2.911  -5.671  0.00  0.00     0.002 A 
ATOM      4  C5  UNL d   1      -0.926   3.385  -4.771  0.00  0.00    -0.080 A 
ATOM      5  C6  UNL d   1       0.256   2.546  -4.387  0.00  0.00     0.076 C 
ATOM      6  C7  UNL d   1      -1.083   4.663  -4.222  0.00  0.00     0.002 A 
ATOM      7  C8  UNL d   1      -2.194   5.443  -4.549  0.00  0.00     0.006 A 
ENDROOT
BRANCH   1   8
ATOM      8  C1  UNL d   1      -4.394   5.779  -5.738  0.00  0.00     0.054 C 
ATOM      9  C   UNL d   1      -5.601   4.888  -5.993  0.00  0.00     0.018 C 
ENDBRANCH   1   8
TORSDOF 1
ENDMDL
