MODEL 1
REMARK minimizedAffinity 8.18608475
REMARK minimizedRMSD -1
REMARK  1 active torsions:
REMARK  status: ('A' for Active; 'I' for Inactive)
REMARK    1  A    between atoms: C1_2  and  C2_3 
ROOT
ATOM      1  C2  UNL d   1       2.320  -0.751  -0.507  0.00  0.00    -0.081 A 
ATOM      2  C3  UNL d   1       1.697  -0.739  -1.761  0.00  0.00     0.006 A 
ATOM      3  C4  UNL d   1       1.500  -1.929  -2.466  0.00  0.00     0.002 A 
ATOM      4  C5  UNL d   1       1.916  -3.151  -1.926  0.00  0.00    -0.080 A 
ATOM      5  C6  UNL d   1       1.684  -4.438  -2.659  0.00  0.00     0.076 C 
ATOM      6  C7  UNL d   1       2.554  -3.161  -0.681  0.00  0.00     0.002 A 
ATOM      7  C8  UNL d   1       2.751  -1.971   0.024  0.00  0.00     0.006 A 
ENDROOT
BRANCH   1   8
ATOM      8  C1  UNL d   1       2.475   0.523   0.284  0.00  0.00     0.054 C 
ATOM      9  C   UNL d   1       3.774   1.235  -0.064  0.00  0.00     0.018 C 
ENDBRANCH   1   8
TORSDOF 1
ENDMDL
