MODEL 1
REMARK minimizedAffinity 10.2520437
REMARK minimizedRMSD -1
REMARK  1 active torsions:
REMARK  status: ('A' for Active; 'I' for Inactive)
REMARK    1  A    between atoms: C1_2  and  C2_3 
ROOT
ATOM      1  C2  UNL d   1      -2.957  -4.800  -5.211  0.00  0.00    -0.081 A 
ATOM      2  C3  UNL d   1      -2.377  -4.955  -3.946  0.00  0.00     0.006 A 
ATOM      3  C4  UNL d   1      -1.943  -3.840  -3.225  0.00  0.00     0.002 A 
ATOM      4  C5  UNL d   1      -2.090  -2.552  -3.753  0.00  0.00    -0.080 A 
ATOM      5  C6  UNL d   1      -1.656  -1.345  -2.976  0.00  0.00     0.076 C 
ATOM      6  C7  UNL d   1      -2.653  -2.399  -5.024  0.00  0.00     0.002 A 
ATOM      7  C8  UNL d   1      -3.086  -3.514  -5.746  0.00  0.00     0.006 A 
ENDROOT
BRANCH   1   8
ATOM      8  C1  UNL d   1      -3.484  -5.995  -5.964  0.00  0.00     0.054 C 
ATOM      9  C   UNL d   1      -5.006  -5.999  -6.000  0.00  0.00     0.018 C 
ENDBRANCH   1   8
TORSDOF 1
ENDMDL
