MODEL 1
REMARK minimizedAffinity -1.24119484
REMARK minimizedRMSD -1
REMARK  0 active torsions:
REMARK  status: ('A' for Active; 'I' for Inactive)
ROOT
ATOM      1  C   UNL d   1       1.654  -1.099   0.433  0.00  0.00     0.077 C 
ATOM      2  C1  UNL d   1       0.717   0.064   0.573  0.00  0.00    -0.074 A 
ATOM      3  C2  UNL d   1      -0.522  -0.083   1.203  0.00  0.00    -0.005 A 
ATOM      4  C3  UNL d   1      -1.379   1.010   1.334  0.00  0.00     0.006 A 
ATOM      5  C4  UNL d   1      -1.005   2.259   0.837  0.00  0.00    -0.005 A 
ATOM      6  C5  UNL d   1       0.231   2.425   0.204  0.00  0.00    -0.074 A 
ATOM      7  C6  UNL d   1       0.652   3.763  -0.327  0.00  0.00     0.077 C 
ATOM      8  C7  UNL d   1       1.089   1.324   0.082  0.00  0.00    -0.001 A 
ENDROOT
TORSDOF 0
ENDMDL
