MODEL 1
REMARK minimizedAffinity -3.62905717
REMARK minimizedRMSD -1
REMARK  0 active torsions:
REMARK  status: ('A' for Active; 'I' for Inactive)
ROOT
ATOM      1  C   UNL d   1       0.597   3.409  -0.928  0.00  0.00     0.077 C 
ATOM      2  C1  UNL d   1       0.860   1.990  -0.523  0.00  0.00    -0.074 A 
ATOM      3  C2  UNL d   1       2.166   1.494  -0.447  0.00  0.00    -0.005 A 
ATOM      4  C3  UNL d   1       2.395   0.174  -0.060  0.00  0.00     0.006 A 
ATOM      5  C4  UNL d   1       1.323  -0.663   0.256  0.00  0.00    -0.005 A 
ATOM      6  C5  UNL d   1       0.011  -0.184   0.186  0.00  0.00    -0.074 A 
ATOM      7  C6  UNL d   1      -1.151  -1.067   0.531  0.00  0.00     0.077 C 
ATOM      8  C7  UNL d   1      -0.211   1.146  -0.197  0.00  0.00    -0.001 A 
ENDROOT
TORSDOF 0
ENDMDL
