MODEL 1
REMARK minimizedAffinity 1.90722501
REMARK minimizedRMSD -1
REMARK  0 active torsions:
REMARK  status: ('A' for Active; 'I' for Inactive)
ROOT
ATOM      1  C   UNL d   1      -2.475  -1.125   3.186  0.00  0.00     0.077 C 
ATOM      2  C1  UNL d   1      -1.415  -0.623   2.251  0.00  0.00    -0.074 A 
ATOM      3  C2  UNL d   1      -0.457  -1.491   1.717  0.00  0.00    -0.005 A 
ATOM      4  C3  UNL d   1       0.516  -1.011   0.841  0.00  0.00     0.006 A 
ATOM      5  C4  UNL d   1       0.542   0.339   0.491  0.00  0.00    -0.005 A 
ATOM      6  C5  UNL d   1      -0.409   1.222   1.014  0.00  0.00    -0.074 A 
ATOM      7  C6  UNL d   1      -0.401   2.674   0.639  0.00  0.00     0.077 C 
ATOM      8  C7  UNL d   1      -1.388   0.731   1.888  0.00  0.00    -0.001 A 
ENDROOT
TORSDOF 0
ENDMDL
