MODEL 1
REMARK minimizedAffinity 3.60313129
REMARK minimizedRMSD -1
REMARK  0 active torsions:
REMARK  status: ('A' for Active; 'I' for Inactive)
ROOT
ATOM      1  C   UNL d   1       2.495   2.647   0.166  0.00  0.00     0.077 C 
ATOM      2  C1  UNL d   1       1.002   2.777   0.219  0.00  0.00    -0.074 A 
ATOM      3  C2  UNL d   1       0.297   3.398  -0.817  0.00  0.00    -0.005 A 
ATOM      4  C3  UNL d   1      -1.092   3.503  -0.758  0.00  0.00     0.006 A 
ATOM      5  C4  UNL d   1      -1.790   2.988   0.335  0.00  0.00    -0.005 A 
ATOM      6  C5  UNL d   1      -1.103   2.363   1.380  0.00  0.00    -0.074 A 
ATOM      7  C6  UNL d   1      -1.838   1.795   2.557  0.00  0.00     0.077 C 
ATOM      8  C7  UNL d   1       0.293   2.255   1.310  0.00  0.00    -0.001 A 
ENDROOT
TORSDOF 0
ENDMDL
