MODEL 1
REMARK minimizedAffinity 13.1902466
REMARK minimizedRMSD -1
REMARK  0 active torsions:
REMARK  status: ('A' for Active; 'I' for Inactive)
ROOT
ATOM      1  C   UNL d   1       2.959   2.191   0.002  0.00  0.00     0.077 C 
ATOM      2  C1  UNL d   1       1.541   2.642   0.185  0.00  0.00    -0.074 A 
ATOM      3  C2  UNL d   1       0.811   3.171  -0.884  0.00  0.00    -0.005 A 
ATOM      4  C3  UNL d   1      -0.511   3.578  -0.701  0.00  0.00     0.006 A 
ATOM      5  C4  UNL d   1      -1.115   3.459   0.552  0.00  0.00    -0.005 A 
ATOM      6  C5  UNL d   1      -0.401   2.931   1.632  0.00  0.00    -0.074 A 
ATOM      7  C6  UNL d   1      -1.039   2.788   2.982  0.00  0.00     0.077 C 
ATOM      8  C7  UNL d   1       0.924   2.519   1.438  0.00  0.00    -0.001 A 
ENDROOT
TORSDOF 0
ENDMDL
