MODEL 1
REMARK minimizedAffinity 1.14338827
REMARK minimizedRMSD -1
REMARK  0 active torsions:
REMARK  status: ('A' for Active; 'I' for Inactive)
ROOT
ATOM      1  C   UNL d   1       1.735  -0.664   0.482  0.00  0.00     0.077 C 
ATOM      2  C1  UNL d   1       1.620   0.831   0.449  0.00  0.00    -0.074 A 
ATOM      3  C2  UNL d   1       2.759   1.641   0.489  0.00  0.00    -0.005 A 
ATOM      4  C3  UNL d   1       2.636   3.030   0.448  0.00  0.00     0.006 A 
ATOM      5  C4  UNL d   1       1.375   3.622   0.367  0.00  0.00    -0.005 A 
ATOM      6  C5  UNL d   1       0.225   2.828   0.325  0.00  0.00    -0.074 A 
ATOM      7  C6  UNL d   1      -1.138   3.448   0.228  0.00  0.00     0.077 C 
ATOM      8  C7  UNL d   1       0.357   1.433   0.360  0.00  0.00    -0.001 A 
ENDROOT
TORSDOF 0
ENDMDL
