MODEL 1
REMARK minimizedAffinity 6.37159252
REMARK minimizedRMSD -1
REMARK  0 active torsions:
REMARK  status: ('A' for Active; 'I' for Inactive)
ROOT
ATOM      1  C   UNL d   1       1.468  -1.877  -0.584  0.00  0.00     0.077 C 
ATOM      2  C1  UNL d   1       0.437  -1.401   0.396  0.00  0.00    -0.074 A 
ATOM      3  C2  UNL d   1      -0.373  -2.310   1.086  0.00  0.00    -0.005 A 
ATOM      4  C3  UNL d   1      -1.321  -1.853   2.001  0.00  0.00     0.006 A 
ATOM      5  C4  UNL d   1      -1.468  -0.486   2.237  0.00  0.00    -0.005 A 
ATOM      6  C5  UNL d   1      -0.667   0.437   1.558  0.00  0.00    -0.074 A 
ATOM      7  C6  UNL d   1      -0.806   1.910   1.806  0.00  0.00     0.077 C 
ATOM      8  C7  UNL d   1       0.288  -0.030   0.644  0.00  0.00    -0.001 A 
ENDROOT
TORSDOF 0
ENDMDL
