MODEL 1
REMARK minimizedAffinity 7.17878675
REMARK minimizedRMSD -1
REMARK  0 active torsions:
REMARK  status: ('A' for Active; 'I' for Inactive)
ROOT
ATOM      1  C   UNL d   1      -2.489  -1.087   3.020  0.00  0.00     0.077 C 
ATOM      2  C1  UNL d   1      -1.339  -0.966   2.064  0.00  0.00    -0.074 A 
ATOM      3  C2  UNL d   1      -0.748  -2.103   1.503  0.00  0.00    -0.005 A 
ATOM      4  C3  UNL d   1       0.314  -1.975   0.608  0.00  0.00     0.006 A 
ATOM      5  C4  UNL d   1       0.795  -0.711   0.265  0.00  0.00    -0.005 A 
ATOM      6  C5  UNL d   1       0.216   0.437   0.815  0.00  0.00    -0.074 A 
ATOM      7  C6  UNL d   1       0.715   1.804   0.449  0.00  0.00     0.077 C 
ATOM      8  C7  UNL d   1      -0.855   0.300   1.708  0.00  0.00    -0.001 A 
ENDROOT
TORSDOF 0
ENDMDL
