MODEL 1
REMARK minimizedAffinity 3.05969524
REMARK minimizedRMSD -1
REMARK  0 active torsions:
REMARK  status: ('A' for Active; 'I' for Inactive)
ROOT
ATOM      1  C   UNL d   1       3.726   2.011   1.826  0.00  0.00     0.077 C 
ATOM      2  C1  UNL d   1       2.305   2.224   1.395  0.00  0.00    -0.074 A 
ATOM      3  C2  UNL d   1       1.957   2.222   0.040  0.00  0.00    -0.005 A 
ATOM      4  C3  UNL d   1       0.630   2.412  -0.345  0.00  0.00     0.006 A 
ATOM      5  C4  UNL d   1      -0.360   2.606   0.618  0.00  0.00    -0.005 A 
ATOM      6  C5  UNL d   1      -0.031   2.610   1.978  0.00  0.00    -0.074 A 
ATOM      7  C6  UNL d   1      -1.085   2.807   3.026  0.00  0.00     0.077 C 
ATOM      8  C7  UNL d   1       1.303   2.412   2.357  0.00  0.00    -0.001 A 
ENDROOT
TORSDOF 0
ENDMDL
