MODEL 1
REMARK minimizedAffinity 0.240553305
REMARK minimizedRMSD -1
REMARK  0 active torsions:
REMARK  status: ('A' for Active; 'I' for Inactive)
ROOT
ATOM      1  C   UNL d   1       5.357  -5.638  -3.385  0.00  0.00     0.077 C 
ATOM      2  C1  UNL d   1       3.894  -5.636  -3.715  0.00  0.00    -0.074 A 
ATOM      3  C2  UNL d   1       3.445  -5.997  -4.989  0.00  0.00    -0.005 A 
ATOM      4  C3  UNL d   1       2.080  -6.000  -5.279  0.00  0.00     0.006 A 
ATOM      5  C4  UNL d   1       1.153  -5.642  -4.299  0.00  0.00    -0.005 A 
ATOM      6  C5  UNL d   1       1.584  -5.279  -3.019  0.00  0.00    -0.074 A 
ATOM      7  C6  UNL d   1       0.600  -4.902  -1.952  0.00  0.00     0.077 C 
ATOM      8  C7  UNL d   1       2.956  -5.286  -2.734  0.00  0.00    -0.001 A 
ENDROOT
TORSDOF 0
ENDMDL
