MODEL 1
REMARK minimizedAffinity 9.90448284
REMARK minimizedRMSD -1
REMARK  0 active torsions:
REMARK  status: ('A' for Active; 'I' for Inactive)
ROOT
ATOM      1  C   UNL d   1       6.000   5.249  -5.217  0.00  0.00     0.077 C 
ATOM      2  C1  UNL d   1       5.208   3.998  -4.972  0.00  0.00    -0.074 A 
ATOM      3  C2  UNL d   1       4.473   3.400  -6.000  0.00  0.00    -0.005 A 
ATOM      4  C3  UNL d   1       3.749   2.232  -5.759  0.00  0.00     0.006 A 
ATOM      5  C4  UNL d   1       3.753   1.652  -4.490  0.00  0.00    -0.005 A 
ATOM      6  C5  UNL d   1       4.483   2.236  -3.450  0.00  0.00    -0.074 A 
ATOM      7  C6  UNL d   1       4.505   1.620  -2.083  0.00  0.00     0.077 C 
ATOM      8  C7  UNL d   1       5.213   3.405  -3.701  0.00  0.00    -0.001 A 
ENDROOT
TORSDOF 0
ENDMDL
