MODEL 1
REMARK minimizedAffinity 1.85939991
REMARK minimizedRMSD -1
REMARK  0 active torsions:
REMARK  status: ('A' for Active; 'I' for Inactive)
ROOT
ATOM      1  C   UNL d   1       4.625   3.055   2.336  0.00  0.00     0.077 C 
ATOM      2  C1  UNL d   1       3.938   3.056   1.003  0.00  0.00    -0.074 A 
ATOM      3  C2  UNL d   1       2.547   3.170   0.911  0.00  0.00    -0.005 A 
ATOM      4  C3  UNL d   1       1.923   3.179  -0.336  0.00  0.00     0.006 A 
ATOM      5  C4  UNL d   1       2.682   3.073  -1.502  0.00  0.00    -0.005 A 
ATOM      6  C5  UNL d   1       4.074   2.959  -1.431  0.00  0.00    -0.074 A 
ATOM      7  C6  UNL d   1       4.905   2.854  -2.675  0.00  0.00     0.077 C 
ATOM      8  C7  UNL d   1       4.694   2.958  -0.174  0.00  0.00    -0.001 A 
ENDROOT
TORSDOF 0
ENDMDL
