MODEL 1
REMARK minimizedAffinity 7.36281109
REMARK minimizedRMSD -1
REMARK  0 active torsions:
REMARK  status: ('A' for Active; 'I' for Inactive)
ROOT
ATOM      1  C   UNL d   1       4.360   0.974   2.935  0.00  0.00     0.077 C 
ATOM      2  C1  UNL d   1       3.376   1.258   1.839  0.00  0.00    -0.074 A 
ATOM      3  C2  UNL d   1       2.005   1.330   2.105  0.00  0.00    -0.005 A 
ATOM      4  C3  UNL d   1       1.103   1.604   1.078  0.00  0.00     0.006 A 
ATOM      5  C4  UNL d   1       1.561   1.809  -0.224  0.00  0.00    -0.005 A 
ATOM      6  C5  UNL d   1       2.929   1.741  -0.509  0.00  0.00    -0.074 A 
ATOM      7  C6  UNL d   1       3.439   1.968  -1.901  0.00  0.00     0.077 C 
ATOM      8  C7  UNL d   1       3.830   1.472   0.530  0.00  0.00    -0.001 A 
ENDROOT
TORSDOF 0
ENDMDL
