MODEL 1
REMARK minimizedAffinity 0.0793919563
REMARK minimizedRMSD -1
REMARK  0 active torsions:
REMARK  status: ('A' for Active; 'I' for Inactive)
ROOT
ATOM      1  C   UNL d   1       0.230   4.262   0.471  0.00  0.00     0.077 C 
ATOM      2  C1  UNL d   1       1.169   3.208   0.977  0.00  0.00    -0.074 A 
ATOM      3  C2  UNL d   1       0.802   1.859   0.977  0.00  0.00    -0.005 A 
ATOM      4  C3  UNL d   1       1.689   0.889   1.443  0.00  0.00     0.006 A 
ATOM      5  C4  UNL d   1       2.950   1.257   1.913  0.00  0.00    -0.005 A 
ATOM      6  C5  UNL d   1       3.335   2.602   1.920  0.00  0.00    -0.074 A 
ATOM      7  C6  UNL d   1       4.690   3.014   2.413  0.00  0.00     0.077 C 
ATOM      8  C7  UNL d   1       2.440   3.570   1.444  0.00  0.00    -0.001 A 
ENDROOT
TORSDOF 0
ENDMDL
