MODEL 1
REMARK minimizedAffinity -0.0192336403
REMARK minimizedRMSD -1
REMARK  0 active torsions:
REMARK  status: ('A' for Active; 'I' for Inactive)
ROOT
ATOM      1  C   UNL d   1       1.245   5.931   3.611  0.00  0.00     0.077 C 
ATOM      2  C1  UNL d   1       2.320   5.137   2.930  0.00  0.00    -0.074 A 
ATOM      3  C2  UNL d   1       3.587   5.687   2.707  0.00  0.00    -0.005 A 
ATOM      4  C3  UNL d   1       4.580   4.934   2.081  0.00  0.00     0.006 A 
ATOM      5  C4  UNL d   1       4.316   3.626   1.672  0.00  0.00    -0.005 A 
ATOM      6  C5  UNL d   1       3.056   3.059   1.887  0.00  0.00    -0.074 A 
ATOM      7  C6  UNL d   1       2.760   1.651   1.463  0.00  0.00     0.077 C 
ATOM      8  C7  UNL d   1       2.066   3.820   2.523  0.00  0.00    -0.001 A 
ENDROOT
TORSDOF 0
ENDMDL
