MODEL 1
REMARK minimizedAffinity 3.47740126
REMARK minimizedRMSD -1
REMARK  0 active torsions:
REMARK  status: ('A' for Active; 'I' for Inactive)
ROOT
ATOM      1  C   UNL d   1      -0.745   3.137   0.693  0.00  0.00     0.077 C 
ATOM      2  C1  UNL d   1       0.608   2.490   0.727  0.00  0.00    -0.074 A 
ATOM      3  C2  UNL d   1       1.760   3.245   0.965  0.00  0.00    -0.005 A 
ATOM      4  C3  UNL d   1       3.010   2.628   1.003  0.00  0.00     0.006 A 
ATOM      5  C4  UNL d   1       3.121   1.252   0.803  0.00  0.00    -0.005 A 
ATOM      6  C5  UNL d   1       1.980   0.480   0.564  0.00  0.00    -0.074 A 
ATOM      7  C6  UNL d   1       2.080  -1.002   0.357  0.00  0.00     0.077 C 
ATOM      8  C7  UNL d   1       0.726   1.106   0.535  0.00  0.00    -0.001 A 
ENDROOT
TORSDOF 0
ENDMDL
