MODEL 1
REMARK minimizedAffinity 4.21142721
REMARK minimizedRMSD -1
REMARK  0 active torsions:
REMARK  status: ('A' for Active; 'I' for Inactive)
ROOT
ATOM      1  C   UNL d   1       3.209   2.851   0.588  0.00  0.00     0.077 C 
ATOM      2  C1  UNL d   1       1.714   2.867   0.707  0.00  0.00    -0.074 A 
ATOM      3  C2  UNL d   1       0.902   2.688  -0.418  0.00  0.00    -0.005 A 
ATOM      4  C3  UNL d   1      -0.487   2.696  -0.291  0.00  0.00     0.006 A 
ATOM      5  C4  UNL d   1      -1.077   2.882   0.960  0.00  0.00    -0.005 A 
ATOM      6  C5  UNL d   1      -0.281   3.061   2.096  0.00  0.00    -0.074 A 
ATOM      7  C6  UNL d   1      -0.899   3.252   3.449  0.00  0.00     0.077 C 
ATOM      8  C7  UNL d   1       1.114   3.045   1.961  0.00  0.00    -0.001 A 
ENDROOT
TORSDOF 0
ENDMDL
