MODEL 1
REMARK minimizedAffinity 1.18623483
REMARK minimizedRMSD -1
REMARK  0 active torsions:
REMARK  status: ('A' for Active; 'I' for Inactive)
ROOT
ATOM      1  C   UNL d   1      -1.584  -1.616   1.710  0.00  0.00     0.078 C 
ATOM      2  C1  UNL d   1      -0.279  -2.121   1.172  0.00  0.00    -0.077 A 
ATOM      3  C2  UNL d   1      -0.197  -3.359   0.522  0.00  0.00    -0.001 A 
ATOM      4  C3  UNL d   1       1.027  -3.821   0.035  0.00  0.00     0.003 A 
ATOM      5  C4  UNL d   1       2.178  -3.052   0.194  0.00  0.00    -0.005 A 
ATOM      6  C5  UNL d   1       2.107  -1.820   0.841  0.00  0.00     0.003 A 
ATOM      7  C6  UNL d   1       0.884  -1.357   1.329  0.00  0.00    -0.001 A 
ENDROOT
TORSDOF 0
ENDMDL
