MODEL 1
REMARK minimizedAffinity 1.5601114
REMARK minimizedRMSD -1
REMARK  0 active torsions:
REMARK  status: ('A' for Active; 'I' for Inactive)
ROOT
ATOM      1  C   UNL d   1       0.297   0.069   3.789  0.00  0.00     0.078 C 
ATOM      2  C1  UNL d   1       0.343  -0.415   2.371  0.00  0.00    -0.077 A 
ATOM      3  C2  UNL d   1      -0.803  -0.921   1.744  0.00  0.00    -0.001 A 
ATOM      4  C3  UNL d   1      -0.743  -1.377   0.426  0.00  0.00     0.003 A 
ATOM      5  C4  UNL d   1       0.460  -1.334  -0.276  0.00  0.00    -0.005 A 
ATOM      6  C5  UNL d   1       1.605  -0.835   0.341  0.00  0.00     0.003 A 
ATOM      7  C6  UNL d   1       1.548  -0.378   1.658  0.00  0.00    -0.001 A 
ENDROOT
TORSDOF 0
ENDMDL
