MODEL 1
REMARK minimizedAffinity 3.13269997
REMARK minimizedRMSD -1
REMARK  0 active torsions:
REMARK  status: ('A' for Active; 'I' for Inactive)
ROOT
ATOM      1  C   UNL d   1       3.298  -0.679   0.214  0.00  0.00     0.078 C 
ATOM      2  C1  UNL d   1       1.875  -1.129   0.349  0.00  0.00    -0.077 A 
ATOM      3  C2  UNL d   1       1.447  -2.343  -0.202  0.00  0.00    -0.001 A 
ATOM      4  C3  UNL d   1       0.116  -2.746  -0.077  0.00  0.00     0.003 A 
ATOM      5  C4  UNL d   1      -0.798  -1.939   0.597  0.00  0.00    -0.005 A 
ATOM      6  C5  UNL d   1      -0.382  -0.728   1.147  0.00  0.00     0.003 A 
ATOM      7  C6  UNL d   1       0.948  -0.324   1.023  0.00  0.00    -0.001 A 
ENDROOT
TORSDOF 0
ENDMDL
