MODEL 1
REMARK minimizedAffinity -2.59424734
REMARK minimizedRMSD -1
REMARK  0 active torsions:
REMARK  status: ('A' for Active; 'I' for Inactive)
ROOT
ATOM      1  C   UNL d   1       1.846  -4.057  -0.264  0.00  0.00     0.078 C 
ATOM      2  C1  UNL d   1       1.085  -2.811   0.079  0.00  0.00    -0.077 A 
ATOM      3  C2  UNL d   1      -0.270  -2.679  -0.249  0.00  0.00    -0.001 A 
ATOM      4  C3  UNL d   1      -0.962  -1.510   0.067  0.00  0.00     0.003 A 
ATOM      5  C4  UNL d   1      -0.308  -0.462   0.712  0.00  0.00    -0.005 A 
ATOM      6  C5  UNL d   1       1.041  -0.582   1.040  0.00  0.00     0.003 A 
ATOM      7  C6  UNL d   1       1.735  -1.751   0.724  0.00  0.00    -0.001 A 
ENDROOT
TORSDOF 0
ENDMDL
