MODEL 1
REMARK minimizedAffinity -0.0308952853
REMARK minimizedRMSD -1
REMARK  0 active torsions:
REMARK  status: ('A' for Active; 'I' for Inactive)
ROOT
ATOM      1  C   UNL d   1       5.999   5.666  -1.131  0.00  0.00     0.078 C 
ATOM      2  C1  UNL d   1       4.937   5.737  -0.074  0.00  0.00    -0.077 A 
ATOM      3  C2  UNL d   1       5.257   5.588   1.281  0.00  0.00    -0.001 A 
ATOM      4  C3  UNL d   1       4.257   5.646   2.253  0.00  0.00     0.003 A 
ATOM      5  C4  UNL d   1       2.930   5.852   1.880  0.00  0.00    -0.005 A 
ATOM      6  C5  UNL d   1       2.602   5.999   0.534  0.00  0.00     0.003 A 
ATOM      7  C6  UNL d   1       3.601   5.941  -0.439  0.00  0.00    -0.001 A 
ENDROOT
TORSDOF 0
ENDMDL
