MODEL 1
REMARK minimizedAffinity 0.154232487
REMARK minimizedRMSD -1
REMARK  0 active torsions:
REMARK  status: ('A' for Active; 'I' for Inactive)
ROOT
ATOM      1  C   UNL d   1      -1.316  -0.113   1.666  0.00  0.00     0.078 C 
ATOM      2  C1  UNL d   1      -0.338  -1.102   1.105  0.00  0.00    -0.077 A 
ATOM      3  C2  UNL d   1       1.017  -0.778   0.968  0.00  0.00    -0.001 A 
ATOM      4  C3  UNL d   1       1.914  -1.705   0.435  0.00  0.00     0.003 A 
ATOM      5  C4  UNL d   1       1.466  -2.962   0.034  0.00  0.00    -0.005 A 
ATOM      6  C5  UNL d   1       0.118  -3.293   0.165  0.00  0.00     0.003 A 
ATOM      7  C6  UNL d   1      -0.780  -2.367   0.698  0.00  0.00    -0.001 A 
ENDROOT
TORSDOF 0
ENDMDL
