MODEL 1
REMARK minimizedAffinity -3.1327436
REMARK minimizedRMSD -1
REMARK  0 active torsions:
REMARK  status: ('A' for Active; 'I' for Inactive)
ROOT
ATOM      1  C   UNL d   1       2.435  -2.969  -0.781  0.00  0.00     0.078 C 
ATOM      2  C1  UNL d   1       1.395  -2.145  -0.083  0.00  0.00    -0.077 A 
ATOM      3  C2  UNL d   1       1.722  -0.915   0.502  0.00  0.00    -0.001 A 
ATOM      4  C3  UNL d   1       0.746  -0.163   1.157  0.00  0.00     0.003 A 
ATOM      5  C4  UNL d   1      -0.564  -0.633   1.234  0.00  0.00    -0.005 A 
ATOM      6  C5  UNL d   1      -0.898  -1.856   0.657  0.00  0.00     0.003 A 
ATOM      7  C6  UNL d   1       0.077  -2.609   0.002  0.00  0.00    -0.001 A 
ENDROOT
TORSDOF 0
ENDMDL
