MODEL 1
REMARK minimizedAffinity -1.82597482
REMARK minimizedRMSD -1
REMARK  0 active torsions:
REMARK  status: ('A' for Active; 'I' for Inactive)
ROOT
ATOM      1  C   UNL d   1       2.440  -0.508   0.831  0.00  0.00     0.078 C 
ATOM      2  C1  UNL d   1       1.291  -1.393   0.447  0.00  0.00    -0.077 A 
ATOM      3  C2  UNL d   1       1.507  -2.709   0.020  0.00  0.00    -0.001 A 
ATOM      4  C3  UNL d   1       0.429  -3.518  -0.344  0.00  0.00     0.003 A 
ATOM      5  C4  UNL d   1      -0.871  -3.021  -0.284  0.00  0.00    -0.005 A 
ATOM      6  C5  UNL d   1      -1.095  -1.712   0.138  0.00  0.00     0.003 A 
ATOM      7  C6  UNL d   1      -0.019  -0.901   0.502  0.00  0.00    -0.001 A 
ENDROOT
TORSDOF 0
ENDMDL
