MODEL 1
REMARK minimizedAffinity -1.31741405
REMARK minimizedRMSD -1
REMARK  0 active torsions:
REMARK  status: ('A' for Active; 'I' for Inactive)
ROOT
ATOM      1  C   UNL d   1      -2.564   1.014   1.400  0.00  0.00     0.078 C 
ATOM      2  C1  UNL d   1      -1.294   0.222   1.310  0.00  0.00    -0.077 A 
ATOM      3  C2  UNL d   1      -0.226   0.470   2.181  0.00  0.00    -0.001 A 
ATOM      4  C3  UNL d   1       0.954  -0.269   2.079  0.00  0.00     0.003 A 
ATOM      5  C4  UNL d   1       1.078  -1.259   1.106  0.00  0.00    -0.005 A 
ATOM      6  C5  UNL d   1       0.021  -1.510   0.233  0.00  0.00     0.003 A 
ATOM      7  C6  UNL d   1      -1.159  -0.773   0.334  0.00  0.00    -0.001 A 
ENDROOT
TORSDOF 0
ENDMDL
