MODEL 1
REMARK minimizedAffinity 0.964889824
REMARK minimizedRMSD -1
REMARK  0 active torsions:
REMARK  status: ('A' for Active; 'I' for Inactive)
ROOT
ATOM      1  C   UNL d   1      -0.692  -0.898   1.711  0.00  0.00     0.078 C 
ATOM      2  C1  UNL d   1       0.314  -1.684   0.923  0.00  0.00    -0.077 A 
ATOM      3  C2  UNL d   1      -0.014  -2.930   0.375  0.00  0.00    -0.001 A 
ATOM      4  C3  UNL d   1       0.935  -3.655  -0.348  0.00  0.00     0.003 A 
ATOM      5  C4  UNL d   1       2.218  -3.143  -0.527  0.00  0.00    -0.005 A 
ATOM      6  C5  UNL d   1       2.555  -1.905   0.017  0.00  0.00     0.003 A 
ATOM      7  C6  UNL d   1       1.607  -1.179   0.740  0.00  0.00    -0.001 A 
ENDROOT
TORSDOF 0
ENDMDL
