MODEL 1
REMARK minimizedAffinity 1.85528862
REMARK minimizedRMSD -1
REMARK  0 active torsions:
REMARK  status: ('A' for Active; 'I' for Inactive)
ROOT
ATOM      1  C   UNL d   1      -2.001   0.398   1.454  0.00  0.00     0.078 C 
ATOM      2  C1  UNL d   1      -0.717  -0.284   1.085  0.00  0.00    -0.077 A 
ATOM      3  C2  UNL d   1       0.486   0.054   1.717  0.00  0.00    -0.001 A 
ATOM      4  C3  UNL d   1       1.675  -0.582   1.357  0.00  0.00     0.003 A 
ATOM      5  C4  UNL d   1       1.673  -1.559   0.363  0.00  0.00    -0.005 A 
ATOM      6  C5  UNL d   1       0.481  -1.900  -0.273  0.00  0.00     0.003 A 
ATOM      7  C6  UNL d   1      -0.709  -1.265   0.086  0.00  0.00    -0.001 A 
ENDROOT
TORSDOF 0
ENDMDL
