MODEL 1
REMARK minimizedAffinity -1.96634424
REMARK minimizedRMSD -1
REMARK  0 active torsions:
REMARK  status: ('A' for Active; 'I' for Inactive)
ROOT
ATOM      1  C   UNL d   1       2.153  -3.790  -0.865  0.00  0.00     0.078 C 
ATOM      2  C1  UNL d   1       1.404  -2.717  -0.133  0.00  0.00    -0.077 A 
ATOM      3  C2  UNL d   1       1.934  -1.427  -0.006  0.00  0.00    -0.001 A 
ATOM      4  C3  UNL d   1       1.230  -0.440   0.687  0.00  0.00     0.003 A 
ATOM      5  C4  UNL d   1      -0.006  -0.733   1.258  0.00  0.00    -0.005 A 
ATOM      6  C5  UNL d   1      -0.540  -2.015   1.139  0.00  0.00     0.003 A 
ATOM      7  C6  UNL d   1       0.162  -3.003   0.446  0.00  0.00    -0.001 A 
ENDROOT
TORSDOF 0
ENDMDL
