MODEL 1
REMARK minimizedAffinity -0.197459593
REMARK minimizedRMSD -1
REMARK  0 active torsions:
REMARK  status: ('A' for Active; 'I' for Inactive)
ROOT
ATOM      1  C   UNL d   1       0.522  -1.092   3.547  0.00  0.00     0.078 C 
ATOM      2  C1  UNL d   1       0.594  -1.387   2.079  0.00  0.00    -0.077 A 
ATOM      3  C2  UNL d   1      -0.089  -2.479   1.528  0.00  0.00    -0.001 A 
ATOM      4  C3  UNL d   1      -0.005  -2.747   0.161  0.00  0.00     0.003 A 
ATOM      5  C4  UNL d   1       0.762  -1.930  -0.667  0.00  0.00    -0.005 A 
ATOM      6  C5  UNL d   1       1.447  -0.843  -0.127  0.00  0.00     0.003 A 
ATOM      7  C6  UNL d   1       1.365  -0.573   1.239  0.00  0.00    -0.001 A 
ENDROOT
TORSDOF 0
ENDMDL
