MODEL 1
REMARK minimizedAffinity 1.32452822
REMARK minimizedRMSD -1
REMARK  0 active torsions:
REMARK  status: ('A' for Active; 'I' for Inactive)
ROOT
ATOM      1  C   UNL d   1       2.095  -3.598  -0.690  0.00  0.00     0.078 C 
ATOM      2  C1  UNL d   1       1.246  -2.488  -0.147  0.00  0.00    -0.077 A 
ATOM      3  C2  UNL d   1       1.677  -1.157  -0.202  0.00  0.00    -0.001 A 
ATOM      4  C3  UNL d   1       0.881  -0.135   0.317  0.00  0.00     0.003 A 
ATOM      5  C4  UNL d   1      -0.351  -0.433   0.895  0.00  0.00    -0.005 A 
ATOM      6  C5  UNL d   1      -0.788  -1.755   0.957  0.00  0.00     0.003 A 
ATOM      7  C6  UNL d   1       0.007  -2.778   0.439  0.00  0.00    -0.001 A 
ENDROOT
TORSDOF 0
ENDMDL
