MODEL 1
REMARK minimizedAffinity -1.26839936
REMARK minimizedRMSD -1
REMARK  0 active torsions:
REMARK  status: ('A' for Active; 'I' for Inactive)
ROOT
ATOM      1  C   UNL d   1      -5.999  -5.684   5.434  0.00  0.00     0.078 C 
ATOM      2  C1  UNL d   1      -5.633  -4.683   4.380  0.00  0.00    -0.077 A 
ATOM      3  C2  UNL d   1      -5.628  -5.033   3.024  0.00  0.00    -0.001 A 
ATOM      4  C3  UNL d   1      -5.275  -4.094   2.053  0.00  0.00     0.003 A 
ATOM      5  C4  UNL d   1      -4.923  -2.799   2.428  0.00  0.00    -0.005 A 
ATOM      6  C5  UNL d   1      -4.923  -2.442   3.775  0.00  0.00     0.003 A 
ATOM      7  C6  UNL d   1      -5.275  -3.380   4.747  0.00  0.00    -0.001 A 
ENDROOT
TORSDOF 0
ENDMDL
