MODEL 1
REMARK minimizedAffinity 0.26783675
REMARK minimizedRMSD -1
REMARK  0 active torsions:
REMARK  status: ('A' for Active; 'I' for Inactive)
ROOT
ATOM      1  C   UNL d   1       2.096  -3.885  -0.408  0.00  0.00     0.078 C 
ATOM      2  C1  UNL d   1       1.321  -2.662  -0.018  0.00  0.00    -0.077 A 
ATOM      3  C2  UNL d   1       1.972  -1.516   0.456  0.00  0.00    -0.001 A 
ATOM      4  C3  UNL d   1       1.237  -0.388   0.825  0.00  0.00     0.003 A 
ATOM      5  C4  UNL d   1      -0.153  -0.395   0.724  0.00  0.00    -0.005 A 
ATOM      6  C5  UNL d   1      -0.809  -1.531   0.255  0.00  0.00     0.003 A 
ATOM      7  C6  UNL d   1      -0.076  -2.660  -0.114  0.00  0.00    -0.001 A 
ENDROOT
TORSDOF 0
ENDMDL
