MODEL 1
REMARK minimizedAffinity 2.67314577
REMARK minimizedRMSD -1
REMARK  1 active torsions:
REMARK  status: ('A' for Active; 'I' for Inactive)
REMARK    1  A    between atoms: C1_2  and  C2_3 
ROOT
ATOM      1  C2  UNL d   1      -5.869   1.419   3.352  0.00  0.00    -0.076 A 
ATOM      2  C3  UNL d   1      -5.753   0.984   4.684  0.00  0.00     0.004 A 
ATOM      3  C4  UNL d   1      -5.605   1.896   5.727  0.00  0.00    -0.003 A 
ATOM      4  C5  UNL d   1      -5.571   3.260   5.455  0.00  0.00     0.000 A 
ATOM      5  C6  UNL d   1      -5.702   3.710   4.142  0.00  0.00     0.000 A 
ATOM      6  C7  UNL d   1      -5.868   2.804   3.081  0.00  0.00    -0.073 A 
ATOM      7  C8  UNL d   1      -5.999   3.345   1.683  0.00  0.00     0.078 C 
ENDROOT
BRANCH   1   8
ATOM      8  C1  UNL d   1      -6.000   0.382   2.260  0.00  0.00     0.053 C 
ATOM      9  C   UNL d   1      -4.711  -0.393   2.035  0.00  0.00     0.018 C 
ENDBRANCH   1   8
TORSDOF 1
ENDMDL
