MODEL 1
REMARK minimizedAffinity 7.6154232
REMARK minimizedRMSD -1
REMARK  1 active torsions:
REMARK  status: ('A' for Active; 'I' for Inactive)
REMARK    1  A    between atoms: C1_2  and  C2_3 
ROOT
ATOM      1  C2  UNL d   1      -4.363   2.259   4.726  0.00  0.00    -0.076 A 
ATOM      2  C3  UNL d   1      -4.080   1.530   3.558  0.00  0.00     0.004 A 
ATOM      3  C4  UNL d   1      -4.746   1.803   2.364  0.00  0.00    -0.003 A 
ATOM      4  C5  UNL d   1      -5.703   2.810   2.318  0.00  0.00     0.000 A 
ATOM      5  C6  UNL d   1      -5.983   3.555   3.463  0.00  0.00     0.000 A 
ATOM      6  C7  UNL d   1      -5.310   3.304   4.671  0.00  0.00    -0.073 A 
ATOM      7  C8  UNL d   1      -5.656   4.134   5.877  0.00  0.00     0.078 C 
ENDROOT
BRANCH   1   8
ATOM      8  C1  UNL d   1      -3.629   1.901   5.999  0.00  0.00     0.053 C 
ATOM      9  C   UNL d   1      -2.188   2.388   5.998  0.00  0.00     0.018 C 
ENDBRANCH   1   8
TORSDOF 1
ENDMDL
