MODEL 1
REMARK minimizedAffinity 3.53386831
REMARK minimizedRMSD -1
REMARK  1 active torsions:
REMARK  status: ('A' for Active; 'I' for Inactive)
REMARK    1  A    between atoms: C1_2  and  C2_3 
ROOT
ATOM      1  C2  UNL d   1      -0.973   1.008   2.335  0.00  0.00    -0.076 A 
ATOM      2  C3  UNL d   1      -2.133   1.687   2.744  0.00  0.00     0.004 A 
ATOM      3  C4  UNL d   1      -3.294   1.653   1.973  0.00  0.00    -0.003 A 
ATOM      4  C5  UNL d   1      -3.313   0.938   0.780  0.00  0.00     0.000 A 
ATOM      5  C6  UNL d   1      -2.176   0.243   0.368  0.00  0.00     0.000 A 
ATOM      6  C7  UNL d   1      -1.003   0.254   1.142  0.00  0.00    -0.073 A 
ATOM      7  C8  UNL d   1       0.196  -0.508   0.647  0.00  0.00     0.078 C 
ENDROOT
BRANCH   1   8
ATOM      8  C1  UNL d   1       0.265   1.103   3.199  0.00  0.00     0.053 C 
ATOM      9  C   UNL d   1       0.498   2.510   3.728  0.00  0.00     0.018 C 
ENDBRANCH   1   8
TORSDOF 1
ENDMDL
