MODEL 1
REMARK minimizedAffinity 18.1958408
REMARK minimizedRMSD -1
REMARK  1 active torsions:
REMARK  status: ('A' for Active; 'I' for Inactive)
REMARK    1  A    between atoms: C1_2  and  C2_3 
ROOT
ATOM      1  C2  UNL d   1       3.804  -0.310   1.642  0.00  0.00    -0.076 A 
ATOM      2  C3  UNL d   1       2.736  -0.857   2.375  0.00  0.00     0.004 A 
ATOM      3  C4  UNL d   1       1.436  -0.384   2.210  0.00  0.00    -0.003 A 
ATOM      4  C5  UNL d   1       1.181   0.644   1.308  0.00  0.00     0.000 A 
ATOM      5  C6  UNL d   1       2.225   1.186   0.559  0.00  0.00     0.000 A 
ATOM      6  C7  UNL d   1       3.540   0.710   0.702  0.00  0.00    -0.073 A 
ATOM      7  C8  UNL d   1       4.628   1.335  -0.126  0.00  0.00     0.078 C 
ENDROOT
BRANCH   1   8
ATOM      8  C1  UNL d   1       5.197  -0.845   1.883  0.00  0.00     0.053 C 
ATOM      9  C   UNL d   1       5.948  -0.057   2.945  0.00  0.00     0.018 C 
ENDBRANCH   1   8
TORSDOF 1
ENDMDL
