MODEL 1
REMARK minimizedAffinity 5.97839117
REMARK minimizedRMSD -1
REMARK  1 active torsions:
REMARK  status: ('A' for Active; 'I' for Inactive)
REMARK    1  A    between atoms: C1_2  and  C2_3 
ROOT
ATOM      1  C2  UNL d   1      -1.886   0.841   1.443  0.00  0.00    -0.076 A 
ATOM      2  C3  UNL d   1      -0.858   1.543   2.095  0.00  0.00     0.004 A 
ATOM      3  C4  UNL d   1       0.420   0.999   2.213  0.00  0.00    -0.003 A 
ATOM      4  C5  UNL d   1       0.690  -0.257   1.681  0.00  0.00     0.000 A 
ATOM      5  C6  UNL d   1      -0.313  -0.961   1.016  0.00  0.00     0.000 A 
ATOM      6  C7  UNL d   1      -1.602  -0.419   0.874  0.00  0.00    -0.073 A 
ATOM      7  C8  UNL d   1      -2.648  -1.224   0.152  0.00  0.00     0.078 C 
ENDROOT
BRANCH   1   8
ATOM      8  C1  UNL d   1      -3.259   1.470   1.370  0.00  0.00     0.053 C 
ATOM      9  C   UNL d   1      -3.945   1.530   2.726  0.00  0.00     0.018 C 
ENDBRANCH   1   8
TORSDOF 1
ENDMDL
