MODEL 1
REMARK minimizedAffinity 4.05176067
REMARK minimizedRMSD -1
REMARK  1 active torsions:
REMARK  status: ('A' for Active; 'I' for Inactive)
REMARK    1  A    between atoms: C1_2  and  C2_3 
ROOT
ATOM      1  C2  UNL d   1      -4.124   0.446   4.736  0.00  0.00    -0.076 A 
ATOM      2  C3  UNL d   1      -3.281  -0.005   3.705  0.00  0.00     0.004 A 
ATOM      3  C4  UNL d   1      -3.169   0.703   2.510  0.00  0.00    -0.003 A 
ATOM      4  C5  UNL d   1      -3.897   1.874   2.326  0.00  0.00     0.000 A 
ATOM      5  C6  UNL d   1      -4.724   2.344   3.345  0.00  0.00     0.000 A 
ATOM      6  C7  UNL d   1      -4.837   1.651   4.563  0.00  0.00    -0.073 A 
ATOM      7  C8  UNL d   1      -5.748   2.201   5.625  0.00  0.00     0.078 C 
ENDROOT
BRANCH   1   8
ATOM      8  C1  UNL d   1      -4.226  -0.378   6.000  0.00  0.00     0.053 C 
ATOM      9  C   UNL d   1      -5.260  -1.488   5.890  0.00  0.00     0.018 C 
ENDBRANCH   1   8
TORSDOF 1
ENDMDL
