MODEL 1
REMARK minimizedAffinity 10.8050709
REMARK minimizedRMSD -1
REMARK  1 active torsions:
REMARK  status: ('A' for Active; 'I' for Inactive)
REMARK    1  A    between atoms: C1_2  and  C2_3 
ROOT
ATOM      1  C2  UNL d   1      -2.838   0.849   1.507  0.00  0.00    -0.076 A 
ATOM      2  C3  UNL d   1      -3.708   0.262   0.573  0.00  0.00     0.004 A 
ATOM      3  C4  UNL d   1      -3.263  -0.734  -0.295  0.00  0.00    -0.003 A 
ATOM      4  C5  UNL d   1      -1.941  -1.160  -0.242  0.00  0.00     0.000 A 
ATOM      5  C6  UNL d   1      -1.068  -0.601   0.691  0.00  0.00     0.000 A 
ATOM      6  C7  UNL d   1      -1.505   0.392   1.584  0.00  0.00    -0.073 A 
ATOM      7  C8  UNL d   1      -0.519   0.965   2.566  0.00  0.00     0.078 C 
ENDROOT
BRANCH   1   8
ATOM      8  C1  UNL d   1      -3.370   1.943   2.404  0.00  0.00     0.053 C 
ATOM      9  C   UNL d   1      -4.725   1.599   3.003  0.00  0.00     0.018 C 
ENDBRANCH   1   8
TORSDOF 1
ENDMDL
