MODEL 1
REMARK minimizedAffinity 5.19854259
REMARK minimizedRMSD -1
REMARK  1 active torsions:
REMARK  status: ('A' for Active; 'I' for Inactive)
REMARK    1  A    between atoms: C1_2  and  C2_3 
ROOT
ATOM      1  C2  UNL d   1      -2.610  -0.478   0.464  0.00  0.00    -0.076 A 
ATOM      2  C3  UNL d   1      -3.964  -0.420   0.837  0.00  0.00     0.004 A 
ATOM      3  C4  UNL d   1      -4.456   0.647   1.588  0.00  0.00    -0.003 A 
ATOM      4  C5  UNL d   1      -3.602   1.674   1.976  0.00  0.00     0.000 A 
ATOM      5  C6  UNL d   1      -2.260   1.641   1.599  0.00  0.00     0.000 A 
ATOM      6  C7  UNL d   1      -1.752   0.581   0.829  0.00  0.00    -0.073 A 
ATOM      7  C8  UNL d   1      -0.295   0.594   0.455  0.00  0.00     0.078 C 
ENDROOT
BRANCH   1   8
ATOM      8  C1  UNL d   1      -2.128  -1.673  -0.327  0.00  0.00     0.053 C 
ATOM      9  C   UNL d   1      -1.679  -2.819   0.566  0.00  0.00     0.018 C 
ENDBRANCH   1   8
TORSDOF 1
ENDMDL
