MODEL 1
REMARK minimizedAffinity 5.27418041
REMARK minimizedRMSD -1
REMARK  1 active torsions:
REMARK  status: ('A' for Active; 'I' for Inactive)
REMARK    1  A    between atoms: C1_2  and  C2_3 
ROOT
ATOM      1  C2  UNL d   1       0.191   0.818   1.300  0.00  0.00    -0.076 A 
ATOM      2  C3  UNL d   1       0.858   1.626   2.237  0.00  0.00     0.004 A 
ATOM      3  C4  UNL d   1       0.156   2.290   3.241  0.00  0.00    -0.003 A 
ATOM      4  C5  UNL d   1      -1.226   2.157   3.325  0.00  0.00     0.000 A 
ATOM      5  C6  UNL d   1      -1.902   1.345   2.414  0.00  0.00     0.000 A 
ATOM      6  C7  UNL d   1      -1.207   0.656   1.406  0.00  0.00    -0.073 A 
ATOM      7  C8  UNL d   1      -1.988  -0.201   0.447  0.00  0.00     0.078 C 
ENDROOT
BRANCH   1   8
ATOM      8  C1  UNL d   1       1.002   0.144   0.217  0.00  0.00     0.053 C 
ATOM      9  C   UNL d   1       2.216   0.962  -0.197  0.00  0.00     0.018 C 
ENDBRANCH   1   8
TORSDOF 1
ENDMDL
