MODEL 1
REMARK minimizedAffinity 4.24138975
REMARK minimizedRMSD -1
REMARK  1 active torsions:
REMARK  status: ('A' for Active; 'I' for Inactive)
REMARK    1  A    between atoms: C1_2  and  C2_3 
ROOT
ATOM      1  C2  UNL d   1      -1.028   0.638   1.496  0.00  0.00    -0.076 A 
ATOM      2  C3  UNL d   1       0.321   0.688   1.886  0.00  0.00     0.004 A 
ATOM      3  C4  UNL d   1       0.760   1.607   2.837  0.00  0.00    -0.003 A 
ATOM      4  C5  UNL d   1      -0.144   2.492   3.415  0.00  0.00     0.000 A 
ATOM      5  C6  UNL d   1      -1.490   2.445   3.053  0.00  0.00     0.000 A 
ATOM      6  C7  UNL d   1      -1.952   1.513   2.107  0.00  0.00    -0.073 A 
ATOM      7  C8  UNL d   1      -3.413   1.511   1.750  0.00  0.00     0.078 C 
ENDROOT
BRANCH   1   8
ATOM      8  C1  UNL d   1      -1.441  -0.362   0.440  0.00  0.00     0.053 C 
ATOM      9  C   UNL d   1      -1.507  -1.783   0.977  0.00  0.00     0.018 C 
ENDBRANCH   1   8
TORSDOF 1
ENDMDL
