MODEL 1
REMARK minimizedAffinity 7.75628471
REMARK minimizedRMSD -1
REMARK  1 active torsions:
REMARK  status: ('A' for Active; 'I' for Inactive)
REMARK    1  A    between atoms: C1_2  and  C2_3 
ROOT
ATOM      1  C2  UNL d   1      -0.256   0.568   1.371  0.00  0.00    -0.076 A 
ATOM      2  C3  UNL d   1       0.190   1.238   2.523  0.00  0.00     0.004 A 
ATOM      3  C4  UNL d   1      -0.689   1.990   3.302  0.00  0.00    -0.003 A 
ATOM      4  C5  UNL d   1      -2.028   2.083   2.941  0.00  0.00     0.000 A 
ATOM      5  C6  UNL d   1      -2.492   1.410   1.811  0.00  0.00     0.000 A 
ATOM      6  C7  UNL d   1      -1.623   0.635   1.024  0.00  0.00    -0.073 A 
ATOM      7  C8  UNL d   1      -2.175  -0.064  -0.188  0.00  0.00     0.078 C 
ENDROOT
BRANCH   1   8
ATOM      8  C1  UNL d   1       0.748  -0.209   0.550  0.00  0.00     0.053 C 
ATOM      9  C   UNL d   1       1.906   0.655   0.075  0.00  0.00     0.018 C 
ENDBRANCH   1   8
TORSDOF 1
ENDMDL
