MODEL 1
REMARK minimizedAffinity 4.9967227
REMARK minimizedRMSD -1
REMARK  1 active torsions:
REMARK  status: ('A' for Active; 'I' for Inactive)
REMARK    1  A    between atoms: C1_2  and  C2_3 
ROOT
ATOM      1  C2  UNL d   1      -0.770   0.610   1.296  0.00  0.00    -0.076 A 
ATOM      2  C3  UNL d   1      -1.781   1.189   2.082  0.00  0.00     0.004 A 
ATOM      3  C4  UNL d   1      -1.470   2.074   3.113  0.00  0.00    -0.003 A 
ATOM      4  C5  UNL d   1      -0.142   2.395   3.373  0.00  0.00     0.000 A 
ATOM      5  C6  UNL d   1       0.873   1.844   2.592  0.00  0.00     0.000 A 
ATOM      6  C7  UNL d   1       0.575   0.963   1.539  0.00  0.00    -0.073 A 
ATOM      7  C8  UNL d   1       1.709   0.393   0.732  0.00  0.00     0.078 C 
ENDROOT
BRANCH   1   8
ATOM      8  C1  UNL d   1      -1.166  -0.364   0.210  0.00  0.00     0.053 C 
ATOM      9  C   UNL d   1      -1.532  -1.734   0.760  0.00  0.00     0.018 C 
ENDBRANCH   1   8
TORSDOF 1
ENDMDL
