MODEL 1
REMARK minimizedAffinity 9.4408865
REMARK minimizedRMSD -1
REMARK  1 active torsions:
REMARK  status: ('A' for Active; 'I' for Inactive)
REMARK    1  A    between atoms: C1_2  and  C2_3 
ROOT
ATOM      1  C2  UNL d   1      -0.620   1.281   2.621  0.00  0.00    -0.076 A 
ATOM      2  C3  UNL d   1      -1.923   1.787   2.764  0.00  0.00     0.004 A 
ATOM      3  C4  UNL d   1      -2.884   1.585   1.775  0.00  0.00    -0.003 A 
ATOM      4  C5  UNL d   1      -2.558   0.873   0.627  0.00  0.00     0.000 A 
ATOM      5  C6  UNL d   1      -1.275   0.348   0.476  0.00  0.00     0.000 A 
ATOM      6  C7  UNL d   1      -0.299   0.529   1.470  0.00  0.00    -0.073 A 
ATOM      7  C8  UNL d   1       1.071  -0.054   1.252  0.00  0.00     0.078 C 
ENDROOT
BRANCH   1   8
ATOM      8  C1  UNL d   1       0.389   1.555   3.714  0.00  0.00     0.053 C 
ATOM      9  C   UNL d   1       0.416   3.018   4.128  0.00  0.00     0.018 C 
ENDBRANCH   1   8
TORSDOF 1
ENDMDL
