MODEL 1
REMARK minimizedAffinity -5.42220736
REMARK minimizedRMSD -1
REMARK  0 active torsions:
REMARK  status: ('A' for Active; 'I' for Inactive)
ROOT
ATOM      1  N1  IND d   1       0.051  -0.172  -0.666  0.00  0.00    -0.196 N 
ATOM      2  C2  IND d   1      -1.147  -0.298  -0.019  0.00  0.00     0.054 A 
ATOM      3  C3  IND d   1      -1.210   0.560   1.024  0.00  0.00    -0.031 A 
ATOM      4  C4  IND d   1       0.493   2.331   1.791  0.00  0.00     0.051 A 
ATOM      5  C5  IND d   1       1.753   2.796   1.536  0.00  0.00    -0.031 A 
ATOM      6  C6  IND d   1       2.524   2.287   0.511  0.00  0.00     0.015 A 
ATOM      7  C7  IND d   1       2.057   1.297  -0.308  0.00  0.00    -0.016 A 
ATOM      8  C8  IND d   1       0.782   0.818  -0.047  0.00  0.00    -0.047 A 
ATOM      9  C9  IND d   1       0.011   1.301   1.019  0.00  0.00    -0.096 A 
ATOM     10  HN1 IND d   1       0.305  -0.633  -1.346  0.00  0.00     0.298 HD
ENDROOT
TORSDOF 0
ENDMDL
