MODEL 1
REMARK minimizedAffinity -4.38183975
REMARK minimizedRMSD -1
REMARK  0 active torsions:
REMARK  status: ('A' for Active; 'I' for Inactive)
ROOT
ATOM      1  N1  IND d   1       0.706  -0.339  -1.647  0.00  0.00    -0.196 N 
ATOM      2  C2  IND d   1      -0.457  -1.056  -1.687  0.00  0.00     0.054 A 
ATOM      3  C3  IND d   1      -1.287  -0.663  -0.695  0.00  0.00    -0.031 A 
ATOM      4  C4  IND d   1      -0.982   1.210   1.046  0.00  0.00     0.051 A 
ATOM      5  C5  IND d   1      -0.069   2.118   1.502  0.00  0.00    -0.031 A 
ATOM      6  C6  IND d   1       1.174   2.259   0.918  0.00  0.00     0.015 A 
ATOM      7  C7  IND d   1       1.546   1.500  -0.156  0.00  0.00    -0.016 A 
ATOM      8  C8  IND d   1       0.624   0.572  -0.617  0.00  0.00    -0.047 A 
ATOM      9  C9  IND d   1      -0.622   0.395  -0.002  0.00  0.00    -0.096 A 
ATOM     10  HN1 IND d   1       1.376  -0.440  -2.177  0.00  0.00     0.298 HD
ENDROOT
TORSDOF 0
ENDMDL
