MODEL 1
REMARK minimizedAffinity -4.31332588
REMARK minimizedRMSD -1
REMARK  0 active torsions:
REMARK  status: ('A' for Active; 'I' for Inactive)
ROOT
ATOM      1  N1  IND d   1       0.385   0.165  -1.426  0.00  0.00    -0.196 N 
ATOM      2  C2  IND d   1      -0.287  -0.941  -0.984  0.00  0.00     0.054 A 
ATOM      3  C3  IND d   1      -0.492  -0.864   0.351  0.00  0.00    -0.031 A 
ATOM      4  C4  IND d   1       0.099   1.030   1.990  0.00  0.00     0.051 A 
ATOM      5  C5  IND d   1       0.751   2.229   2.061  0.00  0.00    -0.031 A 
ATOM      6  C6  IND d   1       1.323   2.814   0.950  0.00  0.00     0.015 A 
ATOM      7  C7  IND d   1       1.255   2.225  -0.281  0.00  0.00    -0.016 A 
ATOM      8  C8  IND d   1       0.600   1.004  -0.355  0.00  0.00    -0.047 A 
ATOM      9  C9  IND d   1       0.054   0.385   0.777  0.00  0.00    -0.096 A 
ATOM     10  HN1 IND d   1       0.631   0.311  -2.236  0.00  0.00     0.298 HD
ENDROOT
TORSDOF 0
ENDMDL
