MODEL 1
REMARK minimizedAffinity -1.39888203
REMARK minimizedRMSD -1
REMARK  0 active torsions:
REMARK  status: ('A' for Active; 'I' for Inactive)
ROOT
ATOM      1  N1  IND d   1      -2.912  -0.514  -1.254  0.00  0.00    -0.196 N 
ATOM      2  C2  IND d   1      -2.666  -1.310  -2.338  0.00  0.00     0.054 A 
ATOM      3  C3  IND d   1      -1.354  -1.630  -2.399  0.00  0.00    -0.031 A 
ATOM      4  C4  IND d   1       0.550  -1.041  -0.770  0.00  0.00     0.051 A 
ATOM      5  C5  IND d   1       0.822  -0.304   0.349  0.00  0.00    -0.031 A 
ATOM      6  C6  IND d   1      -0.158   0.413   1.005  0.00  0.00     0.015 A 
ATOM      7  C7  IND d   1      -1.454   0.410   0.572  0.00  0.00    -0.016 A 
ATOM      8  C8  IND d   1      -1.732  -0.331  -0.568  0.00  0.00    -0.047 A 
ATOM      9  C9  IND d   1      -0.733  -1.027  -1.263  0.00  0.00    -0.096 A 
ATOM     10  HN1 IND d   1      -3.676  -0.184  -1.037  0.00  0.00     0.298 HD
ENDROOT
TORSDOF 0
ENDMDL
