MODEL 1
REMARK minimizedAffinity -3.58544946
REMARK minimizedRMSD -1
REMARK  0 active torsions:
REMARK  status: ('A' for Active; 'I' for Inactive)
ROOT
ATOM      1  N1  IND d   1      -1.028  -0.441   1.064  0.00  0.00    -0.196 N 
ATOM      2  C2  IND d   1      -0.947  -1.194  -0.074  0.00  0.00     0.054 A 
ATOM      3  C3  IND d   1      -0.114  -0.612  -0.966  0.00  0.00    -0.031 A 
ATOM      4  C4  IND d   1       1.301   1.525  -0.728  0.00  0.00     0.051 A 
ATOM      5  C5  IND d   1       1.534   2.575   0.116  0.00  0.00    -0.031 A 
ATOM      6  C6  IND d   1       0.914   2.673   1.345  0.00  0.00     0.015 A 
ATOM      7  C7  IND d   1       0.043   1.716   1.782  0.00  0.00    -0.016 A 
ATOM      8  C8  IND d   1      -0.201   0.652   0.925  0.00  0.00    -0.047 A 
ATOM      9  C9  IND d   1       0.392   0.569  -0.341  0.00  0.00    -0.096 A 
ATOM     10  HN1 IND d   1      -1.514  -0.619   1.750  0.00  0.00     0.298 HD
ENDROOT
TORSDOF 0
ENDMDL
