MODEL 1
REMARK minimizedAffinity -3.25003481
REMARK minimizedRMSD -1
REMARK  0 active torsions:
REMARK  status: ('A' for Active; 'I' for Inactive)
ROOT
ATOM      1  N1  IND d   1       1.824  -0.376  -0.761  0.00  0.00    -0.196 N 
ATOM      2  C2  IND d   1       1.122  -1.463  -1.200  0.00  0.00     0.054 A 
ATOM      3  C3  IND d   1      -0.080  -1.527  -0.585  0.00  0.00    -0.031 A 
ATOM      4  C4  IND d   1      -1.144   0.104   1.099  0.00  0.00     0.051 A 
ATOM      5  C5  IND d   1      -0.872   1.226   1.831  0.00  0.00    -0.031 A 
ATOM      6  C6  IND d   1       0.336   1.886   1.732  0.00  0.00     0.015 A 
ATOM      7  C7  IND d   1       1.317   1.454   0.886  0.00  0.00    -0.016 A 
ATOM      8  C8  IND d   1       1.047   0.311   0.146  0.00  0.00    -0.047 A 
ATOM      9  C9  IND d   1      -0.160  -0.388   0.274  0.00  0.00    -0.096 A 
ATOM     10  HN1 IND d   1       2.618  -0.157  -1.010  0.00  0.00     0.298 HD
ENDROOT
TORSDOF 0
ENDMDL
