MODEL 1
REMARK minimizedAffinity -3.21795917
REMARK minimizedRMSD -1
REMARK  0 active torsions:
REMARK  status: ('A' for Active; 'I' for Inactive)
ROOT
ATOM      1  N1  IND d   1       1.515  -0.937  -0.805  0.00  0.00    -0.196 N 
ATOM      2  C2  IND d   1       0.552  -1.891  -0.982  0.00  0.00     0.054 A 
ATOM      3  C3  IND d   1      -0.512  -1.638  -0.188  0.00  0.00    -0.031 A 
ATOM      4  C4  IND d   1      -0.931   0.341   1.405  0.00  0.00     0.051 A 
ATOM      5  C5  IND d   1      -0.325   1.448   1.930  0.00  0.00    -0.031 A 
ATOM      6  C6  IND d   1       0.950   1.826   1.561  0.00  0.00     0.015 A 
ATOM      7  C7  IND d   1       1.665   1.114   0.640  0.00  0.00    -0.016 A 
ATOM      8  C8  IND d   1       1.056  -0.015   0.110  0.00  0.00    -0.047 A 
ATOM      9  C9  IND d   1      -0.221  -0.427   0.513  0.00  0.00    -0.096 A 
ATOM     10  HN1 IND d   1       2.279  -0.916  -1.199  0.00  0.00     0.298 HD
ENDROOT
TORSDOF 0
ENDMDL
