MODEL 1
REMARK minimizedAffinity -5.23058558
REMARK minimizedRMSD -1
REMARK  0 active torsions:
REMARK  status: ('A' for Active; 'I' for Inactive)
ROOT
ATOM      1  N1  IND d   1       0.205  -1.150  -0.572  0.00  0.00    -0.196 N 
ATOM      2  C2  IND d   1      -1.015  -1.064   0.039  0.00  0.00     0.054 A 
ATOM      3  C3  IND d   1      -1.070   0.033   0.828  0.00  0.00    -0.031 A 
ATOM      4  C4  IND d   1       0.688   1.878   1.188  0.00  0.00     0.051 A 
ATOM      5  C5  IND d   1       1.974   2.217   0.873  0.00  0.00    -0.031 A 
ATOM      6  C6  IND d   1       2.750   1.437   0.041  0.00  0.00     0.015 A 
ATOM      7  C7  IND d   1       2.264   0.289  -0.518  0.00  0.00    -0.016 A 
ATOM      8  C8  IND d   1       0.961  -0.062  -0.195  0.00  0.00    -0.047 A 
ATOM      9  C9  IND d   1       0.182   0.704   0.683  0.00  0.00    -0.096 A 
ATOM     10  HN1 IND d   1       0.457  -1.778  -1.102  0.00  0.00     0.298 HD
ENDROOT
TORSDOF 0
ENDMDL
