MODEL 1
REMARK minimizedAffinity -1.25726008
REMARK minimizedRMSD -1
REMARK  0 active torsions:
REMARK  status: ('A' for Active; 'I' for Inactive)
ROOT
ATOM      1  N1  IND d   1      -1.322   1.307   0.031  0.00  0.00    -0.196 N 
ATOM      2  C2  IND d   1      -0.720   0.986   1.216  0.00  0.00     0.054 A 
ATOM      3  C3  IND d   1      -0.218  -0.269   1.163  0.00  0.00    -0.031 A 
ATOM      4  C4  IND d   1      -0.180  -1.935  -0.799  0.00  0.00     0.051 A 
ATOM      5  C5  IND d   1      -0.638  -2.106  -2.075  0.00  0.00    -0.031 A 
ATOM      6  C6  IND d   1      -1.359  -1.128  -2.729  0.00  0.00     0.015 A 
ATOM      7  C7  IND d   1      -1.641   0.068  -2.132  0.00  0.00    -0.016 A 
ATOM      8  C8  IND d   1      -1.184   0.243  -0.834  0.00  0.00    -0.047 A 
ATOM      9  C9  IND d   1      -0.488  -0.762  -0.150  0.00  0.00    -0.096 A 
ATOM     10  HN1 IND d   1      -1.719   2.049  -0.145  0.00  0.00     0.298 HD
ENDROOT
TORSDOF 0
ENDMDL
