MODEL 1
REMARK minimizedAffinity -0.541528225
REMARK minimizedRMSD -1
REMARK  0 active torsions:
REMARK  status: ('A' for Active; 'I' for Inactive)
ROOT
ATOM      1  N1  IND d   1      -0.316  -0.437  -0.328  0.00  0.00    -0.196 N 
ATOM      2  C2  IND d   1      -1.421  -0.576   0.464  0.00  0.00     0.054 A 
ATOM      3  C3  IND d   1      -1.363   0.281   1.509  0.00  0.00    -0.031 A 
ATOM      4  C4  IND d   1       0.405   2.070   2.059  0.00  0.00     0.051 A 
ATOM      5  C5  IND d   1       1.617   2.549   1.648  0.00  0.00    -0.031 A 
ATOM      6  C6  IND d   1       2.259   2.048   0.534  0.00  0.00     0.015 A 
ATOM      7  C7  IND d   1       1.704   1.054  -0.221  0.00  0.00    -0.016 A 
ATOM      8  C8  IND d   1       0.477   0.561   0.197  0.00  0.00    -0.047 A 
ATOM      9  C9  IND d   1      -0.160   1.036   1.351  0.00  0.00    -0.096 A 
ATOM     10  HN1 IND d   1      -0.144  -0.895  -1.034  0.00  0.00     0.298 HD
ENDROOT
TORSDOF 0
ENDMDL
