MODEL 1
REMARK minimizedAffinity -4.73480797
REMARK minimizedRMSD -1
REMARK  0 active torsions:
REMARK  status: ('A' for Active; 'I' for Inactive)
ROOT
ATOM      1  N1  IND d   1       2.743   0.067  -0.419  0.00  0.00    -0.196 N 
ATOM      2  C2  IND d   1       3.687   0.985  -0.052  0.00  0.00     0.054 A 
ATOM      3  C3  IND d   1       3.144   1.921   0.758  0.00  0.00    -0.031 A 
ATOM      4  C4  IND d   1       0.752   2.084   1.694  0.00  0.00     0.051 A 
ATOM      5  C5  IND d   1      -0.479   1.496   1.613  0.00  0.00    -0.031 A 
ATOM      6  C6  IND d   1      -0.703   0.377   0.837  0.00  0.00     0.015 A 
ATOM      7  C7  IND d   1       0.304  -0.205   0.119  0.00  0.00    -0.016 A 
ATOM      8  C8  IND d   1       1.553   0.394   0.193  0.00  0.00    -0.047 A 
ATOM      9  C9  IND d   1       1.776   1.555   0.946  0.00  0.00    -0.096 A 
ATOM     10  HN1 IND d   1       2.871  -0.602  -0.943  0.00  0.00     0.298 HD
ENDROOT
TORSDOF 0
ENDMDL
