MODEL 1
REMARK minimizedAffinity 0.702426732
REMARK minimizedRMSD -1
REMARK  0 active torsions:
REMARK  status: ('A' for Active; 'I' for Inactive)
ROOT
ATOM      1  N1  IND d   1       3.011   0.009  -0.316  0.00  0.00    -0.196 N 
ATOM      2  C2  IND d   1       3.933   0.710   0.410  0.00  0.00     0.054 A 
ATOM      3  C3  IND d   1       3.320   1.446   1.364  0.00  0.00    -0.031 A 
ATOM      4  C4  IND d   1       0.823   1.573   1.978  0.00  0.00     0.051 A 
ATOM      5  C5  IND d   1      -0.409   1.140   1.574  0.00  0.00    -0.031 A 
ATOM      6  C6  IND d   1      -0.567   0.288   0.500  0.00  0.00     0.015 A 
ATOM      7  C7  IND d   1       0.507  -0.173  -0.207  0.00  0.00    -0.016 A 
ATOM      8  C8  IND d   1       1.759   0.270   0.195  0.00  0.00    -0.047 A 
ATOM      9  C9  IND d   1       1.922   1.168   1.258  0.00  0.00    -0.096 A 
ATOM     10  HN1 IND d   1       3.184  -0.508  -0.981  0.00  0.00     0.298 HD
ENDROOT
TORSDOF 0
ENDMDL
