MODEL 1
REMARK minimizedAffinity -4.16245556
REMARK minimizedRMSD -1
REMARK  0 active torsions:
REMARK  status: ('A' for Active; 'I' for Inactive)
ROOT
ATOM      1  N1  IND d   1       2.512   0.061  -0.351  0.00  0.00    -0.196 N 
ATOM      2  C2  IND d   1       3.576   0.771   0.131  0.00  0.00     0.054 A 
ATOM      3  C3  IND d   1       3.168   1.646   1.078  0.00  0.00    -0.031 A 
ATOM      4  C4  IND d   1       0.819   2.009   2.065  0.00  0.00     0.051 A 
ATOM      5  C5  IND d   1      -0.483   1.621   1.918  0.00  0.00    -0.031 A 
ATOM      6  C6  IND d   1      -0.861   0.672   0.990  0.00  0.00     0.015 A 
ATOM      7  C7  IND d   1       0.056   0.065   0.179  0.00  0.00    -0.016 A 
ATOM      8  C8  IND d   1       1.378   0.462   0.321  0.00  0.00    -0.047 A 
ATOM      9  C9  IND d   1       1.761   1.455   1.231  0.00  0.00    -0.096 A 
ATOM     10  HN1 IND d   1       2.545  -0.535  -0.970  0.00  0.00     0.298 HD
ENDROOT
TORSDOF 0
ENDMDL
