MODEL 1
REMARK minimizedAffinity -5.33844423
REMARK minimizedRMSD -1
REMARK  0 active torsions:
REMARK  status: ('A' for Active; 'I' for Inactive)
ROOT
ATOM      1  N1  IND d   1       4.116   4.507  -5.187  0.00  0.00    -0.196 N 
ATOM      2  C2  IND d   1       4.619   4.212  -3.951  0.00  0.00     0.054 A 
ATOM      3  C3  IND d   1       3.731   4.547  -2.989  0.00  0.00    -0.031 A 
ATOM      4  C4  IND d   1       1.350   5.498  -3.221  0.00  0.00     0.051 A 
ATOM      5  C5  IND d   1       0.463   5.968  -4.149  0.00  0.00    -0.031 A 
ATOM      6  C6  IND d   1       0.754   5.973  -5.498  0.00  0.00     0.015 A 
ATOM      7  C7  IND d   1       1.942   5.495  -5.972  0.00  0.00    -0.016 A 
ATOM      8  C8  IND d   1       2.848   5.023  -5.032  0.00  0.00    -0.047 A 
ATOM      9  C9  IND d   1       2.576   5.056  -3.658  0.00  0.00    -0.096 A 
ATOM     10  HN1 IND d   1       4.522   4.390  -5.936  0.00  0.00     0.298 HD
ENDROOT
TORSDOF 0
ENDMDL
