MODEL 1
REMARK minimizedAffinity 4.40831661
REMARK minimizedRMSD -1
REMARK  0 active torsions:
REMARK  status: ('A' for Active; 'I' for Inactive)
ROOT
ATOM      1  N1  IND d   1       0.479   3.330   0.420  0.00  0.00    -0.196 N 
ATOM      2  C2  IND d   1       1.102   3.090  -0.773  0.00  0.00     0.054 A 
ATOM      3  C3  IND d   1       1.141   1.762  -1.024  0.00  0.00    -0.031 A 
ATOM      4  C4  IND d   1       0.155  -0.189   0.335  0.00  0.00     0.051 A 
ATOM      5  C5  IND d   1      -0.474  -0.471   1.515  0.00  0.00    -0.031 A 
ATOM      6  C6  IND d   1      -0.827   0.521   2.408  0.00  0.00     0.015 A 
ATOM      7  C7  IND d   1      -0.573   1.838   2.147  0.00  0.00    -0.016 A 
ATOM      8  C8  IND d   1       0.072   2.126   0.952  0.00  0.00    -0.047 A 
ATOM      9  C9  IND d   1       0.470   1.121   0.062  0.00  0.00    -0.096 A 
ATOM     10  HN1 IND d   1       0.361   4.103   0.778  0.00  0.00     0.298 HD
ENDROOT
TORSDOF 0
ENDMDL
