MODEL 1
REMARK minimizedAffinity 12.7510176
REMARK minimizedRMSD -1
REMARK  0 active torsions:
REMARK  status: ('A' for Active; 'I' for Inactive)
ROOT
ATOM      1  C1  DEN d   1       2.770  -0.710   1.244  0.00  0.00     0.130 A 
ATOM      2  C2  DEN d   1       2.502   0.720   1.367  0.00  0.00    -0.031 A 
ATOM      3  C3  DEN d   1       1.039   0.904   1.450  0.00  0.00     0.027 A 
ATOM      4  C4  DEN d   1      -0.826  -0.877   1.404  0.00  0.00     0.027 A 
ATOM      5  C5  DEN d   1      -1.088  -2.225   1.301  0.00  0.00    -0.003 A 
ATOM      6  C6  DEN d   1      -0.094  -3.152   1.139  0.00  0.00     0.001 A 
ATOM      7  C7  DEN d   1       1.215  -2.747   1.121  0.00  0.00     0.017 A 
ATOM      8  C8  DEN d   1       1.487  -1.389   1.216  0.00  0.00    -0.094 A 
ATOM      9  C9  DEN d   1       0.468  -0.468   1.392  0.00  0.00    -0.072 A 
ENDROOT
TORSDOF 0
ENDMDL
