MODEL 1
REMARK minimizedAffinity 15.3783255
REMARK minimizedRMSD -1
REMARK  0 active torsions:
REMARK  status: ('A' for Active; 'I' for Inactive)
ROOT
ATOM      1  C1  DEN d   1       2.379  -0.702   0.886  0.00  0.00     0.130 A 
ATOM      2  C2  DEN d   1       2.350   0.692   1.318  0.00  0.00    -0.031 A 
ATOM      3  C3  DEN d   1       1.663   0.751   2.624  0.00  0.00     0.027 A 
ATOM      4  C4  DEN d   1       0.651  -1.172   4.013  0.00  0.00     0.027 A 
ATOM      5  C5  DEN d   1       0.422  -2.530   4.051  0.00  0.00    -0.003 A 
ATOM      6  C6  DEN d   1       0.796  -3.362   3.029  0.00  0.00     0.001 A 
ATOM      7  C7  DEN d   1       1.460  -2.851   1.945  0.00  0.00     0.017 A 
ATOM      8  C8  DEN d   1       1.688  -1.482   1.897  0.00  0.00    -0.094 A 
ATOM      9  C9  DEN d   1       1.313  -0.659   2.945  0.00  0.00    -0.072 A 
ENDROOT
TORSDOF 0
ENDMDL
