MODEL 1
REMARK minimizedAffinity 12.0263042
REMARK minimizedRMSD -1
REMARK  0 active torsions:
REMARK  status: ('A' for Active; 'I' for Inactive)
ROOT
ATOM      1  C1  DEN d   1       3.735  -2.545   2.163  0.00  0.00     0.130 A 
ATOM      2  C2  DEN d   1       4.230  -1.771   1.027  0.00  0.00    -0.031 A 
ATOM      3  C3  DEN d   1       3.285  -0.663   0.784  0.00  0.00     0.027 A 
ATOM      4  C4  DEN d   1       1.119  -0.069   2.052  0.00  0.00     0.027 A 
ATOM      5  C5  DEN d   1       0.283  -0.441   3.081  0.00  0.00    -0.003 A 
ATOM      6  C6  DEN d   1       0.518  -1.551   3.849  0.00  0.00     0.001 A 
ATOM      7  C7  DEN d   1       1.642  -2.303   3.627  0.00  0.00     0.017 A 
ATOM      8  C8  DEN d   1       2.486  -1.938   2.586  0.00  0.00    -0.094 A 
ATOM      9  C9  DEN d   1       2.237  -0.806   1.830  0.00  0.00    -0.072 A 
ENDROOT
TORSDOF 0
ENDMDL
