MODEL 1
REMARK minimizedAffinity 7.06703568
REMARK minimizedRMSD -1
REMARK  0 active torsions:
REMARK  status: ('A' for Active; 'I' for Inactive)
ROOT
ATOM      1  C1  DEN d   1       0.656  -1.914   1.535  0.00  0.00     0.130 A 
ATOM      2  C2  DEN d   1       0.958  -1.410   2.872  0.00  0.00    -0.031 A 
ATOM      3  C3  DEN d   1       1.394  -2.551   3.701  0.00  0.00     0.027 A 
ATOM      4  C4  DEN d   1       1.634  -5.035   3.048  0.00  0.00     0.027 A 
ATOM      5  C5  DEN d   1       1.481  -5.947   2.026  0.00  0.00    -0.003 A 
ATOM      6  C6  DEN d   1       1.015  -5.587   0.790  0.00  0.00     0.001 A 
ATOM      7  C7  DEN d   1       0.726  -4.273   0.529  0.00  0.00     0.017 A 
ATOM      8  C8  DEN d   1       0.870  -3.349   1.556  0.00  0.00    -0.094 A 
ATOM      9  C9  DEN d   1       1.355  -3.731   2.795  0.00  0.00    -0.072 A 
ENDROOT
TORSDOF 0
ENDMDL
