MODEL 1
REMARK minimizedAffinity -1.5742861
REMARK minimizedRMSD -1
REMARK  0 active torsions:
REMARK  status: ('A' for Active; 'I' for Inactive)
ROOT
ATOM      1  C1  DEN d   1       3.051   3.259  -4.459  0.00  0.00     0.130 A 
ATOM      2  C2  DEN d   1       3.771   4.249  -5.255  0.00  0.00    -0.031 A 
ATOM      3  C3  DEN d   1       4.837   3.549  -5.999  0.00  0.00     0.027 A 
ATOM      4  C4  DEN d   1       5.436   1.040  -6.000  0.00  0.00     0.027 A 
ATOM      5  C5  DEN d   1       5.115  -0.191  -5.472  0.00  0.00    -0.003 A 
ATOM      6  C6  DEN d   1       4.113  -0.352  -4.552  0.00  0.00     0.001 A 
ATOM      7  C7  DEN d   1       3.367   0.730  -4.164  0.00  0.00     0.017 A 
ATOM      8  C8  DEN d   1       3.690   1.976  -4.687  0.00  0.00    -0.094 A 
ATOM      9  C9  DEN d   1       4.698   2.115  -5.625  0.00  0.00    -0.072 A 
ENDROOT
TORSDOF 0
ENDMDL
