MODEL 1
REMARK minimizedAffinity 18.0338326
REMARK minimizedRMSD -1
REMARK  0 active torsions:
REMARK  status: ('A' for Active; 'I' for Inactive)
ROOT
ATOM      1  C1  DEN d   1      -5.914  -2.131  -5.252  0.00  0.00     0.130 A 
ATOM      2  C2  DEN d   1      -5.141  -1.435  -4.227  0.00  0.00    -0.031 A 
ATOM      3  C3  DEN d   1      -4.244  -2.419  -3.586  0.00  0.00     0.027 A 
ATOM      4  C4  DEN d   1      -3.978  -4.936  -4.081  0.00  0.00     0.027 A 
ATOM      5  C5  DEN d   1      -4.428  -5.981  -4.857  0.00  0.00    -0.003 A 
ATOM      6  C6  DEN d   1      -5.421  -5.825  -5.788  0.00  0.00     0.001 A 
ATOM      7  C7  DEN d   1      -5.965  -4.586  -5.998  0.00  0.00     0.017 A 
ATOM      8  C8  DEN d   1      -5.522  -3.528  -5.214  0.00  0.00    -0.094 A 
ATOM      9  C9  DEN d   1      -4.508  -3.704  -4.288  0.00  0.00    -0.072 A 
ENDROOT
TORSDOF 0
ENDMDL
