MODEL 1
REMARK minimizedAffinity 17.1930923
REMARK minimizedRMSD -1
REMARK  0 active torsions:
REMARK  status: ('A' for Active; 'I' for Inactive)
ROOT
ATOM      1  C1  DEN d   1       1.553  -0.744   1.674  0.00  0.00     0.130 A 
ATOM      2  C2  DEN d   1       2.153   0.588   1.687  0.00  0.00    -0.031 A 
ATOM      3  C3  DEN d   1       2.102   1.098   3.072  0.00  0.00     0.027 A 
ATOM      4  C4  DEN d   1       1.163  -0.041   5.187  0.00  0.00     0.027 A 
ATOM      5  C5  DEN d   1       0.541  -1.170   5.672  0.00  0.00    -0.003 A 
ATOM      6  C6  DEN d   1       0.185  -2.214   4.859  0.00  0.00     0.001 A 
ATOM      7  C7  DEN d   1       0.490  -2.169   3.524  0.00  0.00     0.017 A 
ATOM      8  C8  DEN d   1       1.110  -1.030   3.026  0.00  0.00    -0.094 A 
ATOM      9  C9  DEN d   1       1.472   0.009   3.867  0.00  0.00    -0.072 A 
ENDROOT
TORSDOF 0
ENDMDL
