MODEL 1
REMARK minimizedAffinity 15.3851738
REMARK minimizedRMSD -1
REMARK  0 active torsions:
REMARK  status: ('A' for Active; 'I' for Inactive)
ROOT
ATOM      1  C1  DEN d   1      -4.661   3.367   2.483  0.00  0.00     0.130 A 
ATOM      2  C2  DEN d   1      -5.978   3.665   1.927  0.00  0.00    -0.031 A 
ATOM      3  C3  DEN d   1      -5.996   3.203   0.524  0.00  0.00     0.027 A 
ATOM      4  C4  DEN d   1      -4.124   2.058  -0.831  0.00  0.00     0.027 A 
ATOM      5  C5  DEN d   1      -2.823   1.607  -0.790  0.00  0.00    -0.003 A 
ATOM      6  C6  DEN d   1      -2.040   1.741   0.325  0.00  0.00     0.001 A 
ATOM      7  C7  DEN d   1      -2.564   2.299   1.461  0.00  0.00     0.017 A 
ATOM      8  C8  DEN d   1      -3.872   2.764   1.424  0.00  0.00    -0.094 A 
ATOM      9  C9  DEN d   1      -4.653   2.608   0.291  0.00  0.00    -0.072 A 
ENDROOT
TORSDOF 0
ENDMDL
