MODEL 1
REMARK minimizedAffinity 4.4049139
REMARK minimizedRMSD -1
REMARK  0 active torsions:
REMARK  status: ('A' for Active; 'I' for Inactive)
ROOT
ATOM      1  C1  DEN d   1       1.247   1.091   1.403  0.00  0.00     0.130 A 
ATOM      2  C2  DEN d   1       2.668   0.935   1.698  0.00  0.00    -0.031 A 
ATOM      3  C3  DEN d   1       2.989  -0.506   1.653  0.00  0.00     0.027 A 
ATOM      4  C4  DEN d   1       1.431  -2.500   1.151  0.00  0.00     0.027 A 
ATOM      5  C5  DEN d   1       0.137  -2.866   0.853  0.00  0.00    -0.003 A 
ATOM      6  C6  DEN d   1      -0.876  -1.949   0.751  0.00  0.00     0.001 A 
ATOM      7  C7  DEN d   1      -0.603  -0.616   0.905  0.00  0.00     0.017 A 
ATOM      8  C8  DEN d   1       0.697  -0.240   1.214  0.00  0.00    -0.094 A 
ATOM      9  C9  DEN d   1       1.710  -1.180   1.300  0.00  0.00    -0.072 A 
ENDROOT
TORSDOF 0
ENDMDL
