MODEL 1
REMARK minimizedAffinity 9.73532104
REMARK minimizedRMSD -1
REMARK  0 active torsions:
REMARK  status: ('A' for Active; 'I' for Inactive)
ROOT
ATOM      1  C1  DEN d   1       2.236  -1.857   0.115  0.00  0.00     0.130 A 
ATOM      2  C2  DEN d   1       2.105  -1.560   1.539  0.00  0.00    -0.031 A 
ATOM      3  C3  DEN d   1       0.669  -1.584   1.881  0.00  0.00     0.027 A 
ATOM      4  C4  DEN d   1      -1.355  -2.055   0.353  0.00  0.00     0.027 A 
ATOM      5  C5  DEN d   1      -1.745  -2.347  -0.935  0.00  0.00    -0.003 A 
ATOM      6  C6  DEN d   1      -0.846  -2.462  -1.962  0.00  0.00     0.001 A 
ATOM      7  C7  DEN d   1       0.494  -2.329  -1.709  0.00  0.00     0.017 A 
ATOM      8  C8  DEN d   1       0.894  -2.026  -0.414  0.00  0.00    -0.094 A 
ATOM      9  C9  DEN d   1      -0.029  -1.926   0.613  0.00  0.00    -0.072 A 
ENDROOT
TORSDOF 0
ENDMDL
