MODEL 1
REMARK minimizedAffinity 6.18949318
REMARK minimizedRMSD -1
REMARK  2 active torsions:
REMARK  status: ('A' for Active; 'I' for Inactive)
REMARK    1  A    between atoms: C1_2  and  C2_3 
REMARK    2  A    between atoms: C2_3  and  C3_4 
ROOT
ATOM      1  C3  UNL d   1       0.047   0.467  -0.240  0.00  0.00    -0.075 A 
ATOM      2  C4  UNL d   1       1.198  -0.321  -0.099  0.00  0.00     0.002 A 
ATOM      3  C5  UNL d   1       1.663  -0.674   1.168  0.00  0.00     0.002 A 
ATOM      4  C6  UNL d   1       0.992  -0.237   2.307  0.00  0.00    -0.004 A 
ATOM      5  C7  UNL d   1      -0.144   0.561   2.179  0.00  0.00     0.002 A 
ATOM      6  C8  UNL d   1      -0.614   0.912   0.913  0.00  0.00     0.002 A 
ENDROOT
BRANCH   1   7
ATOM      7  C2  UNL d   1      -0.479   0.829  -1.609  0.00  0.00     0.056 C 
BRANCH   7   8
ATOM      8  C1  UNL d   1      -1.768   1.657  -1.583  0.00  0.00     0.007 C 
ATOM      9  C   UNL d   1      -2.938   0.967  -2.272  0.00  0.00     0.009 C 
ENDBRANCH   7   8
ENDBRANCH   1   7
TORSDOF 2
ENDMDL
