MODEL 1
REMARK minimizedAffinity 0.899884164
REMARK minimizedRMSD -1
REMARK  2 active torsions:
REMARK  status: ('A' for Active; 'I' for Inactive)
REMARK    1  A    between atoms: C1_2  and  C2_3 
REMARK    2  A    between atoms: C2_3  and  C3_4 
ROOT
ATOM      1  C3  UNL d   1       0.119   0.414  -0.494  0.00  0.00    -0.075 A 
ATOM      2  C4  UNL d   1       1.116  -0.570  -0.560  0.00  0.00     0.002 A 
ATOM      3  C5  UNL d   1       1.766  -0.999   0.597  0.00  0.00     0.002 A 
ATOM      4  C6  UNL d   1       1.436  -0.445   1.832  0.00  0.00    -0.004 A 
ATOM      5  C7  UNL d   1       0.458   0.545   1.907  0.00  0.00     0.002 A 
ATOM      6  C8  UNL d   1      -0.197   0.974   0.751  0.00  0.00     0.002 A 
ENDROOT
BRANCH   1   7
ATOM      7  C2  UNL d   1      -0.608   0.862  -1.739  0.00  0.00     0.056 C 
BRANCH   7   8
ATOM      8  C1  UNL d   1      -1.517  -0.210  -2.350  0.00  0.00     0.007 C 
ATOM      9  C   UNL d   1      -2.972   0.227  -2.460  0.00  0.00     0.009 C 
ENDBRANCH   7   8
ENDBRANCH   1   7
TORSDOF 2
ENDMDL
