MODEL 1
REMARK minimizedAffinity 1.49617064
REMARK minimizedRMSD -1
REMARK  2 active torsions:
REMARK  status: ('A' for Active; 'I' for Inactive)
REMARK    1  A    between atoms: C1_2  and  C2_3 
REMARK    2  A    between atoms: C2_3  and  C3_4 
ROOT
ATOM      1  C3  UNL d   1      -0.405   1.190  -0.536  0.00  0.00    -0.075 A 
ATOM      2  C4  UNL d   1      -0.446   1.320   0.860  0.00  0.00     0.002 A 
ATOM      3  C5  UNL d   1       0.407   0.566   1.667  0.00  0.00     0.002 A 
ATOM      4  C6  UNL d   1       1.303  -0.332   1.091  0.00  0.00    -0.004 A 
ATOM      5  C7  UNL d   1       1.340  -0.482  -0.293  0.00  0.00     0.002 A 
ATOM      6  C8  UNL d   1       0.491   0.274  -1.103  0.00  0.00     0.002 A 
ENDROOT
BRANCH   1   7
ATOM      7  C2  UNL d   1      -1.304   2.024  -1.416  0.00  0.00     0.056 C 
BRANCH   7   8
ATOM      8  C1  UNL d   1      -2.750   1.520  -1.486  0.00  0.00     0.007 C 
ATOM      9  C   UNL d   1      -2.997   0.565  -2.646  0.00  0.00     0.009 C 
ENDBRANCH   7   8
ENDBRANCH   1   7
TORSDOF 2
ENDMDL
