MODEL 1
REMARK minimizedAffinity 8.98538399
REMARK minimizedRMSD -1
REMARK  2 active torsions:
REMARK  status: ('A' for Active; 'I' for Inactive)
REMARK    1  A    between atoms: C1_2  and  C2_3 
REMARK    2  A    between atoms: C2_3  and  C3_4 
ROOT
ATOM      1  C3  UNL d   1      -0.309   0.863   1.036  0.00  0.00    -0.075 A 
ATOM      2  C4  UNL d   1       0.597  -0.005   0.409  0.00  0.00     0.002 A 
ATOM      3  C5  UNL d   1       1.534  -0.714   1.161  0.00  0.00     0.002 A 
ATOM      4  C6  UNL d   1       1.585  -0.557   2.544  0.00  0.00    -0.004 A 
ATOM      5  C7  UNL d   1       0.702   0.315   3.176  0.00  0.00     0.002 A 
ATOM      6  C8  UNL d   1      -0.240   1.023   2.427  0.00  0.00     0.002 A 
ENDROOT
BRANCH   1   7
ATOM      7  C2  UNL d   1      -1.345   1.611   0.232  0.00  0.00     0.056 C 
BRANCH   7   8
ATOM      8  C1  UNL d   1      -1.153   1.506  -1.285  0.00  0.00     0.007 C 
ATOM      9  C   UNL d   1      -2.449   1.231  -2.036  0.00  0.00     0.009 C 
ENDBRANCH   7   8
ENDBRANCH   1   7
TORSDOF 2
ENDMDL
