MODEL 1
REMARK minimizedAffinity 11.51509
REMARK minimizedRMSD -1
REMARK  2 active torsions:
REMARK  status: ('A' for Active; 'I' for Inactive)
REMARK    1  A    between atoms: C1_2  and  C2_3 
REMARK    2  A    between atoms: C2_3  and  C3_4 
ROOT
ATOM      1  C3  UNL d   1       0.252   0.557   1.410  0.00  0.00    -0.075 A 
ATOM      2  C4  UNL d   1       0.802  -0.667   1.003  0.00  0.00     0.002 A 
ATOM      3  C5  UNL d   1       1.837  -1.255   1.731  0.00  0.00     0.002 A 
ATOM      4  C6  UNL d   1       2.340  -0.624   2.867  0.00  0.00    -0.004 A 
ATOM      5  C7  UNL d   1       1.812   0.600   3.271  0.00  0.00     0.002 A 
ATOM      6  C8  UNL d   1       0.774   1.189   2.546  0.00  0.00     0.002 A 
ENDROOT
BRANCH   1   7
ATOM      7  C2  UNL d   1      -0.888   1.184   0.643  0.00  0.00     0.056 C 
BRANCH   7   8
ATOM      8  C1  UNL d   1      -0.524   1.600  -0.786  0.00  0.00     0.007 C 
ATOM      9  C   UNL d   1      -1.678   2.256  -1.533  0.00  0.00     0.009 C 
ENDBRANCH   7   8
ENDBRANCH   1   7
TORSDOF 2
ENDMDL
