MODEL 1
REMARK minimizedAffinity 7.87201929
REMARK minimizedRMSD -1
REMARK  2 active torsions:
REMARK  status: ('A' for Active; 'I' for Inactive)
REMARK    1  A    between atoms: C1_2  and  C2_3 
REMARK    2  A    between atoms: C2_3  and  C3_4 
ROOT
ATOM      1  C3  UNL d   1      -0.310   1.854  -0.273  0.00  0.00    -0.075 A 
ATOM      2  C4  UNL d   1      -0.281   1.947   1.126  0.00  0.00     0.002 A 
ATOM      3  C5  UNL d   1       0.332   0.952   1.889  0.00  0.00     0.002 A 
ATOM      4  C6  UNL d   1       0.913  -0.150   1.265  0.00  0.00    -0.004 A 
ATOM      5  C7  UNL d   1       0.875  -0.261  -0.123  0.00  0.00     0.002 A 
ATOM      6  C8  UNL d   1       0.266   0.735  -0.889  0.00  0.00     0.002 A 
ENDROOT
BRANCH   1   7
ATOM      7  C2  UNL d   1      -0.946   2.941  -1.107  0.00  0.00     0.056 C 
BRANCH   7   8
ATOM      8  C1  UNL d   1      -0.027   4.137  -1.377  0.00  0.00     0.007 C 
ATOM      9  C   UNL d   1      -0.785   5.402  -1.758  0.00  0.00     0.009 C 
ENDBRANCH   7   8
ENDBRANCH   1   7
TORSDOF 2
ENDMDL
