MODEL 1
REMARK minimizedAffinity 3.32989168
REMARK minimizedRMSD -1
REMARK  2 active torsions:
REMARK  status: ('A' for Active; 'I' for Inactive)
REMARK    1  A    between atoms: C1_2  and  C2_3 
REMARK    2  A    between atoms: C2_3  and  C3_4 
ROOT
ATOM      1  C3  UNL d   1       1.381  -0.380   2.078  0.00  0.00    -0.075 A 
ATOM      2  C4  UNL d   1       1.706  -0.724   0.757  0.00  0.00     0.002 A 
ATOM      3  C5  UNL d   1       1.055  -0.112  -0.314  0.00  0.00     0.002 A 
ATOM      4  C6  UNL d   1       0.066   0.841  -0.080  0.00  0.00    -0.004 A 
ATOM      5  C7  UNL d   1      -0.276   1.178   1.228  0.00  0.00     0.002 A 
ATOM      6  C8  UNL d   1       0.377   0.570   2.302  0.00  0.00     0.002 A 
ENDROOT
BRANCH   1   7
ATOM      7  C2  UNL d   1       2.103  -1.017   3.241  0.00  0.00     0.056 C 
BRANCH   7   8
ATOM      8  C1  UNL d   1       3.627  -1.055   3.085  0.00  0.00     0.007 C 
ATOM      9  C   UNL d   1       4.333  -1.733   4.251  0.00  0.00     0.009 C 
ENDBRANCH   7   8
ENDBRANCH   1   7
TORSDOF 2
ENDMDL
