MODEL 1
REMARK minimizedAffinity 5.4641571
REMARK minimizedRMSD -1
REMARK  0 active torsions:
REMARK  status: ('A' for Active; 'I' for Inactive)
ROOT
ATOM      1  C   UNL d   1      -0.615  -1.137   1.366  0.00  0.00    -0.002 A 
ATOM      2  C1  UNL d   1       0.179  -2.217   1.006  0.00  0.00     0.010 A 
ATOM      3  C2  UNL d   1       0.062  -2.794  -0.260  0.00  0.00     0.041 A 
ATOM      4  C3  UNL d   1      -0.874  -2.260  -1.168  0.00  0.00    -0.075 A 
ATOM      5  S   UNL d   1      -1.190  -2.803  -2.774  0.00  0.00     0.015 SA
ATOM      6  C4  UNL d   1      -2.385  -1.614  -3.020  0.00  0.00     0.022 A 
ATOM      7  C5  UNL d   1      -2.552  -0.814  -1.915  0.00  0.00     0.026 A 
ATOM      8  C6  UNL d   1      -1.683  -1.173  -0.830  0.00  0.00    -0.082 A 
ATOM      9  C7  UNL d   1      -1.542  -0.611   0.462  0.00  0.00     0.045 A 
ENDROOT
TORSDOF 0
ENDMDL
