MODEL 1
REMARK minimizedAffinity 5.37346935
REMARK minimizedRMSD -1
REMARK  0 active torsions:
REMARK  status: ('A' for Active; 'I' for Inactive)
ROOT
ATOM      1  C   UNL d   1      -2.417  -4.351  -1.573  0.00  0.00    -0.002 A 
ATOM      2  C1  UNL d   1      -2.503  -2.979  -1.761  0.00  0.00     0.010 A 
ATOM      3  C2  UNL d   1      -1.359  -2.181  -1.706  0.00  0.00     0.041 A 
ATOM      4  C3  UNL d   1      -0.114  -2.791  -1.458  0.00  0.00    -0.075 A 
ATOM      5  S   UNL d   1       1.421  -2.014  -1.348  0.00  0.00     0.015 SA
ATOM      6  C4  UNL d   1       2.228  -3.485  -1.049  0.00  0.00     0.022 A 
ATOM      7  C5  UNL d   1       1.363  -4.553  -1.031  0.00  0.00     0.026 A 
ATOM      8  C6  UNL d   1      -0.001  -4.171  -1.266  0.00  0.00    -0.082 A 
ATOM      9  C7  UNL d   1      -1.180  -4.953  -1.327  0.00  0.00     0.045 A 
ENDROOT
TORSDOF 0
ENDMDL
