MODEL 1
REMARK minimizedAffinity 9.40778828
REMARK minimizedRMSD -1
REMARK  0 active torsions:
REMARK  status: ('A' for Active; 'I' for Inactive)
ROOT
ATOM      1  C   UNL d   1       0.733  -2.848   2.700  0.00  0.00    -0.002 A 
ATOM      2  C1  UNL d   1       1.001  -2.194   3.894  0.00  0.00     0.010 A 
ATOM      3  C2  UNL d   1       1.448  -0.871   3.895  0.00  0.00     0.041 A 
ATOM      4  C3  UNL d   1       1.621  -0.210   2.663  0.00  0.00    -0.075 A 
ATOM      5  S   UNL d   1       2.157   1.411   2.420  0.00  0.00     0.015 SA
ATOM      6  C4  UNL d   1       2.042   1.273   0.725  0.00  0.00     0.022 A 
ATOM      7  C5  UNL d   1       1.607   0.028   0.337  0.00  0.00     0.026 A 
ATOM      8  C6  UNL d   1       1.357  -0.847   1.448  0.00  0.00    -0.082 A 
ATOM      9  C7  UNL d   1       0.906  -2.189   1.480  0.00  0.00     0.045 A 
ENDROOT
TORSDOF 0
ENDMDL
