MODEL 1
REMARK minimizedAffinity 7.56561995
REMARK minimizedRMSD -1
REMARK  0 active torsions:
REMARK  status: ('A' for Active; 'I' for Inactive)
ROOT
ATOM      1  C   UNL d   1       2.399  -4.308   5.984  0.00  0.00    -0.002 A 
ATOM      2  C1  UNL d   1       1.663  -5.068   5.085  0.00  0.00     0.010 A 
ATOM      3  C2  UNL d   1       0.894  -4.451   4.096  0.00  0.00     0.041 A 
ATOM      4  C3  UNL d   1       0.878  -3.044   4.024  0.00  0.00    -0.075 A 
ATOM      5  S   UNL d   1       0.009  -2.071   2.897  0.00  0.00     0.015 SA
ATOM      6  C4  UNL d   1       0.594  -0.624   3.581  0.00  0.00     0.022 A 
ATOM      7  C5  UNL d   1       1.433  -0.859   4.645  0.00  0.00     0.026 A 
ATOM      8  C6  UNL d   1       1.610  -2.257   4.918  0.00  0.00    -0.082 A 
ATOM      9  C7  UNL d   1       2.380  -2.913   5.909  0.00  0.00     0.045 A 
ENDROOT
TORSDOF 0
ENDMDL
