MODEL 1
REMARK minimizedAffinity 6.85028887
REMARK minimizedRMSD -1
REMARK  1 active torsions:
REMARK  status: ('A' for Active; 'I' for Inactive)
REMARK    1  A    between atoms: N_2  and  C1_3 
ROOT
ATOM      1  C1  UNL d   1       3.590  -2.147   2.143  0.00  0.00     0.143 A 
ATOM      2  C2  UNL d   1       2.529  -2.484   2.991  0.00  0.00    -0.057 A 
ATOM      3  C3  UNL d   1       1.260  -1.915   2.828  0.00  0.00     0.033 A 
ATOM      4  C4  UNL d   1       1.037  -0.974   1.828  0.00  0.00    -0.042 A 
ATOM      5  C5  UNL d   1       2.083  -0.605   0.990  0.00  0.00     0.033 A 
ATOM      6  C6  UNL d   1       3.346  -1.182   1.154  0.00  0.00    -0.057 A 
ENDROOT
BRANCH   1   7
ATOM      7  N   UNL d   1       4.899  -2.604   2.316  0.00  0.00    -0.732 N 
ATOM      8  C   UNL d   1       5.999  -1.963   1.629  0.00  0.00     0.284 C 
ATOM      9  H3  UNL d   1       5.099  -2.851   3.282  0.00  0.00     0.395 HD
ENDBRANCH   1   7
TORSDOF 1
ENDMDL
