MODEL 1
REMARK minimizedAffinity 6.13281679
REMARK minimizedRMSD -1
REMARK  1 active torsions:
REMARK  status: ('A' for Active; 'I' for Inactive)
REMARK    1  A    between atoms: N_2  and  C1_3 
ROOT
ATOM      1  C1  UNL d   1       1.147  -1.106   3.795  0.00  0.00     0.143 A 
ATOM      2  C2  UNL d   1       1.068   0.033   2.987  0.00  0.00    -0.057 A 
ATOM      3  C3  UNL d   1       1.533   0.021   1.666  0.00  0.00     0.033 A 
ATOM      4  C4  UNL d   1       2.113  -1.127   1.137  0.00  0.00    -0.042 A 
ATOM      5  C5  UNL d   1       2.225  -2.264   1.930  0.00  0.00     0.033 A 
ATOM      6  C6  UNL d   1       1.753  -2.247   3.246  0.00  0.00    -0.057 A 
ENDROOT
BRANCH   1   7
ATOM      7  N   UNL d   1       0.793  -1.128   5.146  0.00  0.00    -0.732 N 
ATOM      8  C   UNL d   1       1.211  -2.219   6.000  0.00  0.00     0.284 C 
ATOM      9  H3  UNL d   1       0.862  -0.210   5.580  0.00  0.00     0.395 HD
ENDBRANCH   1   7
TORSDOF 1
ENDMDL
