MODEL 1
REMARK minimizedAffinity 1.52786016
REMARK minimizedRMSD -1
REMARK  1 active torsions:
REMARK  status: ('A' for Active; 'I' for Inactive)
REMARK    1  A    between atoms: N_2  and  C1_3 
ROOT
ATOM      1  C1  UNL d   1       1.200  -3.237   1.747  0.00  0.00     0.143 A 
ATOM      2  C2  UNL d   1       0.605  -4.205   0.931  0.00  0.00    -0.057 A 
ATOM      3  C3  UNL d   1       0.827  -5.571   1.145  0.00  0.00     0.033 A 
ATOM      4  C4  UNL d   1       1.674  -5.993   2.164  0.00  0.00    -0.042 A 
ATOM      5  C5  UNL d   1       2.297  -5.048   2.971  0.00  0.00     0.033 A 
ATOM      6  C6  UNL d   1       2.065  -3.686   2.757  0.00  0.00    -0.057 A 
ENDROOT
BRANCH   1   7
ATOM      7  N   UNL d   1       1.097  -1.862   1.525  0.00  0.00    -0.732 N 
ATOM      8  C   UNL d   1      -0.069  -1.129   1.969  0.00  0.00     0.284 C 
ATOM      9  H3  UNL d   1       1.977  -1.376   1.680  0.00  0.00     0.395 HD
ENDBRANCH   1   7
TORSDOF 1
ENDMDL
