MODEL 1
REMARK minimizedAffinity 13.4742413
REMARK minimizedRMSD -1
REMARK  1 active torsions:
REMARK  status: ('A' for Active; 'I' for Inactive)
REMARK    1  A    between atoms: N_2  and  C1_3 
ROOT
ATOM      1  C1  UNL d   1       1.490  -4.985   0.617  0.00  0.00     0.143 A 
ATOM      2  C2  UNL d   1       1.546  -3.594   0.755  0.00  0.00    -0.057 A 
ATOM      3  C3  UNL d   1       1.879  -2.999   1.978  0.00  0.00     0.033 A 
ATOM      4  C4  UNL d   1       2.134  -3.787   3.095  0.00  0.00    -0.042 A 
ATOM      5  C5  UNL d   1       2.060  -5.171   2.988  0.00  0.00     0.033 A 
ATOM      6  C6  UNL d   1       1.734  -5.760   1.762  0.00  0.00    -0.057 A 
ENDROOT
BRANCH   1   7
ATOM      7  N   UNL d   1       1.070  -5.635  -0.546  0.00  0.00    -0.732 N 
ATOM      8  C   UNL d   1      -0.321  -5.992  -0.729  0.00  0.00     0.284 C 
ATOM      9  H3  UNL d   1       1.517  -5.265  -1.381  0.00  0.00     0.395 HD
ENDBRANCH   1   7
TORSDOF 1
ENDMDL
