MODEL 1
REMARK minimizedAffinity 6.71164036
REMARK minimizedRMSD -1
REMARK  1 active torsions:
REMARK  status: ('A' for Active; 'I' for Inactive)
REMARK    1  A    between atoms: N_2  and  C1_3 
ROOT
ATOM      1  C1  UNL d   1       1.949  -2.261   2.328  0.00  0.00     0.143 A 
ATOM      2  C2  UNL d   1       0.770  -1.659   2.779  0.00  0.00    -0.057 A 
ATOM      3  C3  UNL d   1       0.514  -0.302   2.548  0.00  0.00     0.033 A 
ATOM      4  C4  UNL d   1       1.449   0.486   1.885  0.00  0.00    -0.042 A 
ATOM      5  C5  UNL d   1       2.639  -0.086   1.450  0.00  0.00     0.033 A 
ATOM      6  C6  UNL d   1       2.886  -1.444   1.678  0.00  0.00    -0.057 A 
ENDROOT
BRANCH   1   7
ATOM      7  N   UNL d   1       2.305  -3.582   2.613  0.00  0.00    -0.732 N 
ATOM      8  C   UNL d   1       1.711  -4.680   1.881  0.00  0.00     0.284 C 
ATOM      9  H3  UNL d   1       3.303  -3.687   2.782  0.00  0.00     0.395 HD
ENDBRANCH   1   7
TORSDOF 1
ENDMDL
