MODEL 1
REMARK minimizedAffinity 10.9916229
REMARK minimizedRMSD -1
REMARK  1 active torsions:
REMARK  status: ('A' for Active; 'I' for Inactive)
REMARK    1  A    between atoms: N_2  and  C1_3 
ROOT
ATOM      1  C1  UNL d   1       1.818  -0.532   2.166  0.00  0.00     0.143 A 
ATOM      2  C2  UNL d   1       1.674   0.853   2.304  0.00  0.00    -0.057 A 
ATOM      3  C3  UNL d   1       2.509   1.741   1.617  0.00  0.00     0.033 A 
ATOM      4  C4  UNL d   1       3.526   1.259   0.800  0.00  0.00    -0.042 A 
ATOM      5  C5  UNL d   1       3.703  -0.114   0.667  0.00  0.00     0.033 A 
ATOM      6  C6  UNL d   1       2.861  -0.996   1.350  0.00  0.00    -0.057 A 
ENDROOT
BRANCH   1   7
ATOM      7  N   UNL d   1       1.082  -1.467   2.899  0.00  0.00    -0.732 N 
ATOM      8  C   UNL d   1       1.668  -2.134   4.042  0.00  0.00     0.284 C 
ATOM      9  H3  UNL d   1       0.116  -1.181   3.034  0.00  0.00     0.395 HD
ENDBRANCH   1   7
TORSDOF 1
ENDMDL
