MODEL 1
REMARK minimizedAffinity -2.96609044
REMARK minimizedRMSD -1
REMARK  0 active torsions:
REMARK  status: ('A' for Active; 'I' for Inactive)
ROOT
ATOM      1  C   UNL d   1       2.566   0.676   1.046  0.00  0.00    -0.002 A 
ATOM      2  C1  UNL d   1       2.970  -0.536   0.504  0.00  0.00     0.010 A 
ATOM      3  C2  UNL d   1       2.119  -1.259  -0.334  0.00  0.00     0.041 A 
ATOM      4  C3  UNL d   1       0.843  -0.737  -0.623  0.00  0.00    -0.075 A 
ATOM      5  S   UNL d   1      -0.368  -1.446  -1.625  0.00  0.00     0.015 SA
ATOM      6  C4  UNL d   1      -1.450  -0.157  -1.358  0.00  0.00     0.022 A 
ATOM      7  C5  UNL d   1      -0.917   0.800  -0.527  0.00  0.00     0.026 A 
ATOM      8  C6  UNL d   1       0.413   0.482  -0.090  0.00  0.00    -0.082 A 
ATOM      9  C7  UNL d   1       1.299   1.190   0.757  0.00  0.00     0.045 A 
ENDROOT
TORSDOF 0
ENDMDL
