MODEL 1
REMARK minimizedAffinity -2.38135791
REMARK minimizedRMSD -1
REMARK  0 active torsions:
REMARK  status: ('A' for Active; 'I' for Inactive)
ROOT
ATOM      1  C   UNL d   1       3.423   0.405   0.363  0.00  0.00    -0.002 A 
ATOM      2  C1  UNL d   1       3.333  -0.978   0.285  0.00  0.00     0.010 A 
ATOM      3  C2  UNL d   1       2.089  -1.611   0.306  0.00  0.00     0.041 A 
ATOM      4  C3  UNL d   1       0.925  -0.823   0.406  0.00  0.00    -0.075 A 
ATOM      5  S   UNL d   1      -0.706  -1.379   0.448  0.00  0.00     0.015 SA
ATOM      6  C4  UNL d   1      -1.322   0.206   0.570  0.00  0.00     0.022 A 
ATOM      7  C5  UNL d   1      -0.321   1.148   0.579  0.00  0.00     0.026 A 
ATOM      8  C6  UNL d   1       0.990   0.571   0.484  0.00  0.00    -0.082 A 
ATOM      9  C7  UNL d   1       2.267   1.183   0.461  0.00  0.00     0.045 A 
ENDROOT
TORSDOF 0
ENDMDL
