MODEL 1
REMARK minimizedAffinity -2.47760606
REMARK minimizedRMSD -1
REMARK  0 active torsions:
REMARK  status: ('A' for Active; 'I' for Inactive)
ROOT
ATOM      1  C   UNL d   1       3.334   0.010   0.744  0.00  0.00    -0.002 A 
ATOM      2  C1  UNL d   1       3.075  -1.352   0.680  0.00  0.00     0.010 A 
ATOM      3  C2  UNL d   1       1.775  -1.819   0.482  0.00  0.00     0.041 A 
ATOM      4  C3  UNL d   1       0.728  -0.886   0.346  0.00  0.00    -0.075 A 
ATOM      5  S   UNL d   1      -0.943  -1.227   0.095  0.00  0.00     0.015 SA
ATOM      6  C4  UNL d   1      -1.353   0.427   0.067  0.00  0.00     0.022 A 
ATOM      7  C5  UNL d   1      -0.254   1.234   0.243  0.00  0.00     0.026 A 
ATOM      8  C6  UNL d   1       0.964   0.490   0.406  0.00  0.00    -0.082 A 
ATOM      9  C7  UNL d   1       2.293   0.933   0.609  0.00  0.00     0.045 A 
ENDROOT
TORSDOF 0
ENDMDL
