MODEL 1
REMARK minimizedAffinity -1.5117321
REMARK minimizedRMSD -1
REMARK  0 active torsions:
REMARK  status: ('A' for Active; 'I' for Inactive)
ROOT
ATOM      1  C   UNL d   1      -3.853  -0.764  -3.703  0.00  0.00    -0.002 A 
ATOM      2  C1  UNL d   1      -3.758   0.589  -3.406  0.00  0.00     0.010 A 
ATOM      3  C2  UNL d   1      -3.107   1.017  -2.247  0.00  0.00     0.041 A 
ATOM      4  C3  UNL d   1      -2.546   0.055  -1.385  0.00  0.00    -0.075 A 
ATOM      5  S   UNL d   1      -1.701   0.347   0.089  0.00  0.00     0.015 SA
ATOM      6  C4  UNL d   1      -1.445  -1.317   0.358  0.00  0.00     0.022 A 
ATOM      7  C5  UNL d   1      -1.984  -2.090  -0.642  0.00  0.00     0.026 A 
ATOM      8  C6  UNL d   1      -2.627  -1.313  -1.664  0.00  0.00    -0.082 A 
ATOM      9  C7  UNL d   1      -3.295  -1.715  -2.845  0.00  0.00     0.045 A 
ENDROOT
TORSDOF 0
ENDMDL
