MODEL 1
REMARK minimizedAffinity -2.20070744
REMARK minimizedRMSD -1
REMARK  0 active torsions:
REMARK  status: ('A' for Active; 'I' for Inactive)
ROOT
ATOM      1  C   UNL d   1       1.973   1.738   0.425  0.00  0.00    -0.002 A 
ATOM      2  C1  UNL d   1       2.747   0.688   0.900  0.00  0.00     0.010 A 
ATOM      3  C2  UNL d   1       2.159  -0.534   1.231  0.00  0.00     0.041 A 
ATOM      4  C3  UNL d   1       0.768  -0.686   1.072  0.00  0.00    -0.075 A 
ATOM      5  S   UNL d   1      -0.170  -2.093   1.412  0.00  0.00     0.015 SA
ATOM      6  C4  UNL d   1      -1.619  -1.334   0.933  0.00  0.00     0.022 A 
ATOM      7  C5  UNL d   1      -1.411  -0.039   0.522  0.00  0.00     0.026 A 
ATOM      8  C6  UNL d   1      -0.032   0.356   0.595  0.00  0.00    -0.082 A 
ATOM      9  C7  UNL d   1       0.593   1.583   0.269  0.00  0.00     0.045 A 
ENDROOT
TORSDOF 0
ENDMDL
