MODEL 1
REMARK minimizedAffinity -4.14535093
REMARK minimizedRMSD -1
REMARK  0 active torsions:
REMARK  status: ('A' for Active; 'I' for Inactive)
ROOT
ATOM      1  C   UNL d   1       3.580  -0.378   1.504  0.00  0.00    -0.002 A 
ATOM      2  C1  UNL d   1       3.083  -1.669   1.618  0.00  0.00     0.010 A 
ATOM      3  C2  UNL d   1       1.758  -1.952   1.281  0.00  0.00     0.041 A 
ATOM      4  C3  UNL d   1       0.933  -0.907   0.821  0.00  0.00    -0.075 A 
ATOM      5  S   UNL d   1      -0.722  -1.019   0.350  0.00  0.00     0.015 SA
ATOM      6  C4  UNL d   1      -0.808   0.643  -0.015  0.00  0.00     0.022 A 
ATOM      7  C5  UNL d   1       0.387   1.284   0.212  0.00  0.00     0.026 A 
ATOM      8  C6  UNL d   1       1.410   0.401   0.697  0.00  0.00    -0.082 A 
ATOM      9  C7  UNL d   1       2.758   0.656   1.047  0.00  0.00     0.045 A 
ENDROOT
TORSDOF 0
ENDMDL
