MODEL 1
REMARK minimizedAffinity -4.18730021
REMARK minimizedRMSD -1
REMARK  0 active torsions:
REMARK  status: ('A' for Active; 'I' for Inactive)
ROOT
ATOM      1  C   UNL d   1       1.573  -2.377   2.486  0.00  0.00    -0.002 A 
ATOM      2  C1  UNL d   1       2.520  -1.366   2.407  0.00  0.00     0.010 A 
ATOM      3  C2  UNL d   1       2.281  -0.227   1.636  0.00  0.00     0.041 A 
ATOM      4  C3  UNL d   1       1.060  -0.120   0.940  0.00  0.00    -0.075 A 
ATOM      5  S   UNL d   1       0.549   1.184  -0.066  0.00  0.00     0.015 SA
ATOM      6  C4  UNL d   1      -0.940   0.430  -0.413  0.00  0.00     0.022 A 
ATOM      7  C5  UNL d   1      -1.060  -0.788   0.214  0.00  0.00     0.026 A 
ATOM      8  C6  UNL d   1       0.091  -1.124   1.004  0.00  0.00    -0.082 A 
ATOM      9  C7  UNL d   1       0.364  -2.267   1.794  0.00  0.00     0.045 A 
ENDROOT
TORSDOF 0
ENDMDL
