MODEL 1
REMARK minimizedAffinity -0.0168917198
REMARK minimizedRMSD -1
REMARK  0 active torsions:
REMARK  status: ('A' for Active; 'I' for Inactive)
ROOT
ATOM      1  C   UNL d   1       3.529  -0.726   1.127  0.00  0.00    -0.002 A 
ATOM      2  C1  UNL d   1       3.123   0.426   1.785  0.00  0.00     0.010 A 
ATOM      3  C2  UNL d   1       1.810   0.886   1.668  0.00  0.00     0.041 A 
ATOM      4  C3  UNL d   1       0.902   0.160   0.871  0.00  0.00    -0.075 A 
ATOM      5  S   UNL d   1      -0.756   0.534   0.582  0.00  0.00     0.015 SA
ATOM      6  C4  UNL d   1      -0.965  -0.828  -0.422  0.00  0.00     0.022 A 
ATOM      7  C5  UNL d   1       0.192  -1.561  -0.544  0.00  0.00     0.026 A 
ATOM      8  C6  UNL d   1       1.287  -1.003   0.200  0.00  0.00    -0.082 A 
ATOM      9  C7  UNL d   1       2.626  -1.443   0.338  0.00  0.00     0.045 A 
ENDROOT
TORSDOF 0
ENDMDL
