MODEL 1
REMARK minimizedAffinity 0.380366921
REMARK minimizedRMSD -1
REMARK  0 active torsions:
REMARK  status: ('A' for Active; 'I' for Inactive)
ROOT
ATOM      1  C   UNL d   1       1.089  -0.071  -0.203  0.00  0.00     0.124 A 
ATOM      2  C1  UNL d   1       0.629   1.235  -0.109  0.00  0.00     0.062 A 
ATOM      3  C2  UNL d   1      -0.683   1.488   0.281  0.00  0.00     0.162 A 
ATOM      4  C3  UNL d   1      -1.544   0.433   0.582  0.00  0.00    -0.034 A 
ATOM      5  C4  UNL d   1      -1.074  -0.878   0.484  0.00  0.00     0.162 A 
ATOM      6  C5  UNL d   1       0.238  -1.126   0.094  0.00  0.00     0.062 A 
ATOM      7  F   UNL d   1       0.681  -2.389   0.004  0.00  0.00    -0.097 F 
ATOM      8  F1  UNL d   1      -1.875  -1.916   0.766  0.00  0.00    -0.096 F 
ATOM      9  I   UNL d   1      -3.506   0.808   1.166  0.00  0.00    -0.060 I 
ATOM     10  F2  UNL d   1      -1.101   2.760   0.363  0.00  0.00    -0.096 F 
ATOM     11  F3  UNL d   1       1.449   2.256  -0.397  0.00  0.00    -0.097 F 
ATOM     12  F4  UNL d   1       2.351  -0.312  -0.580  0.00  0.00    -0.092 F 
ENDROOT
TORSDOF 0
ENDMDL
