MODEL 1
REMARK minimizedAffinity -2.43357897
REMARK minimizedRMSD -1
REMARK  0 active torsions:
REMARK  status: ('A' for Active; 'I' for Inactive)
ROOT
ATOM      1  C   UNL d   1       0.820   0.727   0.015  0.00  0.00     0.124 A 
ATOM      2  C1  UNL d   1       0.336  -0.471   0.523  0.00  0.00     0.062 A 
ATOM      3  C2  UNL d   1      -1.032  -0.722   0.541  0.00  0.00     0.162 A 
ATOM      4  C3  UNL d   1      -1.929   0.226   0.048  0.00  0.00    -0.034 A 
ATOM      5  C4  UNL d   1      -1.435   1.429  -0.461  0.00  0.00     0.162 A 
ATOM      6  C5  UNL d   1      -0.066   1.676  -0.476  0.00  0.00     0.062 A 
ATOM      7  F   UNL d   1       0.399   2.833  -0.967  0.00  0.00    -0.097 F 
ATOM      8  F1  UNL d   1      -2.269   2.363  -0.943  0.00  0.00    -0.096 F 
ATOM      9  I   UNL d   1      -3.976  -0.146   0.072  0.00  0.00    -0.060 I 
ATOM     10  F2  UNL d   1      -1.471  -1.888   1.038  0.00  0.00    -0.096 F 
ATOM     11  F3  UNL d   1       1.190  -1.388   1.000  0.00  0.00    -0.097 F 
ATOM     12  F4  UNL d   1       2.137   0.967   0.000  0.00  0.00    -0.092 F 
ENDROOT
TORSDOF 0
ENDMDL
