MODEL 1
REMARK minimizedAffinity -4.46689653
REMARK minimizedRMSD -1
REMARK  0 active torsions:
REMARK  status: ('A' for Active; 'I' for Inactive)
ROOT
ATOM      1  C   UNL d   1      -4.658   0.919   0.456  0.00  0.00     0.124 A 
ATOM      2  C1  UNL d   1      -4.013   0.865   1.683  0.00  0.00     0.062 A 
ATOM      3  C2  UNL d   1      -2.623   0.861   1.744  0.00  0.00     0.162 A 
ATOM      4  C3  UNL d   1      -1.867   0.912   0.572  0.00  0.00    -0.034 A 
ATOM      5  C4  UNL d   1      -2.523   0.966  -0.659  0.00  0.00     0.162 A 
ATOM      6  C5  UNL d   1      -3.913   0.969  -0.714  0.00  0.00     0.062 A 
ATOM      7  F   UNL d   1      -4.535   1.022  -1.901  0.00  0.00    -0.097 F 
ATOM      8  F1  UNL d   1      -1.828   1.016  -1.805  0.00  0.00    -0.096 F 
ATOM      9  I   UNL d   1       0.212   0.907   0.658  0.00  0.00    -0.060 I 
ATOM     10  F2  UNL d   1      -2.026   0.808   2.944  0.00  0.00    -0.096 F 
ATOM     11  F3  UNL d   1      -4.731   0.815   2.815  0.00  0.00    -0.097 F 
ATOM     12  F4  UNL d   1      -5.996   0.922   0.400  0.00  0.00    -0.092 F 
ENDROOT
TORSDOF 0
ENDMDL
