MODEL 1
REMARK minimizedAffinity -0.889481425
REMARK minimizedRMSD -1
REMARK  0 active torsions:
REMARK  status: ('A' for Active; 'I' for Inactive)
ROOT
ATOM      1  C   UNL d   1       2.342  -1.157   0.200  0.00  0.00     0.124 A 
ATOM      2  C1  UNL d   1       1.942  -0.030   0.905  0.00  0.00     0.062 A 
ATOM      3  C2  UNL d   1       0.668   0.498   0.716  0.00  0.00     0.162 A 
ATOM      4  C3  UNL d   1      -0.216  -0.101  -0.183  0.00  0.00    -0.034 A 
ATOM      5  C4  UNL d   1       0.195  -1.233  -0.889  0.00  0.00     0.162 A 
ATOM      6  C5  UNL d   1       1.469  -1.756  -0.696  0.00  0.00     0.062 A 
ATOM      7  F   UNL d   1       1.855  -2.845  -1.379  0.00  0.00    -0.097 F 
ATOM      8  F1  UNL d   1      -0.629  -1.833  -1.761  0.00  0.00    -0.096 F 
ATOM      9  I   UNL d   1      -2.121   0.686  -0.469  0.00  0.00    -0.060 I 
ATOM     10  F2  UNL d   1       0.307   1.587   1.411  0.00  0.00    -0.096 F 
ATOM     11  F3  UNL d   1       2.784   0.552   1.771  0.00  0.00    -0.097 F 
ATOM     12  F4  UNL d   1       3.569  -1.662   0.383  0.00  0.00    -0.092 F 
ENDROOT
TORSDOF 0
ENDMDL
