MODEL 1
REMARK minimizedAffinity -3.48091269
REMARK minimizedRMSD -1
REMARK  0 active torsions:
REMARK  status: ('A' for Active; 'I' for Inactive)
ROOT
ATOM      1  C   UNL d   1       2.805  -0.814   0.611  0.00  0.00     0.124 A 
ATOM      2  C1  UNL d   1       2.704   0.554   0.821  0.00  0.00     0.062 A 
ATOM      3  C2  UNL d   1       1.525   1.225   0.510  0.00  0.00     0.162 A 
ATOM      4  C3  UNL d   1       0.436   0.529  -0.015  0.00  0.00    -0.034 A 
ATOM      5  C4  UNL d   1       0.545  -0.847  -0.225  0.00  0.00     0.162 A 
ATOM      6  C5  UNL d   1       1.726  -1.513   0.088  0.00  0.00     0.062 A 
ATOM      7  F   UNL d   1       1.821  -2.835  -0.116  0.00  0.00    -0.097 F 
ATOM      8  F1  UNL d   1      -0.482  -1.547  -0.727  0.00  0.00    -0.096 F 
ATOM      9  I   UNL d   1      -1.328   1.529  -0.482  0.00  0.00    -0.060 I 
ATOM     10  F2  UNL d   1       1.456   2.548   0.723  0.00  0.00    -0.096 F 
ATOM     11  F3  UNL d   1       3.746   1.232   1.325  0.00  0.00    -0.097 F 
ATOM     12  F4  UNL d   1       3.941  -1.457   0.910  0.00  0.00    -0.092 F 
ENDROOT
TORSDOF 0
ENDMDL
