MODEL 1
REMARK minimizedAffinity 1.36205876
REMARK minimizedRMSD -1
REMARK  0 active torsions:
REMARK  status: ('A' for Active; 'I' for Inactive)
ROOT
ATOM      1  C   UNL d   1       2.174   1.111   0.942  0.00  0.00     0.124 A 
ATOM      2  C1  UNL d   1       2.344  -0.252   1.146  0.00  0.00     0.062 A 
ATOM      3  C2  UNL d   1       1.554  -1.166   0.455  0.00  0.00     0.162 A 
ATOM      4  C3  UNL d   1       0.588  -0.721  -0.448  0.00  0.00    -0.034 A 
ATOM      5  C4  UNL d   1       0.423   0.651  -0.646  0.00  0.00     0.162 A 
ATOM      6  C5  UNL d   1       1.214   1.560   0.047  0.00  0.00     0.062 A 
ATOM      7  F   UNL d   1       1.049   2.876  -0.151  0.00  0.00    -0.097 F 
ATOM      8  F1  UNL d   1      -0.497   1.113  -1.506  0.00  0.00    -0.096 F 
ATOM      9  I   UNL d   1      -0.595  -2.086  -1.483  0.00  0.00    -0.060 I 
ATOM     10  F2  UNL d   1       1.740  -2.477   0.671  0.00  0.00    -0.096 F 
ATOM     11  F3  UNL d   1       3.270  -0.689   2.011  0.00  0.00    -0.097 F 
ATOM     12  F4  UNL d   1       2.935   1.988   1.609  0.00  0.00    -0.092 F 
ENDROOT
TORSDOF 0
ENDMDL
