MODEL 1
REMARK minimizedAffinity -0.642420709
REMARK minimizedRMSD -1
REMARK  0 active torsions:
REMARK  status: ('A' for Active; 'I' for Inactive)
ROOT
ATOM      1  C   UNL d   1      -0.964  -0.741   0.295  0.00  0.00     0.020 A 
ATOM      2  C1  UNL d   1      -0.915  -0.058   1.510  0.00  0.00     0.020 A 
ATOM      3  C2  UNL d   1      -0.142   1.098   1.631  0.00  0.00     0.034 A 
ATOM      4  C3  UNL d   1       0.586   1.576   0.535  0.00  0.00     0.017 A 
ATOM      5  C4  UNL d   1       0.537   0.890  -0.684  0.00  0.00     0.017 A 
ATOM      6  C5  UNL d   1      -0.239  -0.267  -0.800  0.00  0.00     0.034 A 
ATOM      7 Cl   UNL d   1       1.408   1.419  -2.080  0.00  0.00    -0.070 Cl
ATOM      8 Cl1  UNL d   1       1.521   3.012   0.756  0.00  0.00    -0.070 Cl
ENDROOT
TORSDOF 0
ENDMDL
