MODEL 1
REMARK minimizedAffinity 3.21202874
REMARK minimizedRMSD -1
REMARK  0 active torsions:
REMARK  status: ('A' for Active; 'I' for Inactive)
ROOT
ATOM      1  C   UNL d   1       1.529   2.750   0.006  0.00  0.00     0.020 A 
ATOM      2  C1  UNL d   1       1.776   1.783  -0.968  0.00  0.00     0.020 A 
ATOM      3  C2  UNL d   1       1.210   0.512  -0.849  0.00  0.00     0.034 A 
ATOM      4  C3  UNL d   1       0.395   0.205   0.247  0.00  0.00     0.017 A 
ATOM      5  C4  UNL d   1       0.148   1.176   1.224  0.00  0.00     0.017 A 
ATOM      6  C5  UNL d   1       0.717   2.447   1.099  0.00  0.00     0.034 A 
ATOM      7 Cl   UNL d   1      -0.847   0.871   2.604  0.00  0.00    -0.070 Cl
ATOM      8 Cl1  UNL d   1      -0.273  -1.387   0.330  0.00  0.00    -0.070 Cl
ENDROOT
TORSDOF 0
ENDMDL
