MODEL 1
REMARK minimizedAffinity 2.49667931
REMARK minimizedRMSD -1
REMARK  0 active torsions:
REMARK  status: ('A' for Active; 'I' for Inactive)
ROOT
ATOM      1  C   UNL d   1       0.595  -0.690  -0.123  0.00  0.00     0.020 A 
ATOM      2  C1  UNL d   1       0.597   0.400   0.747  0.00  0.00     0.020 A 
ATOM      3  C2  UNL d   1      -0.282   0.429   1.832  0.00  0.00     0.034 A 
ATOM      4  C3  UNL d   1      -1.166  -0.634   2.050  0.00  0.00     0.017 A 
ATOM      5  C4  UNL d   1      -1.167  -1.728   1.177  0.00  0.00     0.017 A 
ATOM      6  C5  UNL d   1      -0.285  -1.752   0.092  0.00  0.00     0.034 A 
ATOM      7 Cl   UNL d   1      -2.228  -3.077   1.382  0.00  0.00    -0.070 Cl
ATOM      8 Cl1  UNL d   1      -2.224  -0.532   3.412  0.00  0.00    -0.070 Cl
ENDROOT
TORSDOF 0
ENDMDL
