MODEL 1
REMARK minimizedAffinity 11.7997065
REMARK minimizedRMSD -1
REMARK  0 active torsions:
REMARK  status: ('A' for Active; 'I' for Inactive)
ROOT
ATOM      1  C   UNL d   1       0.514   1.299   0.188  0.00  0.00     0.020 A 
ATOM      2  C1  UNL d   1       0.026   1.246   1.493  0.00  0.00     0.020 A 
ATOM      3  C2  UNL d   1       0.848   0.796   2.529  0.00  0.00     0.034 A 
ATOM      4  C3  UNL d   1       2.163   0.398   2.261  0.00  0.00     0.017 A 
ATOM      5  C4  UNL d   1       2.652   0.452   0.951  0.00  0.00     0.017 A 
ATOM      6  C5  UNL d   1       1.825   0.904  -0.082  0.00  0.00     0.034 A 
ATOM      7 Cl   UNL d   1       4.264  -0.022   0.543  0.00  0.00    -0.070 Cl
ATOM      8 Cl1  UNL d   1       3.124  -0.147   3.590  0.00  0.00    -0.070 Cl
ENDROOT
TORSDOF 0
ENDMDL
