MODEL 1
REMARK minimizedAffinity 16.1051903
REMARK minimizedRMSD -1
REMARK  0 active torsions:
REMARK  status: ('A' for Active; 'I' for Inactive)
ROOT
ATOM      1  C   UNL d   1       0.674   1.051  -0.378  0.00  0.00     0.020 A 
ATOM      2  C1  UNL d   1       0.945   0.249   0.729  0.00  0.00     0.020 A 
ATOM      3  C2  UNL d   1      -0.105  -0.267   1.491  0.00  0.00     0.034 A 
ATOM      4  C3  UNL d   1      -1.431   0.019   1.147  0.00  0.00     0.017 A 
ATOM      5  C4  UNL d   1      -1.702   0.824   0.036  0.00  0.00     0.017 A 
ATOM      6  C5  UNL d   1      -0.647   1.338  -0.724  0.00  0.00     0.034 A 
ATOM      7 Cl   UNL d   1      -3.313   1.221  -0.451  0.00  0.00    -0.070 Cl
ATOM      8 Cl1  UNL d   1      -2.680  -0.653   2.135  0.00  0.00    -0.070 Cl
ENDROOT
TORSDOF 0
ENDMDL
