MODEL 1
REMARK minimizedAffinity 16.243576
REMARK minimizedRMSD -1
REMARK  0 active torsions:
REMARK  status: ('A' for Active; 'I' for Inactive)
ROOT
ATOM      1  C   UNL d   1       1.493   1.095   0.683  0.00  0.00     0.020 A 
ATOM      2  C1  UNL d   1       2.557   0.298   0.262  0.00  0.00     0.020 A 
ATOM      3  C2  UNL d   1       2.945   0.303  -1.079  0.00  0.00     0.034 A 
ATOM      4  C3  UNL d   1       2.270   1.108  -2.004  0.00  0.00     0.017 A 
ATOM      5  C4  UNL d   1       1.202   1.908  -1.581  0.00  0.00     0.017 A 
ATOM      6  C5  UNL d   1       0.817   1.898  -0.236  0.00  0.00     0.034 A 
ATOM      7 Cl   UNL d   1       0.321   2.927  -2.663  0.00  0.00    -0.070 Cl
ATOM      8 Cl1  UNL d   1       2.804   1.066  -3.647  0.00  0.00    -0.070 Cl
ENDROOT
TORSDOF 0
ENDMDL
