MODEL 1
REMARK minimizedAffinity 0.541851997
REMARK minimizedRMSD -1
REMARK  0 active torsions:
REMARK  status: ('A' for Active; 'I' for Inactive)
ROOT
ATOM      1  C   UNL d   1       0.805  -0.029   0.569  0.00  0.00     0.020 A 
ATOM      2  C1  UNL d   1       0.972  -1.219  -0.139  0.00  0.00     0.020 A 
ATOM      3  C2  UNL d   1       0.067  -2.268   0.035  0.00  0.00     0.034 A 
ATOM      4  C3  UNL d   1      -1.009  -2.130   0.919  0.00  0.00     0.017 A 
ATOM      5  C4  UNL d   1      -1.176  -0.936   1.630  0.00  0.00     0.017 A 
ATOM      6  C5  UNL d   1      -0.267   0.112   1.451  0.00  0.00     0.034 A 
ATOM      7 Cl   UNL d   1      -2.479  -0.691   2.739  0.00  0.00    -0.070 Cl
ATOM      8 Cl1  UNL d   1      -2.089  -3.468   1.085  0.00  0.00    -0.070 Cl
ENDROOT
TORSDOF 0
ENDMDL
