MODEL 1
REMARK minimizedAffinity 7.72960281
REMARK minimizedRMSD -1
REMARK  0 active torsions:
REMARK  status: ('A' for Active; 'I' for Inactive)
ROOT
ATOM      1  C   UNL d   1      -3.094   2.342  -1.994  0.00  0.00     0.020 A 
ATOM      2  C1  UNL d   1      -2.767   2.452  -3.345  0.00  0.00     0.020 A 
ATOM      3  C2  UNL d   1      -2.009   3.535  -3.794  0.00  0.00     0.034 A 
ATOM      4  C3  UNL d   1      -1.575   4.513  -2.891  0.00  0.00     0.017 A 
ATOM      5  C4  UNL d   1      -1.903   4.401  -1.535  0.00  0.00     0.017 A 
ATOM      6  C5  UNL d   1      -2.662   3.314  -1.091  0.00  0.00     0.034 A 
ATOM      7 Cl   UNL d   1      -1.402   5.567  -0.362  0.00  0.00    -0.070 Cl
ATOM      8 Cl1  UNL d   1      -0.640   5.825  -3.516  0.00  0.00    -0.070 Cl
ENDROOT
TORSDOF 0
ENDMDL
