MODEL 1
REMARK minimizedAffinity 2.88403797
REMARK minimizedRMSD -1
REMARK  0 active torsions:
REMARK  status: ('A' for Active; 'I' for Inactive)
ROOT
ATOM      1  C   UNL d   1       1.314   5.997  -5.982  0.00  0.00     0.020 A 
ATOM      2  C1  UNL d   1       2.013   5.997  -4.775  0.00  0.00     0.020 A 
ATOM      3  C2  UNL d   1       1.317   5.995  -3.565  0.00  0.00     0.034 A 
ATOM      4  C3  UNL d   1      -0.083   5.994  -3.558  0.00  0.00     0.017 A 
ATOM      5  C4  UNL d   1      -0.784   5.994  -4.770  0.00  0.00     0.017 A 
ATOM      6  C5  UNL d   1      -0.081   5.996  -5.979  0.00  0.00     0.034 A 
ATOM      7 Cl   UNL d   1      -2.510   5.992  -4.842  0.00  0.00    -0.070 Cl
ATOM      8 Cl1  UNL d   1      -0.879   5.991  -2.025  0.00  0.00    -0.070 Cl
ENDROOT
TORSDOF 0
ENDMDL
