MODEL 1
REMARK minimizedAffinity 1.29103267
REMARK minimizedRMSD -1
REMARK  0 active torsions:
REMARK  status: ('A' for Active; 'I' for Inactive)
ROOT
ATOM      1  C   UNL d   1       1.997   6.000  -6.000  0.00  0.00     0.020 A 
ATOM      2  C1  UNL d   1       0.749   5.504  -5.622  0.00  0.00     0.020 A 
ATOM      3  C2  UNL d   1       0.665   4.363  -4.821  0.00  0.00     0.034 A 
ATOM      4  C3  UNL d   1       1.829   3.714  -4.396  0.00  0.00     0.017 A 
ATOM      5  C4  UNL d   1       3.081   4.212  -4.776  0.00  0.00     0.017 A 
ATOM      6  C5  UNL d   1       3.160   5.355  -5.578  0.00  0.00     0.034 A 
ATOM      7 Cl   UNL d   1       4.562   3.465  -4.291  0.00  0.00    -0.070 Cl
ATOM      8 Cl1  UNL d   1       1.650   2.308  -3.408  0.00  0.00    -0.070 Cl
ENDROOT
TORSDOF 0
ENDMDL
