MODEL 1
REMARK minimizedAffinity -0.338237196
REMARK minimizedRMSD -1
REMARK  0 active torsions:
REMARK  status: ('A' for Active; 'I' for Inactive)
ROOT
ATOM      1  C   UNL d   1      -4.286   5.999  -2.582  0.00  0.00     0.020 A 
ATOM      2  C1  UNL d   1      -4.414   5.996  -3.970  0.00  0.00     0.020 A 
ATOM      3  C2  UNL d   1      -3.274   5.993  -4.776  0.00  0.00     0.034 A 
ATOM      4  C3  UNL d   1      -2.001   5.992  -4.195  0.00  0.00     0.017 A 
ATOM      5  C4  UNL d   1      -1.873   5.995  -2.801  0.00  0.00     0.017 A 
ATOM      6  C5  UNL d   1      -3.018   5.998  -1.998  0.00  0.00     0.034 A 
ATOM      7 Cl   UNL d   1      -0.336   5.995  -2.011  0.00  0.00    -0.070 Cl
ATOM      8 Cl1  UNL d   1      -0.634   5.988  -5.252  0.00  0.00    -0.070 Cl
ENDROOT
TORSDOF 0
ENDMDL
