MODEL 1
REMARK minimizedAffinity 6.04135847
REMARK minimizedRMSD -1
REMARK  0 active torsions:
REMARK  status: ('A' for Active; 'I' for Inactive)
ROOT
ATOM      1  C   UNL d   1       0.671   1.391  -0.541  0.00  0.00     0.020 A 
ATOM      2  C1  UNL d   1       1.567   2.142   0.219  0.00  0.00     0.020 A 
ATOM      3  C2  UNL d   1       1.579   2.016   1.609  0.00  0.00     0.034 A 
ATOM      4  C3  UNL d   1       0.693   1.138   2.244  0.00  0.00     0.017 A 
ATOM      5  C4  UNL d   1      -0.206   0.385   1.481  0.00  0.00     0.017 A 
ATOM      6  C5  UNL d   1      -0.214   0.515   0.088  0.00  0.00     0.034 A 
ATOM      7 Cl   UNL d   1      -1.329  -0.718   2.193  0.00  0.00    -0.070 Cl
ATOM      8 Cl1  UNL d   1       0.763   1.033   3.968  0.00  0.00    -0.070 Cl
ENDROOT
TORSDOF 0
ENDMDL
