MODEL 1
REMARK minimizedAffinity 5.21426725
REMARK minimizedRMSD -1
REMARK  0 active torsions:
REMARK  status: ('A' for Active; 'I' for Inactive)
ROOT
ATOM      1  C   UNL d   1       1.453   3.699   0.287  0.00  0.00     0.020 A 
ATOM      2  C1  UNL d   1       1.843   2.837  -0.737  0.00  0.00     0.020 A 
ATOM      3  C2  UNL d   1       1.530   1.478  -0.663  0.00  0.00     0.034 A 
ATOM      4  C3  UNL d   1       0.826   0.977   0.439  0.00  0.00     0.017 A 
ATOM      5  C4  UNL d   1       0.436   1.843   1.466  0.00  0.00     0.017 A 
ATOM      6  C5  UNL d   1       0.751   3.203   1.386  0.00  0.00     0.034 A 
ATOM      7 Cl   UNL d   1      -0.436   1.299   2.856  0.00  0.00    -0.070 Cl
ATOM      8 Cl1  UNL d   1       0.474  -0.714   0.465  0.00  0.00    -0.070 Cl
ENDROOT
TORSDOF 0
ENDMDL
