MODEL 1
REMARK minimizedAffinity 6.13315201
REMARK minimizedRMSD -1
REMARK  0 active torsions:
REMARK  status: ('A' for Active; 'I' for Inactive)
ROOT
ATOM      1  C   UNL d   1      -1.009   0.216   2.441  0.00  0.00     0.020 A 
ATOM      2  C1  UNL d   1      -1.092  -0.965   1.705  0.00  0.00     0.020 A 
ATOM      3  C2  UNL d   1      -0.283  -1.145   0.581  0.00  0.00     0.034 A 
ATOM      4  C3  UNL d   1       0.612  -0.142   0.190  0.00  0.00     0.017 A 
ATOM      5  C4  UNL d   1       0.694   1.043   0.930  0.00  0.00     0.017 A 
ATOM      6  C5  UNL d   1      -0.119   1.218   2.055  0.00  0.00     0.034 A 
ATOM      7 Cl   UNL d   1       1.773   2.326   0.509  0.00  0.00    -0.070 Cl
ATOM      8 Cl1  UNL d   1       1.581  -0.432  -1.211  0.00  0.00    -0.070 Cl
ENDROOT
TORSDOF 0
ENDMDL
