MODEL 1
REMARK minimizedAffinity 3.47828245
REMARK minimizedRMSD -1
REMARK  0 active torsions:
REMARK  status: ('A' for Active; 'I' for Inactive)
ROOT
ATOM      1  C   UNL d   1       0.103  -0.173   0.106  0.00  0.00     0.020 A 
ATOM      2  C1  UNL d   1      -1.238   0.124  -0.131  0.00  0.00     0.020 A 
ATOM      3  C2  UNL d   1      -1.743   0.083  -1.433  0.00  0.00     0.034 A 
ATOM      4  C3  UNL d   1      -0.905  -0.257  -2.502  0.00  0.00     0.017 A 
ATOM      5  C4  UNL d   1       0.441  -0.555  -2.262  0.00  0.00     0.017 A 
ATOM      6  C5  UNL d   1       0.941  -0.512  -0.957  0.00  0.00     0.034 A 
ATOM      7 Cl   UNL d   1       1.535  -0.983  -3.530  0.00  0.00    -0.070 Cl
ATOM      8 Cl1  UNL d   1      -1.596  -0.289  -4.085  0.00  0.00    -0.070 Cl
ENDROOT
TORSDOF 0
ENDMDL
