MODEL 1
REMARK minimizedAffinity 0.763551295
REMARK minimizedRMSD -1
REMARK  0 active torsions:
REMARK  status: ('A' for Active; 'I' for Inactive)
ROOT
ATOM      1  C   UNL d   1       0.828   0.573  -1.588  0.00  0.00     0.020 A 
ATOM      2  C1  UNL d   1       0.310  -0.408  -0.743  0.00  0.00     0.020 A 
ATOM      3  C2  UNL d   1       0.211  -0.167   0.629  0.00  0.00     0.034 A 
ATOM      4  C3  UNL d   1       0.631   1.058   1.160  0.00  0.00     0.017 A 
ATOM      5  C4  UNL d   1       1.151   2.042   0.311  0.00  0.00     0.017 A 
ATOM      6  C5  UNL d   1       1.248   1.795  -1.062  0.00  0.00     0.034 A 
ATOM      7 Cl   UNL d   1       1.690   3.578   0.893  0.00  0.00    -0.070 Cl
ATOM      8 Cl1  UNL d   1       0.480   1.289   2.866  0.00  0.00    -0.070 Cl
ENDROOT
TORSDOF 0
ENDMDL
