MODEL 1
REMARK minimizedAffinity 5.50883961
REMARK minimizedRMSD -1
REMARK  0 active torsions:
REMARK  status: ('A' for Active; 'I' for Inactive)
ROOT
ATOM      1  C   UNL d   1      -0.502   1.574   3.101  0.00  0.00     0.020 A 
ATOM      2  C1  UNL d   1       0.503   2.314   2.480  0.00  0.00     0.020 A 
ATOM      3  C2  UNL d   1       1.087   1.847   1.300  0.00  0.00     0.034 A 
ATOM      4  C3  UNL d   1       0.666   0.637   0.737  0.00  0.00     0.017 A 
ATOM      5  C4  UNL d   1      -0.343  -0.106   1.361  0.00  0.00     0.017 A 
ATOM      6  C5  UNL d   1      -0.924   0.366   2.542  0.00  0.00     0.034 A 
ATOM      7 Cl   UNL d   1      -0.916  -1.608   0.727  0.00  0.00    -0.070 Cl
ATOM      8 Cl1  UNL d   1       1.431   0.120  -0.723  0.00  0.00    -0.070 Cl
ENDROOT
TORSDOF 0
ENDMDL
