MODEL 1
REMARK minimizedAffinity 2.54628754
REMARK minimizedRMSD -1
REMARK  0 active torsions:
REMARK  status: ('A' for Active; 'I' for Inactive)
ROOT
ATOM      1  C   UNL d   1       1.688   1.649   0.138  0.00  0.00     0.020 A 
ATOM      2  C1  UNL d   1       0.773   0.782  -0.459  0.00  0.00     0.020 A 
ATOM      3  C2  UNL d   1      -0.170   0.114   0.324  0.00  0.00     0.034 A 
ATOM      4  C3  UNL d   1      -0.200   0.311   1.710  0.00  0.00     0.017 A 
ATOM      5  C4  UNL d   1       0.718   1.182   2.308  0.00  0.00     0.017 A 
ATOM      6  C5  UNL d   1       1.660   1.848   1.519  0.00  0.00     0.034 A 
ATOM      7 Cl   UNL d   1       0.742   1.476   4.011  0.00  0.00    -0.070 Cl
ATOM      8 Cl1  UNL d   1      -1.394  -0.548   2.617  0.00  0.00    -0.070 Cl
ENDROOT
TORSDOF 0
ENDMDL
