MODEL 1
REMARK minimizedAffinity 6.32404613
REMARK minimizedRMSD -1
REMARK  1 active torsions:
REMARK  status: ('A' for Active; 'I' for Inactive)
REMARK    1  A    between atoms: C1_2  and  C2_3 
ROOT
ATOM      1  C2  UNL d   1      -1.495  -2.508  -4.124  0.00  0.00    -0.073 A 
ATOM      2  C3  UNL d   1      -2.702  -2.991  -4.642  0.00  0.00    -0.002 A 
ATOM      3  C4  UNL d   1      -2.703  -4.029  -5.575  0.00  0.00     0.004 A 
ATOM      4  C5  UNL d   1      -1.500  -4.597  -5.995  0.00  0.00    -0.004 A 
ATOM      5  C6  UNL d   1      -0.285  -4.135  -5.480  0.00  0.00    -0.075 A 
ATOM      6  C7  UNL d   1       1.018  -4.734  -5.923  0.00  0.00     0.076 C 
ATOM      7  C8  UNL d   1      -0.292  -3.091  -4.545  0.00  0.00     0.001 A 
ENDROOT
BRANCH   1   8
ATOM      8  C1  UNL d   1      -1.489  -1.392  -3.111  0.00  0.00     0.053 C 
ATOM      9  C   UNL d   1      -1.936  -1.866  -1.738  0.00  0.00     0.018 C 
ENDBRANCH   1   8
TORSDOF 1
ENDMDL
