MODEL 1
REMARK minimizedAffinity 10.3344259
REMARK minimizedRMSD -1
REMARK  1 active torsions:
REMARK  status: ('A' for Active; 'I' for Inactive)
REMARK    1  A    between atoms: C1_2  and  C2_3 
ROOT
ATOM      1  C2  UNL d   1      -1.214  -2.325  -1.867  0.00  0.00    -0.073 A 
ATOM      2  C3  UNL d   1      -0.066  -3.011  -1.456  0.00  0.00    -0.002 A 
ATOM      3  C4  UNL d   1       0.277  -3.065  -0.105  0.00  0.00     0.004 A 
ATOM      4  C5  UNL d   1      -0.527  -2.442   0.849  0.00  0.00    -0.004 A 
ATOM      5  C6  UNL d   1      -1.686  -1.762   0.460  0.00  0.00    -0.075 A 
ATOM      6  C7  UNL d   1      -2.560  -1.085   1.473  0.00  0.00     0.076 C 
ATOM      7  C8  UNL d   1      -2.022  -1.710  -0.900  0.00  0.00     0.001 A 
ENDROOT
BRANCH   1   8
ATOM      8  C1  UNL d   1      -1.592  -2.269  -3.325  0.00  0.00     0.053 C 
ATOM      9  C   UNL d   1      -2.083  -3.614  -3.839  0.00  0.00     0.018 C 
ENDBRANCH   1   8
TORSDOF 1
ENDMDL
