MODEL 1
REMARK minimizedAffinity 14.3146057
REMARK minimizedRMSD -1
REMARK  1 active torsions:
REMARK  status: ('A' for Active; 'I' for Inactive)
REMARK    1  A    between atoms: C1_2  and  C2_3 
ROOT
ATOM      1  C2  UNL d   1      -2.239  -2.662  -3.197  0.00  0.00    -0.073 A 
ATOM      2  C3  UNL d   1      -2.619  -1.531  -3.928  0.00  0.00    -0.002 A 
ATOM      3  C4  UNL d   1      -2.635  -1.566  -5.323  0.00  0.00     0.004 A 
ATOM      4  C5  UNL d   1      -2.277  -2.732  -6.000  0.00  0.00    -0.004 A 
ATOM      5  C6  UNL d   1      -1.906  -3.876  -5.287  0.00  0.00    -0.075 A 
ATOM      6  C7  UNL d   1      -1.516  -5.138  -6.000  0.00  0.00     0.076 C 
ATOM      7  C8  UNL d   1      -1.891  -3.833  -3.886  0.00  0.00     0.001 A 
ENDROOT
BRANCH   1   8
ATOM      8  C1  UNL d   1      -2.228  -2.632  -1.690  0.00  0.00     0.053 C 
ATOM      9  C   UNL d   1      -0.856  -2.961  -1.124  0.00  0.00     0.018 C 
ENDBRANCH   1   8
TORSDOF 1
ENDMDL
