MODEL 1
REMARK minimizedAffinity 10.8638268
REMARK minimizedRMSD -1
REMARK  1 active torsions:
REMARK  status: ('A' for Active; 'I' for Inactive)
REMARK    1  A    between atoms: C1_2  and  C2_3 
ROOT
ATOM      1  C2  UNL d   1      -1.899  -2.502  -2.377  0.00  0.00    -0.073 A 
ATOM      2  C3  UNL d   1      -2.967  -3.396  -2.519  0.00  0.00    -0.002 A 
ATOM      3  C4  UNL d   1      -3.329  -3.866  -3.782  0.00  0.00     0.004 A 
ATOM      4  C5  UNL d   1      -2.625  -3.454  -4.914  0.00  0.00    -0.004 A 
ATOM      5  C6  UNL d   1      -1.547  -2.571  -4.791  0.00  0.00    -0.075 A 
ATOM      6  C7  UNL d   1      -0.781  -2.117  -5.998  0.00  0.00     0.076 C 
ATOM      7  C8  UNL d   1      -1.191  -2.101  -3.519  0.00  0.00     0.001 A 
ENDROOT
BRANCH   1   8
ATOM      8  C1  UNL d   1      -1.500  -1.997  -1.015  0.00  0.00     0.053 C 
ATOM      9  C   UNL d   1      -0.239  -2.673  -0.503  0.00  0.00     0.018 C 
ENDBRANCH   1   8
TORSDOF 1
ENDMDL
