MODEL 1
REMARK minimizedAffinity 7.21586943
REMARK minimizedRMSD -1
REMARK  1 active torsions:
REMARK  status: ('A' for Active; 'I' for Inactive)
REMARK    1  A    between atoms: C1_2  and  C2_3 
ROOT
ATOM      1  C2  UNL d   1       2.355   4.513  -5.280  0.00  0.00    -0.073 A 
ATOM      2  C3  UNL d   1       2.588   3.334  -5.998  0.00  0.00    -0.002 A 
ATOM      3  C4  UNL d   1       2.938   2.160  -5.330  0.00  0.00     0.004 A 
ATOM      4  C5  UNL d   1       3.053   2.150  -3.940  0.00  0.00    -0.004 A 
ATOM      5  C6  UNL d   1       2.813   3.315  -3.204  0.00  0.00    -0.075 A 
ATOM      6  C7  UNL d   1       2.934   3.321  -1.709  0.00  0.00     0.076 C 
ATOM      7  C8  UNL d   1       2.464   4.491  -3.882  0.00  0.00     0.001 A 
ENDROOT
BRANCH   1   8
ATOM      8  C1  UNL d   1       1.970   5.782  -5.996  0.00  0.00     0.053 C 
ATOM      9  C   UNL d   1       0.466   6.000  -6.000  0.00  0.00     0.018 C 
ENDBRANCH   1   8
TORSDOF 1
ENDMDL
