MODEL 1
REMARK minimizedAffinity -0.011609924
REMARK minimizedRMSD -1
REMARK  1 active torsions:
REMARK  status: ('A' for Active; 'I' for Inactive)
REMARK    1  A    between atoms: C1_2  and  C2_3 
ROOT
ATOM      1  C2  UNL d   1       5.051   1.518  -4.719  0.00  0.00    -0.073 A 
ATOM      2  C3  UNL d   1       4.498   1.957  -5.928  0.00  0.00    -0.002 A 
ATOM      3  C4  UNL d   1       3.627   3.047  -5.950  0.00  0.00     0.004 A 
ATOM      4  C5  UNL d   1       3.306   3.713  -4.767  0.00  0.00    -0.004 A 
ATOM      5  C6  UNL d   1       3.857   3.297  -3.551  0.00  0.00    -0.075 A 
ATOM      6  C7  UNL d   1       3.520   4.001  -2.270  0.00  0.00     0.076 C 
ATOM      7  C8  UNL d   1       4.729   2.200  -3.536  0.00  0.00     0.001 A 
ENDROOT
BRANCH   1   8
ATOM      8  C1  UNL d   1       5.997   0.345  -4.691  0.00  0.00     0.053 C 
ATOM      9  C   UNL d   1       5.985  -0.428  -6.000  0.00  0.00     0.018 C 
ENDBRANCH   1   8
TORSDOF 1
ENDMDL
