MODEL 1
REMARK minimizedAffinity -0.584356964
REMARK minimizedRMSD -1
REMARK  1 active torsions:
REMARK  status: ('A' for Active; 'I' for Inactive)
REMARK    1  A    between atoms: C1_2  and  C2_3 
ROOT
ATOM      1  C2  UNL d   1       2.938   3.345  -5.631  0.00  0.00    -0.073 A 
ATOM      2  C3  UNL d   1       1.939   4.206  -5.162  0.00  0.00    -0.002 A 
ATOM      3  C4  UNL d   1       2.246   5.526  -4.828  0.00  0.00     0.004 A 
ATOM      4  C5  UNL d   1       3.550   6.000  -4.965  0.00  0.00    -0.004 A 
ATOM      5  C6  UNL d   1       4.560   5.158  -5.443  0.00  0.00    -0.075 A 
ATOM      6  C7  UNL d   1       5.969   5.652  -5.595  0.00  0.00     0.076 C 
ATOM      7  C8  UNL d   1       4.245   3.834  -5.774  0.00  0.00     0.001 A 
ENDROOT
BRANCH   1   8
ATOM      8  C1  UNL d   1       2.610   1.922  -6.000  0.00  0.00     0.053 C 
ATOM      9  C   UNL d   1       3.728   0.963  -5.621  0.00  0.00     0.018 C 
ENDBRANCH   1   8
TORSDOF 1
ENDMDL
