MODEL 1
REMARK minimizedAffinity 8.88411999
REMARK minimizedRMSD -1
REMARK  1 active torsions:
REMARK  status: ('A' for Active; 'I' for Inactive)
REMARK    1  A    between atoms: C1_2  and  C2_3 
ROOT
ATOM      1  C2  UNL d   1       4.164   1.536  -5.299  0.00  0.00    -0.073 A 
ATOM      2  C3  UNL d   1       4.822   0.518  -5.999  0.00  0.00    -0.002 A 
ATOM      3  C4  UNL d   1       5.737  -0.309  -5.346  0.00  0.00     0.004 A 
ATOM      4  C5  UNL d   1       5.998  -0.132  -3.988  0.00  0.00    -0.004 A 
ATOM      5  C6  UNL d   1       5.342   0.872  -3.268  0.00  0.00    -0.075 A 
ATOM      6  C7  UNL d   1       5.613   1.077  -1.807  0.00  0.00     0.076 C 
ATOM      7  C8  UNL d   1       4.426   1.700  -3.931  0.00  0.00     0.001 A 
ENDROOT
BRANCH   1   8
ATOM      8  C1  UNL d   1       3.170   2.427  -5.998  0.00  0.00     0.053 C 
ATOM      9  C   UNL d   1       2.180   3.049  -5.027  0.00  0.00     0.018 C 
ENDBRANCH   1   8
TORSDOF 1
ENDMDL
