MODEL 1
REMARK minimizedAffinity 2.25277591
REMARK minimizedRMSD -1
REMARK  1 active torsions:
REMARK  status: ('A' for Active; 'I' for Inactive)
REMARK    1  A    between atoms: C1_2  and  C2_3 
ROOT
ATOM      1  C2  UNL d   1       2.686   3.281  -5.657  0.00  0.00    -0.073 A 
ATOM      2  C3  UNL d   1       1.651   3.994  -5.042  0.00  0.00    -0.002 A 
ATOM      3  C4  UNL d   1       1.812   5.345  -4.731  0.00  0.00     0.004 A 
ATOM      4  C5  UNL d   1       3.005   5.998  -5.039  0.00  0.00    -0.004 A 
ATOM      5  C6  UNL d   1       4.047   5.306  -5.665  0.00  0.00    -0.075 A 
ATOM      6  C7  UNL d   1       5.338   5.994  -6.000  0.00  0.00     0.076 C 
ATOM      7  C8  UNL d   1       3.879   3.949  -5.970  0.00  0.00     0.001 A 
ENDROOT
BRANCH   1   8
ATOM      8  C1  UNL d   1       2.515   1.824  -6.000  0.00  0.00     0.053 C 
ATOM      9  C   UNL d   1       3.802   1.038  -5.806  0.00  0.00     0.018 C 
ENDBRANCH   1   8
TORSDOF 1
ENDMDL
