MODEL 1
REMARK minimizedAffinity -0.478663087
REMARK minimizedRMSD -1
REMARK  1 active torsions:
REMARK  status: ('A' for Active; 'I' for Inactive)
REMARK    1  A    between atoms: C1_2  and  C2_3 
ROOT
ATOM      1  C2  UNL d   1       4.023   4.057  -5.985  0.00  0.00    -0.073 A 
ATOM      2  C3  UNL d   1       3.555   2.738  -5.994  0.00  0.00    -0.002 A 
ATOM      3  C4  UNL d   1       2.184   2.476  -5.996  0.00  0.00     0.004 A 
ATOM      4  C5  UNL d   1       1.269   3.528  -5.997  0.00  0.00    -0.004 A 
ATOM      5  C6  UNL d   1       1.717   4.853  -6.000  0.00  0.00    -0.075 A 
ATOM      6  C7  UNL d   1       0.744   5.996  -5.998  0.00  0.00     0.076 C 
ATOM      7  C8  UNL d   1       3.095   5.108  -5.995  0.00  0.00     0.001 A 
ENDROOT
BRANCH   1   8
ATOM      8  C1  UNL d   1       5.502   4.344  -5.989  0.00  0.00     0.053 C 
ATOM      9  C   UNL d   1       5.793   5.836  -5.937  0.00  0.00     0.018 C 
ENDBRANCH   1   8
TORSDOF 1
ENDMDL
