MODEL 1
REMARK minimizedAffinity 0.776104391
REMARK minimizedRMSD -1
REMARK  1 active torsions:
REMARK  status: ('A' for Active; 'I' for Inactive)
REMARK    1  A    between atoms: C1_2  and  C2_3 
ROOT
ATOM      1  C2  UNL d   1       2.543   1.315   1.876  0.00  0.00    -0.073 A 
ATOM      2  C3  UNL d   1       2.862   2.472   1.157  0.00  0.00    -0.002 A 
ATOM      3  C4  UNL d   1       4.190   2.764   0.845  0.00  0.00     0.004 A 
ATOM      4  C5  UNL d   1       5.211   1.901   1.242  0.00  0.00    -0.004 A 
ATOM      5  C6  UNL d   1       4.911   0.733   1.951  0.00  0.00    -0.075 A 
ATOM      6  C7  UNL d   1       5.998  -0.205   2.388  0.00  0.00     0.076 C 
ATOM      7  C8  UNL d   1       3.575   0.448   2.263  0.00  0.00     0.001 A 
ENDROOT
BRANCH   1   8
ATOM      8  C1  UNL d   1       1.109   0.992   2.210  0.00  0.00     0.053 C 
ATOM      9  C   UNL d   1       0.821   1.145   3.695  0.00  0.00     0.018 C 
ENDBRANCH   1   8
TORSDOF 1
ENDMDL
