MODEL 1
REMARK minimizedAffinity 3.29579973
REMARK minimizedRMSD -1
REMARK  1 active torsions:
REMARK  status: ('A' for Active; 'I' for Inactive)
REMARK    1  A    between atoms: C1_2  and  C2_3 
ROOT
ATOM      1  C2  UNL d   1       4.950   1.244  -4.884  0.00  0.00    -0.073 A 
ATOM      2  C3  UNL d   1       5.224   1.306  -3.514  0.00  0.00    -0.002 A 
ATOM      3  C4  UNL d   1       5.747   2.471  -2.952  0.00  0.00     0.004 A 
ATOM      4  C5  UNL d   1       5.994   3.587  -3.752  0.00  0.00    -0.004 A 
ATOM      5  C6  UNL d   1       5.715   3.548  -5.122  0.00  0.00    -0.075 A 
ATOM      6  C7  UNL d   1       5.977   4.739  -5.996  0.00  0.00     0.076 C 
ATOM      7  C8  UNL d   1       5.193   2.373  -5.679  0.00  0.00     0.001 A 
ENDROOT
BRANCH   1   8
ATOM      8  C1  UNL d   1       4.379  -0.010  -5.495  0.00  0.00     0.053 C 
ATOM      9  C   UNL d   1       2.960   0.196  -5.999  0.00  0.00     0.018 C 
ENDBRANCH   1   8
TORSDOF 1
ENDMDL
