MODEL 1
REMARK minimizedAffinity -0.372913629
REMARK minimizedRMSD -1
REMARK  1 active torsions:
REMARK  status: ('A' for Active; 'I' for Inactive)
REMARK    1  A    between atoms: C1_2  and  C2_3 
ROOT
ATOM      1  C2  UNL d   1       3.003   2.520  -5.630  0.00  0.00    -0.073 A 
ATOM      2  C3  UNL d   1       3.539   1.272  -5.970  0.00  0.00    -0.002 A 
ATOM      3  C4  UNL d   1       4.851   0.950  -5.620  0.00  0.00     0.004 A 
ATOM      4  C5  UNL d   1       5.637   1.867  -4.923  0.00  0.00    -0.004 A 
ATOM      5  C6  UNL d   1       5.115   3.114  -4.564  0.00  0.00    -0.075 A 
ATOM      6  C7  UNL d   1       5.949   4.113  -3.816  0.00  0.00     0.076 C 
ATOM      7  C8  UNL d   1       3.798   3.432  -4.921  0.00  0.00     0.001 A 
ENDROOT
BRANCH   1   8
ATOM      8  C1  UNL d   1       1.585   2.869  -6.000  0.00  0.00     0.053 C 
ATOM      9  C   UNL d   1       1.155   4.203  -5.411  0.00  0.00     0.018 C 
ENDBRANCH   1   8
TORSDOF 1
ENDMDL
