MODEL 1
REMARK minimizedAffinity -3.1643126
REMARK minimizedRMSD -1
REMARK  1 active torsions:
REMARK  status: ('A' for Active; 'I' for Inactive)
REMARK    1  A    between atoms: C1_2  and  C2_3 
ROOT
ATOM      1  C2  UNL d   1       5.159   3.193  -4.846  0.00  0.00    -0.073 A 
ATOM      2  C3  UNL d   1       5.713   4.446  -5.130  0.00  0.00    -0.002 A 
ATOM      3  C4  UNL d   1       4.929   5.450  -5.701  0.00  0.00     0.004 A 
ATOM      4  C5  UNL d   1       3.584   5.214  -5.985  0.00  0.00    -0.004 A 
ATOM      5  C6  UNL d   1       3.009   3.972  -5.697  0.00  0.00    -0.075 A 
ATOM      6  C7  UNL d   1       1.565   3.701  -5.999  0.00  0.00     0.076 C 
ATOM      7  C8  UNL d   1       3.804   2.968  -5.127  0.00  0.00     0.001 A 
ENDROOT
BRANCH   1   8
ATOM      8  C1  UNL d   1       6.000   2.108  -4.224  0.00  0.00     0.053 C 
ATOM      9  C   UNL d   1       5.906   2.113  -2.706  0.00  0.00     0.018 C 
ENDBRANCH   1   8
TORSDOF 1
ENDMDL
