MODEL 1
REMARK minimizedAffinity 19.1378212
REMARK minimizedRMSD -1
REMARK  1 active torsions:
REMARK  status: ('A' for Active; 'I' for Inactive)
REMARK    1  A    between atoms: C1_2  and  C2_3 
ROOT
ATOM      1  C2  UNL d   1      -4.244   2.263   3.831  0.00  0.00    -0.073 A 
ATOM      2  C3  UNL d   1      -4.627   3.253   4.744  0.00  0.00    -0.002 A 
ATOM      3  C4  UNL d   1      -5.456   2.936   5.821  0.00  0.00     0.004 A 
ATOM      4  C5  UNL d   1      -5.905   1.627   6.000  0.00  0.00    -0.004 A 
ATOM      5  C6  UNL d   1      -5.524   0.622   5.105  0.00  0.00    -0.075 A 
ATOM      6  C7  UNL d   1      -6.000  -0.790   5.283  0.00  0.00     0.076 C 
ATOM      7  C8  UNL d   1      -4.693   0.949   4.025  0.00  0.00     0.001 A 
ENDROOT
BRANCH   1   8
ATOM      8  C1  UNL d   1      -3.344   2.599   2.670  0.00  0.00     0.053 C 
ATOM      9  C   UNL d   1      -1.873   2.480   3.037  0.00  0.00     0.018 C 
ENDBRANCH   1   8
TORSDOF 1
ENDMDL
