MODEL 1
REMARK minimizedAffinity 10.9232426
REMARK minimizedRMSD -1
REMARK  1 active torsions:
REMARK  status: ('A' for Active; 'I' for Inactive)
REMARK    1  A    between atoms: C1_2  and  C2_3 
ROOT
ATOM      1  C2  UNL d   1       2.991   1.058  -1.129  0.00  0.00    -0.073 A 
ATOM      2  C3  UNL d   1       3.311   0.037  -0.227  0.00  0.00    -0.002 A 
ATOM      3  C4  UNL d   1       2.914   0.125   1.108  0.00  0.00     0.004 A 
ATOM      4  C5  UNL d   1       2.189   1.230   1.553  0.00  0.00    -0.004 A 
ATOM      5  C6  UNL d   1       1.849   2.255   0.664  0.00  0.00    -0.075 A 
ATOM      6  C7  UNL d   1       1.071   3.452   1.128  0.00  0.00     0.076 C 
ATOM      7  C8  UNL d   1       2.253   2.161  -0.674  0.00  0.00     0.001 A 
ENDROOT
BRANCH   1   8
ATOM      8  C1  UNL d   1       3.412   0.964  -2.572  0.00  0.00     0.053 C 
ATOM      9  C   UNL d   1       4.546   1.923  -2.899  0.00  0.00     0.018 C 
ENDBRANCH   1   8
TORSDOF 1
ENDMDL
