MODEL 1
REMARK minimizedAffinity 15.6664362
REMARK minimizedRMSD -1
REMARK  1 active torsions:
REMARK  status: ('A' for Active; 'I' for Inactive)
REMARK    1  A    between atoms: C1_2  and  C2_3 
ROOT
ATOM      1  C2  UNL d   1      -3.168   2.787   2.520  0.00  0.00    -0.073 A 
ATOM      2  C3  UNL d   1      -1.852   2.782   2.994  0.00  0.00    -0.002 A 
ATOM      3  C4  UNL d   1      -0.825   3.337   2.230  0.00  0.00     0.004 A 
ATOM      4  C5  UNL d   1      -1.104   3.908   0.988  0.00  0.00    -0.004 A 
ATOM      5  C6  UNL d   1      -2.415   3.934   0.502  0.00  0.00    -0.075 A 
ATOM      6  C7  UNL d   1      -2.732   4.542  -0.832  0.00  0.00     0.076 C 
ATOM      7  C8  UNL d   1      -3.441   3.372   1.275  0.00  0.00     0.001 A 
ENDROOT
BRANCH   1   8
ATOM      8  C1  UNL d   1      -4.282   2.195   3.345  0.00  0.00     0.053 C 
ATOM      9  C   UNL d   1      -4.317   0.678   3.250  0.00  0.00     0.018 C 
ENDBRANCH   1   8
TORSDOF 1
ENDMDL
