MODEL 1
REMARK minimizedAffinity 12.4188862
REMARK minimizedRMSD -1
REMARK  1 active torsions:
REMARK  status: ('A' for Active; 'I' for Inactive)
REMARK    1  A    between atoms: C1_2  and  C2_3 
ROOT
ATOM      1  C2  UNL d   1      -3.102  -4.359  -2.955  0.00  0.00    -0.073 A 
ATOM      2  C3  UNL d   1      -3.763  -5.420  -2.325  0.00  0.00    -0.002 A 
ATOM      3  C4  UNL d   1      -5.141  -5.581  -2.475  0.00  0.00     0.004 A 
ATOM      4  C5  UNL d   1      -5.870  -4.689  -3.262  0.00  0.00    -0.004 A 
ATOM      5  C6  UNL d   1      -5.226  -3.630  -3.910  0.00  0.00    -0.075 A 
ATOM      6  C7  UNL d   1      -5.996  -2.662  -4.758  0.00  0.00     0.076 C 
ATOM      7  C8  UNL d   1      -3.842  -3.474  -3.752  0.00  0.00     0.001 A 
ENDROOT
BRANCH   1   8
ATOM      8  C1  UNL d   1      -1.613  -4.185  -2.801  0.00  0.00     0.053 C 
ATOM      9  C   UNL d   1      -0.835  -5.021  -3.804  0.00  0.00     0.018 C 
ENDBRANCH   1   8
TORSDOF 1
ENDMDL
