MODEL 1
REMARK minimizedAffinity 14.1085644
REMARK minimizedRMSD -1
REMARK  1 active torsions:
REMARK  status: ('A' for Active; 'I' for Inactive)
REMARK    1  A    between atoms: C1_2  and  C2_3 
ROOT
ATOM      1  C2  UNL d   1       3.703   1.172  -3.930  0.00  0.00    -0.073 A 
ATOM      2  C3  UNL d   1       3.033   1.988  -4.849  0.00  0.00    -0.002 A 
ATOM      3  C4  UNL d   1       2.225   3.035  -4.404  0.00  0.00     0.004 A 
ATOM      4  C5  UNL d   1       2.085   3.281  -3.038  0.00  0.00    -0.004 A 
ATOM      5  C6  UNL d   1       2.756   2.485  -2.105  0.00  0.00    -0.075 A 
ATOM      6  C7  UNL d   1       2.615   2.735  -0.632  0.00  0.00     0.076 C 
ATOM      7  C8  UNL d   1       3.564   1.434  -2.560  0.00  0.00     0.001 A 
ENDROOT
BRANCH   1   8
ATOM      8  C1  UNL d   1       4.582   0.044  -4.407  0.00  0.00     0.053 C 
ATOM      9  C   UNL d   1       3.803  -0.983  -5.213  0.00  0.00     0.018 C 
ENDBRANCH   1   8
TORSDOF 1
ENDMDL
