MODEL 1
REMARK minimizedAffinity 12.6748018
REMARK minimizedRMSD -1
REMARK  1 active torsions:
REMARK  status: ('A' for Active; 'I' for Inactive)
REMARK    1  A    between atoms: C1_2  and  C2_3 
ROOT
ATOM      1  C2  UNL d   1      -2.286  -2.748  -2.196  0.00  0.00    -0.073 A 
ATOM      2  C3  UNL d   1      -1.453  -1.642  -2.403  0.00  0.00    -0.002 A 
ATOM      3  C4  UNL d   1      -0.689  -1.129  -1.354  0.00  0.00     0.004 A 
ATOM      4  C5  UNL d   1      -0.744  -1.718  -0.091  0.00  0.00    -0.004 A 
ATOM      5  C6  UNL d   1      -1.561  -2.831   0.133  0.00  0.00    -0.075 A 
ATOM      6  C7  UNL d   1      -1.633  -3.476   1.486  0.00  0.00     0.076 C 
ATOM      7  C8  UNL d   1      -2.327  -3.340  -0.925  0.00  0.00     0.001 A 
ENDROOT
BRANCH   1   8
ATOM      8  C1  UNL d   1      -3.107  -3.310  -3.327  0.00  0.00     0.053 C 
ATOM      9  C   UNL d   1      -4.525  -3.645  -2.890  0.00  0.00     0.018 C 
ENDBRANCH   1   8
TORSDOF 1
ENDMDL
