MODEL 1
REMARK minimizedAffinity 5.00389576
REMARK minimizedRMSD -1
REMARK  1 active torsions:
REMARK  status: ('A' for Active; 'I' for Inactive)
REMARK    1  A    between atoms: C1_2  and  C2_3 
ROOT
ATOM      1  C2  UNL d   1       1.277   2.087   3.021  0.00  0.00    -0.073 A 
ATOM      2  C3  UNL d   1       0.445   1.866   4.125  0.00  0.00    -0.002 A 
ATOM      3  C4  UNL d   1       0.759   0.877   5.058  0.00  0.00     0.004 A 
ATOM      4  C5  UNL d   1       1.910   0.104   4.901  0.00  0.00    -0.004 A 
ATOM      5  C6  UNL d   1       2.760   0.318   3.811  0.00  0.00    -0.075 A 
ATOM      6  C7  UNL d   1       4.000  -0.506   3.626  0.00  0.00     0.076 C 
ATOM      7  C8  UNL d   1       2.436   1.311   2.877  0.00  0.00     0.001 A 
ENDROOT
BRANCH   1   8
ATOM      8  C1  UNL d   1       0.945   3.158   2.015  0.00  0.00     0.053 C 
ATOM      9  C   UNL d   1       2.079   4.158   1.852  0.00  0.00     0.018 C 
ENDBRANCH   1   8
TORSDOF 1
ENDMDL
