MODEL 1
REMARK minimizedAffinity 20.2030811
REMARK minimizedRMSD -1
REMARK  1 active torsions:
REMARK  status: ('A' for Active; 'I' for Inactive)
REMARK    1  A    between atoms: C1_2  and  C2_3 
ROOT
ATOM      1  C2  UNL d   1      -2.221  -3.180  -0.294  0.00  0.00    -0.073 A 
ATOM      2  C3  UNL d   1      -1.246  -2.638   0.551  0.00  0.00    -0.002 A 
ATOM      3  C4  UNL d   1      -1.035  -3.177   1.820  0.00  0.00     0.004 A 
ATOM      4  C5  UNL d   1      -1.791  -4.266   2.255  0.00  0.00    -0.004 A 
ATOM      5  C6  UNL d   1      -2.762  -4.829   1.421  0.00  0.00    -0.075 A 
ATOM      6  C7  UNL d   1      -3.585  -5.999   1.874  0.00  0.00     0.076 C 
ATOM      7  C8  UNL d   1      -2.970  -4.280   0.148  0.00  0.00     0.001 A 
ENDROOT
BRANCH   1   8
ATOM      8  C1  UNL d   1      -2.448  -2.604  -1.668  0.00  0.00     0.053 C 
ATOM      9  C   UNL d   1      -3.069  -3.619  -2.616  0.00  0.00     0.018 C 
ENDBRANCH   1   8
TORSDOF 1
ENDMDL
