MODEL 1
REMARK minimizedAffinity 17.7224255
REMARK minimizedRMSD -1
REMARK  1 active torsions:
REMARK  status: ('A' for Active; 'I' for Inactive)
REMARK    1  A    between atoms: C1_2  and  C2_3 
ROOT
ATOM      1  C2  UNL d   1       3.904   1.149  -4.514  0.00  0.00    -0.073 A 
ATOM      2  C3  UNL d   1       4.045   1.178  -3.122  0.00  0.00    -0.002 A 
ATOM      3  C4  UNL d   1       3.451   2.196  -2.374  0.00  0.00     0.004 A 
ATOM      4  C5  UNL d   1       2.706   3.190  -3.009  0.00  0.00    -0.004 A 
ATOM      5  C6  UNL d   1       2.544   3.172  -4.398  0.00  0.00    -0.075 A 
ATOM      6  C7  UNL d   1       1.748   4.235  -5.096  0.00  0.00     0.076 C 
ATOM      7  C8  UNL d   1       3.146   2.148  -5.142  0.00  0.00     0.001 A 
ENDROOT
BRANCH   1   8
ATOM      8  C1  UNL d   1       4.538   0.049  -5.325  0.00  0.00     0.053 C 
ATOM      9  C   UNL d   1       3.530  -1.016  -5.726  0.00  0.00     0.018 C 
ENDBRANCH   1   8
TORSDOF 1
ENDMDL
