MODEL 1
REMARK minimizedAffinity 24.8397903
REMARK minimizedRMSD -1
REMARK  1 active torsions:
REMARK  status: ('A' for Active; 'I' for Inactive)
REMARK    1  A    between atoms: C1_2  and  C2_3 
ROOT
ATOM      1  C2  UNL d   1      -4.244  -5.531  -0.626  0.00  0.00    -0.073 A 
ATOM      2  C3  UNL d   1      -5.469  -6.000  -1.115  0.00  0.00    -0.002 A 
ATOM      3  C4  UNL d   1      -5.939  -5.578  -2.360  0.00  0.00     0.004 A 
ATOM      4  C5  UNL d   1      -5.187  -4.690  -3.129  0.00  0.00    -0.004 A 
ATOM      5  C6  UNL d   1      -3.956  -4.219  -2.663  0.00  0.00    -0.075 A 
ATOM      6  C7  UNL d   1      -3.137  -3.262  -3.478  0.00  0.00     0.076 C 
ATOM      7  C8  UNL d   1      -3.492  -4.646  -1.411  0.00  0.00     0.001 A 
ENDROOT
BRANCH   1   8
ATOM      8  C1  UNL d   1      -3.730  -5.989   0.714  0.00  0.00     0.053 C 
ATOM      9  C   UNL d   1      -2.357  -5.412   1.025  0.00  0.00     0.018 C 
ENDBRANCH   1   8
TORSDOF 1
ENDMDL
