MODEL 1
REMARK minimizedAffinity 7.20085287
REMARK minimizedRMSD -1
REMARK  1 active torsions:
REMARK  status: ('A' for Active; 'I' for Inactive)
REMARK    1  A    between atoms: C1_2  and  C2_3 
ROOT
ATOM      1  C2  UNL d   1       3.482   0.582   1.822  0.00  0.00    -0.073 A 
ATOM      2  C3  UNL d   1       4.500  -0.377   1.879  0.00  0.00    -0.002 A 
ATOM      3  C4  UNL d   1       5.751  -0.111   1.321  0.00  0.00     0.004 A 
ATOM      4  C5  UNL d   1       6.000   1.117   0.708  0.00  0.00    -0.004 A 
ATOM      5  C6  UNL d   1       4.999   2.092   0.652  0.00  0.00    -0.075 A 
ATOM      6  C7  UNL d   1       5.250   3.418  -0.006  0.00  0.00     0.076 C 
ATOM      7  C8  UNL d   1       3.745   1.817   1.212  0.00  0.00     0.001 A 
ENDROOT
BRANCH   1   8
ATOM      8  C1  UNL d   1       2.132   0.301   2.429  0.00  0.00     0.053 C 
ATOM      9  C   UNL d   1       1.162   1.454   2.218  0.00  0.00     0.018 C 
ENDBRANCH   1   8
TORSDOF 1
ENDMDL
