MODEL 1
REMARK minimizedAffinity 7.71900082
REMARK minimizedRMSD -1
REMARK  1 active torsions:
REMARK  status: ('A' for Active; 'I' for Inactive)
REMARK    1  A    between atoms: C1_2  and  C2_3 
ROOT
ATOM      1  C2  UNL d   1      -0.599  -2.811  -1.161  0.00  0.00    -0.073 A 
ATOM      2  C3  UNL d   1      -1.842  -2.402  -1.658  0.00  0.00    -0.002 A 
ATOM      3  C4  UNL d   1      -2.054  -2.307  -3.034  0.00  0.00     0.004 A 
ATOM      4  C5  UNL d   1      -1.030  -2.626  -3.926  0.00  0.00    -0.004 A 
ATOM      5  C6  UNL d   1       0.215  -3.047  -3.449  0.00  0.00    -0.075 A 
ATOM      6  C7  UNL d   1       1.328  -3.391  -4.395  0.00  0.00     0.076 C 
ATOM      7  C8  UNL d   1       0.421  -3.137  -2.066  0.00  0.00     0.001 A 
ENDROOT
BRANCH   1   8
ATOM      8  C1  UNL d   1      -0.367  -2.921   0.323  0.00  0.00     0.053 C 
ATOM      9  C   UNL d   1      -1.013  -4.166   0.910  0.00  0.00     0.018 C 
ENDBRANCH   1   8
TORSDOF 1
ENDMDL
