MODEL 1
REMARK minimizedAffinity 19.2030125
REMARK minimizedRMSD -1
REMARK  1 active torsions:
REMARK  status: ('A' for Active; 'I' for Inactive)
REMARK    1  A    between atoms: C1_2  and  C2_3 
ROOT
ATOM      1  C2  UNL d   1      -1.871  -3.281   0.673  0.00  0.00    -0.073 A 
ATOM      2  C3  UNL d   1      -0.822  -3.894   1.367  0.00  0.00    -0.002 A 
ATOM      3  C4  UNL d   1      -0.978  -5.177   1.892  0.00  0.00     0.004 A 
ATOM      4  C5  UNL d   1      -2.180  -5.863   1.723  0.00  0.00    -0.004 A 
ATOM      5  C6  UNL d   1      -3.237  -5.273   1.022  0.00  0.00    -0.075 A 
ATOM      6  C7  UNL d   1      -4.537  -5.997   0.834  0.00  0.00     0.076 C 
ATOM      7  C8  UNL d   1      -3.073  -3.983   0.500  0.00  0.00     0.001 A 
ENDROOT
BRANCH   1   8
ATOM      8  C1  UNL d   1      -1.705  -1.898   0.098  0.00  0.00     0.053 C 
ATOM      9  C   UNL d   1      -1.981  -1.865  -1.397  0.00  0.00     0.018 C 
ENDBRANCH   1   8
TORSDOF 1
ENDMDL
