MODEL 1
REMARK minimizedAffinity -2.45716453
REMARK minimizedRMSD -1
REMARK  1 active torsions:
REMARK  status: ('A' for Active; 'I' for Inactive)
REMARK    1  A    between atoms: C1_2  and  C2_3 
ROOT
ATOM      1  C2  UNL d   1      -0.436   0.010   0.455  0.00  0.00    -0.076 A 
ATOM      2  C3  UNL d   1       0.013  -1.163   1.086  0.00  0.00     0.004 A 
ATOM      3  C4  UNL d   1       1.214  -1.764   0.714  0.00  0.00    -0.003 A 
ATOM      4  C5  UNL d   1       1.987  -1.201  -0.296  0.00  0.00     0.000 A 
ATOM      5  C6  UNL d   1       1.566  -0.027  -0.921  0.00  0.00     0.000 A 
ATOM      6  C7  UNL d   1       0.366   0.600  -0.546  0.00  0.00    -0.073 A 
ATOM      7  C8  UNL d   1      -0.043   1.860  -1.258  0.00  0.00     0.078 C 
ENDROOT
BRANCH   1   8
ATOM      8  C1  UNL d   1      -1.760   0.602   0.882  0.00  0.00     0.053 C 
ATOM      9  C   UNL d   1      -1.732   1.124   2.310  0.00  0.00     0.018 C 
ENDBRANCH   1   8
TORSDOF 1
ENDMDL
