MODEL 1
REMARK minimizedAffinity -4.72361183
REMARK minimizedRMSD -1
REMARK  1 active torsions:
REMARK  status: ('A' for Active; 'I' for Inactive)
REMARK    1  A    between atoms: C1_2  and  C2_3 
ROOT
ATOM      1  C2  UNL d   1       0.294  -0.145   0.070  0.00  0.00    -0.076 A 
ATOM      2  C3  UNL d   1       1.001   1.027  -0.253  0.00  0.00     0.004 A 
ATOM      3  C4  UNL d   1       2.202   0.968  -0.960  0.00  0.00    -0.003 A 
ATOM      4  C5  UNL d   1       2.714  -0.263  -1.355  0.00  0.00     0.000 A 
ATOM      5  C6  UNL d   1       2.016  -1.433  -1.059  0.00  0.00     0.000 A 
ATOM      6  C7  UNL d   1       0.797  -1.391  -0.362  0.00  0.00    -0.073 A 
ATOM      7  C8  UNL d   1       0.090  -2.685  -0.064  0.00  0.00     0.078 C 
ENDROOT
BRANCH   1   8
ATOM      8  C1  UNL d   1      -0.988  -0.021   0.861  0.00  0.00     0.053 C 
ATOM      9  C   UNL d   1      -1.311   1.419   1.227  0.00  0.00     0.018 C 
ENDBRANCH   1   8
TORSDOF 1
ENDMDL
