MODEL 1
REMARK minimizedAffinity -4.70251799
REMARK minimizedRMSD -1
REMARK  1 active torsions:
REMARK  status: ('A' for Active; 'I' for Inactive)
REMARK    1  A    between atoms: C1_2  and  C2_3 
ROOT
ATOM      1  C2  UNL d   1       0.498   0.167  -0.969  0.00  0.00    -0.076 A 
ATOM      2  C3  UNL d   1       0.171   1.404  -1.550  0.00  0.00     0.004 A 
ATOM      3  C4  UNL d   1       0.946   1.943  -2.575  0.00  0.00    -0.003 A 
ATOM      4  C5  UNL d   1       2.060   1.253  -3.038  0.00  0.00     0.000 A 
ATOM      5  C6  UNL d   1       2.390   0.016  -2.486  0.00  0.00     0.000 A 
ATOM      6  C7  UNL d   1       1.610  -0.549  -1.462  0.00  0.00    -0.073 A 
ATOM      7  C8  UNL d   1       2.016  -1.884  -0.899  0.00  0.00     0.078 C 
ENDROOT
BRANCH   1   8
ATOM      8  C1  UNL d   1      -0.363  -0.355   0.159  0.00  0.00     0.053 C 
ATOM      9  C   UNL d   1      -1.415   0.650   0.602  0.00  0.00     0.018 C 
ENDBRANCH   1   8
TORSDOF 1
ENDMDL
