MODEL 1
REMARK minimizedAffinity -5.92607594
REMARK minimizedRMSD -1
REMARK  1 active torsions:
REMARK  status: ('A' for Active; 'I' for Inactive)
REMARK    1  A    between atoms: C1_2  and  C2_3 
ROOT
ATOM      1  C2  UNL d   1       0.716   0.221  -0.934  0.00  0.00    -0.076 A 
ATOM      2  C3  UNL d   1       0.723  -1.180  -0.818  0.00  0.00     0.004 A 
ATOM      3  C4  UNL d   1       1.768  -1.938  -1.344  0.00  0.00    -0.003 A 
ATOM      4  C5  UNL d   1       2.823  -1.307  -1.994  0.00  0.00     0.000 A 
ATOM      5  C6  UNL d   1       2.841   0.083  -2.103  0.00  0.00     0.000 A 
ATOM      6  C7  UNL d   1       1.803   0.863  -1.564  0.00  0.00    -0.073 A 
ATOM      7  C8  UNL d   1       1.871   2.358  -1.716  0.00  0.00     0.078 C 
ENDROOT
BRANCH   1   8
ATOM      8  C1  UNL d   1      -0.457   0.989  -0.368  0.00  0.00     0.053 C 
ATOM      9  C   UNL d   1      -1.540   0.075   0.184  0.00  0.00     0.018 C 
ENDBRANCH   1   8
TORSDOF 1
ENDMDL
