MODEL 1
REMARK minimizedAffinity -3.78907418
REMARK minimizedRMSD -1
REMARK  1 active torsions:
REMARK  status: ('A' for Active; 'I' for Inactive)
REMARK    1  A    between atoms: C1_2  and  C2_3 
ROOT
ATOM      1  C2  UNL d   1       1.026  -0.067  -0.916  0.00  0.00    -0.076 A 
ATOM      2  C3  UNL d   1       0.993   1.263  -1.370  0.00  0.00     0.004 A 
ATOM      3  C4  UNL d   1      -0.109   2.079  -1.122  0.00  0.00    -0.003 A 
ATOM      4  C5  UNL d   1      -1.197   1.578  -0.415  0.00  0.00     0.000 A 
ATOM      5  C6  UNL d   1      -1.173   0.267   0.059  0.00  0.00     0.000 A 
ATOM      6  C7  UNL d   1      -0.063  -0.564  -0.168  0.00  0.00    -0.073 A 
ATOM      7  C8  UNL d   1      -0.094  -1.972   0.361  0.00  0.00     0.078 C 
ENDROOT
BRANCH   1   8
ATOM      8  C1  UNL d   1       2.238  -0.913  -1.238  0.00  0.00     0.053 C 
ATOM      9  C   UNL d   1       3.486  -0.077  -1.473  0.00  0.00     0.018 C 
ENDBRANCH   1   8
TORSDOF 1
ENDMDL
