MODEL 1
REMARK minimizedAffinity -2.83183122
REMARK minimizedRMSD -1
REMARK  1 active torsions:
REMARK  status: ('A' for Active; 'I' for Inactive)
REMARK    1  A    between atoms: C1_2  and  C2_3 
ROOT
ATOM      1  C2  UNL d   1       1.429  -1.504  -1.321  0.00  0.00    -0.076 A 
ATOM      2  C3  UNL d   1       2.403  -0.533  -1.614  0.00  0.00     0.004 A 
ATOM      3  C4  UNL d   1       2.360   0.728  -1.020  0.00  0.00    -0.003 A 
ATOM      4  C5  UNL d   1       1.345   1.037  -0.123  0.00  0.00     0.000 A 
ATOM      5  C6  UNL d   1       0.381   0.080   0.194  0.00  0.00     0.000 A 
ATOM      6  C7  UNL d   1       0.418  -1.201  -0.384  0.00  0.00    -0.073 A 
ATOM      7  C8  UNL d   1      -0.650  -2.192  -0.011  0.00  0.00     0.078 C 
ENDROOT
BRANCH   1   8
ATOM      8  C1  UNL d   1       1.511  -2.844  -2.016  0.00  0.00     0.053 C 
ATOM      9  C   UNL d   1       1.216  -2.747  -3.505  0.00  0.00     0.018 C 
ENDBRANCH   1   8
TORSDOF 1
ENDMDL
