MODEL 1
REMARK minimizedAffinity -4.716537
REMARK minimizedRMSD -1
REMARK  1 active torsions:
REMARK  status: ('A' for Active; 'I' for Inactive)
REMARK    1  A    between atoms: C1_2  and  C2_3 
ROOT
ATOM      1  C2  UNL d   1      -0.918   0.230   0.570  0.00  0.00    -0.076 A 
ATOM      2  C3  UNL d   1       0.184  -0.559   0.944  0.00  0.00     0.004 A 
ATOM      3  C4  UNL d   1       1.377  -0.512   0.225  0.00  0.00    -0.003 A 
ATOM      4  C5  UNL d   1       1.488   0.326  -0.879  0.00  0.00     0.000 A 
ATOM      5  C6  UNL d   1       0.411   1.129  -1.253  0.00  0.00     0.000 A 
ATOM      6  C7  UNL d   1      -0.794   1.105  -0.530  0.00  0.00    -0.073 A 
ATOM      7  C8  UNL d   1      -1.925   1.987  -0.982  0.00  0.00     0.078 C 
ENDROOT
BRANCH   1   8
ATOM      8  C1  UNL d   1      -2.195   0.116   1.372  0.00  0.00     0.053 C 
ATOM      9  C   UNL d   1      -2.137   0.897   2.675  0.00  0.00     0.018 C 
ENDBRANCH   1   8
TORSDOF 1
ENDMDL
