MODEL 1
REMARK minimizedAffinity -3.96281171
REMARK minimizedRMSD -1
REMARK  1 active torsions:
REMARK  status: ('A' for Active; 'I' for Inactive)
REMARK    1  A    between atoms: C1_2  and  C2_3 
ROOT
ATOM      1  C2  UNL d   1       0.185   0.028  -0.226  0.00  0.00    -0.076 A 
ATOM      2  C3  UNL d   1       1.069   1.082  -0.515  0.00  0.00     0.004 A 
ATOM      3  C4  UNL d   1       2.313   0.837  -1.092  0.00  0.00    -0.003 A 
ATOM      4  C5  UNL d   1       2.695  -0.466  -1.391  0.00  0.00     0.000 A 
ATOM      5  C6  UNL d   1       1.823  -1.523  -1.127  0.00  0.00     0.000 A 
ATOM      6  C7  UNL d   1       0.558  -1.292  -0.561  0.00  0.00    -0.073 A 
ATOM      7  C8  UNL d   1      -0.339  -2.469  -0.292  0.00  0.00     0.078 C 
ENDROOT
BRANCH   1   8
ATOM      8  C1  UNL d   1      -1.141   0.351   0.425  0.00  0.00     0.053 C 
ATOM      9  C   UNL d   1      -1.078   0.275   1.943  0.00  0.00     0.018 C 
ENDBRANCH   1   8
TORSDOF 1
ENDMDL
