MODEL 1
REMARK minimizedAffinity -2.24109817
REMARK minimizedRMSD -1
REMARK  1 active torsions:
REMARK  status: ('A' for Active; 'I' for Inactive)
REMARK    1  A    between atoms: C1_2  and  C2_3 
ROOT
ATOM      1  C2  UNL d   1      -0.566   0.828   0.744  0.00  0.00    -0.076 A 
ATOM      2  C3  UNL d   1      -0.698   1.920   1.619  0.00  0.00     0.004 A 
ATOM      3  C4  UNL d   1      -1.568   1.868   2.706  0.00  0.00    -0.003 A 
ATOM      4  C5  UNL d   1      -2.321   0.721   2.937  0.00  0.00     0.000 A 
ATOM      5  C6  UNL d   1      -2.190  -0.378   2.089  0.00  0.00     0.000 A 
ATOM      6  C7  UNL d   1      -1.305  -0.348   0.998  0.00  0.00    -0.073 A 
ATOM      7  C8  UNL d   1      -1.208  -1.560   0.113  0.00  0.00     0.078 C 
ENDROOT
BRANCH   1   8
ATOM      8  C1  UNL d   1       0.373   0.952  -0.434  0.00  0.00     0.053 C 
ATOM      9  C   UNL d   1       1.741   0.349  -0.155  0.00  0.00     0.018 C 
ENDBRANCH   1   8
TORSDOF 1
ENDMDL
