MODEL 1
REMARK minimizedAffinity -4.81870079
REMARK minimizedRMSD -1
REMARK  1 active torsions:
REMARK  status: ('A' for Active; 'I' for Inactive)
REMARK    1  A    between atoms: C1_2  and  C2_3 
ROOT
ATOM      1  C2  UNL d   1       0.548  -1.233  -0.269  0.00  0.00    -0.076 A 
ATOM      2  C3  UNL d   1       1.644  -1.430  -1.128  0.00  0.00     0.004 A 
ATOM      3  C4  UNL d   1       2.420  -0.355  -1.558  0.00  0.00    -0.003 A 
ATOM      4  C5  UNL d   1       2.113   0.934  -1.137  0.00  0.00     0.000 A 
ATOM      5  C6  UNL d   1       1.041   1.146  -0.271  0.00  0.00     0.000 A 
ATOM      6  C7  UNL d   1       0.259   0.071   0.186  0.00  0.00    -0.073 A 
ATOM      7  C8  UNL d   1      -0.890   0.358   1.114  0.00  0.00     0.078 C 
ENDROOT
BRANCH   1   8
ATOM      8  C1  UNL d   1      -0.273  -2.433   0.143  0.00  0.00     0.053 C 
ATOM      9  C   UNL d   1      -1.540  -2.584  -0.685  0.00  0.00     0.018 C 
ENDBRANCH   1   8
TORSDOF 1
ENDMDL
